MODEL        1
REMARK 921   NORMALIZED FREE ENERGY PREDICTED BY IDOCK:   -8.94 KCAL/MOL
REMARK 922        TOTAL FREE ENERGY PREDICTED BY IDOCK:  -12.02 KCAL/MOL
REMARK 923 INTER-LIGAND FREE ENERGY PREDICTED BY IDOCK:  -11.55 KCAL/MOL
REMARK 924 INTRA-LIGAND FREE ENERGY PREDICTED BY IDOCK:   -0.46 KCAL/MOL
REMARK 927      BINDING AFFINITY PREDICTED BY RF-SCORE:    0.00 PKD
ROOT
HETATM    1  C   UNL     1     -11.940  12.687  63.726  1.00  0.00    -0.510 C  
HETATM    2  N   UNL     1     -11.000  12.734  64.846  1.00  0.00    -0.284 NA 
ENDROOT
BRANCH   2   3
HETATM    3  C   UNL     1     -10.620  14.025  65.320  1.00  0.00    -0.363 A  
HETATM    4  C   UNL     1      -9.036  15.295  66.854  1.00  0.00    -0.274 A  
HETATM    5  C   UNL     1      -8.269  18.316  67.415  1.00  0.00    -0.237 C  
HETATM    6  C   UNL     1     -11.219  15.205  64.805  1.00  0.00    -0.396 A  
HETATM    7  C   UNL     1     -10.692  16.409  65.310  1.00  0.00    -0.295 A  
HETATM    8  C   UNL     1      -9.639  16.407  66.286  1.00  0.00    -0.338 A  
HETATM    9  C   UNL     1      -9.308  17.716  66.541  1.00  0.00    -0.272 A  
HETATM   10  N   UNL     1     -11.022  17.678  65.022  1.00  0.00    -0.733 NA 
HETATM   11  N   UNL     1     -10.175  18.436  65.752  1.00  0.00    -0.578 NA 
HETATM   12  C   UNL     1     -10.253  19.874  65.633  1.00  0.00    -0.286 C  
HETATM   13  C   UNL     1      -9.583  14.103  66.326  1.00  0.00    -0.295 A  
ENDBRANCH   2   3
BRANCH   2  14
HETATM   14  C   UNL     1     -10.715  11.521  65.509  1.00  0.00    -0.272 A  
HETATM   15  C   UNL     1     -11.017  10.182  67.389  1.00  0.00    -0.229 A  
HETATM   16  N   UNL     1     -10.160   9.248  66.965  1.00  0.00    -0.227 NA 
HETATM   17  C   UNL     1      -9.610   9.460  65.759  1.00  0.00    -0.271 A  
HETATM   18  C   UNL     1      -9.859  10.571  64.987  1.00  0.00    -0.369 A  
HETATM   19  N   UNL     1     -11.289  11.304  66.706  1.00  0.00    -0.379 NA 
BRANCH  15  20
HETATM   20  N   UNL     1     -11.621   9.971  68.627  1.00  0.00    -0.510 NA 
HETATM   21  H   UNL     1     -11.776   8.998  68.888  1.00  0.00     0.000 HD 
BRANCH  20  22
HETATM   22  C   UNL     1     -12.041  10.930  69.559  1.00  0.00    -0.309 A  
HETATM   23  C   UNL     1     -12.590  10.510  70.772  1.00  0.00    -0.474 A  
HETATM   24  C   UNL     1     -12.937  11.437  71.760  1.00  0.00    -0.519 A  
HETATM   25  C   UNL     1     -12.759  12.819  71.564  1.00  0.00    -0.330 A  
HETATM   26  C   UNL     1     -12.243  13.247  70.328  1.00  0.00    -0.321 A  
HETATM   27  C   UNL     1     -13.137  13.750  72.677  1.00  0.00    -0.489 C  
HETATM   28  C   UNL     1     -11.883  12.305  69.349  1.00  0.00    -0.370 A  
BRANCH  26  29
HETATM   29  S   UNL     1     -12.065  14.970  69.878  1.00  0.00    -0.330 S  
HETATM   30  O   UNL     1     -10.686  15.362  70.023  1.00  0.00    -0.273 OA 
HETATM   31  O   UNL     1     -13.135  15.719  70.500  1.00  0.00    -0.461 OA 
HETATM   32  N   UNL     1     -12.407  14.932  68.238  1.00  0.00    -0.556 N  
HETATM   33  H1  UNL     1     -12.305  15.914  67.981  1.00  0.00     0.000 HD 
HETATM   34  H2  UNL     1     -12.652  14.135  67.650  1.00  0.00     0.000 HD 
ENDBRANCH  26  29
ENDBRANCH  20  22
ENDBRANCH  15  20
ENDBRANCH   2  14
TORSDOF 5
ENDMDL
MODEL        2
REMARK 921   NORMALIZED FREE ENERGY PREDICTED BY IDOCK:   -8.55 KCAL/MOL
REMARK 922        TOTAL FREE ENERGY PREDICTED BY IDOCK:  -11.51 KCAL/MOL
REMARK 923 INTER-LIGAND FREE ENERGY PREDICTED BY IDOCK:  -10.56 KCAL/MOL
REMARK 924 INTRA-LIGAND FREE ENERGY PREDICTED BY IDOCK:   -0.94 KCAL/MOL
REMARK 927      BINDING AFFINITY PREDICTED BY RF-SCORE:    0.00 PKD
ROOT
HETATM    1  C   UNL     1     -12.219   9.709  71.258  1.00  0.00    -0.363 C  
HETATM    2  N   UNL     1     -11.935  10.924  70.495  1.00  0.00    -0.343 NA 
ENDROOT
BRANCH   2   3
HETATM    3  C   UNL     1     -11.318  10.759  69.220  1.00  0.00    -0.286 A  
HETATM    4  C   UNL     1      -9.641   9.389  67.882  1.00  0.00    -0.155 A  
HETATM    5  C   UNL     1      -8.740   9.130  64.857  1.00  0.00    -0.215 C  
HETATM    6  C   UNL     1     -11.700  11.553  68.106  1.00  0.00    -0.357 A  
HETATM    7  C   UNL     1     -11.060  11.229  66.895  1.00  0.00    -0.275 A  
HETATM    8  C   UNL     1     -10.084  10.177  66.830  1.00  0.00    -0.279 A  
HETATM    9  C   UNL     1      -9.682  10.066  65.520  1.00  0.00    -0.289 A  
HETATM   10  N   UNL     1     -11.206  11.770  65.675  1.00  0.00    -0.299 NA 
HETATM   11  N   UNL     1     -10.391  11.051  64.873  1.00  0.00    -0.305 NA 
HETATM   12  C   UNL     1     -10.348  11.370  63.464  1.00  0.00    -0.423 C  
HETATM   13  C   UNL     1     -10.303   9.736  69.082  1.00  0.00    -0.225 A  
ENDBRANCH   2   3
BRANCH   2  14
HETATM   14  C   UNL     1     -12.485  12.135  70.969  1.00  0.00    -0.269 A  
HETATM   15  C   UNL     1     -12.785  14.422  70.655  1.00  0.00    -0.357 A  
HETATM   16  N   UNL     1     -13.407  14.586  71.826  1.00  0.00    -0.340 NA 
HETATM   17  C   UNL     1     -13.597  13.473  72.552  1.00  0.00    -0.569 A  
HETATM   18  C   UNL     1     -13.167  12.223  72.167  1.00  0.00    -0.466 A  
HETATM   19  N   UNL     1     -12.312  13.243  70.225  1.00  0.00    -0.298 NA 
BRANCH  15  20
HETATM   20  N   UNL     1     -12.598  15.560  69.873  1.00  0.00    -0.599 NA 
HETATM   21  H   UNL     1     -13.304  16.289  69.970  1.00  0.00     0.000 HD 
BRANCH  20  22
HETATM   22  C   UNL     1     -11.560  15.829  68.969  1.00  0.00    -0.400 A  
HETATM   23  C   UNL     1     -10.348  16.328  69.448  1.00  0.00    -0.278 A  
HETATM   24  C   UNL     1      -9.263  16.522  68.587  1.00  0.00    -0.238 A  
HETATM   25  C   UNL     1      -9.358  16.236  67.213  1.00  0.00    -0.231 A  
HETATM   26  C   UNL     1     -10.590  15.770  66.721  1.00  0.00    -0.309 A  
HETATM   27  C   UNL     1      -8.147  16.453  66.355  1.00  0.00    -0.357 C  
HETATM   28  C   UNL     1     -11.668  15.563  67.599  1.00  0.00    -0.053 A  
BRANCH  26  29
HETATM   29  S   UNL     1     -10.909  15.472  64.986  1.00  0.00    -0.424 S  
HETATM   30  O   UNL     1      -9.916  14.566  64.466  1.00  0.00    -0.116 OA 
HETATM   31  O   UNL     1     -11.187  16.739  64.346  1.00  0.00    -1.112 OA 
HETATM   32  N   UNL     1     -12.365  14.642  65.043  1.00  0.00    -0.336 N  
HETATM   33  H1  UNL     1     -12.547  14.472  64.054  1.00  0.00     0.000 HD 
HETATM   34  H2  UNL     1     -12.923  14.378  65.855  1.00  0.00     0.000 HD 
ENDBRANCH  26  29
ENDBRANCH  20  22
ENDBRANCH  15  20
ENDBRANCH   2  14
TORSDOF 5
ENDMDL
MODEL        3
REMARK 921   NORMALIZED FREE ENERGY PREDICTED BY IDOCK:   -8.54 KCAL/MOL
REMARK 922        TOTAL FREE ENERGY PREDICTED BY IDOCK:  -11.50 KCAL/MOL
REMARK 923 INTER-LIGAND FREE ENERGY PREDICTED BY IDOCK:  -10.48 KCAL/MOL
REMARK 924 INTRA-LIGAND FREE ENERGY PREDICTED BY IDOCK:   -1.02 KCAL/MOL
REMARK 927      BINDING AFFINITY PREDICTED BY RF-SCORE:    0.00 PKD
ROOT
HETATM    1  C   UNL     1     -10.693  16.552  69.797  1.00  0.00    -0.298 C  
HETATM    2  N   UNL     1     -11.371  15.259  69.703  1.00  0.00    -0.268 NA 
ENDROOT
BRANCH   2   3
HETATM    3  C   UNL     1     -11.198  14.521  68.495  1.00  0.00    -0.266 A  
HETATM    4  C   UNL     1      -9.633  12.989  67.199  1.00  0.00    -0.230 A  
HETATM    5  C   UNL     1      -9.753  11.237  64.564  1.00  0.00    -0.293 C  
HETATM    6  C   UNL     1     -12.228  14.450  67.520  1.00  0.00    -0.210 A  
HETATM    7  C   UNL     1     -11.946  13.626  66.415  1.00  0.00    -0.426 A  
HETATM    8  C   UNL     1     -10.690  12.936  66.304  1.00  0.00    -0.292 A  
HETATM    9  C   UNL     1     -10.733  12.181  65.157  1.00  0.00    -0.292 A  
HETATM   10  N   UNL     1     -12.702  13.337  65.344  1.00  0.00    -0.570 NA 
HETATM   11  N   UNL     1     -11.968  12.464  64.620  1.00  0.00    -0.386 NA 
HETATM   12  C   UNL     1     -12.531  11.926  63.403  1.00  0.00    -0.463 C  
HETATM   13  C   UNL     1      -9.946  13.821  68.298  1.00  0.00    -0.243 A  
ENDBRANCH   2   3
BRANCH   2  14
HETATM   14  C   UNL     1     -11.954  14.743  70.881  1.00  0.00    -0.324 A  
HETATM   15  C   UNL     1     -13.071  12.987  71.923  1.00  0.00    -0.384 A  
HETATM   16  N   UNL     1     -13.224  13.654  73.071  1.00  0.00    -0.475 NA 
HETATM   17  C   UNL     1     -12.682  14.882  73.113  1.00  0.00    -0.489 A  
HETATM   18  C   UNL     1     -12.030  15.469  72.054  1.00  0.00    -0.518 A  
HETATM   19  N   UNL     1     -12.473  13.502  70.839  1.00  0.00    -0.371 NA 
BRANCH  15  20
HETATM   20  N   UNL     1     -13.603  11.700  71.864  1.00  0.00    -0.180 NA 
HETATM   21  H   UNL     1     -14.621  11.639  71.835  1.00  0.00     0.000 HD 
BRANCH  20  22
HETATM   22  C   UNL     1     -12.915  10.479  71.839  1.00  0.00    -0.447 A  
HETATM   23  C   UNL     1     -13.511   9.346  72.395  1.00  0.00    -0.506 A  
HETATM   24  C   UNL     1     -12.892   8.095  72.308  1.00  0.00    -0.263 A  
HETATM   25  C   UNL     1     -11.647   7.936  71.672  1.00  0.00    -0.311 A  
HETATM   26  C   UNL     1     -11.026   9.082  71.146  1.00  0.00    -0.301 A  
HETATM   27  C   UNL     1     -11.055   6.560  71.603  1.00  0.00    -0.302 C  
HETATM   28  C   UNL     1     -11.665  10.331  71.225  1.00  0.00    -0.378 A  
BRANCH  26  29
HETATM   29  S   UNL     1      -9.394   9.069  70.412  1.00  0.00    -0.228 S  
HETATM   30  O   UNL     1      -9.387   8.180  69.278  1.00  0.00    -0.151 OA 
HETATM   31  O   UNL     1      -8.416   8.954  71.471  1.00  0.00    -0.239 OA 
HETATM   32  N   UNL     1      -9.271  10.634  69.824  1.00  0.00    -0.371 N  
HETATM   33  H1  UNL     1      -8.341  10.626  69.405  1.00  0.00     0.000 HD 
HETATM   34  H2  UNL     1      -9.949  11.394  69.872  1.00  0.00     0.000 HD 
ENDBRANCH  26  29
ENDBRANCH  20  22
ENDBRANCH  15  20
ENDBRANCH   2  14
TORSDOF 5
ENDMDL
MODEL        4
REMARK 921   NORMALIZED FREE ENERGY PREDICTED BY IDOCK:   -8.44 KCAL/MOL
REMARK 922        TOTAL FREE ENERGY PREDICTED BY IDOCK:  -11.37 KCAL/MOL
REMARK 923 INTER-LIGAND FREE ENERGY PREDICTED BY IDOCK:  -10.68 KCAL/MOL
REMARK 924 INTRA-LIGAND FREE ENERGY PREDICTED BY IDOCK:   -0.69 KCAL/MOL
REMARK 927      BINDING AFFINITY PREDICTED BY RF-SCORE:    0.00 PKD
ROOT
HETATM    1  C   UNL     1     -10.086  15.879  69.656  1.00  0.00    -0.271 C  
HETATM    2  N   UNL     1     -11.120  14.847  69.576  1.00  0.00    -0.271 NA 
ENDROOT
BRANCH   2   3
HETATM    3  C   UNL     1     -11.196  14.097  68.366  1.00  0.00    -0.265 A  
HETATM    4  C   UNL     1     -12.453  13.811  66.171  1.00  0.00    -0.466 A  
HETATM    5  C   UNL     1     -12.102  12.160  63.491  1.00  0.00    -0.649 C  
HETATM    6  C   UNL     1     -10.237  13.096  68.056  1.00  0.00    -0.233 A  
HETATM    7  C   UNL     1     -10.394  12.492  66.795  1.00  0.00    -0.226 A  
HETATM    8  C   UNL     1     -11.466  12.871  65.917  1.00  0.00    -0.387 A  
HETATM    9  C   UNL     1     -11.324  12.150  64.756  1.00  0.00    -0.325 A  
HETATM   10  N   UNL     1      -9.658  11.537  66.203  1.00  0.00    -0.218 NA 
HETATM   11  N   UNL     1     -10.220  11.364  64.987  1.00  0.00    -0.265 NA 
HETATM   12  C   UNL     1      -9.625  10.410  64.078  1.00  0.00    -0.317 C  
HETATM   13  C   UNL     1     -12.268  14.402  67.442  1.00  0.00    -0.230 A  
ENDBRANCH   2   3
BRANCH   2  14
HETATM   14  C   UNL     1     -11.810  14.524  70.765  1.00  0.00    -0.304 A  
HETATM   15  C   UNL     1     -13.070  12.969  71.953  1.00  0.00    -0.384 A  
HETATM   16  N   UNL     1     -13.282  13.799  72.979  1.00  0.00    -0.516 NA 
HETATM   17  C   UNL     1     -12.697  15.004  72.890  1.00  0.00    -0.425 A  
HETATM   18  C   UNL     1     -11.944  15.414  71.813  1.00  0.00    -0.473 A  
HETATM   19  N   UNL     1     -12.373  13.305  70.858  1.00  0.00    -0.368 NA 
BRANCH  15  20
HETATM   20  N   UNL     1     -13.647  11.703  72.035  1.00  0.00    -0.334 NA 
HETATM   21  H   UNL     1     -14.619  11.674  72.341  1.00  0.00     0.000 HD 
BRANCH  20  22
HETATM   22  C   UNL     1     -13.057  10.463  71.750  1.00  0.00    -0.462 A  
HETATM   23  C   UNL     1     -13.573   9.308  72.340  1.00  0.00    -0.527 A  
HETATM   24  C   UNL     1     -13.068   8.047  72.009  1.00  0.00    -0.289 A  
HETATM   25  C   UNL     1     -12.018   7.898  71.084  1.00  0.00    -0.304 A  
HETATM   26  C   UNL     1     -11.470   9.063  70.517  1.00  0.00    -0.212 A  
HETATM   27  C   UNL     1     -11.542   6.512  70.766  1.00  0.00    -0.437 C  
HETATM   28  C   UNL     1     -11.998  10.323  70.846  1.00  0.00    -0.473 A  
BRANCH  26  29
HETATM   29  S   UNL     1     -10.060   9.053  69.416  1.00  0.00    -0.205 S  
HETATM   30  O   UNL     1      -9.359   7.800  69.548  1.00  0.00    -0.150 OA 
HETATM   31  O   UNL     1      -9.374  10.321  69.539  1.00  0.00    -0.213 OA 
HETATM   32  N   UNL     1     -10.800   9.060  67.912  1.00  0.00    -0.480 N  
HETATM   33  H1  UNL     1      -9.995   9.054  67.285  1.00  0.00     0.000 HD 
HETATM   34  H2  UNL     1     -11.794   9.068  67.685  1.00  0.00     0.000 HD 
ENDBRANCH  26  29
ENDBRANCH  20  22
ENDBRANCH  15  20
ENDBRANCH   2  14
TORSDOF 5
ENDMDL
MODEL        5
REMARK 921   NORMALIZED FREE ENERGY PREDICTED BY IDOCK:   -8.32 KCAL/MOL
REMARK 922        TOTAL FREE ENERGY PREDICTED BY IDOCK:  -11.21 KCAL/MOL
REMARK 923 INTER-LIGAND FREE ENERGY PREDICTED BY IDOCK:  -11.19 KCAL/MOL
REMARK 924 INTRA-LIGAND FREE ENERGY PREDICTED BY IDOCK:   -0.02 KCAL/MOL
REMARK 927      BINDING AFFINITY PREDICTED BY RF-SCORE:    0.00 PKD
ROOT
HETATM    1  C   UNL     1     -10.798  16.543  69.763  1.00  0.00    -0.302 C  
HETATM    2  N   UNL     1     -11.595  15.332  69.566  1.00  0.00    -0.300 NA 
ENDROOT
BRANCH   2   3
HETATM    3  C   UNL     1     -11.370  14.595  68.366  1.00  0.00    -0.292 A  
HETATM    4  C   UNL     1      -9.697  13.168  67.084  1.00  0.00    -0.235 A  
HETATM    5  C   UNL     1      -9.691  11.380  64.470  1.00  0.00    -0.268 C  
HETATM    6  C   UNL     1     -12.394  14.435  67.395  1.00  0.00    -0.067 A  
HETATM    7  C   UNL     1     -12.053  13.621  66.299  1.00  0.00    -0.434 A  
HETATM    8  C   UNL     1     -10.750  13.025  66.193  1.00  0.00    -0.288 A  
HETATM    9  C   UNL     1     -10.738  12.255  65.055  1.00  0.00    -0.298 A  
HETATM   10  N   UNL     1     -12.788  13.263  65.234  1.00  0.00    -0.658 NA 
HETATM   11  N   UNL     1     -11.992  12.438  64.519  1.00  0.00    -0.389 NA 
HETATM   12  C   UNL     1     -12.516  11.845  63.309  1.00  0.00    -0.384 C  
HETATM   13  C   UNL     1     -10.070  13.988  68.174  1.00  0.00    -0.244 A  
ENDBRANCH   2   3
BRANCH   2  14
HETATM   14  C   UNL     1     -12.357  14.869  70.660  1.00  0.00    -0.344 A  
HETATM   15  C   UNL     1     -13.188  13.055  71.858  1.00  0.00    -0.430 A  
HETATM   16  N   UNL     1     -13.900  13.822  72.689  1.00  0.00    -0.740 NA 
HETATM   17  C   UNL     1     -13.788  15.147  72.506  1.00  0.00    -0.502 A  
HETATM   18  C   UNL     1     -13.025  15.723  71.516  1.00  0.00    -0.495 A  
HETATM   19  N   UNL     1     -12.445  13.540  70.853  1.00  0.00    -0.371 NA 
BRANCH  15  20
HETATM   20  N   UNL     1     -13.269  11.676  72.045  1.00  0.00    -0.495 NA 
HETATM   21  H   UNL     1     -13.944  11.359  72.740  1.00  0.00     0.000 HD 
BRANCH  20  22
HETATM   22  C   UNL     1     -12.538  10.670  71.397  1.00  0.00    -0.421 A  
HETATM   23  C   UNL     1     -11.905  10.956  70.186  1.00  0.00    -0.438 A  
HETATM   24  C   UNL     1     -11.095  10.004  69.559  1.00  0.00    -0.279 A  
HETATM   25  C   UNL     1     -10.900   8.727  70.116  1.00  0.00    -0.241 A  
HETATM   26  C   UNL     1     -11.567   8.423  71.315  1.00  0.00    -0.283 A  
HETATM   27  C   UNL     1     -10.002   7.766  69.394  1.00  0.00    -0.188 C  
HETATM   28  C   UNL     1     -12.366   9.393  71.944  1.00  0.00    -0.450 A  
BRANCH  26  29
HETATM   29  S   UNL     1     -11.517   6.810  72.089  1.00  0.00    -0.291 S  
HETATM   30  O   UNL     1     -10.946   6.930  73.407  1.00  0.00    -0.282 OA 
HETATM   31  O   UNL     1     -11.010   5.855  71.128  1.00  0.00    -0.270 OA 
HETATM   32  N   UNL     1     -13.148   6.470  72.277  1.00  0.00    -0.512 N  
HETATM   33  H1  UNL     1     -13.119   5.551  72.719  1.00  0.00     0.000 HD 
HETATM   34  H2  UNL     1     -13.957   7.035  72.018  1.00  0.00     0.000 HD 
ENDBRANCH  26  29
ENDBRANCH  20  22
ENDBRANCH  15  20
ENDBRANCH   2  14
TORSDOF 5
ENDMDL
MODEL        6
REMARK 921   NORMALIZED FREE ENERGY PREDICTED BY IDOCK:   -8.29 KCAL/MOL
REMARK 922        TOTAL FREE ENERGY PREDICTED BY IDOCK:  -11.18 KCAL/MOL
REMARK 923 INTER-LIGAND FREE ENERGY PREDICTED BY IDOCK:  -10.46 KCAL/MOL
REMARK 924 INTRA-LIGAND FREE ENERGY PREDICTED BY IDOCK:   -0.72 KCAL/MOL
REMARK 927      BINDING AFFINITY PREDICTED BY RF-SCORE:    0.00 PKD
ROOT
HETATM    1  C   UNL     1     -13.118  15.502  70.932  1.00  0.00    -0.448 C  
HETATM    2  N   UNL     1     -12.191  14.674  70.160  1.00  0.00    -0.318 NA 
ENDROOT
BRANCH   2   3
HETATM    3  C   UNL     1     -11.143  15.349  69.466  1.00  0.00    -0.284 A  
HETATM    4  C   UNL     1     -10.606  16.993  67.600  1.00  0.00    -0.333 A  
HETATM    5  C   UNL     1      -8.058  18.539  66.527  1.00  0.00    -0.299 C  
HETATM    6  C   UNL     1      -9.788  15.216  69.867  1.00  0.00    -0.072 A  
HETATM    7  C   UNL     1      -8.872  15.998  69.139  1.00  0.00    -0.245 A  
HETATM    8  C   UNL     1      -9.308  16.844  68.063  1.00  0.00    -0.238 A  
HETATM    9  C   UNL     1      -8.204  17.510  67.587  1.00  0.00    -0.215 A  
HETATM   10  N   UNL     1      -7.541  16.111  69.275  1.00  0.00    -0.232 NA 
HETATM   11  N   UNL     1      -7.170  17.028  68.355  1.00  0.00    -0.192 NA 
HETATM   12  C   UNL     1      -5.777  17.404  68.273  1.00  0.00    -0.148 C  
HETATM   13  C   UNL     1     -11.502  16.199  68.351  1.00  0.00    -0.298 A  
ENDBRANCH   2   3
BRANCH   2  14
HETATM   14  C   UNL     1     -12.266  13.275  70.335  1.00  0.00    -0.332 A  
HETATM   15  C   UNL     1     -11.904  11.154  69.449  1.00  0.00    -0.345 A  
HETATM   16  N   UNL     1     -12.455  10.531  70.494  1.00  0.00    -0.335 NA 
HETATM   17  C   UNL     1     -12.878  11.322  71.493  1.00  0.00    -0.414 A  
HETATM   18  C   UNL     1     -12.799  12.695  71.470  1.00  0.00    -0.368 A  
HETATM   19  N   UNL     1     -11.817  12.488  69.341  1.00  0.00    -0.316 NA 
BRANCH  15  20
HETATM   20  N   UNL     1     -11.434  10.352  68.410  1.00  0.00    -0.544 NA 
HETATM   21  H   UNL     1     -11.327   9.361  68.625  1.00  0.00     0.000 HD 
BRANCH  20  22
HETATM   22  C   UNL     1     -11.090  10.737  67.107  1.00  0.00    -0.227 A  
HETATM   23  C   UNL     1     -10.267   9.907  66.343  1.00  0.00    -0.292 A  
HETATM   24  C   UNL     1      -9.977  10.216  65.011  1.00  0.00    -0.375 A  
HETATM   25  C   UNL     1     -10.491  11.374  64.398  1.00  0.00    -0.388 A  
HETATM   26  C   UNL     1     -11.288  12.231  65.176  1.00  0.00    -0.329 A  
HETATM   27  C   UNL     1     -10.151  11.628  62.960  1.00  0.00    -0.311 C  
HETATM   28  C   UNL     1     -11.586  11.902  66.510  1.00  0.00    -0.328 A  
BRANCH  26  29
HETATM   29  S   UNL     1     -11.921  13.797  64.584  1.00  0.00    -0.437 S  
HETATM   30  O   UNL     1     -12.595  13.595  63.326  1.00  0.00    -0.816 OA 
HETATM   31  O   UNL     1     -10.886  14.797  64.737  1.00  0.00    -0.399 OA 
HETATM   32  N   UNL     1     -13.091  14.149  65.730  1.00  0.00    -0.573 N  
HETATM   33  H1  UNL     1     -13.452  15.041  65.392  1.00  0.00     0.000 HD 
HETATM   34  H2  UNL     1     -13.370  13.612  66.551  1.00  0.00     0.000 HD 
ENDBRANCH  26  29
ENDBRANCH  20  22
ENDBRANCH  15  20
ENDBRANCH   2  14
TORSDOF 5
ENDMDL
MODEL        7
REMARK 921   NORMALIZED FREE ENERGY PREDICTED BY IDOCK:   -8.28 KCAL/MOL
REMARK 922        TOTAL FREE ENERGY PREDICTED BY IDOCK:  -11.16 KCAL/MOL
REMARK 923 INTER-LIGAND FREE ENERGY PREDICTED BY IDOCK:   -9.96 KCAL/MOL
REMARK 924 INTRA-LIGAND FREE ENERGY PREDICTED BY IDOCK:   -1.20 KCAL/MOL
REMARK 927      BINDING AFFINITY PREDICTED BY RF-SCORE:    0.00 PKD
ROOT
HETATM    1  C   UNL     1     -10.714  15.772  65.172  1.00  0.00    -0.435 C  
HETATM    2  N   UNL     1     -10.771  14.551  65.977  1.00  0.00    -0.297 NA 
ENDROOT
BRANCH   2   3
HETATM    3  C   UNL     1     -11.070  14.702  67.363  1.00  0.00    -0.326 A  
HETATM    4  C   UNL     1     -10.803  16.209  69.397  1.00  0.00    -0.320 A  
HETATM    5  C   UNL     1     -11.929  16.342  72.354  1.00  0.00    -0.630 C  
HETATM    6  C   UNL     1     -11.876  13.758  68.051  1.00  0.00    -0.408 A  
HETATM    7  C   UNL     1     -12.150  14.075  69.395  1.00  0.00    -0.340 A  
HETATM    8  C   UNL     1     -11.622  15.266  69.999  1.00  0.00    -0.331 A  
HETATM    9  C   UNL     1     -12.100  15.324  71.286  1.00  0.00    -0.349 A  
HETATM   10  N   UNL     1     -12.881  13.408  70.303  1.00  0.00     0.008 NA 
HETATM   11  N   UNL     1     -12.851  14.179  71.412  1.00  0.00    -0.337 NA 
HETATM   12  C   UNL     1     -13.588  13.745  72.577  1.00  0.00    -0.575 C  
HETATM   13  C   UNL     1     -10.548  15.865  68.049  1.00  0.00    -0.287 A  
ENDBRANCH   2   3
BRANCH   2  14
HETATM   14  C   UNL     1     -10.746  13.317  65.291  1.00  0.00    -0.311 A  
HETATM   15  C   UNL     1     -10.024  11.105  65.238  1.00  0.00    -0.260 A  
HETATM   16  N   UNL     1     -10.522  10.884  64.017  1.00  0.00    -0.359 NA 
HETATM   17  C   UNL     1     -11.180  11.911  63.457  1.00  0.00    -0.418 A  
HETATM   18  C   UNL     1     -11.331  13.143  64.052  1.00  0.00    -0.437 A  
HETATM   19  N   UNL     1     -10.105  12.285  65.870  1.00  0.00    -0.246 NA 
BRANCH  15  20
HETATM   20  N   UNL     1      -9.358  10.046  65.850  1.00  0.00    -0.172 NA 
HETATM   21  H   UNL     1      -8.387   9.908  65.571  1.00  0.00     0.000 HD 
BRANCH  20  22
HETATM   22  C   UNL     1      -9.855   9.145  66.802  1.00  0.00    -0.226 A  
HETATM   23  C   UNL     1     -10.013   7.802  66.456  1.00  0.00    -0.244 A  
HETATM   24  C   UNL     1     -10.421   6.860  67.407  1.00  0.00    -0.339 A  
HETATM   25  C   UNL     1     -10.697   7.233  68.735  1.00  0.00    -0.168 A  
HETATM   26  C   UNL     1     -10.576   8.591  69.077  1.00  0.00    -0.154 A  
HETATM   27  C   UNL     1     -11.112   6.164  69.702  1.00  0.00    -0.489 C  
HETATM   28  C   UNL     1     -10.150   9.525  68.117  1.00  0.00    -0.214 A  
BRANCH  26  29
HETATM   29  S   UNL     1     -11.001   9.244  70.688  1.00  0.00    -0.300 S  
HETATM   30  O   UNL     1      -9.928   8.973  71.611  1.00  0.00    -0.309 OA 
HETATM   31  O   UNL     1     -12.368   8.876  70.986  1.00  0.00    -0.270 OA 
HETATM   32  N   UNL     1     -11.009  10.894  70.397  1.00  0.00    -0.422 N  
HETATM   33  H1  UNL     1     -11.251  11.266  71.315  1.00  0.00     0.000 HD 
HETATM   34  H2  UNL     1     -10.821  11.395  69.528  1.00  0.00     0.000 HD 
ENDBRANCH  26  29
ENDBRANCH  20  22
ENDBRANCH  15  20
ENDBRANCH   2  14
TORSDOF 5
ENDMDL
MODEL        8
REMARK 921   NORMALIZED FREE ENERGY PREDICTED BY IDOCK:   -8.25 KCAL/MOL
REMARK 922        TOTAL FREE ENERGY PREDICTED BY IDOCK:  -11.13 KCAL/MOL
REMARK 923 INTER-LIGAND FREE ENERGY PREDICTED BY IDOCK:   -9.84 KCAL/MOL
REMARK 924 INTRA-LIGAND FREE ENERGY PREDICTED BY IDOCK:   -1.29 KCAL/MOL
REMARK 927      BINDING AFFINITY PREDICTED BY RF-SCORE:    0.00 PKD
ROOT
HETATM    1  C   UNL     1     -13.727  13.958  72.094  1.00  0.00    -0.525 C  
HETATM    2  N   UNL     1     -12.732  13.428  71.160  1.00  0.00    -0.349 NA 
ENDROOT
BRANCH   2   3
HETATM    3  C   UNL     1     -12.515  12.019  71.175  1.00  0.00    -0.249 A  
HETATM    4  C   UNL     1     -13.289   9.805  72.164  1.00  0.00    -0.527 A  
HETATM    5  C   UNL     1     -12.729   6.725  71.686  1.00  0.00    -0.360 C  
HETATM    6  C   UNL     1     -11.558  11.410  70.321  1.00  0.00    -0.334 A  
HETATM    7  C   UNL     1     -11.505  10.006  70.390  1.00  0.00    -0.314 A  
HETATM    8  C   UNL     1     -12.361   9.274  71.282  1.00  0.00    -0.403 A  
HETATM    9  C   UNL     1     -12.115   7.936  71.086  1.00  0.00    -0.276 A  
HETATM   10  N   UNL     1     -10.733   9.141  69.713  1.00  0.00    -0.228 NA 
HETATM   11  N   UNL     1     -11.126   7.917  70.131  1.00  0.00    -0.238 NA 
HETATM   12  C   UNL     1     -10.497   6.752  69.551  1.00  0.00    -0.220 C  
HETATM   13  C   UNL     1     -13.320  11.215  72.070  1.00  0.00    -0.384 A  
ENDBRANCH   2   3
BRANCH   2  14
HETATM   14  C   UNL     1     -12.230  14.306  70.176  1.00  0.00    -0.345 A  
HETATM   15  C   UNL     1     -12.012  14.819  67.916  1.00  0.00    -0.227 A  
HETATM   16  N   UNL     1     -11.220  15.870  68.144  1.00  0.00    -0.347 NA 
HETATM   17  C   UNL     1     -10.974  16.151  69.434  1.00  0.00    -0.333 A  
HETATM   18  C   UNL     1     -11.460  15.411  70.487  1.00  0.00    -0.354 A  
HETATM   19  N   UNL     1     -12.501  14.033  68.886  1.00  0.00    -0.053 NA 
BRANCH  15  20
HETATM   20  N   UNL     1     -12.303  14.523  66.585  1.00  0.00    -0.460 NA 
HETATM   21  H   UNL     1     -13.011  15.108  66.142  1.00  0.00     0.000 HD 
BRANCH  20  22
HETATM   22  C   UNL     1     -11.744  13.522  65.779  1.00  0.00    -0.345 A  
HETATM   23  C   UNL     1     -12.106  13.445  64.433  1.00  0.00    -0.468 A  
HETATM   24  C   UNL     1     -11.501  12.516  63.580  1.00  0.00    -0.568 A  
HETATM   25  C   UNL     1     -10.520  11.622  64.048  1.00  0.00    -0.418 A  
HETATM   26  C   UNL     1     -10.181  11.671  65.412  1.00  0.00    -0.263 A  
HETATM   27  C   UNL     1      -9.903  10.667  63.070  1.00  0.00    -0.318 C  
HETATM   28  C   UNL     1     -10.784  12.620  66.255  1.00  0.00    -0.280 A  
BRANCH  26  29
HETATM   29  S   UNL     1      -9.042  10.529  66.186  1.00  0.00    -0.168 S  
HETATM   30  O   UNL     1      -7.722  10.730  65.643  1.00  0.00    -0.138 OA 
HETATM   31  O   UNL     1      -9.656   9.220  66.219  1.00  0.00    -0.205 OA 
HETATM   32  N   UNL     1      -9.024  11.083  67.768  1.00  0.00    -0.138 N  
HETATM   33  H1  UNL     1      -8.374  10.432  68.209  1.00  0.00     0.000 HD 
HETATM   34  H2  UNL     1      -9.531  11.865  68.181  1.00  0.00     0.000 HD 
ENDBRANCH  26  29
ENDBRANCH  20  22
ENDBRANCH  15  20
ENDBRANCH   2  14
TORSDOF 5
ENDMDL
MODEL        9
REMARK 921   NORMALIZED FREE ENERGY PREDICTED BY IDOCK:   -8.14 KCAL/MOL
REMARK 922        TOTAL FREE ENERGY PREDICTED BY IDOCK:  -10.99 KCAL/MOL
REMARK 923 INTER-LIGAND FREE ENERGY PREDICTED BY IDOCK:  -10.29 KCAL/MOL
REMARK 924 INTRA-LIGAND FREE ENERGY PREDICTED BY IDOCK:   -0.70 KCAL/MOL
REMARK 927      BINDING AFFINITY PREDICTED BY RF-SCORE:    0.00 PKD
ROOT
HETATM    1  C   UNL     1     -11.079  10.922  68.992  1.00  0.00    -0.246 C  
HETATM    2  N   UNL     1     -11.755  10.800  70.284  1.00  0.00    -0.324 NA 
ENDROOT
BRANCH   2   3
HETATM    3  C   UNL     1     -11.523   9.605  71.027  1.00  0.00    -0.371 A  
HETATM    4  C   UNL     1     -12.557   7.423  71.833  1.00  0.00    -0.322 A  
HETATM    5  C   UNL     1     -11.572   4.774  73.262  1.00  0.00    -0.286 C  
HETATM    6  C   UNL     1     -10.245   9.309  71.568  1.00  0.00    -0.338 A  
HETATM    7  C   UNL     1     -10.144   8.060  72.211  1.00  0.00    -0.246 A  
HETATM    8  C   UNL     1     -11.277   7.182  72.308  1.00  0.00    -0.297 A  
HETATM    9  C   UNL     1     -10.858   6.034  72.936  1.00  0.00    -0.258 A  
HETATM   10  N   UNL     1      -9.088   7.483  72.805  1.00  0.00    -0.141 NA 
HETATM   11  N   UNL     1      -9.532   6.274  73.212  1.00  0.00    -0.138 NA 
HETATM   12  C   UNL     1      -8.604   5.380  73.868  1.00  0.00    -0.115 C  
HETATM   13  C   UNL     1     -12.626   8.681  71.192  1.00  0.00    -0.176 A  
ENDBRANCH   2   3
BRANCH   2  14
HETATM   14  C   UNL     1     -12.399  11.949  70.793  1.00  0.00    -0.320 A  
HETATM   15  C   UNL     1     -12.800  14.233  70.601  1.00  0.00    -0.314 A  
HETATM   16  N   UNL     1     -13.504  14.290  71.735  1.00  0.00    -0.355 NA 
HETATM   17  C   UNL     1     -13.681  13.124  72.376  1.00  0.00    -0.540 A  
HETATM   18  C   UNL     1     -13.160  11.925  71.946  1.00  0.00    -0.474 A  
HETATM   19  N   UNL     1     -12.238  13.109  70.132  1.00  0.00    -0.318 NA 
BRANCH  15  20
HETATM   20  N   UNL     1     -12.624  15.427  69.905  1.00  0.00    -0.615 NA 
HETATM   21  H   UNL     1     -13.294  16.168  70.113  1.00  0.00     0.000 HD 
BRANCH  20  22
HETATM   22  C   UNL     1     -11.642  15.739  68.954  1.00  0.00    -0.394 A  
HETATM   23  C   UNL     1     -10.463  16.362  69.366  1.00  0.00    -0.309 A  
HETATM   24  C   UNL     1      -9.427  16.606  68.460  1.00  0.00    -0.239 A  
HETATM   25  C   UNL     1      -9.539  16.246  67.104  1.00  0.00    -0.238 A  
HETATM   26  C   UNL     1     -10.741  15.654  66.678  1.00  0.00    -0.296 A  
HETATM   27  C   UNL     1      -8.378  16.523  66.196  1.00  0.00    -0.305 C  
HETATM   28  C   UNL     1     -11.769  15.399  67.602  1.00  0.00    -0.122 A  
BRANCH  26  29
HETATM   29  S   UNL     1     -11.087  15.245  64.971  1.00  0.00    -0.413 S  
HETATM   30  O   UNL     1     -10.180  14.213  64.533  1.00  0.00    -0.347 OA 
HETATM   31  O   UNL     1     -11.249  16.476  64.228  1.00  0.00    -0.992 OA 
HETATM   32  N   UNL     1     -12.611  14.558  65.085  1.00  0.00    -0.438 N  
HETATM   33  H1  UNL     1     -12.808  14.324  64.112  1.00  0.00     0.000 HD 
HETATM   34  H2  UNL     1     -13.190  14.412  65.912  1.00  0.00     0.000 HD 
ENDBRANCH  26  29
ENDBRANCH  20  22
ENDBRANCH  15  20
ENDBRANCH   2  14
TORSDOF 5
ENDMDL
MODEL       10
REMARK 921   NORMALIZED FREE ENERGY PREDICTED BY IDOCK:   -8.13 KCAL/MOL
REMARK 922        TOTAL FREE ENERGY PREDICTED BY IDOCK:  -10.97 KCAL/MOL
REMARK 923 INTER-LIGAND FREE ENERGY PREDICTED BY IDOCK:  -10.55 KCAL/MOL
REMARK 924 INTRA-LIGAND FREE ENERGY PREDICTED BY IDOCK:   -0.42 KCAL/MOL
REMARK 927      BINDING AFFINITY PREDICTED BY RF-SCORE:    0.00 PKD
ROOT
HETATM    1  C   UNL     1     -11.706  13.504  68.108  1.00  0.00    -0.361 C  
HETATM    2  N   UNL     1     -11.381  14.442  69.183  1.00  0.00    -0.262 NA 
ENDROOT
BRANCH   2   3
HETATM    3  C   UNL     1     -10.546  15.548  68.848  1.00  0.00    -0.240 A  
HETATM    4  C   UNL     1     -10.468  17.833  67.729  1.00  0.00    -0.402 A  
HETATM    5  C   UNL     1      -8.400  20.215  67.453  1.00  0.00    -0.390 C  
HETATM    6  C   UNL     1      -9.191  15.604  69.269  1.00  0.00    -0.269 A  
HETATM    7  C   UNL     1      -8.510  16.788  68.931  1.00  0.00    -0.217 A  
HETATM    8  C   UNL     1      -9.163  17.837  68.198  1.00  0.00    -0.277 A  
HETATM    9  C   UNL     1      -8.267  18.870  68.067  1.00  0.00    -0.293 A  
HETATM   10  N   UNL     1      -7.245  17.155  69.190  1.00  0.00    -0.232 NA 
HETATM   11  N   UNL     1      -7.130  18.402  68.683  1.00  0.00    -0.271 NA 
HETATM   12  C   UNL     1      -5.873  19.100  68.836  1.00  0.00    -0.214 C  
HETATM   13  C   UNL     1     -11.126  16.633  68.086  1.00  0.00    -0.285 A  
ENDBRANCH   2   3
BRANCH   2  14
HETATM   14  C   UNL     1     -12.086  14.309  70.399  1.00  0.00    -0.339 A  
HETATM   15  C   UNL     1     -13.163  12.904  71.910  1.00  0.00    -0.423 A  
HETATM   16  N   UNL     1     -13.565  13.912  72.690  1.00  0.00    -0.671 NA 
HETATM   17  C   UNL     1     -13.169  15.139  72.315  1.00  0.00    -0.379 A  
HETATM   18  C   UNL     1     -12.422  15.392  71.187  1.00  0.00    -0.463 A  
HETATM   19  N   UNL     1     -12.459  13.074  70.782  1.00  0.00    -0.339 NA 
BRANCH  15  20
HETATM   20  N   UNL     1     -13.541  11.619  72.294  1.00  0.00    -0.464 NA 
HETATM   21  H   UNL     1     -14.318  11.560  72.953  1.00  0.00     0.000 HD 
BRANCH  20  22
HETATM   22  C   UNL     1     -12.988  10.397  71.888  1.00  0.00    -0.450 A  
HETATM   23  C   UNL     1     -13.603   9.205  72.276  1.00  0.00    -0.548 A  
HETATM   24  C   UNL     1     -13.130   7.972  71.816  1.00  0.00    -0.360 A  
HETATM   25  C   UNL     1     -12.017   7.887  70.960  1.00  0.00    -0.268 A  
HETATM   26  C   UNL     1     -11.372   9.083  70.599  1.00  0.00    -0.265 A  
HETATM   27  C   UNL     1     -11.580   6.531  70.493  1.00  0.00    -0.455 C  
HETATM   28  C   UNL     1     -11.866  10.317  71.055  1.00  0.00    -0.472 A  
BRANCH  26  29
HETATM   29  S   UNL     1      -9.878   9.139  69.615  1.00  0.00    -0.190 S  
HETATM   30  O   UNL     1     -10.162   8.658  68.287  1.00  0.00    -0.187 OA 
HETATM   31  O   UNL     1      -8.791   8.597  70.401  1.00  0.00    -0.140 OA 
HETATM   32  N   UNL     1      -9.603  10.789  69.504  1.00  0.00    -0.429 N  
HETATM   33  H1  UNL     1      -8.752  10.821  68.943  1.00  0.00     0.000 HD 
HETATM   34  H2  UNL     1     -10.146  11.559  69.895  1.00  0.00     0.000 HD 
ENDBRANCH  26  29
ENDBRANCH  20  22
ENDBRANCH  15  20
ENDBRANCH   2  14
TORSDOF 5
ENDMDL
MODEL       11
REMARK 921   NORMALIZED FREE ENERGY PREDICTED BY IDOCK:   -8.04 KCAL/MOL
REMARK 922        TOTAL FREE ENERGY PREDICTED BY IDOCK:  -10.86 KCAL/MOL
REMARK 923 INTER-LIGAND FREE ENERGY PREDICTED BY IDOCK:   -9.94 KCAL/MOL
REMARK 924 INTRA-LIGAND FREE ENERGY PREDICTED BY IDOCK:   -0.92 KCAL/MOL
REMARK 927      BINDING AFFINITY PREDICTED BY RF-SCORE:    0.00 PKD
ROOT
HETATM    1  C   UNL     1      -9.924  16.278  66.215  1.00  0.00    -0.317 C  
HETATM    2  N   UNL     1     -10.698  15.070  66.501  1.00  0.00    -0.306 NA 
ENDROOT
BRANCH   2   3
HETATM    3  C   UNL     1     -11.226  14.935  67.819  1.00  0.00    -0.321 A  
HETATM    4  C   UNL     1     -12.409  13.366  69.436  1.00  0.00    -0.126 A  
HETATM    5  C   UNL     1     -13.162  13.335  72.512  1.00  0.00    -0.484 C  
HETATM    6  C   UNL     1     -11.082  15.970  68.781  1.00  0.00    -0.338 A  
HETATM    7  C   UNL     1     -11.585  15.668  70.060  1.00  0.00    -0.350 A  
HETATM    8  C   UNL     1     -12.207  14.402  70.334  1.00  0.00    -0.404 A  
HETATM    9  C   UNL     1     -12.545  14.387  71.666  1.00  0.00    -0.353 A  
HETATM   10  N   UNL     1     -11.592  16.412  71.178  1.00  0.00    -0.331 NA 
HETATM   11  N   UNL     1     -12.151  15.624  72.121  1.00  0.00    -0.399 NA 
HETATM   12  C   UNL     1     -12.270  16.133  73.469  1.00  0.00    -0.528 C  
HETATM   13  C   UNL     1     -11.893  13.697  68.162  1.00  0.00    -0.407 A  
ENDBRANCH   2   3
BRANCH   2  14
HETATM   14  C   UNL     1     -11.048  14.247  65.409  1.00  0.00    -0.327 A  
HETATM   15  C   UNL     1     -10.422  12.567  63.925  1.00  0.00    -0.434 A  
HETATM   16  N   UNL     1     -11.553  12.653  63.218  1.00  0.00    -0.456 NA 
HETATM   17  C   UNL     1     -12.457  13.540  63.663  1.00  0.00    -0.207 A  
HETATM   18  C   UNL     1     -12.261  14.353  64.756  1.00  0.00    -0.458 A  
HETATM   19  N   UNL     1     -10.147  13.343  64.983  1.00  0.00    -0.277 NA 
BRANCH  15  20
HETATM   20  N   UNL     1      -9.478  11.635  63.497  1.00  0.00    -0.512 NA 
HETATM   21  H   UNL     1      -8.928  11.900  62.680  1.00  0.00     0.000 HD 
BRANCH  20  22
HETATM   22  C   UNL     1      -9.191  10.378  64.047  1.00  0.00    -0.263 A  
HETATM   23  C   UNL     1      -8.301   9.529  63.387  1.00  0.00    -0.179 A  
HETATM   24  C   UNL     1      -7.923   8.307  63.952  1.00  0.00    -0.146 A  
HETATM   25  C   UNL     1      -8.434   7.885  65.194  1.00  0.00    -0.096 A  
HETATM   26  C   UNL     1      -9.360   8.720  65.842  1.00  0.00    -0.218 A  
HETATM   27  C   UNL     1      -7.968   6.570  65.744  1.00  0.00    -0.115 C  
HETATM   28  C   UNL     1      -9.719   9.953  65.272  1.00  0.00    -0.383 A  
BRANCH  26  29
HETATM   29  S   UNL     1     -10.188   8.278  67.366  1.00  0.00    -0.282 S  
HETATM   30  O   UNL     1      -9.215   8.164  68.423  1.00  0.00    -0.136 OA 
HETATM   31  O   UNL     1     -11.128   7.215  67.085  1.00  0.00    -0.326 OA 
HETATM   32  N   UNL     1     -11.102   9.649  67.670  1.00  0.00    -0.459 N  
HETATM   33  H1  UNL     1     -11.573   9.397  68.538  1.00  0.00     0.000 HD 
HETATM   34  H2  UNL     1     -11.169  10.511  67.128  1.00  0.00     0.000 HD 
ENDBRANCH  26  29
ENDBRANCH  20  22
ENDBRANCH  15  20
ENDBRANCH   2  14
TORSDOF 5
ENDMDL
MODEL       12
REMARK 921   NORMALIZED FREE ENERGY PREDICTED BY IDOCK:   -8.04 KCAL/MOL
REMARK 922        TOTAL FREE ENERGY PREDICTED BY IDOCK:  -10.86 KCAL/MOL
REMARK 923 INTER-LIGAND FREE ENERGY PREDICTED BY IDOCK:   -9.75 KCAL/MOL
REMARK 924 INTRA-LIGAND FREE ENERGY PREDICTED BY IDOCK:   -1.11 KCAL/MOL
REMARK 927      BINDING AFFINITY PREDICTED BY RF-SCORE:    0.00 PKD
ROOT
HETATM    1  C   UNL     1     -12.628  11.982  63.473  1.00  0.00    -0.507 C  
HETATM    2  N   UNL     1     -11.324  12.075  64.130  1.00  0.00    -0.357 NA 
ENDROOT
BRANCH   2   3
HETATM    3  C   UNL     1     -11.191  13.040  65.172  1.00  0.00    -0.293 A  
HETATM    4  C   UNL     1     -10.343  15.367  65.757  1.00  0.00    -0.381 A  
HETATM    5  C   UNL     1     -10.522  17.355  68.216  1.00  0.00    -0.385 C  
HETATM    6  C   UNL     1     -11.737  12.812  66.463  1.00  0.00    -0.463 A  
HETATM    7  C   UNL     1     -11.595  13.881  67.367  1.00  0.00    -0.368 A  
HETATM    8  C   UNL     1     -10.927  15.094  66.984  1.00  0.00    -0.322 A  
HETATM    9  C   UNL     1     -10.993  15.957  68.052  1.00  0.00    -0.336 A  
HETATM   10  N   UNL     1     -12.007  13.989  68.640  1.00  0.00    -0.362 NA 
HETATM   11  N   UNL     1     -11.654  15.237  69.019  1.00  0.00    -0.323 NA 
HETATM   12  C   UNL     1     -11.997  15.680  70.351  1.00  0.00    -0.376 C  
HETATM   13  C   UNL     1     -10.503  14.278  64.871  1.00  0.00    -0.454 A  
ENDBRANCH   2   3
BRANCH   2  14
HETATM   14  C   UNL     1     -10.376  11.069  63.843  1.00  0.00    -0.372 A  
HETATM   15  C   UNL     1      -9.107   9.277  64.613  1.00  0.00    -0.121 A  
HETATM   16  N   UNL     1      -8.457   9.130  63.455  1.00  0.00    -0.198 NA 
HETATM   17  C   UNL     1      -8.824   9.961  62.466  1.00  0.00    -0.244 A  
HETATM   18  C   UNL     1      -9.782  10.940  62.602  1.00  0.00    -0.250 A  
HETATM   19  N   UNL     1     -10.031  10.224  64.831  1.00  0.00    -0.334 NA 
BRANCH  15  20
HETATM   20  N   UNL     1      -8.761   8.409  65.647  1.00  0.00    -0.173 NA 
HETATM   21  H   UNL     1      -7.821   8.015  65.603  1.00  0.00     0.000 HD 
BRANCH  20  22
HETATM   22  C   UNL     1      -9.542   8.008  66.739  1.00  0.00    -0.216 A  
HETATM   23  C   UNL     1     -10.110   6.733  66.744  1.00  0.00    -0.250 A  
HETATM   24  C   UNL     1     -10.820   6.269  67.856  1.00  0.00    -0.417 A  
HETATM   25  C   UNL     1     -10.997   7.070  68.999  1.00  0.00    -0.169 A  
HETATM   26  C   UNL     1     -10.460   8.369  68.981  1.00  0.00    -0.201 A  
HETATM   27  C   UNL     1     -11.754   6.496  70.159  1.00  0.00    -0.419 C  
HETATM   28  C   UNL     1      -9.735   8.819  67.865  1.00  0.00    -0.188 A  
BRANCH  26  29
HETATM   29  S   UNL     1     -10.696   9.551  70.304  1.00  0.00    -0.287 S  
HETATM   30  O   UNL     1      -9.827   9.218  71.404  1.00  0.00    -0.295 OA 
HETATM   31  O   UNL     1     -12.117   9.748  70.494  1.00  0.00    -0.248 OA 
HETATM   32  N   UNL     1     -10.112  10.961  69.612  1.00  0.00    -0.439 N  
HETATM   33  H1  UNL     1     -10.247  11.634  70.366  1.00  0.00     0.000 HD 
HETATM   34  H2  UNL     1      -9.724  11.107  68.680  1.00  0.00     0.000 HD 
ENDBRANCH  26  29
ENDBRANCH  20  22
ENDBRANCH  15  20
ENDBRANCH   2  14
TORSDOF 5
ENDMDL
MODEL       13
REMARK 921   NORMALIZED FREE ENERGY PREDICTED BY IDOCK:   -7.92 KCAL/MOL
REMARK 922        TOTAL FREE ENERGY PREDICTED BY IDOCK:  -10.70 KCAL/MOL
REMARK 923 INTER-LIGAND FREE ENERGY PREDICTED BY IDOCK:   -9.56 KCAL/MOL
REMARK 924 INTRA-LIGAND FREE ENERGY PREDICTED BY IDOCK:   -1.14 KCAL/MOL
REMARK 927      BINDING AFFINITY PREDICTED BY RF-SCORE:    0.00 PKD
ROOT
HETATM    1  C   UNL     1      -9.817  15.862  65.560  1.00  0.00    -0.230 C  
HETATM    2  N   UNL     1     -10.543  14.711  66.096  1.00  0.00    -0.303 NA 
ENDROOT
BRANCH   2   3
HETATM    3  C   UNL     1     -10.895  14.753  67.478  1.00  0.00    -0.287 A  
HETATM    4  C   UNL     1     -10.856  16.168  69.592  1.00  0.00    -0.338 A  
HETATM    5  C   UNL     1     -12.070  16.015  72.513  1.00  0.00    -0.635 C  
HETATM    6  C   UNL     1     -11.608  13.689  68.090  1.00  0.00    -0.367 A  
HETATM    7  C   UNL     1     -11.952  13.900  69.438  1.00  0.00    -0.354 A  
HETATM    8  C   UNL     1     -11.579  15.109  70.119  1.00  0.00    -0.326 A  
HETATM    9  C   UNL     1     -12.095  15.044  71.391  1.00  0.00    -0.339 A  
HETATM   10  N   UNL     1     -12.628  13.109  70.286  1.00  0.00    -0.133 NA 
HETATM   11  N   UNL     1     -12.716  13.817  71.434  1.00  0.00    -0.361 NA 
HETATM   12  C   UNL     1     -13.431  13.242  72.550  1.00  0.00    -0.516 C  
HETATM   13  C   UNL     1     -10.527  15.928  68.239  1.00  0.00    -0.257 A  
ENDBRANCH   2   3
BRANCH   2  14
HETATM   14  C   UNL     1     -11.030  13.760  65.173  1.00  0.00    -0.337 A  
HETATM   15  C   UNL     1     -10.868  11.616  64.281  1.00  0.00    -0.359 A  
HETATM   16  N   UNL     1     -11.801  11.842  63.351  1.00  0.00    -0.455 NA 
HETATM   17  C   UNL     1     -12.378  13.054  63.380  1.00  0.00    -0.394 A  
HETATM   18  C   UNL     1     -12.038  14.044  64.274  1.00  0.00    -0.476 A  
HETATM   19  N   UNL     1     -10.464  12.539  65.166  1.00  0.00    -0.287 NA 
BRANCH  15  20
HETATM   20  N   UNL     1     -10.273  10.356  64.286  1.00  0.00    -0.379 NA 
HETATM   21  H   UNL     1     -10.244   9.873  63.388  1.00  0.00     0.000 HD 
BRANCH  20  22
HETATM   22  C   UNL     1      -9.710   9.669  65.370  1.00  0.00    -0.295 A  
HETATM   23  C   UNL     1      -8.580   8.876  65.166  1.00  0.00    -0.208 A  
HETATM   24  C   UNL     1      -7.940   8.249  66.240  1.00  0.00    -0.100 A  
HETATM   25  C   UNL     1      -8.418   8.384  67.557  1.00  0.00    -0.129 A  
HETATM   26  C   UNL     1      -9.580   9.150  67.761  1.00  0.00    -0.146 A  
HETATM   27  C   UNL     1      -7.669   7.697  68.659  1.00  0.00    -0.119 C  
HETATM   28  C   UNL     1     -10.204   9.788  66.676  1.00  0.00    -0.296 A  
BRANCH  26  29
HETATM   29  S   UNL     1     -10.379   9.323  69.352  1.00  0.00    -0.222 S  
HETATM   30  O   UNL     1      -9.592  10.191  70.191  1.00  0.00    -0.166 OA 
HETATM   31  O   UNL     1     -10.797   8.012  69.800  1.00  0.00    -0.245 OA 
HETATM   32  N   UNL     1     -11.778  10.151  68.944  1.00  0.00    -0.508 N  
HETATM   33  H1  UNL     1     -12.234  10.249  69.851  1.00  0.00     0.000 HD 
HETATM   34  H2  UNL     1     -12.092  10.471  68.028  1.00  0.00     0.000 HD 
ENDBRANCH  26  29
ENDBRANCH  20  22
ENDBRANCH  15  20
ENDBRANCH   2  14
TORSDOF 5
ENDMDL
MODEL       14
REMARK 921   NORMALIZED FREE ENERGY PREDICTED BY IDOCK:   -7.90 KCAL/MOL
REMARK 922        TOTAL FREE ENERGY PREDICTED BY IDOCK:  -10.67 KCAL/MOL
REMARK 923 INTER-LIGAND FREE ENERGY PREDICTED BY IDOCK:   -9.66 KCAL/MOL
REMARK 924 INTRA-LIGAND FREE ENERGY PREDICTED BY IDOCK:   -1.01 KCAL/MOL
REMARK 927      BINDING AFFINITY PREDICTED BY RF-SCORE:    0.00 PKD
ROOT
HETATM    1  C   UNL     1     -12.372  15.568  70.106  1.00  0.00    -0.353 C  
HETATM    2  N   UNL     1     -11.473  15.353  68.972  1.00  0.00    -0.315 NA 
ENDROOT
BRANCH   2   3
HETATM    3  C   UNL     1     -10.354  16.230  68.857  1.00  0.00    -0.263 A  
HETATM    4  C   UNL     1      -7.842  16.454  69.200  1.00  0.00    -0.214 A  
HETATM    5  C   UNL     1      -5.581  18.558  68.501  1.00  0.00    -0.188 C  
HETATM    6  C   UNL     1     -10.488  17.527  68.295  1.00  0.00    -0.383 A  
HETATM    7  C   UNL     1      -9.288  18.251  68.175  1.00  0.00    -0.296 A  
HETATM    8  C   UNL     1      -8.038  17.695  68.614  1.00  0.00    -0.269 A  
HETATM    9  C   UNL     1      -7.053  18.609  68.322  1.00  0.00    -0.253 A  
HETATM   10  N   UNL     1      -9.072  19.480  67.679  1.00  0.00    -0.308 NA 
HETATM   11  N   UNL     1      -7.736  19.663  67.761  1.00  0.00    -0.277 NA 
HETATM   12  C   UNL     1      -7.173  20.898  67.264  1.00  0.00    -0.350 C  
HETATM   13  C   UNL     1      -9.064  15.751  69.305  1.00  0.00    -0.263 A  
ENDBRANCH   2   3
BRANCH   2  14
HETATM   14  C   UNL     1     -11.650  14.175  68.214  1.00  0.00    -0.321 A  
HETATM   15  C   UNL     1     -12.013  11.876  68.198  1.00  0.00    -0.152 A  
HETATM   16  N   UNL     1     -11.903  11.784  66.869  1.00  0.00    -0.585 NA 
HETATM   17  C   UNL     1     -11.703  12.938  66.214  1.00  0.00    -0.399 A  
HETATM   18  C   UNL     1     -11.579  14.160  66.834  1.00  0.00    -0.410 A  
HETATM   19  N   UNL     1     -11.876  13.025  68.876  1.00  0.00    -0.317 NA 
BRANCH  15  20
HETATM   20  N   UNL     1     -12.246  10.693  68.897  1.00  0.00    -0.793 NA 
HETATM   21  H   UNL     1     -13.101  10.193  68.655  1.00  0.00     0.000 HD 
BRANCH  20  22
HETATM   22  C   UNL     1     -11.453  10.105  69.892  1.00  0.00    -0.254 A  
HETATM   23  C   UNL     1     -12.048   9.685  71.082  1.00  0.00    -0.448 A  
HETATM   24  C   UNL     1     -11.304   9.013  72.058  1.00  0.00    -0.395 A  
HETATM   25  C   UNL     1      -9.934   8.750  71.881  1.00  0.00    -0.401 A  
HETATM   26  C   UNL     1      -9.322   9.206  70.700  1.00  0.00    -0.258 A  
HETATM   27  C   UNL     1      -9.207   8.009  72.963  1.00  0.00    -0.337 C  
HETATM   28  C   UNL     1     -10.084   9.865  69.720  1.00  0.00    -0.274 A  
BRANCH  26  29
HETATM   29  S   UNL     1      -7.569   9.054  70.375  1.00  0.00    -0.116 S  
HETATM   30  O   UNL     1      -7.226   7.661  70.247  1.00  0.00    -0.064 OA 
HETATM   31  O   UNL     1      -6.858   9.930  71.281  1.00  0.00    -0.331 OA 
HETATM   32  N   UNL     1      -7.442   9.746  68.854  1.00  0.00    -0.073 N  
HETATM   33  H1  UNL     1      -6.443   9.659  68.669  1.00  0.00     0.000 HD 
HETATM   34  H2  UNL     1      -8.173  10.148  68.267  1.00  0.00     0.000 HD 
ENDBRANCH  26  29
ENDBRANCH  20  22
ENDBRANCH  15  20
ENDBRANCH   2  14
TORSDOF 5
ENDMDL
MODEL       15
REMARK 921   NORMALIZED FREE ENERGY PREDICTED BY IDOCK:   -7.89 KCAL/MOL
REMARK 922        TOTAL FREE ENERGY PREDICTED BY IDOCK:  -10.66 KCAL/MOL
REMARK 923 INTER-LIGAND FREE ENERGY PREDICTED BY IDOCK:   -9.79 KCAL/MOL
REMARK 924 INTRA-LIGAND FREE ENERGY PREDICTED BY IDOCK:   -0.88 KCAL/MOL
REMARK 927      BINDING AFFINITY PREDICTED BY RF-SCORE:    0.00 PKD
ROOT
HETATM    1  C   UNL     1     -12.241  14.189  66.165  1.00  0.00    -0.442 C  
HETATM    2  N   UNL     1     -11.302  14.337  67.277  1.00  0.00    -0.318 NA 
ENDROOT
BRANCH   2   3
HETATM    3  C   UNL     1     -10.187  15.202  67.074  1.00  0.00    -0.262 A  
HETATM    4  C   UNL     1      -7.647  15.366  67.111  1.00  0.00    -0.238 A  
HETATM    5  C   UNL     1      -5.443  17.473  66.258  1.00  0.00    -0.234 C  
HETATM    6  C   UNL     1     -10.360  16.533  66.612  1.00  0.00    -0.298 A  
HETATM    7  C   UNL     1      -9.167  17.245  66.384  1.00  0.00    -0.253 A  
HETATM    8  C   UNL     1      -7.886  16.643  66.629  1.00  0.00    -0.316 A  
HETATM    9  C   UNL     1      -6.925  17.558  66.269  1.00  0.00    -0.297 A  
HETATM   10  N   UNL     1      -8.987  18.499  65.939  1.00  0.00    -0.434 NA 
HETATM   11  N   UNL     1      -7.647  18.655  65.863  1.00  0.00    -0.477 NA 
HETATM   12  C   UNL     1      -7.123  19.910  65.374  1.00  0.00    -0.261 C  
HETATM   13  C   UNL     1      -8.862  14.676  67.327  1.00  0.00    -0.220 A  
ENDBRANCH   2   3
BRANCH   2  14
HETATM   14  C   UNL     1     -11.682  13.797  68.525  1.00  0.00    -0.356 A  
HETATM   15  C   UNL     1     -12.153  11.903  69.794  1.00  0.00    -0.252 A  
HETATM   16  N   UNL     1     -12.517  12.610  70.867  1.00  0.00    -0.343 NA 
HETATM   17  C   UNL     1     -12.414  13.944  70.756  1.00  0.00    -0.375 A  
HETATM   18  C   UNL     1     -11.993  14.588  69.614  1.00  0.00    -0.375 A  
HETATM   19  N   UNL     1     -11.760  12.458  68.638  1.00  0.00    -0.312 NA 
BRANCH  15  20
HETATM   20  N   UNL     1     -12.228  10.516  69.895  1.00  0.00    -0.484 NA 
HETATM   21  H   UNL     1     -12.708  10.038  69.133  1.00  0.00     0.000 HD 
BRANCH  20  22
HETATM   22  C   UNL     1     -11.727   9.693  70.914  1.00  0.00    -0.334 A  
HETATM   23  C   UNL     1     -12.614   9.108  71.819  1.00  0.00    -0.446 A  
HETATM   24  C   UNL     1     -12.158   8.212  72.791  1.00  0.00    -0.208 A  
HETATM   25  C   UNL     1     -10.795   7.880  72.901  1.00  0.00    -0.451 A  
HETATM   26  C   UNL     1      -9.894   8.499  72.016  1.00  0.00    -0.312 A  
HETATM   27  C   UNL     1     -10.385   6.898  73.957  1.00  0.00    -0.355 C  
HETATM   28  C   UNL     1     -10.367   9.384  71.033  1.00  0.00    -0.382 A  
BRANCH  26  29
HETATM   29  S   UNL     1      -8.121   8.274  72.099  1.00  0.00    -0.140 S  
HETATM   30  O   UNL     1      -7.790   6.930  71.698  1.00  0.00    -0.098 OA 
HETATM   31  O   UNL     1      -7.646   8.831  73.347  1.00  0.00    -0.384 OA 
HETATM   32  N   UNL     1      -7.589   9.305  70.889  1.00  0.00    -0.127 N  
HETATM   33  H1  UNL     1      -6.578   9.177  70.936  1.00  0.00     0.000 HD 
HETATM   34  H2  UNL     1      -8.134   9.903  70.268  1.00  0.00     0.000 HD 
ENDBRANCH  26  29
ENDBRANCH  20  22
ENDBRANCH  15  20
ENDBRANCH   2  14
TORSDOF 5
ENDMDL
MODEL       16
REMARK 921   NORMALIZED FREE ENERGY PREDICTED BY IDOCK:   -7.87 KCAL/MOL
REMARK 922        TOTAL FREE ENERGY PREDICTED BY IDOCK:  -10.64 KCAL/MOL
REMARK 923 INTER-LIGAND FREE ENERGY PREDICTED BY IDOCK:   -9.84 KCAL/MOL
REMARK 924 INTRA-LIGAND FREE ENERGY PREDICTED BY IDOCK:   -0.80 KCAL/MOL
REMARK 927      BINDING AFFINITY PREDICTED BY RF-SCORE:    0.00 PKD
ROOT
HETATM    1  C   UNL     1     -11.790  15.777  70.030  1.00  0.00    -0.354 C  
HETATM    2  N   UNL     1     -11.137  15.523  68.745  1.00  0.00    -0.272 NA 
ENDROOT
BRANCH   2   3
HETATM    3  C   UNL     1     -10.326  16.567  68.212  1.00  0.00    -0.293 A  
HETATM    4  C   UNL     1      -9.521  18.957  68.553  1.00  0.00    -0.416 A  
HETATM    5  C   UNL     1      -7.383  20.897  67.252  1.00  0.00    -0.378 C  
HETATM    6  C   UNL     1      -9.526  16.363  67.056  1.00  0.00    -0.240 A  
HETATM    7  C   UNL     1      -8.720  17.457  66.689  1.00  0.00    -0.260 A  
HETATM    8  C   UNL     1      -8.742  18.681  67.441  1.00  0.00    -0.281 A  
HETATM    9  C   UNL     1      -7.822  19.530  66.874  1.00  0.00    -0.266 A  
HETATM   10  N   UNL     1      -7.852  17.581  65.672  1.00  0.00    -0.407 NA 
HETATM   11  N   UNL     1      -7.319  18.814  65.814  1.00  0.00    -0.469 NA 
HETATM   12  C   UNL     1      -6.306  19.243  64.876  1.00  0.00    -0.232 C  
HETATM   13  C   UNL     1     -10.317  17.841  68.899  1.00  0.00    -0.300 A  
ENDBRANCH   2   3
BRANCH   2  14
HETATM   14  C   UNL     1     -11.178  14.203  68.244  1.00  0.00    -0.272 A  
HETATM   15  C   UNL     1     -10.340  12.034  68.331  1.00  0.00    -0.214 A  
HETATM   16  N   UNL     1     -11.071  11.620  67.293  1.00  0.00    -0.273 NA 
HETATM   17  C   UNL     1     -11.901  12.529  66.759  1.00  0.00    -0.346 A  
HETATM   18  C   UNL     1     -12.002  13.829  67.200  1.00  0.00    -0.442 A  
HETATM   19  N   UNL     1     -10.362  13.290  68.801  1.00  0.00    -0.189 NA 
BRANCH  15  20
HETATM   20  N   UNL     1      -9.489  11.099  68.919  1.00  0.00    -0.338 NA 
HETATM   21  H   UNL     1      -8.524  11.106  68.590  1.00  0.00     0.000 HD 
BRANCH  20  22
HETATM   22  C   UNL     1      -9.794  10.150  69.904  1.00  0.00    -0.177 A  
HETATM   23  C   UNL     1      -8.756   9.486  70.560  1.00  0.00    -0.247 A  
HETATM   24  C   UNL     1      -9.021   8.601  71.609  1.00  0.00    -0.305 A  
HETATM   25  C   UNL     1     -10.337   8.338  72.031  1.00  0.00    -0.350 A  
HETATM   26  C   UNL     1     -11.388   8.975  71.347  1.00  0.00    -0.323 A  
HETATM   27  C   UNL     1     -10.542   7.390  73.175  1.00  0.00    -0.424 C  
HETATM   28  C   UNL     1     -11.108   9.875  70.305  1.00  0.00    -0.368 A  
BRANCH  26  29
HETATM   29  S   UNL     1     -13.117   8.660  71.683  1.00  0.00    -0.338 S  
HETATM   30  O   UNL     1     -13.433   9.104  73.017  1.00  0.00    -0.270 OA 
HETATM   31  O   UNL     1     -13.435   7.322  71.234  1.00  0.00    -0.369 OA 
HETATM   32  N   UNL     1     -13.869   9.709  70.613  1.00  0.00    -0.428 N  
HETATM   33  H1  UNL     1     -14.855   9.530  70.805  1.00  0.00     0.000 HD 
HETATM   34  H2  UNL     1     -13.451  10.356  69.946  1.00  0.00     0.000 HD 
ENDBRANCH  26  29
ENDBRANCH  20  22
ENDBRANCH  15  20
ENDBRANCH   2  14
TORSDOF 5
ENDMDL
MODEL       17
REMARK 921   NORMALIZED FREE ENERGY PREDICTED BY IDOCK:   -7.85 KCAL/MOL
REMARK 922        TOTAL FREE ENERGY PREDICTED BY IDOCK:  -10.61 KCAL/MOL
REMARK 923 INTER-LIGAND FREE ENERGY PREDICTED BY IDOCK:   -9.58 KCAL/MOL
REMARK 924 INTRA-LIGAND FREE ENERGY PREDICTED BY IDOCK:   -1.03 KCAL/MOL
REMARK 927      BINDING AFFINITY PREDICTED BY RF-SCORE:    0.00 PKD
ROOT
HETATM    1  C   UNL     1     -12.682  12.027  63.774  1.00  0.00    -0.400 C  
HETATM    2  N   UNL     1     -11.384  12.213  64.424  1.00  0.00    -0.328 NA 
ENDROOT
BRANCH   2   3
HETATM    3  C   UNL     1     -11.331  13.130  65.514  1.00  0.00    -0.299 A  
HETATM    4  C   UNL     1     -11.647  13.399  68.025  1.00  0.00    -0.369 A  
HETATM    5  C   UNL     1     -11.107  15.627  70.210  1.00  0.00    -0.361 C  
HETATM    6  C   UNL     1     -10.897  14.470  65.331  1.00  0.00    -0.362 A  
HETATM    7  C   UNL     1     -10.824  15.239  66.507  1.00  0.00    -0.311 A  
HETATM    8  C   UNL     1     -11.185  14.683  67.781  1.00  0.00    -0.320 A  
HETATM    9  C   UNL     1     -10.962  15.649  68.733  1.00  0.00    -0.281 A  
HETATM   10  N   UNL     1     -10.443  16.515  66.676  1.00  0.00    -0.290 NA 
HETATM   11  N   UNL     1     -10.516  16.730  68.008  1.00  0.00    -0.319 NA 
HETATM   12  C   UNL     1     -10.129  18.024  68.524  1.00  0.00    -0.393 C  
HETATM   13  C   UNL     1     -11.708  12.651  66.827  1.00  0.00    -0.460 A  
ENDBRANCH   2   3
BRANCH   2  14
HETATM   14  C   UNL     1     -10.347  11.320  64.076  1.00  0.00    -0.371 A  
HETATM   15  C   UNL     1      -9.131   9.407  64.603  1.00  0.00    -0.173 A  
HETATM   16  N   UNL     1      -8.287   9.560  63.579  1.00  0.00    -0.163 NA 
HETATM   17  C   UNL     1      -8.525  10.606  62.772  1.00  0.00    -0.196 A  
HETATM   18  C   UNL     1      -9.544  11.509  62.967  1.00  0.00    -0.371 A  
HETATM   19  N   UNL     1     -10.130  10.260  64.875  1.00  0.00    -0.326 NA 
BRANCH  15  20
HETATM   20  N   UNL     1      -8.918   8.314  65.441  1.00  0.00    -0.384 NA 
HETATM   21  H   UNL     1      -8.140   7.704  65.190  1.00  0.00     0.000 HD 
BRANCH  20  22
HETATM   22  C   UNL     1      -9.640   7.946  66.585  1.00  0.00    -0.226 A  
HETATM   23  C   UNL     1     -10.287   6.710  66.618  1.00  0.00    -0.215 A  
HETATM   24  C   UNL     1     -10.940   6.273  67.775  1.00  0.00    -0.427 A  
HETATM   25  C   UNL     1     -10.980   7.066  68.937  1.00  0.00    -0.162 A  
HETATM   26  C   UNL     1     -10.363   8.329  68.894  1.00  0.00    -0.215 A  
HETATM   27  C   UNL     1     -11.684   6.523  70.145  1.00  0.00    -0.419 C  
HETATM   28  C   UNL     1      -9.696   8.749  67.730  1.00  0.00    -0.194 A  
BRANCH  26  29
HETATM   29  S   UNL     1     -10.425   9.503  70.243  1.00  0.00    -0.290 S  
HETATM   30  O   UNL     1      -9.684   8.981  71.364  1.00  0.00    -0.276 OA 
HETATM   31  O   UNL     1     -11.788   9.967  70.386  1.00  0.00    -0.267 OA 
HETATM   32  N   UNL     1      -9.551  10.789  69.618  1.00  0.00    -0.414 N  
HETATM   33  H1  UNL     1      -9.586  11.458  70.387  1.00  0.00     0.000 HD 
HETATM   34  H2  UNL     1      -9.102  10.879  68.706  1.00  0.00     0.000 HD 
ENDBRANCH  26  29
ENDBRANCH  20  22
ENDBRANCH  15  20
ENDBRANCH   2  14
TORSDOF 5
ENDMDL
MODEL       18
REMARK 921   NORMALIZED FREE ENERGY PREDICTED BY IDOCK:   -7.83 KCAL/MOL
REMARK 922        TOTAL FREE ENERGY PREDICTED BY IDOCK:  -10.58 KCAL/MOL
REMARK 923 INTER-LIGAND FREE ENERGY PREDICTED BY IDOCK:   -9.80 KCAL/MOL
REMARK 924 INTRA-LIGAND FREE ENERGY PREDICTED BY IDOCK:   -0.78 KCAL/MOL
REMARK 927      BINDING AFFINITY PREDICTED BY RF-SCORE:    0.00 PKD
ROOT
HETATM    1  C   UNL     1     -11.959  15.588  70.327  1.00  0.00    -0.374 C  
HETATM    2  N   UNL     1     -11.346  15.483  69.002  1.00  0.00    -0.302 NA 
ENDROOT
BRANCH   2   3
HETATM    3  C   UNL     1     -10.355  16.453  68.668  1.00  0.00    -0.273 A  
HETATM    4  C   UNL     1      -9.948  18.733  67.614  1.00  0.00    -0.390 A  
HETATM    5  C   UNL     1      -7.535  20.764  67.330  1.00  0.00    -0.381 C  
HETATM    6  C   UNL     1      -8.996  16.277  69.039  1.00  0.00    -0.254 A  
HETATM    7  C   UNL     1      -8.145  17.349  68.710  1.00  0.00    -0.234 A  
HETATM    8  C   UNL     1      -8.645  18.513  68.033  1.00  0.00    -0.310 A  
HETATM    9  C   UNL     1      -7.600  19.394  67.898  1.00  0.00    -0.281 A  
HETATM   10  N   UNL     1      -6.830  17.500  68.931  1.00  0.00    -0.236 NA 
HETATM   11  N   UNL     1      -6.533  18.730  68.456  1.00  0.00    -0.218 NA 
HETATM   12  C   UNL     1      -5.176  19.212  68.582  1.00  0.00    -0.189 C  
HETATM   13  C   UNL     1     -10.778  17.643  67.960  1.00  0.00    -0.333 A  
ENDBRANCH   2   3
BRANCH   2  14
HETATM   14  C   UNL     1     -11.615  14.319  68.251  1.00  0.00    -0.324 A  
HETATM   15  C   UNL     1     -12.024  12.028  68.242  1.00  0.00    -0.179 A  
HETATM   16  N   UNL     1     -12.035  11.950  66.908  1.00  0.00    -0.591 NA 
HETATM   17  C   UNL     1     -11.870  13.108  66.250  1.00  0.00    -0.401 A  
HETATM   18  C   UNL     1     -11.666  14.320  66.870  1.00  0.00    -0.430 A  
HETATM   19  N   UNL     1     -11.804  13.165  68.917  1.00  0.00    -0.317 NA 
BRANCH  15  20
HETATM   20  N   UNL     1     -12.219  10.841  68.946  1.00  0.00    -0.795 NA 
HETATM   21  H   UNL     1     -13.177  10.493  68.977  1.00  0.00     0.000 HD 
BRANCH  20  22
HETATM   22  C   UNL     1     -11.264  10.066  69.618  1.00  0.00    -0.239 A  
HETATM   23  C   UNL     1      -9.907  10.331  69.422  1.00  0.00    -0.247 A  
HETATM   24  C   UNL     1      -8.931   9.637  70.144  1.00  0.00    -0.273 A  
HETATM   25  C   UNL     1      -9.277   8.644  71.078  1.00  0.00    -0.253 A  
HETATM   26  C   UNL     1     -10.641   8.348  71.249  1.00  0.00    -0.222 A  
HETATM   27  C   UNL     1      -8.175   7.956  71.827  1.00  0.00    -0.139 C  
HETATM   28  C   UNL     1     -11.614   9.063  70.530  1.00  0.00    -0.209 A  
BRANCH  26  29
HETATM   29  S   UNL     1     -11.240   7.037  72.309  1.00  0.00    -0.273 S  
HETATM   30  O   UNL     1     -10.862   7.314  73.672  1.00  0.00    -0.356 OA 
HETATM   31  O   UNL     1     -10.939   5.768  71.683  1.00  0.00    -0.258 OA 
HETATM   32  N   UNL     1     -12.900   7.237  72.197  1.00  0.00    -0.519 N  
HETATM   33  H1  UNL     1     -13.241   6.490  72.802  1.00  0.00     0.000 HD 
HETATM   34  H2  UNL     1     -13.430   7.926  71.664  1.00  0.00     0.000 HD 
ENDBRANCH  26  29
ENDBRANCH  20  22
ENDBRANCH  15  20
ENDBRANCH   2  14
TORSDOF 5
ENDMDL
MODEL       19
REMARK 921   NORMALIZED FREE ENERGY PREDICTED BY IDOCK:   -7.81 KCAL/MOL
REMARK 922        TOTAL FREE ENERGY PREDICTED BY IDOCK:  -10.56 KCAL/MOL
REMARK 923 INTER-LIGAND FREE ENERGY PREDICTED BY IDOCK:  -10.38 KCAL/MOL
REMARK 924 INTRA-LIGAND FREE ENERGY PREDICTED BY IDOCK:   -0.18 KCAL/MOL
REMARK 927      BINDING AFFINITY PREDICTED BY RF-SCORE:    0.00 PKD
ROOT
HETATM    1  C   UNL     1     -14.375   8.421  71.904  1.00  0.00    -0.473 C  
HETATM    2  N   UNL     1     -12.990   8.866  71.737  1.00  0.00    -0.345 NA 
ENDROOT
BRANCH   2   3
HETATM    3  C   UNL     1     -11.981   7.859  71.745  1.00  0.00    -0.298 A  
HETATM    4  C   UNL     1     -10.112   6.798  73.109  1.00  0.00    -0.227 A  
HETATM    5  C   UNL     1      -8.222   4.267  72.885  1.00  0.00    -0.094 C  
HETATM    6  C   UNL     1     -11.840   6.946  70.667  1.00  0.00    -0.418 A  
HETATM    7  C   UNL     1     -10.852   5.960  70.846  1.00  0.00    -0.279 A  
HETATM    8  C   UNL     1     -10.050   5.920  72.037  1.00  0.00    -0.223 A  
HETATM    9  C   UNL     1      -9.221   4.829  71.941  1.00  0.00    -0.137 A  
HETATM   10  N   UNL     1     -10.484   4.956  70.034  1.00  0.00    -0.174 NA 
HETATM   11  N   UNL     1      -9.526   4.288  70.714  1.00  0.00    -0.156 NA 
HETATM   12  C   UNL     1      -8.943   3.110  70.112  1.00  0.00    -0.105 C  
HETATM   13  C   UNL     1     -11.114   7.773  72.901  1.00  0.00    -0.457 A  
ENDBRANCH   2   3
BRANCH   2  14
HETATM   14  C   UNL     1     -12.779  10.211  71.363  1.00  0.00    -0.425 A  
HETATM   15  C   UNL     1     -11.689  11.723  69.969  1.00  0.00    -0.305 A  
HETATM   16  N   UNL     1     -12.187  12.791  70.599  1.00  0.00    -0.357 NA 
HETATM   17  C   UNL     1     -13.033  12.536  71.609  1.00  0.00    -0.302 A  
HETATM   18  C   UNL     1     -13.371  11.269  72.026  1.00  0.00    -0.386 A  
HETATM   19  N   UNL     1     -11.949  10.458  70.334  1.00  0.00    -0.297 NA 
BRANCH  15  20
HETATM   20  N   UNL     1     -10.828  11.963  68.901  1.00  0.00    -0.244 NA 
HETATM   21  H   UNL     1     -10.012  11.354  68.839  1.00  0.00     0.000 HD 
BRANCH  20  22
HETATM   22  C   UNL     1     -10.941  12.937  67.899  1.00  0.00    -0.241 A  
HETATM   23  C   UNL     1     -10.453  14.223  68.138  1.00  0.00    -0.246 A  
HETATM   24  C   UNL     1     -10.468  15.194  67.130  1.00  0.00    -0.280 A  
HETATM   25  C   UNL     1     -10.985  14.914  65.852  1.00  0.00    -0.338 A  
HETATM   26  C   UNL     1     -11.513  13.632  65.621  1.00  0.00    -0.308 A  
HETATM   27  C   UNL     1     -10.950  16.000  64.818  1.00  0.00    -0.373 C  
HETATM   28  C   UNL     1     -11.477  12.660  66.636  1.00  0.00    -0.409 A  
BRANCH  26  29
HETATM   29  S   UNL     1     -12.310  13.155  64.092  1.00  0.00    -0.321 S  
HETATM   30  O   UNL     1     -12.700  14.338  63.366  1.00  0.00    -0.733 OA 
HETATM   31  O   UNL     1     -13.253  12.096  64.377  1.00  0.00    -0.758 OA 
HETATM   32  N   UNL     1     -11.043  12.446  63.253  1.00  0.00    -0.666 N  
HETATM   33  H1  UNL     1     -11.498  12.174  62.381  1.00  0.00     0.000 HD 
HETATM   34  H2  UNL     1     -10.073  12.319  63.540  1.00  0.00     0.000 HD 
ENDBRANCH  26  29
ENDBRANCH  20  22
ENDBRANCH  15  20
ENDBRANCH   2  14
TORSDOF 5
ENDMDL
MODEL       20
REMARK 921   NORMALIZED FREE ENERGY PREDICTED BY IDOCK:   -7.80 KCAL/MOL
REMARK 922        TOTAL FREE ENERGY PREDICTED BY IDOCK:  -10.54 KCAL/MOL
REMARK 923 INTER-LIGAND FREE ENERGY PREDICTED BY IDOCK:   -9.31 KCAL/MOL
REMARK 924 INTRA-LIGAND FREE ENERGY PREDICTED BY IDOCK:   -1.23 KCAL/MOL
REMARK 927      BINDING AFFINITY PREDICTED BY RF-SCORE:    0.00 PKD
ROOT
HETATM    1  C   UNL     1     -10.513  15.803  66.331  1.00  0.00    -0.303 C  
HETATM    2  N   UNL     1     -10.906  14.402  66.487  1.00  0.00    -0.305 NA 
ENDROOT
BRANCH   2   3
HETATM    3  C   UNL     1     -11.360  13.996  67.776  1.00  0.00    -0.303 A  
HETATM    4  C   UNL     1     -12.303  14.801  69.999  1.00  0.00    -0.365 A  
HETATM    5  C   UNL     1     -13.526  13.497  72.613  1.00  0.00    -0.572 C  
HETATM    6  C   UNL     1     -11.441  12.623  68.132  1.00  0.00    -0.359 A  
HETATM    7  C   UNL     1     -11.978  12.369  69.408  1.00  0.00    -0.260 A  
HETATM    8  C   UNL     1     -12.387  13.444  70.269  1.00  0.00    -0.354 A  
HETATM    9  C   UNL     1     -12.910  12.883  71.409  1.00  0.00    -0.283 A  
HETATM   10  N   UNL     1     -12.200  11.199  70.028  1.00  0.00    -0.326 NA 
HETATM   11  N   UNL     1     -12.770  11.530  71.208  1.00  0.00    -0.398 NA 
HETATM   12  C   UNL     1     -13.168  10.470  72.106  1.00  0.00    -0.293 C  
HETATM   13  C   UNL     1     -11.764  15.024  68.711  1.00  0.00    -0.360 A  
ENDBRANCH   2   3
BRANCH   2  14
HETATM   14  C   UNL     1     -11.016  13.622  65.316  1.00  0.00    -0.310 A  
HETATM   15  C   UNL     1     -10.085  11.995  63.934  1.00  0.00    -0.369 A  
HETATM   16  N   UNL     1     -11.043  12.113  63.010  1.00  0.00    -0.142 NA 
HETATM   17  C   UNL     1     -12.024  12.986  63.288  1.00  0.00    -0.421 A  
HETATM   18  C   UNL     1     -12.065  13.757  64.427  1.00  0.00    -0.474 A  
HETATM   19  N   UNL     1     -10.041  12.731  65.055  1.00  0.00    -0.253 NA 
BRANCH  15  20
HETATM   20  N   UNL     1      -9.069  11.077  63.679  1.00  0.00    -0.347 NA 
HETATM   21  H   UNL     1      -8.358  11.372  63.011  1.00  0.00     0.000 HD 
BRANCH  20  22
HETATM   22  C   UNL     1      -8.903   9.796  64.225  1.00  0.00    -0.228 A  
HETATM   23  C   UNL     1      -8.057   8.886  63.589  1.00  0.00    -0.167 A  
HETATM   24  C   UNL     1      -7.798   7.633  64.153  1.00  0.00    -0.133 A  
HETATM   25  C   UNL     1      -8.388   7.241  65.369  1.00  0.00    -0.127 A  
HETATM   26  C   UNL     1      -9.271   8.141  65.993  1.00  0.00    -0.147 A  
HETATM   27  C   UNL     1      -8.048   5.889  65.922  1.00  0.00    -0.118 C  
HETATM   28  C   UNL     1      -9.510   9.404  65.424  1.00  0.00    -0.322 A  
BRANCH  26  29
HETATM   29  S   UNL     1     -10.188   7.751  67.478  1.00  0.00    -0.259 S  
HETATM   30  O   UNL     1      -9.270   7.568  68.574  1.00  0.00    -0.143 OA 
HETATM   31  O   UNL     1     -11.187   6.756  67.153  1.00  0.00    -0.379 OA 
HETATM   32  N   UNL     1     -11.018   9.181  67.753  1.00  0.00    -0.492 N  
HETATM   33  H1  UNL     1     -11.541   8.959  68.600  1.00  0.00     0.000 HD 
HETATM   34  H2  UNL     1     -11.004  10.047  67.214  1.00  0.00     0.000 HD 
ENDBRANCH  26  29
ENDBRANCH  20  22
ENDBRANCH  15  20
ENDBRANCH   2  14
TORSDOF 5
ENDMDL
MODEL       21
REMARK 921   NORMALIZED FREE ENERGY PREDICTED BY IDOCK:   -7.73 KCAL/MOL
REMARK 922        TOTAL FREE ENERGY PREDICTED BY IDOCK:  -10.45 KCAL/MOL
REMARK 923 INTER-LIGAND FREE ENERGY PREDICTED BY IDOCK:   -9.69 KCAL/MOL
REMARK 924 INTRA-LIGAND FREE ENERGY PREDICTED BY IDOCK:   -0.75 KCAL/MOL
REMARK 927      BINDING AFFINITY PREDICTED BY RF-SCORE:    0.00 PKD
ROOT
HETATM    1  C   UNL     1      -8.839  10.737  65.286  1.00  0.00    -0.187 C  
HETATM    2  N   UNL     1     -10.141  11.170  65.792  1.00  0.00    -0.239 NA 
ENDROOT
BRANCH   2   3
HETATM    3  C   UNL     1     -10.456  10.837  67.143  1.00  0.00    -0.237 A  
HETATM    4  C   UNL     1     -12.155  11.126  69.015  1.00  0.00    -0.315 A  
HETATM    5  C   UNL     1     -12.663   9.918  71.898  1.00  0.00    -0.501 C  
HETATM    6  C   UNL     1      -9.634   9.958  67.896  1.00  0.00    -0.157 A  
HETATM    7  C   UNL     1     -10.107   9.661  69.188  1.00  0.00    -0.189 A  
HETATM    8  C   UNL     1     -11.327  10.237  69.683  1.00  0.00    -0.315 A  
HETATM    9  C   UNL     1     -11.548   9.723  70.938  1.00  0.00    -0.361 A  
HETATM   10  N   UNL     1      -9.582   8.864  70.133  1.00  0.00    -0.171 NA 
HETATM   11  N   UNL     1     -10.464   8.904  71.156  1.00  0.00    -0.242 NA 
HETATM   12  C   UNL     1     -10.198   8.107  72.332  1.00  0.00    -0.298 C  
HETATM   13  C   UNL     1     -11.656  11.402  67.722  1.00  0.00    -0.325 A  
ENDBRANCH   2   3
BRANCH   2  14
HETATM   14  C   UNL     1     -10.887  12.062  64.992  1.00  0.00    -0.304 A  
HETATM   15  C   UNL     1     -11.286  14.259  64.334  1.00  0.00    -0.273 A  
HETATM   16  N   UNL     1     -12.331  13.929  63.570  1.00  0.00    -0.765 NA 
HETATM   17  C   UNL     1     -12.617  12.619  63.499  1.00  0.00    -0.311 A  
HETATM   18  C   UNL     1     -11.923  11.645  64.179  1.00  0.00    -0.238 A  
HETATM   19  N   UNL     1     -10.579  13.371  65.048  1.00  0.00    -0.337 NA 
BRANCH  15  20
HETATM   20  N   UNL     1     -10.955  15.611  64.403  1.00  0.00    -0.792 NA 
HETATM   21  H   UNL     1     -10.943  16.113  63.515  1.00  0.00     0.000 HD 
BRANCH  20  22
HETATM   22  C   UNL     1     -10.636  16.367  65.539  1.00  0.00    -0.330 A  
HETATM   23  C   UNL     1     -10.728  17.759  65.483  1.00  0.00    -0.009 A  
HETATM   24  C   UNL     1     -10.503  18.538  66.623  1.00  0.00    -0.436 A  
HETATM   25  C   UNL     1     -10.166  17.952  67.856  1.00  0.00    -0.375 A  
HETATM   26  C   UNL     1     -10.034  16.553  67.906  1.00  0.00    -0.245 A  
HETATM   27  C   UNL     1      -9.958  18.852  69.038  1.00  0.00    -0.365 C  
HETATM   28  C   UNL     1     -10.278  15.780  66.759  1.00  0.00    -0.284 A  
BRANCH  26  29
HETATM   29  S   UNL     1      -9.499  15.665  69.365  1.00  0.00    -0.275 S  
HETATM   30  O   UNL     1     -10.540  15.709  70.360  1.00  0.00    -0.322 OA 
HETATM   31  O   UNL     1      -8.142  16.062  69.671  1.00  0.00    -0.122 OA 
HETATM   32  N   UNL     1      -9.414  14.091  68.795  1.00  0.00    -0.371 N  
HETATM   33  H1  UNL     1      -9.110  13.585  69.627  1.00  0.00     0.000 HD 
HETATM   34  H2  UNL     1      -9.615  13.733  67.862  1.00  0.00     0.000 HD 
ENDBRANCH  26  29
ENDBRANCH  20  22
ENDBRANCH  15  20
ENDBRANCH   2  14
TORSDOF 5
ENDMDL
MODEL       22
REMARK 921   NORMALIZED FREE ENERGY PREDICTED BY IDOCK:   -7.70 KCAL/MOL
REMARK 922        TOTAL FREE ENERGY PREDICTED BY IDOCK:  -10.42 KCAL/MOL
REMARK 923 INTER-LIGAND FREE ENERGY PREDICTED BY IDOCK:   -9.89 KCAL/MOL
REMARK 924 INTRA-LIGAND FREE ENERGY PREDICTED BY IDOCK:   -0.52 KCAL/MOL
REMARK 927      BINDING AFFINITY PREDICTED BY RF-SCORE:    0.00 PKD
ROOT
HETATM    1  C   UNL     1     -12.220  13.974  69.965  1.00  0.00    -0.352 C  
HETATM    2  N   UNL     1     -11.604  12.959  69.110  1.00  0.00    -0.304 NA 
ENDROOT
BRANCH   2   3
HETATM    3  C   UNL     1     -11.557  11.627  69.617  1.00  0.00    -0.330 A  
HETATM    4  C   UNL     1     -12.542  10.013  71.320  1.00  0.00    -0.495 A  
HETATM    5  C   UNL     1     -12.379   6.913  71.949  1.00  0.00    -0.364 C  
HETATM    6  C   UNL     1     -10.721  10.642  69.027  1.00  0.00    -0.257 A  
HETATM    7  C   UNL     1     -10.835   9.354  69.583  1.00  0.00    -0.228 A  
HETATM    8  C   UNL     1     -11.728   9.094  70.678  1.00  0.00    -0.256 A  
HETATM    9  C   UNL     1     -11.654   7.751  70.961  1.00  0.00    -0.283 A  
HETATM   10  N   UNL     1     -10.204   8.216  69.249  1.00  0.00    -0.210 NA 
HETATM   11  N   UNL     1     -10.721   7.275  70.070  1.00  0.00    -0.240 NA 
HETATM   12  C   UNL     1     -10.265   5.910  69.933  1.00  0.00    -0.218 C  
HETATM   13  C   UNL     1     -12.409  11.295  70.739  1.00  0.00    -0.495 A  
ENDBRANCH   2   3
BRANCH   2  14
HETATM   14  C   UNL     1     -11.307  13.321  67.778  1.00  0.00    -0.295 A  
HETATM   15  C   UNL     1      -9.879  14.421  66.306  1.00  0.00    -0.304 A  
HETATM   16  N   UNL     1     -10.660  14.192  65.246  1.00  0.00    -0.349 NA 
HETATM   17  C   UNL     1     -11.768  13.472  65.477  1.00  0.00    -0.340 A  
HETATM   18  C   UNL     1     -12.134  13.004  66.719  1.00  0.00    -0.366 A  
HETATM   19  N   UNL     1     -10.181  14.023  67.550  1.00  0.00    -0.243 NA 
BRANCH  15  20
HETATM   20  N   UNL     1      -8.710  15.146  66.085  1.00  0.00    -0.441 NA 
HETATM   21  H   UNL     1      -8.059  14.748  65.408  1.00  0.00     0.000 HD 
BRANCH  20  22
HETATM   22  C   UNL     1      -8.316  16.354  66.676  1.00  0.00    -0.270 A  
HETATM   23  C   UNL     1      -6.976  16.544  67.018  1.00  0.00    -0.250 A  
HETATM   24  C   UNL     1      -6.532  17.769  67.527  1.00  0.00    -0.176 A  
HETATM   25  C   UNL     1      -7.418  18.845  67.723  1.00  0.00    -0.260 A  
HETATM   26  C   UNL     1      -8.775  18.644  67.416  1.00  0.00    -0.269 A  
HETATM   27  C   UNL     1      -6.865  20.133  68.254  1.00  0.00    -0.335 C  
HETATM   28  C   UNL     1      -9.206  17.414  66.890  1.00  0.00    -0.266 A  
BRANCH  26  29
HETATM   29  S   UNL     1     -10.045  19.869  67.716  1.00  0.00    -0.432 S  
HETATM   30  O   UNL     1     -11.285  19.426  67.129  1.00  0.00    -0.351 OA 
HETATM   31  O   UNL     1      -9.497  21.177  67.431  1.00  0.00    -0.303 OA 
HETATM   32  N   UNL     1     -10.218  19.781  69.380  1.00  0.00    -0.611 N  
HETATM   33  H1  UNL     1     -10.942  20.479  69.552  1.00  0.00     0.000 HD 
HETATM   34  H2  UNL     1      -9.727  19.186  70.048  1.00  0.00     0.000 HD 
ENDBRANCH  26  29
ENDBRANCH  20  22
ENDBRANCH  15  20
ENDBRANCH   2  14
TORSDOF 5
ENDMDL
MODEL       23
REMARK 921   NORMALIZED FREE ENERGY PREDICTED BY IDOCK:   -7.69 KCAL/MOL
REMARK 922        TOTAL FREE ENERGY PREDICTED BY IDOCK:  -10.40 KCAL/MOL
REMARK 923 INTER-LIGAND FREE ENERGY PREDICTED BY IDOCK:   -9.63 KCAL/MOL
REMARK 924 INTRA-LIGAND FREE ENERGY PREDICTED BY IDOCK:   -0.77 KCAL/MOL
REMARK 927      BINDING AFFINITY PREDICTED BY RF-SCORE:    0.00 PKD
ROOT
HETATM    1  C   UNL     1      -8.548  11.023  65.290  1.00  0.00    -0.046 C  
HETATM    2  N   UNL     1      -9.924  11.246  65.735  1.00  0.00    -0.227 NA 
ENDROOT
BRANCH   2   3
HETATM    3  C   UNL     1     -10.271  10.768  67.033  1.00  0.00    -0.217 A  
HETATM    4  C   UNL     1      -9.517   9.328  68.990  1.00  0.00    -0.155 A  
HETATM    5  C   UNL     1     -10.477   8.744  71.951  1.00  0.00    -0.423 C  
HETATM    6  C   UNL     1     -11.455  11.201  67.686  1.00  0.00    -0.328 A  
HETATM    7  C   UNL     1     -11.631  10.706  68.991  1.00  0.00    -0.261 A  
HETATM    8  C   UNL     1     -10.671   9.815  69.583  1.00  0.00    -0.264 A  
HETATM    9  C   UNL     1     -11.088   9.551  70.865  1.00  0.00    -0.336 A  
HETATM   10  N   UNL     1     -12.621  10.932  69.870  1.00  0.00    -0.232 NA 
HETATM   11  N   UNL     1     -12.267  10.250  70.981  1.00  0.00    -0.350 NA 
HETATM   12  C   UNL     1     -13.126  10.322  72.141  1.00  0.00    -0.343 C  
HETATM   13  C   UNL     1      -9.367   9.844  67.683  1.00  0.00    -0.156 A  
ENDBRANCH   2   3
BRANCH   2  14
HETATM   14  C   UNL     1     -10.731  12.100  64.952  1.00  0.00    -0.295 A  
HETATM   15  C   UNL     1     -11.240  14.271  64.287  1.00  0.00    -0.132 A  
HETATM   16  N   UNL     1     -12.295  13.892  63.562  1.00  0.00    -0.765 NA 
HETATM   17  C   UNL     1     -12.530  12.571  63.513  1.00  0.00    -0.459 A  
HETATM   18  C   UNL     1     -11.776  11.632  64.178  1.00  0.00    -0.305 A  
HETATM   19  N   UNL     1     -10.474  13.420  64.986  1.00  0.00    -0.346 NA 
BRANCH  15  20
HETATM   20  N   UNL     1     -10.961  15.636  64.333  1.00  0.00    -0.792 NA 
HETATM   21  H   UNL     1     -10.991  16.128  63.440  1.00  0.00     0.000 HD 
BRANCH  20  22
HETATM   22  C   UNL     1     -10.645  16.418  65.452  1.00  0.00    -0.320 A  
HETATM   23  C   UNL     1     -10.620  17.809  65.331  1.00  0.00     0.074 A  
HETATM   24  C   UNL     1     -10.396  18.622  66.447  1.00  0.00    -0.472 A  
HETATM   25  C   UNL     1     -10.177  18.071  67.722  1.00  0.00    -0.385 A  
HETATM   26  C   UNL     1     -10.162  16.670  67.841  1.00  0.00    -0.284 A  
HETATM   27  C   UNL     1      -9.962  19.007  68.874  1.00  0.00    -0.460 C  
HETATM   28  C   UNL     1     -10.405  15.864  66.715  1.00  0.00    -0.298 A  
BRANCH  26  29
HETATM   29  S   UNL     1      -9.784  15.813  69.366  1.00  0.00    -0.284 S  
HETATM   30  O   UNL     1     -10.735  16.196  70.378  1.00  0.00    -0.280 OA 
HETATM   31  O   UNL     1      -8.358  15.896  69.596  1.00  0.00    -0.159 OA 
HETATM   32  N   UNL     1     -10.103  14.221  68.952  1.00  0.00    -0.329 N  
HETATM   33  H1  UNL     1      -9.887  13.733  69.821  1.00  0.00     0.000 HD 
HETATM   34  H2  UNL     1     -10.428  13.840  68.063  1.00  0.00     0.000 HD 
ENDBRANCH  26  29
ENDBRANCH  20  22
ENDBRANCH  15  20
ENDBRANCH   2  14
TORSDOF 5
ENDMDL
MODEL       24
REMARK 921   NORMALIZED FREE ENERGY PREDICTED BY IDOCK:   -7.66 KCAL/MOL
REMARK 922        TOTAL FREE ENERGY PREDICTED BY IDOCK:  -10.37 KCAL/MOL
REMARK 923 INTER-LIGAND FREE ENERGY PREDICTED BY IDOCK:   -9.30 KCAL/MOL
REMARK 924 INTRA-LIGAND FREE ENERGY PREDICTED BY IDOCK:   -1.07 KCAL/MOL
REMARK 927      BINDING AFFINITY PREDICTED BY RF-SCORE:    0.00 PKD
ROOT
HETATM    1  C   UNL     1     -12.471  14.395  64.354  1.00  0.00    -0.312 C  
HETATM    2  N   UNL     1     -11.663  13.725  65.374  1.00  0.00    -0.324 NA 
ENDROOT
BRANCH   2   3
HETATM    3  C   UNL     1     -10.984  12.533  64.983  1.00  0.00    -0.294 A  
HETATM    4  C   UNL     1      -9.820  11.337  63.061  1.00  0.00    -0.370 A  
HETATM    5  C   UNL     1      -8.093   8.712  62.664  1.00  0.00    -0.177 C  
HETATM    6  C   UNL     1     -10.702  11.503  65.919  1.00  0.00    -0.325 A  
HETATM    7  C   UNL     1      -9.960  10.422  65.409  1.00  0.00    -0.295 A  
HETATM    8  C   UNL     1      -9.550  10.386  64.033  1.00  0.00    -0.376 A  
HETATM    9  C   UNL     1      -8.807   9.243  63.852  1.00  0.00    -0.126 A  
HETATM   10  N   UNL     1      -9.524   9.313  66.027  1.00  0.00    -0.227 NA 
HETATM   11  N   UNL     1      -8.827   8.637  65.087  1.00  0.00    -0.149 NA 
HETATM   12  C   UNL     1      -8.188   7.395  65.456  1.00  0.00    -0.135 C  
HETATM   13  C   UNL     1     -10.563  12.411  63.603  1.00  0.00    -0.481 A  
ENDBRANCH   2   3
BRANCH   2  14
HETATM   14  C   UNL     1     -11.440  14.414  66.585  1.00  0.00    -0.363 A  
HETATM   15  C   UNL     1     -11.877  14.589  68.865  1.00  0.00    -0.324 A  
HETATM   16  N   UNL     1     -11.184  15.723  68.996  1.00  0.00    -0.296 NA 
HETATM   17  C   UNL     1     -10.578  16.174  67.886  1.00  0.00    -0.309 A  
HETATM   18  C   UNL     1     -10.665  15.555  66.660  1.00  0.00    -0.306 A  
HETATM   19  N   UNL     1     -12.030  13.943  67.699  1.00  0.00    -0.381 NA 
BRANCH  15  20
HETATM   20  N   UNL     1     -12.494  14.088  70.009  1.00  0.00    -0.333 NA 
HETATM   21  H   UNL     1     -13.098  14.739  70.511  1.00  0.00     0.000 HD 
BRANCH  20  22
HETATM   22  C   UNL     1     -12.388  12.803  70.559  1.00  0.00    -0.275 A  
HETATM   23  C   UNL     1     -13.283  12.408  71.554  1.00  0.00    -0.285 A  
HETATM   24  C   UNL     1     -13.262  11.104  72.060  1.00  0.00    -0.428 A  
HETATM   25  C   UNL     1     -12.336  10.153  71.596  1.00  0.00    -0.471 A  
HETATM   26  C   UNL     1     -11.407  10.559  70.621  1.00  0.00    -0.275 A  
HETATM   27  C   UNL     1     -12.387   8.769  72.173  1.00  0.00    -0.458 C  
HETATM   28  C   UNL     1     -11.448  11.867  70.109  1.00  0.00    -0.136 A  
BRANCH  26  29
HETATM   29  S   UNL     1     -10.094   9.507  70.013  1.00  0.00    -0.259 S  
HETATM   30  O   UNL     1     -10.621   8.613  69.013  1.00  0.00    -0.217 OA 
HETATM   31  O   UNL     1      -9.337   9.017  71.144  1.00  0.00    -0.235 OA 
HETATM   32  N   UNL     1      -9.107  10.612  69.228  1.00  0.00    -0.355 N  
HETATM   33  H1  UNL     1      -8.358  10.012  68.881  1.00  0.00     0.000 HD 
HETATM   34  H2  UNL     1      -9.225  11.620  69.125  1.00  0.00     0.000 HD 
ENDBRANCH  26  29
ENDBRANCH  20  22
ENDBRANCH  15  20
ENDBRANCH   2  14
TORSDOF 5
ENDMDL
MODEL       25
REMARK 921   NORMALIZED FREE ENERGY PREDICTED BY IDOCK:   -7.65 KCAL/MOL
REMARK 922        TOTAL FREE ENERGY PREDICTED BY IDOCK:  -10.35 KCAL/MOL
REMARK 923 INTER-LIGAND FREE ENERGY PREDICTED BY IDOCK:   -9.92 KCAL/MOL
REMARK 924 INTRA-LIGAND FREE ENERGY PREDICTED BY IDOCK:   -0.43 KCAL/MOL
REMARK 927      BINDING AFFINITY PREDICTED BY RF-SCORE:    0.00 PKD
ROOT
HETATM    1  C   UNL     1     -10.782   7.428  73.137  1.00  0.00    -0.387 C  
HETATM    2  N   UNL     1     -10.957   7.818  71.738  1.00  0.00    -0.233 NA 
ENDROOT
BRANCH   2   3
HETATM    3  C   UNL     1     -10.595   6.858  70.747  1.00  0.00    -0.220 A  
HETATM    4  C   UNL     1      -9.754   4.488  70.356  1.00  0.00    -0.287 A  
HETATM    5  C   UNL     1      -9.358   2.541  67.890  1.00  0.00    -0.241 C  
HETATM    6  C   UNL     1     -10.747   7.133  69.363  1.00  0.00    -0.246 A  
HETATM    7  C   UNL     1     -10.422   6.067  68.504  1.00  0.00    -0.234 A  
HETATM    8  C   UNL     1      -9.957   4.811  69.023  1.00  0.00    -0.213 A  
HETATM    9  C   UNL     1      -9.774   3.964  67.956  1.00  0.00    -0.064 A  
HETATM   10  N   UNL     1     -10.470   5.998  67.164  1.00  0.00    -0.229 NA 
HETATM   11  N   UNL     1     -10.098   4.734  66.863  1.00  0.00    -0.216 NA 
HETATM   12  C   UNL     1     -10.083   4.328  65.476  1.00  0.00    -0.223 C  
HETATM   13  C   UNL     1     -10.091   5.576  71.193  1.00  0.00    -0.267 A  
ENDBRANCH   2   3
BRANCH   2  14
HETATM   14  C   UNL     1     -11.666   9.011  71.478  1.00  0.00    -0.345 A  
HETATM   15  C   UNL     1     -11.691  11.112  70.478  1.00  0.00    -0.293 A  
HETATM   16  N   UNL     1     -12.887  11.431  70.983  1.00  0.00    -0.324 NA 
HETATM   17  C   UNL     1     -13.486  10.482  71.719  1.00  0.00    -0.246 A  
HETATM   18  C   UNL     1     -12.926   9.253  71.989  1.00  0.00    -0.504 A  
HETATM   19  N   UNL     1     -11.070   9.948  70.719  1.00  0.00    -0.327 NA 
BRANCH  15  20
HETATM   20  N   UNL     1     -11.061  12.073  69.689  1.00  0.00    -0.473 NA 
HETATM   21  H   UNL     1     -10.786  12.931  70.167  1.00  0.00     0.000 HD 
BRANCH  20  22
HETATM   22  C   UNL     1     -10.759  12.009  68.322  1.00  0.00    -0.224 A  
HETATM   23  C   UNL     1      -9.633  11.299  67.902  1.00  0.00    -0.182 A  
HETATM   24  C   UNL     1      -9.353  11.139  66.542  1.00  0.00    -0.199 A  
HETATM   25  C   UNL     1     -10.183  11.697  65.552  1.00  0.00    -0.302 A  
HETATM   26  C   UNL     1     -11.296  12.446  65.972  1.00  0.00    -0.353 A  
HETATM   27  C   UNL     1      -9.827  11.467  64.113  1.00  0.00    -0.288 C  
HETATM   28  C   UNL     1     -11.577  12.585  67.342  1.00  0.00    -0.434 A  
BRANCH  26  29
HETATM   29  S   UNL     1     -12.382  13.314  64.846  1.00  0.00    -0.421 S  
HETATM   30  O   UNL     1     -13.365  14.049  65.600  1.00  0.00    -0.636 OA 
HETATM   31  O   UNL     1     -12.763  12.407  63.785  1.00  0.00    -0.693 OA 
HETATM   32  N   UNL     1     -11.338  14.431  64.158  1.00  0.00    -0.611 N  
HETATM   33  H1  UNL     1     -11.957  14.926  63.516  1.00  0.00     0.000 HD 
HETATM   34  H2  UNL     1     -10.344  14.577  64.335  1.00  0.00     0.000 HD 
ENDBRANCH  26  29
ENDBRANCH  20  22
ENDBRANCH  15  20
ENDBRANCH   2  14
TORSDOF 5
ENDMDL
MODEL       26
REMARK 921   NORMALIZED FREE ENERGY PREDICTED BY IDOCK:   -7.64 KCAL/MOL
REMARK 922        TOTAL FREE ENERGY PREDICTED BY IDOCK:  -10.33 KCAL/MOL
REMARK 923 INTER-LIGAND FREE ENERGY PREDICTED BY IDOCK:   -9.48 KCAL/MOL
REMARK 924 INTRA-LIGAND FREE ENERGY PREDICTED BY IDOCK:   -0.86 KCAL/MOL
REMARK 927      BINDING AFFINITY PREDICTED BY RF-SCORE:    0.00 PKD
ROOT
HETATM    1  C   UNL     1      -7.675   8.747  67.296  1.00  0.00    -0.096 C  
HETATM    2  N   UNL     1      -8.679   9.661  67.841  1.00  0.00    -0.119 NA 
ENDROOT
BRANCH   2   3
HETATM    3  C   UNL     1      -9.260  10.599  66.938  1.00  0.00    -0.155 A  
HETATM    4  C   UNL     1     -10.670  10.864  64.836  1.00  0.00    -0.240 A  
HETATM    5  C   UNL     1     -12.061  13.229  63.254  1.00  0.00    -0.407 C  
HETATM    6  C   UNL     1      -9.167  11.998  67.165  1.00  0.00    -0.190 A  
HETATM    7  C   UNL     1      -9.851  12.800  66.233  1.00  0.00    -0.267 A  
HETATM    8  C   UNL     1     -10.568  12.214  65.134  1.00  0.00    -0.324 A  
HETATM    9  C   UNL     1     -11.166  13.237  64.438  1.00  0.00    -0.381 A  
HETATM   10  N   UNL     1      -9.971  14.136  66.174  1.00  0.00    -0.303 NA 
HETATM   11  N   UNL     1     -10.770  14.370  65.110  1.00  0.00    -0.372 NA 
HETATM   12  C   UNL     1     -11.124  15.736  64.797  1.00  0.00    -0.400 C  
HETATM   13  C   UNL     1      -9.976  10.085  65.789  1.00  0.00    -0.346 A  
ENDBRANCH   2   3
BRANCH   2  14
HETATM   14  C   UNL     1      -9.153   9.405  69.146  1.00  0.00    -0.148 A  
HETATM   15  C   UNL     1     -10.848   9.678  70.718  1.00  0.00    -0.330 A  
HETATM   16  N   UNL     1     -10.158   9.075  71.690  1.00  0.00    -0.338 NA 
HETATM   17  C   UNL     1      -8.952   8.597  71.346  1.00  0.00    -0.222 A  
HETATM   18  C   UNL     1      -8.407   8.725  70.089  1.00  0.00    -0.131 A  
HETATM   19  N   UNL     1     -10.374   9.865  69.477  1.00  0.00    -0.213 NA 
BRANCH  15  20
HETATM   20  N   UNL     1     -12.114  10.160  71.045  1.00  0.00    -0.345 NA 
HETATM   21  H   UNL     1     -12.839   9.456  71.179  1.00  0.00     0.000 HD 
BRANCH  20  22
HETATM   22  C   UNL     1     -12.516  11.492  71.215  1.00  0.00    -0.293 A  
HETATM   23  C   UNL     1     -13.500  11.796  72.157  1.00  0.00    -0.273 A  
HETATM   24  C   UNL     1     -13.860  13.123  72.415  1.00  0.00    -0.583 A  
HETATM   25  C   UNL     1     -13.256  14.192  71.729  1.00  0.00    -0.450 A  
HETATM   26  C   UNL     1     -12.292  13.887  70.752  1.00  0.00    -0.378 A  
HETATM   27  C   UNL     1     -13.681  15.589  72.073  1.00  0.00    -0.599 C  
HETATM   28  C   UNL     1     -11.927  12.551  70.513  1.00  0.00    -0.277 A  
BRANCH  26  29
HETATM   29  S   UNL     1     -11.517  15.121  69.713  1.00  0.00    -0.321 S  
HETATM   30  O   UNL     1     -11.466  16.377  70.419  1.00  0.00    -0.313 OA 
HETATM   31  O   UNL     1     -12.081  15.022  68.384  1.00  0.00    -0.242 OA 
HETATM   32  N   UNL     1      -9.949  14.541  69.605  1.00  0.00    -0.417 N  
HETATM   33  H1  UNL     1      -9.507  15.245  69.013  1.00  0.00     0.000 HD 
HETATM   34  H2  UNL     1      -9.542  13.704  70.022  1.00  0.00     0.000 HD 
ENDBRANCH  26  29
ENDBRANCH  20  22
ENDBRANCH  15  20
ENDBRANCH   2  14
TORSDOF 5
ENDMDL
MODEL       27
REMARK 921   NORMALIZED FREE ENERGY PREDICTED BY IDOCK:   -7.63 KCAL/MOL
REMARK 922        TOTAL FREE ENERGY PREDICTED BY IDOCK:  -10.32 KCAL/MOL
REMARK 923 INTER-LIGAND FREE ENERGY PREDICTED BY IDOCK:  -10.04 KCAL/MOL
REMARK 924 INTRA-LIGAND FREE ENERGY PREDICTED BY IDOCK:   -0.28 KCAL/MOL
REMARK 927      BINDING AFFINITY PREDICTED BY RF-SCORE:    0.00 PKD
ROOT
HETATM    1  C   UNL     1     -14.387  13.052  72.397  1.00  0.00     0.079 C  
HETATM    2  N   UNL     1     -13.101  13.011  71.701  1.00  0.00    -0.385 NA 
ENDROOT
BRANCH   2   3
HETATM    3  C   UNL     1     -12.640  11.734  71.266  1.00  0.00    -0.296 A  
HETATM    4  C   UNL     1     -11.472  10.472  69.389  1.00  0.00    -0.329 A  
HETATM    5  C   UNL     1     -10.306   7.566  68.917  1.00  0.00    -0.220 C  
HETATM    6  C   UNL     1     -12.734  10.590  72.102  1.00  0.00    -0.170 A  
HETATM    7  C   UNL     1     -12.171   9.415  71.571  1.00  0.00    -0.369 A  
HETATM    8  C   UNL     1     -11.567   9.405  70.268  1.00  0.00    -0.181 A  
HETATM    9  C   UNL     1     -11.067   8.142  70.054  1.00  0.00    -0.146 A  
HETATM   10  N   UNL     1     -12.084   8.187  72.106  1.00  0.00    -0.337 NA 
HETATM   11  N   UNL     1     -11.409   7.453  71.194  1.00  0.00    -0.262 NA 
HETATM   12  C   UNL     1     -11.117   6.070  71.496  1.00  0.00    -0.276 C  
HETATM   13  C   UNL     1     -12.043  11.637  69.950  1.00  0.00    -0.373 A  
ENDBRANCH   2   3
BRANCH   2  14
HETATM   14  C   UNL     1     -12.527  14.243  71.321  1.00  0.00    -0.365 A  
HETATM   15  C   UNL     1     -11.555  15.533  69.645  1.00  0.00    -0.348 A  
HETATM   16  N   UNL     1     -11.290  16.552  70.467  1.00  0.00    -0.208 NA 
HETATM   17  C   UNL     1     -11.700  16.406  71.737  1.00  0.00    -0.324 A  
HETATM   18  C   UNL     1     -12.331  15.279  72.214  1.00  0.00    -0.450 A  
HETATM   19  N   UNL     1     -12.140  14.393  70.041  1.00  0.00    -0.323 NA 
BRANCH  15  20
HETATM   20  N   UNL     1     -11.160  15.673  68.316  1.00  0.00    -0.320 NA 
HETATM   21  H   UNL     1     -11.167  16.624  67.946  1.00  0.00     0.000 HD 
BRANCH  20  22
HETATM   22  C   UNL     1     -10.754  14.672  67.423  1.00  0.00    -0.280 A  
HETATM   23  C   UNL     1      -9.577  13.966  67.675  1.00  0.00    -0.215 A  
HETATM   24  C   UNL     1      -9.190  12.902  66.855  1.00  0.00    -0.234 A  
HETATM   25  C   UNL     1      -9.962  12.514  65.744  1.00  0.00    -0.272 A  
HETATM   26  C   UNL     1     -11.128  13.248  65.465  1.00  0.00    -0.281 A  
HETATM   27  C   UNL     1      -9.492  11.351  64.922  1.00  0.00    -0.194 C  
HETATM   28  C   UNL     1     -11.516  14.305  66.306  1.00  0.00    -0.360 A  
BRANCH  26  29
HETATM   29  S   UNL     1     -12.155  12.958  64.029  1.00  0.00    -0.474 S  
HETATM   30  O   UNL     1     -13.382  12.322  64.439  1.00  0.00    -0.786 OA 
HETATM   31  O   UNL     1     -11.329  12.403  62.979  1.00  0.00    -0.278 OA 
HETATM   32  N   UNL     1     -12.533  14.521  63.557  1.00  0.00    -1.063 N  
HETATM   33  H1  UNL     1     -13.118  14.355  62.738  1.00  0.00     0.000 HD 
HETATM   34  H2  UNL     1     -12.251  15.406  63.978  1.00  0.00     0.000 HD 
ENDBRANCH  26  29
ENDBRANCH  20  22
ENDBRANCH  15  20
ENDBRANCH   2  14
TORSDOF 5
ENDMDL
MODEL       28
REMARK 921   NORMALIZED FREE ENERGY PREDICTED BY IDOCK:   -7.60 KCAL/MOL
REMARK 922        TOTAL FREE ENERGY PREDICTED BY IDOCK:  -10.29 KCAL/MOL
REMARK 923 INTER-LIGAND FREE ENERGY PREDICTED BY IDOCK:  -10.44 KCAL/MOL
REMARK 924 INTRA-LIGAND FREE ENERGY PREDICTED BY IDOCK:    0.15 KCAL/MOL
REMARK 927      BINDING AFFINITY PREDICTED BY RF-SCORE:    0.00 PKD
ROOT
HETATM    1  C   UNL     1     -11.259  16.281  69.418  1.00  0.00    -0.311 C  
HETATM    2  N   UNL     1     -11.855  14.946  69.369  1.00  0.00    -0.313 NA 
ENDROOT
BRANCH   2   3
HETATM    3  C   UNL     1     -11.536  14.134  68.241  1.00  0.00    -0.321 A  
HETATM    4  C   UNL     1     -12.119  13.619  65.817  1.00  0.00    -0.463 A  
HETATM    5  C   UNL     1     -10.915  11.884  63.457  1.00  0.00    -0.505 C  
HETATM    6  C   UNL     1     -10.450  13.221  68.272  1.00  0.00    -0.257 A  
HETATM    7  C   UNL     1     -10.206  12.543  67.063  1.00  0.00    -0.221 A  
HETATM    8  C   UNL     1     -11.026  12.771  65.906  1.00  0.00    -0.303 A  
HETATM    9  C   UNL     1     -10.514  12.012  64.881  1.00  0.00    -0.285 A  
HETATM   10  N   UNL     1      -9.260  11.639  66.761  1.00  0.00    -0.180 NA 
HETATM   11  N   UNL     1      -9.453  11.352  65.455  1.00  0.00    -0.227 NA 
HETATM   12  C   UNL     1      -8.556  10.420  64.811  1.00  0.00    -0.182 C  
HETATM   13  C   UNL     1     -12.337  14.287  67.044  1.00  0.00    -0.203 A  
ENDBRANCH   2   3
BRANCH   2  14
HETATM   14  C   UNL     1     -12.513  14.483  70.530  1.00  0.00    -0.344 A  
HETATM   15  C   UNL     1     -13.227  12.669  71.801  1.00  0.00    -0.359 A  
HETATM   16  N   UNL     1     -13.862  13.436  72.692  1.00  0.00    -0.745 NA 
HETATM   17  C   UNL     1     -13.770  14.761  72.498  1.00  0.00    -0.468 A  
HETATM   18  C   UNL     1     -13.102  15.337  71.442  1.00  0.00    -0.529 A  
HETATM   19  N   UNL     1     -12.579  13.154  70.731  1.00  0.00    -0.300 NA 
BRANCH  15  20
HETATM   20  N   UNL     1     -13.287  11.290  71.996  1.00  0.00    -0.524 NA 
HETATM   21  H   UNL     1     -13.980  10.965  72.671  1.00  0.00     0.000 HD 
BRANCH  20  22
HETATM   22  C   UNL     1     -12.515  10.294  71.382  1.00  0.00    -0.424 A  
HETATM   23  C   UNL     1     -11.987  10.525  70.111  1.00  0.00    -0.398 A  
HETATM   24  C   UNL     1     -11.139   9.590  69.507  1.00  0.00    -0.168 A  
HETATM   25  C   UNL     1     -10.801   8.385  70.150  1.00  0.00    -0.238 A  
HETATM   26  C   UNL     1     -11.364   8.133  71.414  1.00  0.00    -0.259 A  
HETATM   27  C   UNL     1      -9.872   7.440  69.448  1.00  0.00    -0.168 C  
HETATM   28  C   UNL     1     -12.201   9.087  72.017  1.00  0.00    -0.446 A  
BRANCH  26  29
HETATM   29  S   UNL     1     -11.128   6.602  72.310  1.00  0.00    -0.270 S  
HETATM   30  O   UNL     1     -10.544   6.886  73.597  1.00  0.00    -0.336 OA 
HETATM   31  O   UNL     1     -10.543   5.630  71.411  1.00  0.00    -0.239 OA 
HETATM   32  N   UNL     1     -12.709   6.112  72.572  1.00  0.00    -0.454 N  
HETATM   33  H1  UNL     1     -12.574   5.239  73.083  1.00  0.00     0.000 HD 
HETATM   34  H2  UNL     1     -13.578   6.567  72.294  1.00  0.00     0.000 HD 
ENDBRANCH  26  29
ENDBRANCH  20  22
ENDBRANCH  15  20
ENDBRANCH   2  14
TORSDOF 5
ENDMDL
MODEL       29
REMARK 921   NORMALIZED FREE ENERGY PREDICTED BY IDOCK:   -7.60 KCAL/MOL
REMARK 922        TOTAL FREE ENERGY PREDICTED BY IDOCK:  -10.28 KCAL/MOL
REMARK 923 INTER-LIGAND FREE ENERGY PREDICTED BY IDOCK:   -9.04 KCAL/MOL
REMARK 924 INTRA-LIGAND FREE ENERGY PREDICTED BY IDOCK:   -1.24 KCAL/MOL
REMARK 927      BINDING AFFINITY PREDICTED BY RF-SCORE:    0.00 PKD
ROOT
HETATM    1  C   UNL     1     -11.162  11.931  64.605  1.00  0.00    -0.305 C  
HETATM    2  N   UNL     1     -10.552  11.542  65.877  1.00  0.00    -0.261 NA 
ENDROOT
BRANCH   2   3
HETATM    3  C   UNL     1     -10.990  12.234  67.045  1.00  0.00    -0.268 A  
HETATM    4  C   UNL     1     -11.492  14.521  68.043  1.00  0.00    -0.345 A  
HETATM    5  C   UNL     1     -12.801  15.664  70.690  1.00  0.00    -0.400 C  
HETATM    6  C   UNL     1     -11.411  11.531  68.205  1.00  0.00    -0.385 A  
HETATM    7  C   UNL     1     -11.889  12.341  69.252  1.00  0.00    -0.306 A  
HETATM    8  C   UNL     1     -11.918  13.772  69.129  1.00  0.00    -0.403 A  
HETATM    9  C   UNL     1     -12.477  14.275  70.280  1.00  0.00    -0.361 A  
HETATM   10  N   UNL     1     -12.367  11.993  70.457  1.00  0.00    -0.319 NA 
HETATM   11  N   UNL     1     -12.726  13.157  71.042  1.00  0.00    -0.316 NA 
HETATM   12  C   UNL     1     -13.321  13.117  72.359  1.00  0.00    -0.490 C  
HETATM   13  C   UNL     1     -11.021  13.681  67.008  1.00  0.00    -0.298 A  
ENDBRANCH   2   3
BRANCH   2  14
HETATM   14  C   UNL     1      -9.751  10.380  65.887  1.00  0.00    -0.217 A  
HETATM   15  C   UNL     1      -9.593   8.097  66.309  1.00  0.00    -0.178 A  
HETATM   16  N   UNL     1      -8.281   8.056  66.059  1.00  0.00    -0.113 NA 
HETATM   17  C   UNL     1      -7.720   9.213  65.675  1.00  0.00    -0.094 A  
HETATM   18  C   UNL     1      -8.408  10.399  65.563  1.00  0.00    -0.168 A  
HETATM   19  N   UNL     1     -10.325   9.219  66.249  1.00  0.00    -0.196 NA 
BRANCH  15  20
HETATM   20  N   UNL     1     -10.203   6.901  66.685  1.00  0.00    -0.414 NA 
HETATM   21  H   UNL     1     -10.581   6.335  65.926  1.00  0.00     0.000 HD 
BRANCH  20  22
HETATM   22  C   UNL     1     -10.362   6.380  67.976  1.00  0.00    -0.193 A  
HETATM   23  C   UNL     1      -9.806   5.137  68.286  1.00  0.00    -0.212 A  
HETATM   24  C   UNL     1      -9.869   4.628  69.587  1.00  0.00    -0.293 A  
HETATM   25  C   UNL     1     -10.503   5.340  70.622  1.00  0.00    -0.306 A  
HETATM   26  C   UNL     1     -11.098   6.574  70.305  1.00  0.00    -0.335 A  
HETATM   27  C   UNL     1     -10.514   4.738  71.996  1.00  0.00    -0.225 C  
HETATM   28  C   UNL     1     -11.014   7.082  68.997  1.00  0.00    -0.169 A  
BRANCH  26  29
HETATM   29  S   UNL     1     -12.040   7.544  71.476  1.00  0.00    -0.330 S  
HETATM   30  O   UNL     1     -11.184   7.944  72.564  1.00  0.00    -0.318 OA 
HETATM   31  O   UNL     1     -13.303   6.879  71.712  1.00  0.00    -0.335 OA 
HETATM   32  N   UNL     1     -12.390   8.917  70.581  1.00  0.00    -0.486 N  
HETATM   33  H1  UNL     1     -12.927   9.470  71.249  1.00  0.00     0.000 HD 
HETATM   34  H2  UNL     1     -12.133   9.140  69.619  1.00  0.00     0.000 HD 
ENDBRANCH  26  29
ENDBRANCH  20  22
ENDBRANCH  15  20
ENDBRANCH   2  14
TORSDOF 5
ENDMDL
MODEL       30
REMARK 921   NORMALIZED FREE ENERGY PREDICTED BY IDOCK:   -7.59 KCAL/MOL
REMARK 922        TOTAL FREE ENERGY PREDICTED BY IDOCK:  -10.27 KCAL/MOL
REMARK 923 INTER-LIGAND FREE ENERGY PREDICTED BY IDOCK:   -9.61 KCAL/MOL
REMARK 924 INTRA-LIGAND FREE ENERGY PREDICTED BY IDOCK:   -0.66 KCAL/MOL
REMARK 927      BINDING AFFINITY PREDICTED BY RF-SCORE:    0.00 PKD
ROOT
HETATM    1  C   UNL     1     -14.386   8.442  71.717  1.00  0.00    -0.472 C  
HETATM    2  N   UNL     1     -13.060   9.057  71.765  1.00  0.00    -0.356 NA 
ENDROOT
BRANCH   2   3
HETATM    3  C   UNL     1     -11.937   8.179  71.749  1.00  0.00    -0.305 A  
HETATM    4  C   UNL     1      -9.841   7.458  73.000  1.00  0.00    -0.279 A  
HETATM    5  C   UNL     1      -7.680   5.153  72.778  1.00  0.00    -0.098 C  
HETATM    6  C   UNL     1     -11.778   7.202  70.730  1.00  0.00    -0.363 A  
HETATM    7  C   UNL     1     -10.665   6.356  70.884  1.00  0.00    -0.250 A  
HETATM    8  C   UNL     1      -9.764   6.508  71.993  1.00  0.00    -0.156 A  
HETATM    9  C   UNL     1      -8.818   5.515  71.897  1.00  0.00    -0.135 A  
HETATM   10  N   UNL     1     -10.247   5.337  70.115  1.00  0.00    -0.260 NA 
HETATM   11  N   UNL     1      -9.160   4.843  70.746  1.00  0.00    -0.132 NA 
HETATM   12  C   UNL     1      -8.490   3.696  70.177  1.00  0.00    -0.059 C  
HETATM   13  C   UNL     1     -10.969   8.290  72.820  1.00  0.00    -0.309 A  
ENDBRANCH   2   3
BRANCH   2  14
HETATM   14  C   UNL     1     -12.985  10.458  71.603  1.00  0.00    -0.475 A  
HETATM   15  C   UNL     1     -11.955  12.271  70.568  1.00  0.00    -0.205 A  
HETATM   16  N   UNL     1     -12.652  13.172  71.266  1.00  0.00    -0.339 NA 
HETATM   17  C   UNL     1     -13.563  12.678  72.120  1.00  0.00    -0.413 A  
HETATM   18  C   UNL     1     -13.777  11.334  72.320  1.00  0.00     0.202 A  
HETATM   19  N   UNL     1     -12.087  10.945  70.727  1.00  0.00    -0.350 NA 
BRANCH  15  20
HETATM   20  N   UNL     1     -11.021  12.760  69.657  1.00  0.00    -0.447 NA 
HETATM   21  H   UNL     1     -10.439  13.531  69.985  1.00  0.00     0.000 HD 
BRANCH  20  22
HETATM   22  C   UNL     1     -10.781  12.328  68.346  1.00  0.00    -0.234 A  
HETATM   23  C   UNL     1      -9.812  11.350  68.114  1.00  0.00    -0.195 A  
HETATM   24  C   UNL     1      -9.610  10.832  66.831  1.00  0.00    -0.198 A  
HETATM   25  C   UNL     1     -10.363  11.283  65.731  1.00  0.00    -0.310 A  
HETATM   26  C   UNL     1     -11.313  12.295  65.955  1.00  0.00    -0.360 A  
HETATM   27  C   UNL     1     -10.101  10.666  64.390  1.00  0.00    -0.418 C  
HETATM   28  C   UNL     1     -11.518  12.796  67.251  1.00  0.00    -0.393 A  
BRANCH  26  29
HETATM   29  S   UNL     1     -12.267  13.056  64.647  1.00  0.00    -0.430 S  
HETATM   30  O   UNL     1     -13.106  14.087  65.204  1.00  0.00    -0.776 OA 
HETATM   31  O   UNL     1     -12.810  12.011  63.806  1.00  0.00    -0.668 OA 
HETATM   32  N   UNL     1     -11.072  13.813  63.747  1.00  0.00    -0.430 N  
HETATM   33  H1  UNL     1     -11.616  14.247  63.002  1.00  0.00     0.000 HD 
HETATM   34  H2  UNL     1     -10.065  13.833  63.904  1.00  0.00     0.000 HD 
ENDBRANCH  26  29
ENDBRANCH  20  22
ENDBRANCH  15  20
ENDBRANCH   2  14
TORSDOF 5
ENDMDL
MODEL       31
REMARK 921   NORMALIZED FREE ENERGY PREDICTED BY IDOCK:   -7.56 KCAL/MOL
REMARK 922        TOTAL FREE ENERGY PREDICTED BY IDOCK:  -10.23 KCAL/MOL
REMARK 923 INTER-LIGAND FREE ENERGY PREDICTED BY IDOCK:  -10.04 KCAL/MOL
REMARK 924 INTRA-LIGAND FREE ENERGY PREDICTED BY IDOCK:   -0.19 KCAL/MOL
REMARK 927      BINDING AFFINITY PREDICTED BY RF-SCORE:    0.00 PKD
ROOT
HETATM    1  C   UNL     1     -13.168  13.917  71.657  1.00  0.00    -0.370 C  
HETATM    2  N   UNL     1     -12.368  13.197  70.666  1.00  0.00    -0.356 NA 
ENDROOT
BRANCH   2   3
HETATM    3  C   UNL     1     -12.251  11.785  70.830  1.00  0.00    -0.326 A  
HETATM    4  C   UNL     1     -13.211   9.740  72.002  1.00  0.00    -0.557 A  
HETATM    5  C   UNL     1     -12.853   6.596  71.854  1.00  0.00    -0.209 C  
HETATM    6  C   UNL     1     -11.312  11.030  70.079  1.00  0.00    -0.358 A  
HETATM    7  C   UNL     1     -11.361   9.640  70.288  1.00  0.00    -0.257 A  
HETATM    8  C   UNL     1     -12.294   9.061  71.215  1.00  0.00    -0.361 A  
HETATM    9  C   UNL     1     -12.136   7.696  71.162  1.00  0.00    -0.298 A  
HETATM   10  N   UNL     1     -10.629   8.661  69.731  1.00  0.00    -0.224 NA 
HETATM   11  N   UNL     1     -11.120   7.515  70.253  1.00  0.00    -0.258 NA 
HETATM   12  C   UNL     1     -10.556   6.258  69.817  1.00  0.00    -0.264 C  
HETATM   13  C   UNL     1     -13.140  11.132  71.768  1.00  0.00    -0.536 A  
ENDBRANCH   2   3
BRANCH   2  14
HETATM   14  C   UNL     1     -11.962  13.908  69.516  1.00  0.00    -0.343 A  
HETATM   15  C   UNL     1     -11.430  15.957  68.550  1.00  0.00    -0.377 A  
HETATM   16  N   UNL     1     -11.278  15.437  67.329  1.00  0.00    -0.308 NA 
HETATM   17  C   UNL     1     -11.439  14.108  67.232  1.00  0.00    -0.350 A  
HETATM   18  C   UNL     1     -11.770  13.296  68.293  1.00  0.00    -0.388 A  
HETATM   19  N   UNL     1     -11.779  15.236  69.626  1.00  0.00    -0.312 NA 
BRANCH  15  20
HETATM   20  N   UNL     1     -11.243  17.332  68.680  1.00  0.00    -0.134 NA 
HETATM   21  H   UNL     1     -11.989  17.841  69.153  1.00  0.00     0.000 HD 
BRANCH  20  22
HETATM   22  C   UNL     1     -10.159  18.104  68.240  1.00  0.00    -0.386 A  
HETATM   23  C   UNL     1     -10.400  19.280  67.528  1.00  0.00    -0.542 A  
HETATM   24  C   UNL     1      -9.346  20.120  67.153  1.00  0.00    -0.521 A  
HETATM   25  C   UNL     1      -8.011  19.804  67.466  1.00  0.00    -0.324 A  
HETATM   26  C   UNL     1      -7.762  18.601  68.149  1.00  0.00    -0.281 A  
HETATM   27  C   UNL     1      -6.937  20.763  67.046  1.00  0.00    -0.386 C  
HETATM   28  C   UNL     1      -8.831  17.774  68.535  1.00  0.00    -0.284 A  
BRANCH  26  29
HETATM   29  S   UNL     1      -6.118  18.000  68.518  1.00  0.00    -0.196 S  
HETATM   30  O   UNL     1      -5.430  18.962  69.341  1.00  0.00    -0.196 OA 
HETATM   31  O   UNL     1      -5.530  17.491  67.297  1.00  0.00    -0.120 OA 
HETATM   32  N   UNL     1      -6.448  16.665  69.475  1.00  0.00    -0.223 N  
HETATM   33  H1  UNL     1      -5.511  16.322  69.686  1.00  0.00     0.000 HD 
HETATM   34  H2  UNL     1      -7.351  16.292  69.770  1.00  0.00     0.000 HD 
ENDBRANCH  26  29
ENDBRANCH  20  22
ENDBRANCH  15  20
ENDBRANCH   2  14
TORSDOF 5
ENDMDL
MODEL       32
REMARK 921   NORMALIZED FREE ENERGY PREDICTED BY IDOCK:   -7.53 KCAL/MOL
REMARK 922        TOTAL FREE ENERGY PREDICTED BY IDOCK:  -10.19 KCAL/MOL
REMARK 923 INTER-LIGAND FREE ENERGY PREDICTED BY IDOCK:  -10.01 KCAL/MOL
REMARK 924 INTRA-LIGAND FREE ENERGY PREDICTED BY IDOCK:   -0.18 KCAL/MOL
REMARK 927      BINDING AFFINITY PREDICTED BY RF-SCORE:    0.00 PKD
ROOT
HETATM    1  C   UNL     1     -11.204  12.456  63.441  1.00  0.00    -0.422 C  
HETATM    2  N   UNL     1     -10.483  12.624  64.703  1.00  0.00    -0.321 NA 
ENDROOT
BRANCH   2   3
HETATM    3  C   UNL     1     -10.312  13.958  65.179  1.00  0.00    -0.383 A  
HETATM    4  C   UNL     1      -8.983  15.450  66.755  1.00  0.00    -0.288 A  
HETATM    5  C   UNL     1      -8.684  18.552  67.317  1.00  0.00    -0.272 C  
HETATM    6  C   UNL     1     -11.058  15.037  64.635  1.00  0.00    -0.335 A  
HETATM    7  C   UNL     1     -10.730  16.306  65.147  1.00  0.00    -0.331 A  
HETATM    8  C   UNL     1      -9.721  16.460  66.158  1.00  0.00    -0.355 A  
HETATM    9  C   UNL     1      -9.594  17.805  66.414  1.00  0.00    -0.283 A  
HETATM   10  N   UNL     1     -11.231  17.512  64.838  1.00  0.00    -0.635 NA 
HETATM   11  N   UNL     1     -10.528  18.388  65.590  1.00  0.00    -0.619 NA 
HETATM   12  C   UNL     1     -10.811  19.799  65.457  1.00  0.00    -0.151 C  
HETATM   13  C   UNL     1      -9.332  14.189  66.219  1.00  0.00    -0.215 A  
ENDBRANCH   2   3
BRANCH   2  14
HETATM   14  C   UNL     1     -10.209  11.462  65.457  1.00  0.00    -0.264 A  
HETATM   15  C   UNL     1      -9.860  10.506  67.550  1.00  0.00    -0.168 A  
HETATM   16  N   UNL     1      -9.572   9.303  67.045  1.00  0.00    -0.161 NA 
HETATM   17  C   UNL     1      -9.651   9.191  65.710  1.00  0.00    -0.253 A  
HETATM   18  C   UNL     1      -9.974  10.234  64.871  1.00  0.00    -0.393 A  
HETATM   19  N   UNL     1     -10.155  11.576  66.797  1.00  0.00    -0.210 NA 
BRANCH  15  20
HETATM   20  N   UNL     1      -9.809  10.639  68.936  1.00  0.00    -0.194 NA 
HETATM   21  H   UNL     1      -8.987  11.113  69.309  1.00  0.00     0.000 HD 
BRANCH  20  22
HETATM   22  C   UNL     1     -10.746  10.202  69.883  1.00  0.00    -0.295 A  
HETATM   23  C   UNL     1     -11.890  10.966  70.116  1.00  0.00    -0.438 A  
HETATM   24  C   UNL     1     -12.888  10.516  70.987  1.00  0.00    -0.502 A  
HETATM   25  C   UNL     1     -12.768   9.289  71.666  1.00  0.00    -0.442 A  
HETATM   26  C   UNL     1     -11.599   8.535  71.463  1.00  0.00    -0.292 A  
HETATM   27  C   UNL     1     -13.887   8.864  72.569  1.00  0.00    -0.472 C  
HETATM   28  C   UNL     1     -10.611   8.991  70.572  1.00  0.00    -0.274 A  
BRANCH  26  29
HETATM   29  S   UNL     1     -11.242   7.015  72.336  1.00  0.00    -0.275 S  
HETATM   30  O   UNL     1     -12.266   6.044  72.043  1.00  0.00    -0.257 OA 
HETATM   31  O   UNL     1     -10.875   7.343  73.696  1.00  0.00    -0.346 OA 
HETATM   32  N   UNL     1      -9.837   6.506  71.577  1.00  0.00    -0.169 N  
HETATM   33  H1  UNL     1      -9.633   5.640  72.075  1.00  0.00     0.000 HD 
HETATM   34  H2  UNL     1      -9.320   6.949  70.817  1.00  0.00     0.000 HD 
ENDBRANCH  26  29
ENDBRANCH  20  22
ENDBRANCH  15  20
ENDBRANCH   2  14
TORSDOF 5
ENDMDL
MODEL       33
REMARK 921   NORMALIZED FREE ENERGY PREDICTED BY IDOCK:   -7.51 KCAL/MOL
REMARK 922        TOTAL FREE ENERGY PREDICTED BY IDOCK:  -10.17 KCAL/MOL
REMARK 923 INTER-LIGAND FREE ENERGY PREDICTED BY IDOCK:  -10.02 KCAL/MOL
REMARK 924 INTRA-LIGAND FREE ENERGY PREDICTED BY IDOCK:   -0.15 KCAL/MOL
REMARK 927      BINDING AFFINITY PREDICTED BY RF-SCORE:    0.00 PKD
ROOT
HETATM    1  C   UNL     1     -12.778  12.675  64.742  1.00  0.00    -0.379 C  
HETATM    2  N   UNL     1     -11.699  12.893  65.706  1.00  0.00    -0.368 NA 
ENDROOT
BRANCH   2   3
HETATM    3  C   UNL     1     -11.313  14.244  65.953  1.00  0.00    -0.328 A  
HETATM    4  C   UNL     1     -10.932  16.525  64.891  1.00  0.00    -0.223 A  
HETATM    5  C   UNL     1     -10.350  19.478  65.876  1.00  0.00    -0.562 C  
HETATM    6  C   UNL     1     -11.045  14.706  67.268  1.00  0.00    -0.331 A  
HETATM    7  C   UNL     1     -10.750  16.078  67.368  1.00  0.00    -0.306 A  
HETATM    8  C   UNL     1     -10.714  16.917  66.203  1.00  0.00    -0.109 A  
HETATM    9  C   UNL     1     -10.452  18.199  66.623  1.00  0.00    -0.339 A  
HETATM   10  N   UNL     1     -10.469  16.819  68.452  1.00  0.00    -0.319 NA 
HETATM   11  N   UNL     1     -10.314  18.078  67.986  1.00  0.00    -0.374 NA 
HETATM   12  C   UNL     1     -10.034  19.137  68.930  1.00  0.00    -0.416 C  
HETATM   13  C   UNL     1     -11.228  15.144  64.823  1.00  0.00    -0.396 A  
ENDBRANCH   2   3
BRANCH   2  14
HETATM   14  C   UNL     1     -11.278  11.786  66.474  1.00  0.00    -0.321 A  
HETATM   15  C   UNL     1     -11.424  10.601  68.472  1.00  0.00    -0.265 A  
HETATM   16  N   UNL     1     -10.468   9.734  68.125  1.00  0.00    -0.203 NA 
HETATM   17  C   UNL     1      -9.948   9.893  66.898  1.00  0.00    -0.212 A  
HETATM   18  C   UNL     1     -10.322  10.893  66.030  1.00  0.00    -0.304 A  
HETATM   19  N   UNL     1     -11.822  11.618  67.693  1.00  0.00    -0.615 NA 
BRANCH  15  20
HETATM   20  N   UNL     1     -11.997  10.440  69.732  1.00  0.00    -0.450 NA 
HETATM   21  H   UNL     1     -12.820  11.011  69.924  1.00  0.00     0.000 HD 
BRANCH  20  22
HETATM   22  C   UNL     1     -11.583   9.593  70.770  1.00  0.00    -0.321 A  
HETATM   23  C   UNL     1     -12.544   8.961  71.562  1.00  0.00    -0.385 A  
HETATM   24  C   UNL     1     -12.169   8.041  72.546  1.00  0.00    -0.294 A  
HETATM   25  C   UNL     1     -10.817   7.730  72.781  1.00  0.00    -0.438 A  
HETATM   26  C   UNL     1      -9.845   8.394  72.012  1.00  0.00    -0.284 A  
HETATM   27  C   UNL     1     -10.494   6.720  73.841  1.00  0.00    -0.356 C  
HETATM   28  C   UNL     1     -10.235   9.304  71.014  1.00  0.00    -0.384 A  
BRANCH  26  29
HETATM   29  S   UNL     1      -8.085   8.198  72.265  1.00  0.00    -0.147 S  
HETATM   30  O   UNL     1      -7.712   6.832  71.995  1.00  0.00    -0.094 OA 
HETATM   31  O   UNL     1      -7.725   8.850  73.505  1.00  0.00    -0.382 OA 
HETATM   32  N   UNL     1      -7.455   9.144  71.033  1.00  0.00    -0.115 N  
HETATM   33  H1  UNL     1      -6.451   9.032  71.178  1.00  0.00     0.000 HD 
HETATM   34  H2  UNL     1      -7.946   9.689  70.325  1.00  0.00     0.000 HD 
ENDBRANCH  26  29
ENDBRANCH  20  22
ENDBRANCH  15  20
ENDBRANCH   2  14
TORSDOF 5
ENDMDL
MODEL       34
REMARK 921   NORMALIZED FREE ENERGY PREDICTED BY IDOCK:   -7.51 KCAL/MOL
REMARK 922        TOTAL FREE ENERGY PREDICTED BY IDOCK:  -10.17 KCAL/MOL
REMARK 923 INTER-LIGAND FREE ENERGY PREDICTED BY IDOCK:   -9.35 KCAL/MOL
REMARK 924 INTRA-LIGAND FREE ENERGY PREDICTED BY IDOCK:   -0.82 KCAL/MOL
REMARK 927      BINDING AFFINITY PREDICTED BY RF-SCORE:    0.00 PKD
ROOT
HETATM    1  C   UNL     1     -12.146  13.631  69.854  1.00  0.00    -0.341 C  
HETATM    2  N   UNL     1     -11.515  12.555  69.089  1.00  0.00    -0.288 NA 
ENDROOT
BRANCH   2   3
HETATM    3  C   UNL     1     -11.412  11.282  69.724  1.00  0.00    -0.310 A  
HETATM    4  C   UNL     1     -12.659   9.529  71.084  1.00  0.00    -0.383 A  
HETATM    5  C   UNL     1     -12.150   6.566  72.080  1.00  0.00    -0.358 C  
HETATM    6  C   UNL     1     -10.231  10.500  69.624  1.00  0.00    -0.207 A  
HETATM    7  C   UNL     1     -10.300   9.235  70.237  1.00  0.00    -0.229 A  
HETATM    8  C   UNL     1     -11.488   8.805  70.920  1.00  0.00    -0.330 A  
HETATM    9  C   UNL     1     -11.270   7.522  71.363  1.00  0.00    -0.242 A  
HETATM   10  N   UNL     1      -9.376   8.264  70.308  1.00  0.00    -0.158 NA 
HETATM   11  N   UNL     1      -9.981   7.251  70.966  1.00  0.00    -0.188 NA 
HETATM   12  C   UNL     1      -9.246   6.024  71.176  1.00  0.00    -0.150 C  
HETATM   13  C   UNL     1     -12.560  10.792  70.457  1.00  0.00    -0.421 A  
ENDBRANCH   2   3
BRANCH   2  14
HETATM   14  C   UNL     1     -11.259  12.791  67.721  1.00  0.00    -0.275 A  
HETATM   15  C   UNL     1     -10.128  14.037  66.113  1.00  0.00    -0.309 A  
HETATM   16  N   UNL     1     -10.746  13.437  65.092  1.00  0.00    -0.314 NA 
HETATM   17  C   UNL     1     -11.610  12.463  65.419  1.00  0.00    -0.381 A  
HETATM   18  C   UNL     1     -11.896  12.093  66.713  1.00  0.00    -0.304 A  
HETATM   19  N   UNL     1     -10.373  13.752  67.400  1.00  0.00    -0.251 NA 
BRANCH  15  20
HETATM   20  N   UNL     1      -9.207  15.034  65.796  1.00  0.00    -0.468 NA 
HETATM   21  H   UNL     1      -8.395  14.737  65.256  1.00  0.00     0.000 HD 
BRANCH  20  22
HETATM   22  C   UNL     1      -9.258  16.395  66.127  1.00  0.00    -0.330 A  
HETATM   23  C   UNL     1     -10.387  17.142  65.785  1.00  0.00    -0.253 A  
HETATM   24  C   UNL     1     -10.509  18.478  66.179  1.00  0.00    -0.447 A  
HETATM   25  C   UNL     1      -9.498  19.119  66.918  1.00  0.00    -0.368 A  
HETATM   26  C   UNL     1      -8.342  18.382  67.230  1.00  0.00    -0.249 A  
HETATM   27  C   UNL     1      -9.708  20.549  67.319  1.00  0.00    -0.600 C  
HETATM   28  C   UNL     1      -8.238  17.035  66.844  1.00  0.00    -0.245 A  
BRANCH  26  29
HETATM   29  S   UNL     1      -6.920  19.082  68.061  1.00  0.00    -0.237 S  
HETATM   30  O   UNL     1      -7.338  19.671  69.308  1.00  0.00    -0.356 OA 
HETATM   31  O   UNL     1      -6.145  19.828  67.093  1.00  0.00    -0.184 OA 
HETATM   32  N   UNL     1      -6.028  17.711  68.426  1.00  0.00    -0.171 N  
HETATM   33  H1  UNL     1      -5.218  18.111  68.900  1.00  0.00     0.000 HD 
HETATM   34  H2  UNL     1      -6.240  16.734  68.226  1.00  0.00     0.000 HD 
ENDBRANCH  26  29
ENDBRANCH  20  22
ENDBRANCH  15  20
ENDBRANCH   2  14
TORSDOF 5
ENDMDL
MODEL       35
REMARK 921   NORMALIZED FREE ENERGY PREDICTED BY IDOCK:   -7.49 KCAL/MOL
REMARK 922        TOTAL FREE ENERGY PREDICTED BY IDOCK:  -10.14 KCAL/MOL
REMARK 923 INTER-LIGAND FREE ENERGY PREDICTED BY IDOCK:   -9.91 KCAL/MOL
REMARK 924 INTRA-LIGAND FREE ENERGY PREDICTED BY IDOCK:   -0.23 KCAL/MOL
REMARK 927      BINDING AFFINITY PREDICTED BY RF-SCORE:    0.00 PKD
ROOT
HETATM    1  C   UNL     1      -8.507  12.365  67.223  1.00  0.00    -0.183 C  
HETATM    2  N   UNL     1      -9.956  12.156  67.210  1.00  0.00    -0.202 NA 
ENDROOT
BRANCH   2   3
HETATM    3  C   UNL     1     -10.510  11.397  68.283  1.00  0.00    -0.198 A  
HETATM    4  C   UNL     1     -12.152  11.436  70.227  1.00  0.00    -0.459 A  
HETATM    5  C   UNL     1     -13.378   9.354  72.274  1.00  0.00    -0.539 C  
HETATM    6  C   UNL     1     -10.171  10.032  68.473  1.00  0.00    -0.196 A  
HETATM    7  C   UNL     1     -10.852   9.390  69.525  1.00  0.00    -0.213 A  
HETATM    8  C   UNL     1     -11.802  10.099  70.337  1.00  0.00    -0.373 A  
HETATM    9  C   UNL     1     -12.330   9.202  71.234  1.00  0.00    -0.315 A  
HETATM   10  N   UNL     1     -10.773   8.119  69.950  1.00  0.00    -0.246 NA 
HETATM   11  N   UNL     1     -11.672   8.027  70.954  1.00  0.00    -0.279 NA 
HETATM   12  C   UNL     1     -11.854   6.751  71.607  1.00  0.00    -0.326 C  
HETATM   13  C   UNL     1     -11.455  12.052  69.163  1.00  0.00    -0.357 A  
ENDBRANCH   2   3
BRANCH   2  14
HETATM   14  C   UNL     1     -10.712  12.895  66.275  1.00  0.00    -0.274 A  
HETATM   15  C   UNL     1     -11.100  14.935  65.224  1.00  0.00    -0.378 A  
HETATM   16  N   UNL     1     -12.172  14.487  64.565  1.00  0.00    -0.521 NA 
HETATM   17  C   UNL     1     -12.478  13.194  64.751  1.00  0.00    -0.402 A  
HETATM   18  C   UNL     1     -11.778  12.352  65.585  1.00  0.00    -0.468 A  
HETATM   19  N   UNL     1     -10.384  14.185  66.075  1.00  0.00    -0.299 NA 
BRANCH  15  20
HETATM   20  N   UNL     1     -10.748  16.269  65.027  1.00  0.00    -0.656 NA 
HETATM   21  H   UNL     1     -11.128  16.712  64.190  1.00  0.00     0.000 HD 
BRANCH  20  22
HETATM   22  C   UNL     1      -9.936  17.079  65.833  1.00  0.00    -0.217 A  
HETATM   23  C   UNL     1     -10.361  18.369  66.155  1.00  0.00    -0.431 A  
HETATM   24  C   UNL     1      -9.620  19.170  67.029  1.00  0.00    -0.378 A  
HETATM   25  C   UNL     1      -8.419  18.713  67.603  1.00  0.00    -0.284 A  
HETATM   26  C   UNL     1      -7.968  17.429  67.249  1.00  0.00    -0.200 A  
HETATM   27  C   UNL     1      -7.689  19.623  68.545  1.00  0.00    -0.369 C  
HETATM   28  C   UNL     1      -8.730  16.627  66.383  1.00  0.00    -0.345 A  
BRANCH  26  29
HETATM   29  S   UNL     1      -6.408  16.747  67.798  1.00  0.00    -0.157 S  
HETATM   30  O   UNL     1      -6.244  15.425  67.248  1.00  0.00    -0.317 OA 
HETATM   31  O   UNL     1      -6.270  17.000  69.216  1.00  0.00    -0.194 OA 
HETATM   32  N   UNL     1      -5.307  17.751  67.031  1.00  0.00    -0.127 N  
HETATM   33  H1  UNL     1      -4.417  17.362  67.343  1.00  0.00     0.000 HD 
HETATM   34  H2  UNL     1      -5.481  18.543  66.413  1.00  0.00     0.000 HD 
ENDBRANCH  26  29
ENDBRANCH  20  22
ENDBRANCH  15  20
ENDBRANCH   2  14
TORSDOF 5
ENDMDL
MODEL       36
REMARK 921   NORMALIZED FREE ENERGY PREDICTED BY IDOCK:   -7.48 KCAL/MOL
REMARK 922        TOTAL FREE ENERGY PREDICTED BY IDOCK:  -10.13 KCAL/MOL
REMARK 923 INTER-LIGAND FREE ENERGY PREDICTED BY IDOCK:   -9.65 KCAL/MOL
REMARK 924 INTRA-LIGAND FREE ENERGY PREDICTED BY IDOCK:   -0.48 KCAL/MOL
REMARK 927      BINDING AFFINITY PREDICTED BY RF-SCORE:    0.00 PKD
ROOT
HETATM    1  C   UNL     1      -9.277  12.378  66.121  1.00  0.00    -0.101 C  
HETATM    2  N   UNL     1     -10.582  12.962  66.431  1.00  0.00    -0.269 NA 
ENDROOT
BRANCH   2   3
HETATM    3  C   UNL     1     -11.116  12.706  67.728  1.00  0.00    -0.247 A  
HETATM    4  C   UNL     1     -12.170  13.763  69.790  1.00  0.00    -0.368 A  
HETATM    5  C   UNL     1     -13.563  12.769  72.454  1.00  0.00    -0.507 C  
HETATM    6  C   UNL     1     -11.243  11.382  68.226  1.00  0.00    -0.326 A  
HETATM    7  C   UNL     1     -11.856  11.277  69.488  1.00  0.00    -0.357 A  
HETATM    8  C   UNL     1     -12.294  12.444  70.201  1.00  0.00    -0.209 A  
HETATM    9  C   UNL     1     -12.891  12.019  71.364  1.00  0.00    -0.288 A  
HETATM   10  N   UNL     1     -12.133  10.185  70.219  1.00  0.00    -0.237 NA 
HETATM   11  N   UNL     1     -12.764  10.651  71.320  1.00  0.00    -0.397 NA 
HETATM   12  C   UNL     1     -13.231   9.701  72.304  1.00  0.00    -0.404 C  
HETATM   13  C   UNL     1     -11.554  13.836  68.519  1.00  0.00    -0.373 A  
ENDBRANCH   2   3
BRANCH   2  14
HETATM   14  C   UNL     1     -11.106  13.904  65.519  1.00  0.00    -0.304 A  
HETATM   15  C   UNL     1     -11.271  16.130  64.859  1.00  0.00    -0.285 A  
HETATM   16  N   UNL     1     -12.144  15.864  63.883  1.00  0.00    -0.750 NA 
HETATM   17  C   UNL     1     -12.460  14.570  63.714  1.00  0.00     0.269 A  
HETATM   18  C   UNL     1     -11.964  13.551  64.495  1.00  0.00    -0.451 A  
HETATM   19  N   UNL     1     -10.766  15.196  65.679  1.00  0.00    -0.341 NA 
BRANCH  15  20
HETATM   20  N   UNL     1     -10.909  17.464  65.037  1.00  0.00    -0.739 NA 
HETATM   21  H   UNL     1     -11.229  18.113  64.319  1.00  0.00     0.000 HD 
BRANCH  20  22
HETATM   22  C   UNL     1     -10.160  18.026  66.080  1.00  0.00    -0.334 A  
HETATM   23  C   UNL     1     -10.596  17.870  67.397  1.00  0.00    -0.370 A  
HETATM   24  C   UNL     1      -9.827  18.340  68.467  1.00  0.00    -0.400 A  
HETATM   25  C   UNL     1      -8.600  18.995  68.255  1.00  0.00    -0.366 A  
HETATM   26  C   UNL     1      -8.177  19.188  66.928  1.00  0.00    -0.272 A  
HETATM   27  C   UNL     1      -7.823  19.454  69.453  1.00  0.00    -0.057 C  
HETATM   28  C   UNL     1      -8.950  18.697  65.862  1.00  0.00     0.208 A  
BRANCH  26  29
HETATM   29  S   UNL     1      -6.703  20.101  66.486  1.00  0.00    -0.229 S  
HETATM   30  O   UNL     1      -5.565  19.218  66.521  1.00  0.00    -0.155 OA 
HETATM   31  O   UNL     1      -6.709  21.357  67.204  1.00  0.00    -0.537 OA 
HETATM   32  N   UNL     1      -7.000  20.474  64.879  1.00  0.00    -0.455 N  
HETATM   33  H1  UNL     1      -6.160  20.994  64.628  1.00  0.00     0.000 HD 
HETATM   34  H2  UNL     1      -7.810  20.242  64.304  1.00  0.00     0.000 HD 
ENDBRANCH  26  29
ENDBRANCH  20  22
ENDBRANCH  15  20
ENDBRANCH   2  14
TORSDOF 5
ENDMDL
MODEL       37
REMARK 921   NORMALIZED FREE ENERGY PREDICTED BY IDOCK:   -7.48 KCAL/MOL
REMARK 922        TOTAL FREE ENERGY PREDICTED BY IDOCK:  -10.13 KCAL/MOL
REMARK 923 INTER-LIGAND FREE ENERGY PREDICTED BY IDOCK:   -9.26 KCAL/MOL
REMARK 924 INTRA-LIGAND FREE ENERGY PREDICTED BY IDOCK:   -0.86 KCAL/MOL
REMARK 927      BINDING AFFINITY PREDICTED BY RF-SCORE:    0.00 PKD
ROOT
HETATM    1  C   UNL     1      -7.602  13.328  68.488  1.00  0.00    -0.128 C  
HETATM    2  N   UNL     1      -8.880  13.810  67.962  1.00  0.00    -0.174 NA 
ENDROOT
BRANCH   2   3
HETATM    3  C   UNL     1      -8.929  15.164  67.518  1.00  0.00    -0.180 A  
HETATM    4  C   UNL     1     -10.298  17.310  67.533  1.00  0.00    -0.346 A  
HETATM    5  C   UNL     1      -9.898  20.326  66.655  1.00  0.00    -0.562 C  
HETATM    6  C   UNL     1      -7.844  15.750  66.813  1.00  0.00    -0.248 A  
HETATM    7  C   UNL     1      -8.001  17.114  66.505  1.00  0.00    -0.289 A  
HETATM    8  C   UNL     1      -9.191  17.827  66.877  1.00  0.00    -0.263 A  
HETATM    9  C   UNL     1      -9.028  19.136  66.490  1.00  0.00    -0.341 A  
HETATM   10  N   UNL     1      -7.167  17.952  65.869  1.00  0.00    -0.475 NA 
HETATM   11  N   UNL     1      -7.791  19.150  65.888  1.00  0.00    -0.454 NA 
HETATM   12  C   UNL     1      -7.122  20.290  65.302  1.00  0.00    -0.190 C  
HETATM   13  C   UNL     1     -10.110  15.941  67.831  1.00  0.00    -0.235 A  
ENDBRANCH   2   3
BRANCH   2  14
HETATM   14  C   UNL     1      -9.891  12.852  67.729  1.00  0.00    -0.221 A  
HETATM   15  C   UNL     1     -11.513  11.441  68.620  1.00  0.00    -0.296 A  
HETATM   16  N   UNL     1     -11.812  10.899  67.436  1.00  0.00    -0.327 NA 
HETATM   17  C   UNL     1     -11.147  11.393  66.379  1.00  0.00    -0.240 A  
HETATM   18  C   UNL     1     -10.186  12.374  66.467  1.00  0.00    -0.244 A  
HETATM   19  N   UNL     1     -10.570  12.380  68.790  1.00  0.00    -0.214 NA 
BRANCH  15  20
HETATM   20  N   UNL     1     -12.209  10.962  69.728  1.00  0.00    -0.383 NA 
HETATM   21  H   UNL     1     -13.153  11.327  69.854  1.00  0.00     0.000 HD 
BRANCH  20  22
HETATM   22  C   UNL     1     -11.774  10.042  70.693  1.00  0.00    -0.337 A  
HETATM   23  C   UNL     1     -12.698   9.499  71.586  1.00  0.00    -0.478 A  
HETATM   24  C   UNL     1     -12.315   8.513  72.501  1.00  0.00    -0.372 A  
HETATM   25  C   UNL     1     -10.990   8.045  72.563  1.00  0.00    -0.430 A  
HETATM   26  C   UNL     1     -10.048   8.619  71.691  1.00  0.00    -0.294 A  
HETATM   27  C   UNL     1     -10.659   6.973  73.558  1.00  0.00    -0.405 C  
HETATM   28  C   UNL     1     -10.448   9.597  70.764  1.00  0.00    -0.375 A  
BRANCH  26  29
HETATM   29  S   UNL     1      -8.304   8.219  71.722  1.00  0.00    -0.161 S  
HETATM   30  O   UNL     1      -8.119   6.851  71.307  1.00  0.00    -0.108 OA 
HETATM   31  O   UNL     1      -7.741   8.718  72.958  1.00  0.00    -0.376 OA 
HETATM   32  N   UNL     1      -7.706   9.200  70.501  1.00  0.00    -0.117 N  
HETATM   33  H1  UNL     1      -6.712   8.972  70.519  1.00  0.00     0.000 HD 
HETATM   34  H2  UNL     1      -8.206   9.854  69.899  1.00  0.00     0.000 HD 
ENDBRANCH  26  29
ENDBRANCH  20  22
ENDBRANCH  15  20
ENDBRANCH   2  14
TORSDOF 5
ENDMDL
MODEL       38
REMARK 921   NORMALIZED FREE ENERGY PREDICTED BY IDOCK:   -7.47 KCAL/MOL
REMARK 922        TOTAL FREE ENERGY PREDICTED BY IDOCK:  -10.12 KCAL/MOL
REMARK 923 INTER-LIGAND FREE ENERGY PREDICTED BY IDOCK:   -9.41 KCAL/MOL
REMARK 924 INTRA-LIGAND FREE ENERGY PREDICTED BY IDOCK:   -0.71 KCAL/MOL
REMARK 927      BINDING AFFINITY PREDICTED BY RF-SCORE:    0.00 PKD
ROOT
HETATM    1  C   UNL     1      -9.532   7.681  71.948  1.00  0.00    -0.146 C  
HETATM    2  N   UNL     1     -10.604   7.376  71.001  1.00  0.00    -0.223 NA 
ENDROOT
BRANCH   2   3
HETATM    3  C   UNL     1     -10.294   6.475  69.939  1.00  0.00    -0.191 A  
HETATM    4  C   UNL     1      -9.246   4.232  69.354  1.00  0.00    -0.203 A  
HETATM    5  C   UNL     1      -9.021   2.367  66.804  1.00  0.00    -0.142 C  
HETATM    6  C   UNL     1     -10.702   6.739  68.605  1.00  0.00    -0.279 A  
HETATM    7  C   UNL     1     -10.393   5.728  67.676  1.00  0.00    -0.217 A  
HETATM    8  C   UNL     1      -9.700   4.536  68.080  1.00  0.00    -0.192 A  
HETATM    9  C   UNL     1      -9.592   3.726  66.974  1.00  0.00    -0.180 A  
HETATM   10  N   UNL     1     -10.650   5.663  66.360  1.00  0.00    -0.232 NA 
HETATM   11  N   UNL     1     -10.180   4.458  65.969  1.00  0.00    -0.243 NA 
HETATM   12  C   UNL     1     -10.341   4.066  64.587  1.00  0.00    -0.205 C  
HETATM   13  C   UNL     1      -9.572   5.263  70.263  1.00  0.00    -0.241 A  
ENDBRANCH   2   3
BRANCH   2  14
HETATM   14  C   UNL     1     -11.906   7.813  71.328  1.00  0.00    -0.295 A  
HETATM   15  C   UNL     1     -13.280   9.544  72.057  1.00  0.00    -0.452 A  
HETATM   16  N   UNL     1     -14.370   8.772  72.101  1.00  0.00    -0.429 NA 
HETATM   17  C   UNL     1     -14.207   7.500  71.704  1.00  0.00    -0.458 A  
HETATM   18  C   UNL     1     -13.002   6.972  71.299  1.00  0.00    -0.357 A  
HETATM   19  N   UNL     1     -12.068   9.095  71.701  1.00  0.00    -0.338 NA 
BRANCH  15  20
HETATM   20  N   UNL     1     -13.432  10.875  72.441  1.00  0.00    -0.460 NA 
HETATM   21  H   UNL     1     -13.838  11.030  73.363  1.00  0.00     0.000 HD 
BRANCH  20  22
HETATM   22  C   UNL     1     -13.097  12.028  71.717  1.00  0.00    -0.355 A  
HETATM   23  C   UNL     1     -13.325  13.283  72.285  1.00  0.00    -0.630 A  
HETATM   24  C   UNL     1     -12.921  14.450  71.629  1.00  0.00    -0.412 A  
HETATM   25  C   UNL     1     -12.285  14.403  70.376  1.00  0.00    -0.404 A  
HETATM   26  C   UNL     1     -12.088  13.143  69.783  1.00  0.00    -0.270 A  
HETATM   27  C   UNL     1     -11.864  15.696  69.743  1.00  0.00    -0.376 C  
HETATM   28  C   UNL     1     -12.484  11.976  70.459  1.00  0.00    -0.292 A  
BRANCH  26  29
HETATM   29  S   UNL     1     -11.401  12.920  68.146  1.00  0.00    -0.313 S  
HETATM   30  O   UNL     1      -9.978  13.143  68.190  1.00  0.00    -0.223 OA 
HETATM   31  O   UNL     1     -12.247  13.609  67.196  1.00  0.00    -0.372 OA 
HETATM   32  N   UNL     1     -11.646  11.281  67.894  1.00  0.00    -0.281 N  
HETATM   33  H1  UNL     1     -11.254  11.154  66.960  1.00  0.00     0.000 HD 
HETATM   34  H2  UNL     1     -12.074  10.592  68.511  1.00  0.00     0.000 HD 
ENDBRANCH  26  29
ENDBRANCH  20  22
ENDBRANCH  15  20
ENDBRANCH   2  14
TORSDOF 5
ENDMDL
MODEL       39
REMARK 921   NORMALIZED FREE ENERGY PREDICTED BY IDOCK:   -7.46 KCAL/MOL
REMARK 922        TOTAL FREE ENERGY PREDICTED BY IDOCK:  -10.10 KCAL/MOL
REMARK 923 INTER-LIGAND FREE ENERGY PREDICTED BY IDOCK:  -10.23 KCAL/MOL
REMARK 924 INTRA-LIGAND FREE ENERGY PREDICTED BY IDOCK:    0.13 KCAL/MOL
REMARK 927      BINDING AFFINITY PREDICTED BY RF-SCORE:    0.00 PKD
ROOT
HETATM    1  C   UNL     1      -9.123  10.661  65.420  1.00  0.00    -0.189 C  
HETATM    2  N   UNL     1     -10.388  11.250  65.862  1.00  0.00    -0.246 NA 
ENDROOT
BRANCH   2   3
HETATM    3  C   UNL     1     -10.793  10.984  67.203  1.00  0.00    -0.282 A  
HETATM    4  C   UNL     1     -12.124  11.862  69.187  1.00  0.00    -0.261 A  
HETATM    5  C   UNL     1     -13.079  10.780  72.005  1.00  0.00    -0.476 C  
HETATM    6  C   UNL     1     -10.463   9.762  67.845  1.00  0.00    -0.288 A  
HETATM    7  C   UNL     1     -10.994   9.606  69.139  1.00  0.00    -0.151 A  
HETATM    8  C   UNL     1     -11.793  10.636  69.742  1.00  0.00    -0.377 A  
HETATM    9  C   UNL     1     -12.203  10.175  70.971  1.00  0.00    -0.374 A  
HETATM   10  N   UNL     1     -10.882   8.578  69.995  1.00  0.00    -0.236 NA 
HETATM   11  N   UNL     1     -11.623   8.932  71.068  1.00  0.00    -0.284 NA 
HETATM   12  C   UNL     1     -11.735   8.003  72.169  1.00  0.00    -0.344 C  
HETATM   13  C   UNL     1     -11.579  11.988  67.888  1.00  0.00    -0.405 A  
ENDBRANCH   2   3
BRANCH   2  14
HETATM   14  C   UNL     1     -10.992  12.204  65.015  1.00  0.00    -0.309 A  
HETATM   15  C   UNL     1     -11.240  14.442  64.425  1.00  0.00    -0.222 A  
HETATM   16  N   UNL     1     -12.178  14.184  63.510  1.00  0.00    -0.614 NA 
HETATM   17  C   UNL     1     -12.486  12.890  63.332  1.00  0.00    -0.303 A  
HETATM   18  C   UNL     1     -11.918  11.861  64.048  1.00  0.00    -0.455 A  
HETATM   19  N   UNL     1     -10.661  13.498  65.182  1.00  0.00    -0.323 NA 
BRANCH  15  20
HETATM   20  N   UNL     1     -10.886  15.778  64.609  1.00  0.00    -0.778 NA 
HETATM   21  H   UNL     1     -11.247  16.434  63.918  1.00  0.00     0.000 HD 
BRANCH  20  22
HETATM   22  C   UNL     1     -10.096  16.332  65.626  1.00  0.00    -0.312 A  
HETATM   23  C   UNL     1      -9.214  15.511  66.331  1.00  0.00    -0.339 A  
HETATM   24  C   UNL     1      -8.348  16.048  67.289  1.00  0.00    -0.205 A  
HETATM   25  C   UNL     1      -8.342  17.423  67.584  1.00  0.00    -0.214 A  
HETATM   26  C   UNL     1      -9.257  18.246  66.903  1.00  0.00    -0.282 A  
HETATM   27  C   UNL     1      -7.372  17.927  68.611  1.00  0.00    -0.271 C  
HETATM   28  C   UNL     1     -10.111  17.698  65.931  1.00  0.00    -0.192 A  
BRANCH  26  29
HETATM   29  S   UNL     1      -9.457  19.991  67.245  1.00  0.00    -0.406 S  
HETATM   30  O   UNL     1      -8.169  20.637  67.202  1.00  0.00    -0.319 OA 
HETATM   31  O   UNL     1     -10.340  20.138  68.381  1.00  0.00    -0.408 OA 
HETATM   32  N   UNL     1     -10.322  20.505  65.905  1.00  0.00    -0.365 N  
HETATM   33  H1  UNL     1     -10.435  21.500  66.099  1.00  0.00     0.000 HD 
HETATM   34  H2  UNL     1     -10.649  19.965  65.104  1.00  0.00     0.000 HD 
ENDBRANCH  26  29
ENDBRANCH  20  22
ENDBRANCH  15  20
ENDBRANCH   2  14
TORSDOF 5
ENDMDL
MODEL       40
REMARK 921   NORMALIZED FREE ENERGY PREDICTED BY IDOCK:   -7.41 KCAL/MOL
REMARK 922        TOTAL FREE ENERGY PREDICTED BY IDOCK:  -10.04 KCAL/MOL
REMARK 923 INTER-LIGAND FREE ENERGY PREDICTED BY IDOCK:   -9.21 KCAL/MOL
REMARK 924 INTRA-LIGAND FREE ENERGY PREDICTED BY IDOCK:   -0.84 KCAL/MOL
REMARK 927      BINDING AFFINITY PREDICTED BY RF-SCORE:    0.00 PKD
ROOT
HETATM    1  C   UNL     1      -8.211  11.639  66.995  1.00  0.00    -0.170 C  
HETATM    2  N   UNL     1      -9.607  11.870  67.367  1.00  0.00    -0.173 NA 
ENDROOT
BRANCH   2   3
HETATM    3  C   UNL     1     -10.130  11.091  68.441  1.00  0.00    -0.184 A  
HETATM    4  C   UNL     1      -9.559   9.393  70.249  1.00  0.00    -0.294 A  
HETATM    5  C   UNL     1     -11.003   8.084  72.746  1.00  0.00    -0.449 C  
HETATM    6  C   UNL     1     -11.483  11.215  68.852  1.00  0.00    -0.363 A  
HETATM    7  C   UNL     1     -11.839  10.441  69.972  1.00  0.00    -0.273 A  
HETATM    8  C   UNL     1     -10.882   9.586  70.618  1.00  0.00    -0.371 A  
HETATM    9  C   UNL     1     -11.506   9.008  71.697  1.00  0.00    -0.361 A  
HETATM   10  N   UNL     1     -13.016  10.344  70.610  1.00  0.00    -0.343 NA 
HETATM   11  N   UNL     1     -12.788   9.501  71.641  1.00  0.00    -0.364 NA 
HETATM   12  C   UNL     1     -13.872   9.215  72.555  1.00  0.00    -0.417 C  
HETATM   13  C   UNL     1      -9.232  10.184  69.124  1.00  0.00    -0.204 A  
ENDBRANCH   2   3
BRANCH   2  14
HETATM   14  C   UNL     1     -10.258  12.983  66.792  1.00  0.00    -0.246 A  
HETATM   15  C   UNL     1     -10.830  15.233  66.955  1.00  0.00    -0.317 A  
HETATM   16  N   UNL     1     -11.575  15.211  65.846  1.00  0.00    -0.170 NA 
HETATM   17  C   UNL     1     -11.614  14.041  65.188  1.00  0.00    -0.342 A  
HETATM   18  C   UNL     1     -10.968  12.902  65.610  1.00  0.00    -0.297 A  
HETATM   19  N   UNL     1     -10.195  14.158  67.444  1.00  0.00    -0.243 NA 
BRANCH  15  20
HETATM   20  N   UNL     1     -10.754  16.443  67.641  1.00  0.00    -0.326 NA 
HETATM   21  H   UNL     1     -11.447  16.584  68.377  1.00  0.00     0.000 HD 
BRANCH  20  22
HETATM   22  C   UNL     1      -9.846  17.493  67.448  1.00  0.00    -0.297 A  
HETATM   23  C   UNL     1     -10.151  18.504  66.535  1.00  0.00    -0.425 A  
HETATM   24  C   UNL     1      -9.310  19.611  66.384  1.00  0.00    -0.463 A  
HETATM   25  C   UNL     1      -8.126  19.739  67.132  1.00  0.00    -0.327 A  
HETATM   26  C   UNL     1      -7.796  18.704  68.025  1.00  0.00    -0.271 A  
HETATM   27  C   UNL     1      -7.284  20.964  66.928  1.00  0.00    -0.308 C  
HETATM   28  C   UNL     1      -8.657  17.604  68.180  1.00  0.00    -0.261 A  
BRANCH  26  29
HETATM   29  S   UNL     1      -6.272  18.659  68.962  1.00  0.00    -0.245 S  
HETATM   30  O   UNL     1      -6.321  19.656  70.002  1.00  0.00    -0.309 OA 
HETATM   31  O   UNL     1      -5.165  18.587  68.034  1.00  0.00    -0.161 OA 
HETATM   32  N   UNL     1      -6.369  17.158  69.700  1.00  0.00    -0.237 N  
HETATM   33  H1  UNL     1      -5.500  17.132  70.235  1.00  0.00     0.000 HD 
HETATM   34  H2  UNL     1      -7.103  16.454  69.632  1.00  0.00     0.000 HD 
ENDBRANCH  26  29
ENDBRANCH  20  22
ENDBRANCH  15  20
ENDBRANCH   2  14
TORSDOF 5
ENDMDL
MODEL       41
REMARK 921   NORMALIZED FREE ENERGY PREDICTED BY IDOCK:   -7.41 KCAL/MOL
REMARK 922        TOTAL FREE ENERGY PREDICTED BY IDOCK:  -10.04 KCAL/MOL
REMARK 923 INTER-LIGAND FREE ENERGY PREDICTED BY IDOCK:   -9.77 KCAL/MOL
REMARK 924 INTRA-LIGAND FREE ENERGY PREDICTED BY IDOCK:   -0.27 KCAL/MOL
REMARK 927      BINDING AFFINITY PREDICTED BY RF-SCORE:    0.00 PKD
ROOT
HETATM    1  C   UNL     1     -10.084   8.621  70.515  1.00  0.00    -0.196 C  
HETATM    2  N   UNL     1     -10.584   9.739  69.714  1.00  0.00    -0.239 NA 
ENDROOT
BRANCH   2   3
HETATM    3  C   UNL     1     -10.292   9.718  68.318  1.00  0.00    -0.198 A  
HETATM    4  C   UNL     1     -10.564  10.966  66.117  1.00  0.00    -0.270 A  
HETATM    5  C   UNL     1      -9.453  10.730  63.160  1.00  0.00    -0.359 C  
HETATM    6  C   UNL     1      -9.494   8.692  67.746  1.00  0.00    -0.165 A  
HETATM    7  C   UNL     1      -9.226   8.841  66.373  1.00  0.00    -0.189 A  
HETATM    8  C   UNL     1      -9.752   9.952  65.630  1.00  0.00    -0.346 A  
HETATM    9  C   UNL     1      -9.281   9.850  64.343  1.00  0.00    -0.264 A  
HETATM   10  N   UNL     1      -8.502   8.065  65.550  1.00  0.00    -0.146 NA 
HETATM   11  N   UNL     1      -8.535   8.695  64.355  1.00  0.00    -0.137 NA 
HETATM   12  C   UNL     1      -7.806   8.118  63.248  1.00  0.00    -0.149 C  
HETATM   13  C   UNL     1     -10.812  10.791  67.497  1.00  0.00    -0.342 A  
ENDBRANCH   2   3
BRANCH   2  14
HETATM   14  C   UNL     1     -11.492  10.627  70.330  1.00  0.00    -0.334 A  
HETATM   15  C   UNL     1     -12.319  12.795  70.505  1.00  0.00    -0.275 A  
HETATM   16  N   UNL     1     -13.132  12.493  71.522  1.00  0.00    -0.348 NA 
HETATM   17  C   UNL     1     -13.137  11.208  71.908  1.00  0.00    -0.408 A  
HETATM   18  C   UNL     1     -12.347  10.233  71.342  1.00  0.00    -0.502 A  
HETATM   19  N   UNL     1     -11.499  11.909  69.921  1.00  0.00    -0.235 NA 
BRANCH  15  20
HETATM   20  N   UNL     1     -12.315  14.119  70.070  1.00  0.00    -0.346 NA 
HETATM   21  H   UNL     1     -12.880  14.770  70.616  1.00  0.00     0.000 HD 
BRANCH  20  22
HETATM   22  C   UNL     1     -11.632  14.670  68.977  1.00  0.00    -0.298 A  
HETATM   23  C   UNL     1     -10.550  15.522  69.204  1.00  0.00    -0.234 A  
HETATM   24  C   UNL     1      -9.792  16.016  68.138  1.00  0.00    -0.222 A  
HETATM   25  C   UNL     1     -10.097  15.686  66.805  1.00  0.00    -0.277 A  
HETATM   26  C   UNL     1     -11.210  14.859  66.571  1.00  0.00    -0.335 A  
HETATM   27  C   UNL     1      -9.227  16.240  65.717  1.00  0.00    -0.151 C  
HETATM   28  C   UNL     1     -11.955  14.355  67.651  1.00  0.00    -0.378 A  
BRANCH  26  29
HETATM   29  S   UNL     1     -11.800  14.440  64.934  1.00  0.00    -0.436 S  
HETATM   30  O   UNL     1     -13.150  13.944  65.025  1.00  0.00    -0.749 OA 
HETATM   31  O   UNL     1     -10.764  13.698  64.250  1.00  0.00    -0.398 OA 
HETATM   32  N   UNL     1     -11.866  15.945  64.200  1.00  0.00    -0.841 N  
HETATM   33  H1  UNL     1     -12.202  15.707  63.267  1.00  0.00     0.000 HD 
HETATM   34  H2  UNL     1     -11.631  16.860  64.585  1.00  0.00     0.000 HD 
ENDBRANCH  26  29
ENDBRANCH  20  22
ENDBRANCH  15  20
ENDBRANCH   2  14
TORSDOF 5
ENDMDL
MODEL       42
REMARK 921   NORMALIZED FREE ENERGY PREDICTED BY IDOCK:   -7.40 KCAL/MOL
REMARK 922        TOTAL FREE ENERGY PREDICTED BY IDOCK:  -10.03 KCAL/MOL
REMARK 923 INTER-LIGAND FREE ENERGY PREDICTED BY IDOCK:   -9.21 KCAL/MOL
REMARK 924 INTRA-LIGAND FREE ENERGY PREDICTED BY IDOCK:   -0.83 KCAL/MOL
REMARK 927      BINDING AFFINITY PREDICTED BY RF-SCORE:    0.00 PKD
ROOT
HETATM    1  C   UNL     1     -14.330   8.455  72.042  1.00  0.00    -0.464 C  
HETATM    2  N   UNL     1     -12.968   8.950  71.841  1.00  0.00    -0.356 NA 
ENDROOT
BRANCH   2   3
HETATM    3  C   UNL     1     -11.922   7.981  71.821  1.00  0.00    -0.301 A  
HETATM    4  C   UNL     1      -9.940   7.032  73.105  1.00  0.00    -0.242 A  
HETATM    5  C   UNL     1      -7.972   4.564  72.849  1.00  0.00    -0.092 C  
HETATM    6  C   UNL     1     -11.810   7.038  70.765  1.00  0.00    -0.401 A  
HETATM    7  C   UNL     1     -10.777   6.095  70.916  1.00  0.00    -0.258 A  
HETATM    8  C   UNL     1      -9.907   6.123  72.059  1.00  0.00    -0.174 A  
HETATM    9  C   UNL     1      -9.044   5.059  71.948  1.00  0.00    -0.137 A  
HETATM   10  N   UNL     1     -10.419   5.077  70.116  1.00  0.00    -0.238 NA 
HETATM   11  N   UNL     1      -9.400   4.467  70.759  1.00  0.00    -0.141 NA 
HETATM   12  C   UNL     1      -8.808   3.291  70.161  1.00  0.00    -0.086 C  
HETATM   13  C   UNL     1     -10.988   7.964  72.926  1.00  0.00    -0.452 A  
ENDBRANCH   2   3
BRANCH   2  14
HETATM   14  C   UNL     1     -12.815  10.302  71.465  1.00  0.00    -0.452 A  
HETATM   15  C   UNL     1     -11.715  11.870  70.142  1.00  0.00    -0.253 A  
HETATM   16  N   UNL     1     -12.333  12.909  70.712  1.00  0.00    -0.359 NA 
HETATM   17  C   UNL     1     -13.242  12.608  71.653  1.00  0.00    -0.298 A  
HETATM   18  C   UNL     1     -13.529  11.325  72.060  1.00  0.00    -0.289 A  
HETATM   19  N   UNL     1     -11.920  10.595  70.504  1.00  0.00    -0.321 NA 
BRANCH  15  20
HETATM   20  N   UNL     1     -10.785  12.157  69.145  1.00  0.00    -0.417 NA 
HETATM   21  H   UNL     1      -9.868  11.724  69.252  1.00  0.00     0.000 HD 
BRANCH  20  22
HETATM   22  C   UNL     1     -10.952  12.965  68.012  1.00  0.00    -0.247 A  
HETATM   23  C   UNL     1     -11.721  12.499  66.945  1.00  0.00    -0.447 A  
HETATM   24  C   UNL     1     -11.982  13.315  65.839  1.00  0.00    -0.466 A  
HETATM   25  C   UNL     1     -11.471  14.623  65.757  1.00  0.00    -0.338 A  
HETATM   26  C   UNL     1     -10.663  15.082  66.813  1.00  0.00    -0.308 A  
HETATM   27  C   UNL     1     -11.808  15.443  64.548  1.00  0.00    -0.257 C  
HETATM   28  C   UNL     1     -10.422  14.259  67.926  1.00  0.00    -0.240 A  
BRANCH  26  29
HETATM   29  S   UNL     1      -9.844  16.672  66.807  1.00  0.00    -0.286 S  
HETATM   30  O   UNL     1     -10.818  17.712  67.025  1.00  0.00    -0.225 OA 
HETATM   31  O   UNL     1      -8.930  16.714  65.686  1.00  0.00    -0.463 OA 
HETATM   32  N   UNL     1      -8.896  16.574  68.186  1.00  0.00    -0.198 N  
HETATM   33  H1  UNL     1      -8.429  17.481  68.183  1.00  0.00     0.000 HD 
HETATM   34  H2  UNL     1      -8.809  15.807  68.853  1.00  0.00     0.000 HD 
ENDBRANCH  26  29
ENDBRANCH  20  22
ENDBRANCH  15  20
ENDBRANCH   2  14
TORSDOF 5
ENDMDL
MODEL       43
REMARK 921   NORMALIZED FREE ENERGY PREDICTED BY IDOCK:   -7.38 KCAL/MOL
REMARK 922        TOTAL FREE ENERGY PREDICTED BY IDOCK:  -10.00 KCAL/MOL
REMARK 923 INTER-LIGAND FREE ENERGY PREDICTED BY IDOCK:   -9.59 KCAL/MOL
REMARK 924 INTRA-LIGAND FREE ENERGY PREDICTED BY IDOCK:   -0.41 KCAL/MOL
REMARK 927      BINDING AFFINITY PREDICTED BY RF-SCORE:    0.00 PKD
ROOT
HETATM    1  C   UNL     1      -9.245  11.531  66.160  1.00  0.00    -0.219 C  
HETATM    2  N   UNL     1     -10.572  12.100  66.397  1.00  0.00    -0.235 NA 
ENDROOT
BRANCH   2   3
HETATM    3  C   UNL     1     -11.108  11.970  67.712  1.00  0.00    -0.249 A  
HETATM    4  C   UNL     1     -12.043  13.235  69.713  1.00  0.00    -0.355 A  
HETATM    5  C   UNL     1     -13.478  12.526  72.446  1.00  0.00    -0.372 C  
HETATM    6  C   UNL     1     -11.336  10.694  68.293  1.00  0.00    -0.357 A  
HETATM    7  C   UNL     1     -11.939  10.717  69.564  1.00  0.00    -0.292 A  
HETATM    8  C   UNL     1     -12.270  11.959  70.206  1.00  0.00    -0.353 A  
HETATM    9  C   UNL     1     -12.884  11.658  71.398  1.00  0.00    -0.356 A  
HETATM   10  N   UNL     1     -12.296   9.700  70.364  1.00  0.00    -0.036 NA 
HETATM   11  N   UNL     1     -12.871  10.283  71.439  1.00  0.00    -0.404 NA 
HETATM   12  C   UNL     1     -13.402   9.438  72.484  1.00  0.00    -0.343 C  
HETATM   13  C   UNL     1     -11.440  13.179  68.435  1.00  0.00    -0.350 A  
ENDBRANCH   2   3
BRANCH   2  14
HETATM   14  C   UNL     1     -11.120  12.918  65.385  1.00  0.00    -0.281 A  
HETATM   15  C   UNL     1     -11.330  15.046  64.467  1.00  0.00    -0.287 A  
HETATM   16  N   UNL     1     -12.205  14.651  63.538  1.00  0.00    -0.394 NA 
HETATM   17  C   UNL     1     -12.498  13.341  63.527  1.00  0.00    -0.248 A  
HETATM   18  C   UNL     1     -11.978  12.431  64.419  1.00  0.00    -0.482 A  
HETATM   19  N   UNL     1     -10.802  14.225  65.387  1.00  0.00    -0.323 NA 
BRANCH  15  20
HETATM   20  N   UNL     1     -10.991  16.398  64.482  1.00  0.00    -1.022 NA 
HETATM   21  H   UNL     1     -11.261  16.935  63.658  1.00  0.00     0.000 HD 
BRANCH  20  22
HETATM   22  C   UNL     1     -10.324  17.112  65.487  1.00  0.00    -0.115 A  
HETATM   23  C   UNL     1     -10.704  18.428  65.759  1.00  0.00    -0.161 A  
HETATM   24  C   UNL     1     -10.121  19.138  66.813  1.00  0.00    -0.458 A  
HETATM   25  C   UNL     1      -9.128  18.561  67.625  1.00  0.00    -0.293 A  
HETATM   26  C   UNL     1      -8.715  17.250  67.329  1.00  0.00    -0.211 A  
HETATM   27  C   UNL     1      -8.563  19.380  68.748  1.00  0.00    -0.371 C  
HETATM   28  C   UNL     1      -9.319  16.540  66.277  1.00  0.00    -0.334 A  
BRANCH  26  29
HETATM   29  S   UNL     1      -7.385  16.418  68.189  1.00  0.00    -0.153 S  
HETATM   30  O   UNL     1      -7.841  16.012  69.495  1.00  0.00    -0.216 OA 
HETATM   31  O   UNL     1      -6.173  17.189  68.016  1.00  0.00    -0.129 OA 
HETATM   32  N   UNL     1      -7.198  15.030  67.268  1.00  0.00    -0.188 N  
HETATM   33  H1  UNL     1      -6.440  14.555  67.759  1.00  0.00     0.000 HD 
HETATM   34  H2  UNL     1      -7.708  14.737  66.435  1.00  0.00     0.000 HD 
ENDBRANCH  26  29
ENDBRANCH  20  22
ENDBRANCH  15  20
ENDBRANCH   2  14
TORSDOF 5
ENDMDL
MODEL       44
REMARK 921   NORMALIZED FREE ENERGY PREDICTED BY IDOCK:   -7.37 KCAL/MOL
REMARK 922        TOTAL FREE ENERGY PREDICTED BY IDOCK:   -9.99 KCAL/MOL
REMARK 923 INTER-LIGAND FREE ENERGY PREDICTED BY IDOCK:   -9.60 KCAL/MOL
REMARK 924 INTRA-LIGAND FREE ENERGY PREDICTED BY IDOCK:   -0.39 KCAL/MOL
REMARK 927      BINDING AFFINITY PREDICTED BY RF-SCORE:    0.00 PKD
ROOT
HETATM    1  C   UNL     1     -11.187  10.228  69.004  1.00  0.00    -0.208 C  
HETATM    2  N   UNL     1     -11.749  10.226  70.355  1.00  0.00    -0.296 NA 
ENDROOT
BRANCH   2   3
HETATM    3  C   UNL     1     -11.490   9.080  71.163  1.00  0.00    -0.308 A  
HETATM    4  C   UNL     1     -12.359   6.796  71.875  1.00  0.00    -0.369 A  
HETATM    5  C   UNL     1     -11.288   4.313  73.524  1.00  0.00    -0.316 C  
HETATM    6  C   UNL     1     -10.284   8.956  71.903  1.00  0.00    -0.403 A  
HETATM    7  C   UNL     1     -10.132   7.740  72.594  1.00  0.00    -0.260 A  
HETATM    8  C   UNL     1     -11.149   6.726  72.547  1.00  0.00    -0.299 A  
HETATM    9  C   UNL     1     -10.693   5.649  73.269  1.00  0.00    -0.269 A  
HETATM   10  N   UNL     1      -9.117   7.310  73.361  1.00  0.00    -0.154 NA 
HETATM   11  N   UNL     1      -9.466   6.059  73.736  1.00  0.00    -0.139 NA 
HETATM   12  C   UNL     1      -8.548   5.300  74.554  1.00  0.00    -0.108 C  
HETATM   13  C   UNL     1     -12.482   8.026  71.189  1.00  0.00    -0.206 A  
ENDBRANCH   2   3
BRANCH   2  14
HETATM   14  C   UNL     1     -12.310  11.432  70.829  1.00  0.00    -0.386 A  
HETATM   15  C   UNL     1     -12.428  13.750  70.665  1.00  0.00    -0.359 A  
HETATM   16  N   UNL     1     -13.237  13.868  71.721  1.00  0.00    -0.354 NA 
HETATM   17  C   UNL     1     -13.611  12.719  72.306  1.00  0.00    -0.465 A  
HETATM   18  C   UNL     1     -13.186  11.476  71.896  1.00  0.00    -0.479 A  
HETATM   19  N   UNL     1     -11.950  12.578  70.223  1.00  0.00    -0.333 NA 
BRANCH  15  20
HETATM   20  N   UNL     1     -12.047  14.929  70.026  1.00  0.00    -0.319 NA 
HETATM   21  H   UNL     1     -12.046  15.769  70.603  1.00  0.00     0.000 HD 
BRANCH  20  22
HETATM   22  C   UNL     1     -11.664  15.104  68.689  1.00  0.00    -0.341 A  
HETATM   23  C   UNL     1     -12.133  14.215  67.720  1.00  0.00    -0.321 A  
HETATM   24  C   UNL     1     -11.844  14.412  66.366  1.00  0.00    -0.402 A  
HETATM   25  C   UNL     1     -11.065  15.501  65.934  1.00  0.00    -0.205 A  
HETATM   26  C   UNL     1     -10.558  16.376  66.911  1.00  0.00    -0.252 A  
HETATM   27  C   UNL     1     -10.813  15.656  64.464  1.00  0.00    -0.115 C  
HETATM   28  C   UNL     1     -10.869  16.177  68.267  1.00  0.00    -0.326 A  
BRANCH  26  29
HETATM   29  S   UNL     1      -9.458  17.737  66.539  1.00  0.00    -0.279 S  
HETATM   30  O   UNL     1     -10.209  18.808  65.935  1.00  0.00    -0.519 OA 
HETATM   31  O   UNL     1      -8.264  17.206  65.919  1.00  0.00    -0.526 OA 
HETATM   32  N   UNL     1      -9.008  18.242  68.073  1.00  0.00    -0.283 N  
HETATM   33  H1  UNL     1      -8.381  19.018  67.861  1.00  0.00     0.000 HD 
HETATM   34  H2  UNL     1      -9.288  17.871  68.980  1.00  0.00     0.000 HD 
ENDBRANCH  26  29
ENDBRANCH  20  22
ENDBRANCH  15  20
ENDBRANCH   2  14
TORSDOF 5
ENDMDL
MODEL       45
REMARK 921   NORMALIZED FREE ENERGY PREDICTED BY IDOCK:   -7.37 KCAL/MOL
REMARK 922        TOTAL FREE ENERGY PREDICTED BY IDOCK:   -9.98 KCAL/MOL
REMARK 923 INTER-LIGAND FREE ENERGY PREDICTED BY IDOCK:   -9.60 KCAL/MOL
REMARK 924 INTRA-LIGAND FREE ENERGY PREDICTED BY IDOCK:   -0.38 KCAL/MOL
REMARK 927      BINDING AFFINITY PREDICTED BY RF-SCORE:    0.00 PKD
ROOT
HETATM    1  C   UNL     1     -12.568  12.243  63.687  1.00  0.00    -0.490 C  
HETATM    2  N   UNL     1     -11.173  12.503  64.043  1.00  0.00    -0.369 NA 
ENDROOT
BRANCH   2   3
HETATM    3  C   UNL     1     -10.896  13.721  64.732  1.00  0.00    -0.401 A  
HETATM    4  C   UNL     1      -9.678  14.762  66.709  1.00  0.00    -0.264 A  
HETATM    5  C   UNL     1      -9.029  17.677  67.764  1.00  0.00    -0.247 C  
HETATM    6  C   UNL     1     -11.356  14.970  64.237  1.00  0.00    -0.087 A  
HETATM    7  C   UNL     1     -10.944  16.093  64.978  1.00  0.00    -0.344 A  
HETATM    8  C   UNL     1     -10.132  15.949  66.154  1.00  0.00    -0.334 A  
HETATM    9  C   UNL     1      -9.854  17.211  66.622  1.00  0.00    -0.289 A  
HETATM   10  N   UNL     1     -11.191  17.396  64.771  1.00  0.00    -0.782 NA 
HETATM   11  N   UNL     1     -10.519  18.041  65.750  1.00  0.00    -0.601 NA 
HETATM   12  C   UNL     1     -10.557  19.486  65.781  1.00  0.00    -0.427 C  
HETATM   13  C   UNL     1     -10.106  13.654  65.943  1.00  0.00    -0.320 A  
ENDBRANCH   2   3
BRANCH   2  14
HETATM   14  C   UNL     1     -10.251  11.447  63.880  1.00  0.00    -0.363 A  
HETATM   15  C   UNL     1      -9.352   9.467  64.711  1.00  0.00    -0.169 A  
HETATM   16  N   UNL     1      -8.429   9.383  63.748  1.00  0.00    -0.184 NA 
HETATM   17  C   UNL     1      -8.466  10.347  62.814  1.00  0.00    -0.186 A  
HETATM   18  C   UNL     1      -9.359  11.394  62.826  1.00  0.00    -0.320 A  
HETATM   19  N   UNL     1     -10.237  10.471  64.806  1.00  0.00    -0.341 NA 
BRANCH  15  20
HETATM   20  N   UNL     1      -9.349   8.464  65.678  1.00  0.00    -0.425 NA 
HETATM   21  H   UNL     1      -9.207   7.514  65.335  1.00  0.00     0.000 HD 
BRANCH  20  22
HETATM   22  C   UNL     1      -9.519   8.596  67.063  1.00  0.00    -0.171 A  
HETATM   23  C   UNL     1      -9.188   9.802  67.682  1.00  0.00    -0.143 A  
HETATM   24  C   UNL     1      -9.429   9.998  69.045  1.00  0.00    -0.190 A  
HETATM   25  C   UNL     1      -9.998   8.988  69.841  1.00  0.00    -0.203 A  
HETATM   26  C   UNL     1     -10.297   7.758  69.230  1.00  0.00    -0.219 A  
HETATM   27  C   UNL     1     -10.243   9.279  71.292  1.00  0.00    -0.383 C  
HETATM   28  C   UNL     1     -10.066   7.578  67.855  1.00  0.00    -0.226 A  
BRANCH  26  29
HETATM   29  S   UNL     1     -10.916   6.337  70.124  1.00  0.00    -0.379 S  
HETATM   30  O   UNL     1     -10.207   6.212  71.373  1.00  0.00    -0.197 OA 
HETATM   31  O   UNL     1     -11.026   5.227  69.202  1.00  0.00    -0.027 OA 
HETATM   32  N   UNL     1     -12.483   6.812  70.481  1.00  0.00    -0.523 N  
HETATM   33  H1  UNL     1     -12.835   6.002  70.990  1.00  0.00     0.000 HD 
HETATM   34  H2  UNL     1     -12.959   7.684  70.248  1.00  0.00     0.000 HD 
ENDBRANCH  26  29
ENDBRANCH  20  22
ENDBRANCH  15  20
ENDBRANCH   2  14
TORSDOF 5
ENDMDL
MODEL       46
REMARK 921   NORMALIZED FREE ENERGY PREDICTED BY IDOCK:   -7.35 KCAL/MOL
REMARK 922        TOTAL FREE ENERGY PREDICTED BY IDOCK:   -9.96 KCAL/MOL
REMARK 923 INTER-LIGAND FREE ENERGY PREDICTED BY IDOCK:   -9.11 KCAL/MOL
REMARK 924 INTRA-LIGAND FREE ENERGY PREDICTED BY IDOCK:   -0.85 KCAL/MOL
REMARK 927      BINDING AFFINITY PREDICTED BY RF-SCORE:    0.00 PKD
ROOT
HETATM    1  C   UNL     1     -11.893  13.164  67.260  1.00  0.00    -0.367 C  
HETATM    2  N   UNL     1     -11.516  13.718  68.560  1.00  0.00    -0.284 NA 
ENDROOT
BRANCH   2   3
HETATM    3  C   UNL     1     -10.801  14.953  68.557  1.00  0.00    -0.247 A  
HETATM    4  C   UNL     1      -8.557  16.059  69.024  1.00  0.00    -0.244 A  
HETATM    5  C   UNL     1      -7.230  18.899  68.576  1.00  0.00    -0.320 C  
HETATM    6  C   UNL     1     -11.400  16.150  68.084  1.00  0.00    -0.270 A  
HETATM    7  C   UNL     1     -10.553  17.274  68.069  1.00  0.00    -0.394 A  
HETATM    8  C   UNL     1      -9.192  17.184  68.520  1.00  0.00    -0.264 A  
HETATM    9  C   UNL     1      -8.613  18.417  68.337  1.00  0.00    -0.325 A  
HETATM   10  N   UNL     1     -10.803  18.532  67.673  1.00  0.00    -0.363 NA 
HETATM   11  N   UNL     1      -9.631  19.188  67.825  1.00  0.00    -0.304 NA 
HETATM   12  C   UNL     1      -9.561  20.580  67.443  1.00  0.00    -0.438 C  
HETATM   13  C   UNL     1      -9.431  14.948  69.025  1.00  0.00    -0.196 A  
ENDBRANCH   2   3
BRANCH   2  14
HETATM   14  C   UNL     1     -12.070  13.116  69.710  1.00  0.00    -0.270 A  
HETATM   15  C   UNL     1     -12.656  11.157  70.822  1.00  0.00    -0.352 A  
HETATM   16  N   UNL     1     -13.224  11.806  71.842  1.00  0.00    -0.450 NA 
HETATM   17  C   UNL     1     -13.164  13.146  71.792  1.00  0.00    -0.403 A  
HETATM   18  C   UNL     1     -12.592  13.850  70.757  1.00  0.00    -0.424 A  
HETATM   19  N   UNL     1     -12.104  11.772  69.766  1.00  0.00    -0.290 NA 
BRANCH  15  20
HETATM   20  N   UNL     1     -12.684   9.764  70.865  1.00  0.00    -0.481 NA 
HETATM   21  H   UNL     1     -13.608   9.335  70.825  1.00  0.00     0.000 HD 
BRANCH  20  22
HETATM   22  C   UNL     1     -11.601   8.879  70.958  1.00  0.00    -0.293 A  
HETATM   23  C   UNL     1     -10.811   8.882  72.109  1.00  0.00    -0.339 A  
HETATM   24  C   UNL     1      -9.779   7.952  72.272  1.00  0.00    -0.269 A  
HETATM   25  C   UNL     1      -9.493   6.994  71.282  1.00  0.00    -0.164 A  
HETATM   26  C   UNL     1     -10.261   7.014  70.105  1.00  0.00    -0.193 A  
HETATM   27  C   UNL     1      -8.383   6.018  71.537  1.00  0.00    -0.127 C  
HETATM   28  C   UNL     1     -11.306   7.942  69.960  1.00  0.00    -0.034 A  
BRANCH  26  29
HETATM   29  S   UNL     1      -9.950   5.942  68.706  1.00  0.00    -0.166 S  
HETATM   30  O   UNL     1     -10.063   4.567  69.123  1.00  0.00    -0.154 OA 
HETATM   31  O   UNL     1      -8.779   6.428  68.008  1.00  0.00    -0.117 OA 
HETATM   32  N   UNL     1     -11.262   6.278  67.719  1.00  0.00    -0.568 N  
HETATM   33  H1  UNL     1     -11.084   5.666  66.922  1.00  0.00     0.000 HD 
HETATM   34  H2  UNL     1     -12.035   6.924  67.875  1.00  0.00     0.000 HD 
ENDBRANCH  26  29
ENDBRANCH  20  22
ENDBRANCH  15  20
ENDBRANCH   2  14
TORSDOF 5
ENDMDL
MODEL       47
REMARK 921   NORMALIZED FREE ENERGY PREDICTED BY IDOCK:   -7.33 KCAL/MOL
REMARK 922        TOTAL FREE ENERGY PREDICTED BY IDOCK:   -9.94 KCAL/MOL
REMARK 923 INTER-LIGAND FREE ENERGY PREDICTED BY IDOCK:   -9.96 KCAL/MOL
REMARK 924 INTRA-LIGAND FREE ENERGY PREDICTED BY IDOCK:    0.02 KCAL/MOL
REMARK 927      BINDING AFFINITY PREDICTED BY RF-SCORE:    0.00 PKD
ROOT
HETATM    1  C   UNL     1     -12.454  12.506  64.813  1.00  0.00    -0.457 C  
HETATM    2  N   UNL     1     -11.236  12.833  65.556  1.00  0.00    -0.287 NA 
ENDROOT
BRANCH   2   3
HETATM    3  C   UNL     1     -11.085  14.182  65.992  1.00  0.00    -0.314 A  
HETATM    4  C   UNL     1     -10.610  15.682  67.993  1.00  0.00    -0.271 A  
HETATM    5  C   UNL     1     -10.025  18.751  68.508  1.00  0.00    -0.450 C  
HETATM    6  C   UNL     1     -11.132  15.264  65.073  1.00  0.00    -0.436 A  
HETATM    7  C   UNL     1     -10.891  16.532  65.633  1.00  0.00    -0.160 A  
HETATM    8  C   UNL     1     -10.636  16.687  67.038  1.00  0.00    -0.247 A  
HETATM    9  C   UNL     1     -10.391  18.019  67.270  1.00  0.00    -0.378 A  
HETATM   10  N   UNL     1     -10.851  17.738  65.043  1.00  0.00    -0.698 NA 
HETATM   11  N   UNL     1     -10.535  18.602  66.032  1.00  0.00    -0.517 NA 
HETATM   12  C   UNL     1     -10.379  20.001  65.706  1.00  0.00    -0.369 C  
HETATM   13  C   UNL     1     -10.852  14.421  67.400  1.00  0.00    -0.293 A  
ENDBRANCH   2   3
BRANCH   2  14
HETATM   14  C   UNL     1     -10.421  11.758  65.974  1.00  0.00    -0.246 A  
HETATM   15  C   UNL     1      -9.289  10.700  67.711  1.00  0.00    -0.146 A  
HETATM   16  N   UNL     1      -8.745   9.781  66.908  1.00  0.00    -0.134 NA 
HETATM   17  C   UNL     1      -9.095   9.849  65.614  1.00  0.00    -0.178 A  
HETATM   18  C   UNL     1      -9.935  10.808  65.096  1.00  0.00    -0.351 A  
HETATM   19  N   UNL     1     -10.093  11.682  67.277  1.00  0.00    -0.198 NA 
BRANCH  15  20
HETATM   20  N   UNL     1      -8.960  10.634  69.063  1.00  0.00    -0.219 NA 
HETATM   21  H   UNL     1      -8.231  11.275  69.377  1.00  0.00     0.000 HD 
BRANCH  20  22
HETATM   22  C   UNL     1      -9.503   9.796  70.047  1.00  0.00    -0.238 A  
HETATM   23  C   UNL     1      -8.656   8.969  70.786  1.00  0.00    -0.259 A  
HETATM   24  C   UNL     1      -9.153   8.188  71.834  1.00  0.00    -0.230 A  
HETATM   25  C   UNL     1     -10.519   8.198  72.172  1.00  0.00    -0.352 A  
HETATM   26  C   UNL     1     -11.381   9.001  71.404  1.00  0.00    -0.323 A  
HETATM   27  C   UNL     1     -10.974   7.348  73.321  1.00  0.00    -0.367 C  
HETATM   28  C   UNL     1     -10.867   9.793  70.364  1.00  0.00    -0.370 A  
BRANCH  26  29
HETATM   29  S   UNL     1     -13.156   9.036  71.629  1.00  0.00    -0.374 S  
HETATM   30  O   UNL     1     -13.726  10.047  70.775  1.00  0.00    -0.172 OA 
HETATM   31  O   UNL     1     -13.439   8.994  73.047  1.00  0.00    -0.300 OA 
HETATM   32  N   UNL     1     -13.608   7.545  71.013  1.00  0.00    -0.624 N  
HETATM   33  H1  UNL     1     -14.620   7.565  71.141  1.00  0.00     0.000 HD 
HETATM   34  H2  UNL     1     -13.025   6.809  70.615  1.00  0.00     0.000 HD 
ENDBRANCH  26  29
ENDBRANCH  20  22
ENDBRANCH  15  20
ENDBRANCH   2  14
TORSDOF 5
ENDMDL
MODEL       48
REMARK 921   NORMALIZED FREE ENERGY PREDICTED BY IDOCK:   -7.26 KCAL/MOL
REMARK 922        TOTAL FREE ENERGY PREDICTED BY IDOCK:   -9.84 KCAL/MOL
REMARK 923 INTER-LIGAND FREE ENERGY PREDICTED BY IDOCK:   -9.50 KCAL/MOL
REMARK 924 INTRA-LIGAND FREE ENERGY PREDICTED BY IDOCK:   -0.34 KCAL/MOL
REMARK 927      BINDING AFFINITY PREDICTED BY RF-SCORE:    0.00 PKD
ROOT
HETATM    1  C   UNL     1     -12.389  10.271  71.149  1.00  0.00    -0.395 C  
HETATM    2  N   UNL     1     -12.071  11.509  70.438  1.00  0.00    -0.372 NA 
ENDROOT
BRANCH   2   3
HETATM    3  C   UNL     1     -11.594  11.384  69.100  1.00  0.00    -0.314 A  
HETATM    4  C   UNL     1     -10.044  10.082  67.557  1.00  0.00    -0.243 A  
HETATM    5  C   UNL     1      -9.475   9.905  64.446  1.00  0.00    -0.304 C  
HETATM    6  C   UNL     1     -12.114  12.190  68.052  1.00  0.00    -0.043 A  
HETATM    7  C   UNL     1     -11.604  11.905  66.772  1.00  0.00    -0.268 A  
HETATM    8  C   UNL     1     -10.618  10.879  66.577  1.00  0.00    -0.295 A  
HETATM    9  C   UNL     1     -10.360  10.804  65.229  1.00  0.00    -0.258 A  
HETATM   10  N   UNL     1     -11.896  12.465  65.587  1.00  0.00    -0.442 NA 
HETATM   11  N   UNL     1     -11.157  11.783  64.685  1.00  0.00    -0.312 NA 
HETATM   12  C   UNL     1     -11.277  12.130  63.287  1.00  0.00    -0.328 C  
HETATM   13  C   UNL     1     -10.577  10.390  68.829  1.00  0.00    -0.232 A  
ENDBRANCH   2   3
BRANCH   2  14
HETATM   14  C   UNL     1     -12.463  12.725  71.039  1.00  0.00    -0.277 A  
HETATM   15  C   UNL     1     -12.262  15.042  71.117  1.00  0.00    -0.320 A  
HETATM   16  N   UNL     1     -13.053  15.159  72.187  1.00  0.00    -0.335 NA 
HETATM   17  C   UNL     1     -13.585  14.018  72.652  1.00  0.00    -0.517 A  
HETATM   18  C   UNL     1     -13.332  12.778  72.112  1.00  0.00    -0.593 A  
HETATM   19  N   UNL     1     -11.946  13.868  70.552  1.00  0.00    -0.328 NA 
BRANCH  15  20
HETATM   20  N   UNL     1     -11.718  16.217  70.601  1.00  0.00    -0.516 NA 
HETATM   21  H   UNL     1     -12.199  17.080  70.853  1.00  0.00     0.000 HD 
BRANCH  20  22
HETATM   22  C   UNL     1     -10.593  16.362  69.777  1.00  0.00    -0.288 A  
HETATM   23  C   UNL     1      -9.568  15.416  69.845  1.00  0.00    -0.109 A  
HETATM   24  C   UNL     1      -8.475  15.481  68.976  1.00  0.00    -0.229 A  
HETATM   25  C   UNL     1      -8.361  16.502  68.016  1.00  0.00    -0.180 A  
HETATM   26  C   UNL     1      -9.372  17.479  67.971  1.00  0.00    -0.272 A  
HETATM   27  C   UNL     1      -7.169  16.495  67.106  1.00  0.00    -0.223 C  
HETATM   28  C   UNL     1     -10.474  17.394  68.838  1.00  0.00    -0.312 A  
BRANCH  26  29
HETATM   29  S   UNL     1      -9.319  18.904  66.890  1.00  0.00    -0.321 S  
HETATM   30  O   UNL     1      -9.431  18.469  65.520  1.00  0.00    -0.115 OA 
HETATM   31  O   UNL     1      -8.243  19.769  67.324  1.00  0.00    -0.284 OA 
HETATM   32  N   UNL     1     -10.746  19.688  67.287  1.00  0.00    -0.478 N  
HETATM   33  H1  UNL     1     -10.715  20.500  66.670  1.00  0.00     0.000 HD 
HETATM   34  H2  UNL     1     -11.458  19.423  67.967  1.00  0.00     0.000 HD 
ENDBRANCH  26  29
ENDBRANCH  20  22
ENDBRANCH  15  20
ENDBRANCH   2  14
TORSDOF 5
ENDMDL
MODEL       49
REMARK 921   NORMALIZED FREE ENERGY PREDICTED BY IDOCK:   -7.25 KCAL/MOL
REMARK 922        TOTAL FREE ENERGY PREDICTED BY IDOCK:   -9.83 KCAL/MOL
REMARK 923 INTER-LIGAND FREE ENERGY PREDICTED BY IDOCK:   -9.22 KCAL/MOL
REMARK 924 INTRA-LIGAND FREE ENERGY PREDICTED BY IDOCK:   -0.61 KCAL/MOL
REMARK 927      BINDING AFFINITY PREDICTED BY RF-SCORE:    0.00 PKD
ROOT
HETATM    1  C   UNL     1      -9.758  10.086  65.255  1.00  0.00    -0.306 C  
HETATM    2  N   UNL     1     -10.547  10.799  66.259  1.00  0.00    -0.226 NA 
ENDROOT
BRANCH   2   3
HETATM    3  C   UNL     1     -10.699  10.170  67.530  1.00  0.00    -0.290 A  
HETATM    4  C   UNL     1     -11.685  10.407  69.865  1.00  0.00    -0.341 A  
HETATM    5  C   UNL     1     -12.086   8.572  72.414  1.00  0.00    -0.436 C  
HETATM    6  C   UNL     1     -10.218   8.855  67.765  1.00  0.00    -0.283 A  
HETATM    7  C   UNL     1     -10.505   8.334  69.040  1.00  0.00    -0.197 A  
HETATM    8  C   UNL     1     -11.219   9.110  70.016  1.00  0.00    -0.168 A  
HETATM    9  C   UNL     1     -11.388   8.322  71.129  1.00  0.00    -0.263 A  
HETATM   10  N   UNL     1     -10.207   7.134  69.565  1.00  0.00    -0.190 NA 
HETATM   11  N   UNL     1     -10.757   7.145  70.799  1.00  0.00    -0.227 NA 
HETATM   12  C   UNL     1     -10.640   5.960  71.620  1.00  0.00    -0.241 C  
HETATM   13  C   UNL     1     -11.385  10.901  68.574  1.00  0.00    -0.367 A  
ENDBRANCH   2   3
BRANCH   2  14
HETATM   14  C   UNL     1     -10.909  12.134  65.977  1.00  0.00    -0.282 A  
HETATM   15  C   UNL     1     -10.222  14.327  65.610  1.00  0.00    -0.347 A  
HETATM   16  N   UNL     1     -11.471  14.795  65.537  1.00  0.00    -0.342 NA 
HETATM   17  C   UNL     1     -12.448  13.881  65.649  1.00  0.00    -0.505 A  
HETATM   18  C   UNL     1     -12.224  12.540  65.859  1.00  0.00    -0.310 A  
HETATM   19  N   UNL     1      -9.923  13.040  65.841  1.00  0.00    -0.277 NA 
BRANCH  15  20
HETATM   20  N   UNL     1      -9.191  15.254  65.472  1.00  0.00    -0.311 NA 
HETATM   21  H   UNL     1      -8.721  15.267  64.566  1.00  0.00     0.000 HD 
BRANCH  20  22
HETATM   22  C   UNL     1      -8.717  16.171  66.420  1.00  0.00    -0.325 A  
HETATM   23  C   UNL     1      -7.543  15.887  67.120  1.00  0.00    -0.255 A  
HETATM   24  C   UNL     1      -6.994  16.818  68.008  1.00  0.00    -0.156 A  
HETATM   25  C   UNL     1      -7.609  18.063  68.236  1.00  0.00    -0.278 A  
HETATM   26  C   UNL     1      -8.812  18.336  67.562  1.00  0.00    -0.253 A  
HETATM   27  C   UNL     1      -6.951  19.016  69.188  1.00  0.00    -0.346 C  
HETATM   28  C   UNL     1      -9.345  17.399  66.661  1.00  0.00    -0.279 A  
BRANCH  26  29
HETATM   29  S   UNL     1      -9.776  19.819  67.830  1.00  0.00    -0.400 S  
HETATM   30  O   UNL     1      -9.091  20.946  67.249  1.00  0.00    -0.296 OA 
HETATM   31  O   UNL     1     -10.226  19.833  69.205  1.00  0.00    -0.412 OA 
HETATM   32  N   UNL     1     -11.133  19.519  66.893  1.00  0.00    -0.308 N  
HETATM   33  H1  UNL     1     -11.683  20.365  67.045  1.00  0.00     0.000 HD 
HETATM   34  H2  UNL     1     -11.352  18.704  66.320  1.00  0.00     0.000 HD 
ENDBRANCH  26  29
ENDBRANCH  20  22
ENDBRANCH  15  20
ENDBRANCH   2  14
TORSDOF 5
ENDMDL
MODEL       50
REMARK 921   NORMALIZED FREE ENERGY PREDICTED BY IDOCK:   -7.24 KCAL/MOL
REMARK 922        TOTAL FREE ENERGY PREDICTED BY IDOCK:   -9.82 KCAL/MOL
REMARK 923 INTER-LIGAND FREE ENERGY PREDICTED BY IDOCK:   -9.07 KCAL/MOL
REMARK 924 INTRA-LIGAND FREE ENERGY PREDICTED BY IDOCK:   -0.75 KCAL/MOL
REMARK 927      BINDING AFFINITY PREDICTED BY RF-SCORE:    0.00 PKD
ROOT
HETATM    1  C   UNL     1     -12.770  13.159  65.222  1.00  0.00    -0.394 C  
HETATM    2  N   UNL     1     -11.830  12.679  66.235  1.00  0.00    -0.449 NA 
ENDROOT
BRANCH   2   3
HETATM    3  C   UNL     1     -10.921  11.653  65.843  1.00  0.00    -0.280 A  
HETATM    4  C   UNL     1      -9.826   9.464  66.543  1.00  0.00    -0.325 A  
HETATM    5  C   UNL     1      -8.019   7.237  65.199  1.00  0.00    -0.128 C  
HETATM    6  C   UNL     1     -10.323  11.649  64.555  1.00  0.00    -0.349 A  
HETATM    7  C   UNL     1      -9.508  10.535  64.280  1.00  0.00    -0.285 A  
HETATM    8  C   UNL     1      -9.303   9.505  65.259  1.00  0.00    -0.317 A  
HETATM    9  C   UNL     1      -8.511   8.540  64.685  1.00  0.00    -0.108 A  
HETATM   10  N   UNL     1      -8.821  10.228  63.167  1.00  0.00    -0.198 NA 
HETATM   11  N   UNL     1      -8.252   9.030  63.426  1.00  0.00    -0.173 NA 
HETATM   12  C   UNL     1      -7.462   8.400  62.393  1.00  0.00    -0.103 C  
HETATM   13  C   UNL     1     -10.641  10.593  66.788  1.00  0.00    -0.297 A  
ENDBRANCH   2   3
BRANCH   2  14
HETATM   14  C   UNL     1     -11.743  13.409  67.440  1.00  0.00    -0.373 A  
HETATM   15  C   UNL     1     -11.878  13.404  69.764  1.00  0.00    -0.326 A  
HETATM   16  N   UNL     1     -11.713  14.726  69.861  1.00  0.00    -0.288 NA 
HETATM   17  C   UNL     1     -11.519  15.380  68.705  1.00  0.00    -0.346 A  
HETATM   18  C   UNL     1     -11.515  14.772  67.470  1.00  0.00    -0.369 A  
HETATM   19  N   UNL     1     -11.914  12.744  68.597  1.00  0.00    -0.288 NA 
BRANCH  15  20
HETATM   20  N   UNL     1     -12.056  12.700  70.954  1.00  0.00    -0.445 NA 
HETATM   21  H   UNL     1     -12.077  13.261  71.805  1.00  0.00     0.000 HD 
BRANCH  20  22
HETATM   22  C   UNL     1     -12.211  11.318  71.127  1.00  0.00    -0.246 A  
HETATM   23  C   UNL     1     -13.368  10.829  71.736  1.00  0.00    -0.429 A  
HETATM   24  C   UNL     1     -13.595   9.454  71.843  1.00  0.00    -0.482 A  
HETATM   25  C   UNL     1     -12.665   8.517  71.357  1.00  0.00    -0.294 A  
HETATM   26  C   UNL     1     -11.480   9.006  70.779  1.00  0.00    -0.282 A  
HETATM   27  C   UNL     1     -12.987   7.059  71.492  1.00  0.00    -0.411 C  
HETATM   28  C   UNL     1     -11.271  10.390  70.661  1.00  0.00    -0.358 A  
BRANCH  26  29
HETATM   29  S   UNL     1     -10.148   7.950  70.219  1.00  0.00    -0.198 S  
HETATM   30  O   UNL     1     -10.531   7.312  68.984  1.00  0.00    -0.204 OA 
HETATM   31  O   UNL     1      -9.663   7.186  71.348  1.00  0.00    -0.169 OA 
HETATM   32  N   UNL     1      -8.954   9.069  69.857  1.00  0.00    -0.153 N  
HETATM   33  H1  UNL     1      -8.195   8.467  69.538  1.00  0.00     0.000 HD 
HETATM   34  H2  UNL     1      -8.979  10.085  69.937  1.00  0.00     0.000 HD 
ENDBRANCH  26  29
ENDBRANCH  20  22
ENDBRANCH  15  20
ENDBRANCH   2  14
TORSDOF 5
ENDMDL
MODEL       51
REMARK 921   NORMALIZED FREE ENERGY PREDICTED BY IDOCK:   -7.24 KCAL/MOL
REMARK 922        TOTAL FREE ENERGY PREDICTED BY IDOCK:   -9.81 KCAL/MOL
REMARK 923 INTER-LIGAND FREE ENERGY PREDICTED BY IDOCK:   -8.78 KCAL/MOL
REMARK 924 INTRA-LIGAND FREE ENERGY PREDICTED BY IDOCK:   -1.04 KCAL/MOL
REMARK 927      BINDING AFFINITY PREDICTED BY RF-SCORE:    0.00 PKD
ROOT
HETATM    1  C   UNL     1     -13.790  13.128  72.313  1.00  0.00    -0.490 C  
HETATM    2  N   UNL     1     -12.925  12.683  71.220  1.00  0.00    -0.283 NA 
ENDROOT
BRANCH   2   3
HETATM    3  C   UNL     1     -12.293  13.697  70.440  1.00  0.00    -0.345 A  
HETATM    4  C   UNL     1     -10.903  15.826  70.528  1.00  0.00    -0.319 A  
HETATM    5  C   UNL     1      -9.372  17.689  68.474  1.00  0.00    -0.291 C  
HETATM    6  C   UNL     1     -12.283  13.637  69.021  1.00  0.00    -0.245 A  
HETATM    7  C   UNL     1     -11.558  14.663  68.387  1.00  0.00    -0.323 A  
HETATM    8  C   UNL     1     -10.904  15.690  69.149  1.00  0.00    -0.246 A  
HETATM    9  C   UNL     1     -10.245  16.507  68.261  1.00  0.00    -0.268 A  
HETATM   10  N   UNL     1     -11.344  14.881  67.079  1.00  0.00    -0.349 NA 
HETATM   11  N   UNL     1     -10.548  15.971  67.031  1.00  0.00    -0.312 NA 
HETATM   12  C   UNL     1     -10.102  16.447  65.741  1.00  0.00    -0.327 C  
HETATM   13  C   UNL     1     -11.635  14.781  71.136  1.00  0.00    -0.320 A  
ENDBRANCH   2   3
BRANCH   2  14
HETATM   14  C   UNL     1     -12.608  11.309  71.157  1.00  0.00    -0.397 A  
HETATM   15  C   UNL     1     -11.098   9.660  70.510  1.00  0.00    -0.308 A  
HETATM   16  N   UNL     1     -11.908   8.660  70.870  1.00  0.00    -0.264 NA 
HETATM   17  C   UNL     1     -13.076   9.019  71.423  1.00  0.00    -0.284 A  
HETATM   18  C   UNL     1     -13.472  10.326  71.600  1.00  0.00    -0.360 A  
HETATM   19  N   UNL     1     -11.424  10.956  70.624  1.00  0.00    -0.242 NA 
BRANCH  15  20
HETATM   20  N   UNL     1      -9.868   9.311  69.956  1.00  0.00    -0.191 NA 
HETATM   21  H   UNL     1      -9.246   8.770  70.556  1.00  0.00     0.000 HD 
BRANCH  20  22
HETATM   22  C   UNL     1      -9.378   9.610  68.677  1.00  0.00    -0.143 A  
HETATM   23  C   UNL     1      -8.124   9.131  68.296  1.00  0.00    -0.104 A  
HETATM   24  C   UNL     1      -7.644   9.335  66.998  1.00  0.00    -0.091 A  
HETATM   25  C   UNL     1      -8.398  10.036  66.039  1.00  0.00    -0.126 A  
HETATM   26  C   UNL     1      -9.645  10.554  66.433  1.00  0.00    -0.177 A  
HETATM   27  C   UNL     1      -7.824  10.199  64.663  1.00  0.00    -0.144 C  
HETATM   28  C   UNL     1     -10.124  10.328  67.734  1.00  0.00    -0.213 A  
BRANCH  26  29
HETATM   29  S   UNL     1     -10.671  11.565  65.371  1.00  0.00    -0.257 S  
HETATM   30  O   UNL     1     -11.904  11.872  66.051  1.00  0.00    -0.497 OA 
HETATM   31  O   UNL     1     -10.660  10.993  64.043  1.00  0.00    -0.366 OA 
HETATM   32  N   UNL     1      -9.779  12.982  65.283  1.00  0.00    -0.497 N  
HETATM   33  H1  UNL     1     -10.364  13.558  64.678  1.00  0.00     0.000 HD 
HETATM   34  H2  UNL     1      -8.886  13.208  65.719  1.00  0.00     0.000 HD 
ENDBRANCH  26  29
ENDBRANCH  20  22
ENDBRANCH  15  20
ENDBRANCH   2  14
TORSDOF 5
ENDMDL
MODEL       52
REMARK 921   NORMALIZED FREE ENERGY PREDICTED BY IDOCK:   -7.24 KCAL/MOL
REMARK 922        TOTAL FREE ENERGY PREDICTED BY IDOCK:   -9.81 KCAL/MOL
REMARK 923 INTER-LIGAND FREE ENERGY PREDICTED BY IDOCK:   -8.97 KCAL/MOL
REMARK 924 INTRA-LIGAND FREE ENERGY PREDICTED BY IDOCK:   -0.84 KCAL/MOL
REMARK 927      BINDING AFFINITY PREDICTED BY RF-SCORE:    0.00 PKD
ROOT
HETATM    1  C   UNL     1     -10.518   7.296  73.108  1.00  0.00    -0.339 C  
HETATM    2  N   UNL     1     -10.871   7.691  71.744  1.00  0.00    -0.226 NA 
ENDROOT
BRANCH   2   3
HETATM    3  C   UNL     1     -10.538   6.779  70.699  1.00  0.00    -0.224 A  
HETATM    4  C   UNL     1      -9.530   4.504  70.164  1.00  0.00    -0.237 A  
HETATM    5  C   UNL     1      -9.242   2.628  67.630  1.00  0.00    -0.232 C  
HETATM    6  C   UNL     1     -10.875   7.052  69.346  1.00  0.00    -0.253 A  
HETATM    7  C   UNL     1     -10.554   6.030  68.434  1.00  0.00    -0.261 A  
HETATM    8  C   UNL     1      -9.916   4.819  68.871  1.00  0.00    -0.197 A  
HETATM    9  C   UNL     1      -9.780   4.004  67.772  1.00  0.00    -0.098 A  
HETATM   10  N   UNL     1     -10.751   5.970  67.107  1.00  0.00    -0.303 NA 
HETATM   11  N   UNL     1     -10.299   4.750  66.740  1.00  0.00    -0.216 NA 
HETATM   12  C   UNL     1     -10.407   4.360  65.353  1.00  0.00    -0.216 C  
HETATM   13  C   UNL     1      -9.868   5.547  71.057  1.00  0.00    -0.238 A  
ENDBRANCH   2   3
BRANCH   2  14
HETATM   14  C   UNL     1     -11.698   8.824  71.587  1.00  0.00    -0.332 A  
HETATM   15  C   UNL     1     -11.940  10.993  70.779  1.00  0.00    -0.333 A  
HETATM   16  N   UNL     1     -13.160  11.142  71.303  1.00  0.00    -0.327 NA 
HETATM   17  C   UNL     1     -13.657  10.074  71.948  1.00  0.00    -0.262 A  
HETATM   18  C   UNL     1     -12.975   8.890  72.110  1.00  0.00    -0.473 A  
HETATM   19  N   UNL     1     -11.203   9.881  70.918  1.00  0.00    -0.340 NA 
BRANCH  15  20
HETATM   20  N   UNL     1     -11.414  12.080  70.083  1.00  0.00    -0.526 NA 
HETATM   21  H   UNL     1     -11.037  12.835  70.655  1.00  0.00     0.000 HD 
BRANCH  20  22
HETATM   22  C   UNL     1     -11.338  12.265  68.696  1.00  0.00    -0.291 A  
HETATM   23  C   UNL     1     -11.923  13.395  68.123  1.00  0.00    -0.356 A  
HETATM   24  C   UNL     1     -11.788  13.657  66.756  1.00  0.00    -0.452 A  
HETATM   25  C   UNL     1     -11.074  12.789  65.911  1.00  0.00    -0.318 A  
HETATM   26  C   UNL     1     -10.516  11.629  66.477  1.00  0.00    -0.239 A  
HETATM   27  C   UNL     1     -10.957  13.146  64.459  1.00  0.00    -0.392 C  
HETATM   28  C   UNL     1     -10.644  11.386  67.856  1.00  0.00    -0.224 A  
BRANCH  26  29
HETATM   29  S   UNL     1      -9.679  10.369  65.521  1.00  0.00    -0.269 S  
HETATM   30  O   UNL     1      -8.257  10.477  65.729  1.00  0.00    -0.152 OA 
HETATM   31  O   UNL     1     -10.251  10.347  64.192  1.00  0.00    -0.296 OA 
HETATM   32  N   UNL     1     -10.193   8.966  66.280  1.00  0.00    -0.353 N  
HETATM   33  H1  UNL     1      -9.716   8.248  65.735  1.00  0.00     0.000 HD 
HETATM   34  H2  UNL     1     -10.820   8.859  67.078  1.00  0.00     0.000 HD 
ENDBRANCH  26  29
ENDBRANCH  20  22
ENDBRANCH  15  20
ENDBRANCH   2  14
TORSDOF 5
ENDMDL
MODEL       53
REMARK 921   NORMALIZED FREE ENERGY PREDICTED BY IDOCK:   -7.23 KCAL/MOL
REMARK 922        TOTAL FREE ENERGY PREDICTED BY IDOCK:   -9.80 KCAL/MOL
REMARK 923 INTER-LIGAND FREE ENERGY PREDICTED BY IDOCK:   -9.29 KCAL/MOL
REMARK 924 INTRA-LIGAND FREE ENERGY PREDICTED BY IDOCK:   -0.51 KCAL/MOL
REMARK 927      BINDING AFFINITY PREDICTED BY RF-SCORE:    0.00 PKD
ROOT
HETATM    1  C   UNL     1     -12.997  11.601  71.588  1.00  0.00    -0.378 C  
HETATM    2  N   UNL     1     -11.996  11.086  70.654  1.00  0.00    -0.354 NA 
ENDROOT
BRANCH   2   3
HETATM    3  C   UNL     1     -11.407   9.825  70.965  1.00  0.00    -0.387 A  
HETATM    4  C   UNL     1      -9.241   8.490  70.992  1.00  0.00    -0.227 A  
HETATM    5  C   UNL     1      -8.250   5.692  72.094  1.00  0.00    -0.112 C  
HETATM    6  C   UNL     1     -12.168   8.782  71.555  1.00  0.00    -0.382 A  
HETATM    7  C   UNL     1     -11.439   7.621  71.876  1.00  0.00    -0.272 A  
HETATM    8  C   UNL     1     -10.033   7.526  71.596  1.00  0.00    -0.200 A  
HETATM    9  C   UNL     1      -9.599   6.309  72.064  1.00  0.00    -0.151 A  
HETATM   10  N   UNL     1     -11.852   6.479  72.448  1.00  0.00    -0.241 NA 
HETATM   11  N   UNL     1     -10.738   5.722  72.565  1.00  0.00    -0.223 NA 
HETATM   12  C   UNL     1     -10.845   4.423  73.188  1.00  0.00    -0.240 C  
HETATM   13  C   UNL     1      -9.999   9.643  70.685  1.00  0.00    -0.299 A  
ENDBRANCH   2   3
BRANCH   2  14
HETATM   14  C   UNL     1     -11.849  11.758  69.421  1.00  0.00    -0.334 A  
HETATM   15  C   UNL     1     -11.754  13.783  68.277  1.00  0.00    -0.359 A  
HETATM   16  N   UNL     1     -11.685  13.199  67.078  1.00  0.00    -0.358 NA 
HETATM   17  C   UNL     1     -11.657  11.857  67.079  1.00  0.00    -0.291 A  
HETATM   18  C   UNL     1     -11.726  11.089  68.219  1.00  0.00    -0.301 A  
HETATM   19  N   UNL     1     -11.853  13.104  69.430  1.00  0.00    -0.321 NA 
BRANCH  15  20
HETATM   20  N   UNL     1     -11.759  15.176  68.303  1.00  0.00    -0.425 NA 
HETATM   21  H   UNL     1     -12.677  15.620  68.274  1.00  0.00     0.000 HD 
BRANCH  20  22
HETATM   22  C   UNL     1     -10.660  16.045  68.362  1.00  0.00    -0.270 A  
HETATM   23  C   UNL     1      -9.574  15.720  69.176  1.00  0.00    -0.255 A  
HETATM   24  C   UNL     1      -8.425  16.517  69.190  1.00  0.00    -0.151 A  
HETATM   25  C   UNL     1      -8.328  17.677  68.399  1.00  0.00    -0.290 A  
HETATM   26  C   UNL     1      -9.436  18.028  67.608  1.00  0.00    -0.264 A  
HETATM   27  C   UNL     1      -7.057  18.471  68.454  1.00  0.00    -0.287 C  
HETATM   28  C   UNL     1     -10.579  17.210  67.590  1.00  0.00    -0.343 A  
BRANCH  26  29
HETATM   29  S   UNL     1      -9.518  19.529  66.637  1.00  0.00    -0.384 S  
HETATM   30  O   UNL     1      -8.360  19.610  65.783  1.00  0.00    -0.408 OA 
HETATM   31  O   UNL     1      -9.893  20.620  67.510  1.00  0.00    -0.441 OA 
HETATM   32  N   UNL     1     -10.845  19.232  65.657  1.00  0.00    -0.343 N  
HETATM   33  H1  UNL     1     -10.891  20.087  65.104  1.00  0.00     0.000 HD 
HETATM   34  H2  UNL     1     -11.448  18.410  65.624  1.00  0.00     0.000 HD 
ENDBRANCH  26  29
ENDBRANCH  20  22
ENDBRANCH  15  20
ENDBRANCH   2  14
TORSDOF 5
ENDMDL
MODEL       54
REMARK 921   NORMALIZED FREE ENERGY PREDICTED BY IDOCK:   -7.21 KCAL/MOL
REMARK 922        TOTAL FREE ENERGY PREDICTED BY IDOCK:   -9.78 KCAL/MOL
REMARK 923 INTER-LIGAND FREE ENERGY PREDICTED BY IDOCK:   -9.25 KCAL/MOL
REMARK 924 INTRA-LIGAND FREE ENERGY PREDICTED BY IDOCK:   -0.53 KCAL/MOL
REMARK 927      BINDING AFFINITY PREDICTED BY RF-SCORE:    0.00 PKD
ROOT
HETATM    1  C   UNL     1     -12.089  14.400  69.570  1.00  0.00    -0.322 C  
HETATM    2  N   UNL     1     -11.567  13.370  68.671  1.00  0.00    -0.303 NA 
ENDROOT
BRANCH   2   3
HETATM    3  C   UNL     1     -11.215  12.117  69.255  1.00  0.00    -0.226 A  
HETATM    4  C   UNL     1      -9.480  10.255  69.296  1.00  0.00    -0.230 A  
HETATM    5  C   UNL     1      -8.879   7.678  71.036  1.00  0.00    -0.142 C  
HETATM    6  C   UNL     1     -11.998  11.539  70.289  1.00  0.00    -0.455 A  
HETATM    7  C   UNL     1     -11.489  10.340  70.822  1.00  0.00    -0.351 A  
HETATM    8  C   UNL     1     -10.272   9.763  70.322  1.00  0.00    -0.346 A  
HETATM    9  C   UNL     1     -10.011   8.638  71.068  1.00  0.00    -0.215 A  
HETATM   10  N   UNL     1     -11.974   9.563  71.803  1.00  0.00    -0.382 NA 
HETATM   11  N   UNL     1     -11.070   8.568  71.943  1.00  0.00    -0.301 NA 
HETATM   12  C   UNL     1     -11.291   7.569  72.963  1.00  0.00    -0.263 C  
HETATM   13  C   UNL     1     -10.015  11.459  68.783  1.00  0.00    -0.188 A  
ENDBRANCH   2   3
BRANCH   2  14
HETATM   14  C   UNL     1     -11.657  13.610  67.283  1.00  0.00    -0.356 A  
HETATM   15  C   UNL     1     -11.224  15.038  65.496  1.00  0.00    -0.344 A  
HETATM   16  N   UNL     1     -11.859  14.262  64.613  1.00  0.00    -0.424 NA 
HETATM   17  C   UNL     1     -12.363  13.115  65.095  1.00  0.00    -0.473 A  
HETATM   18  C   UNL     1     -12.282  12.736  66.415  1.00  0.00    -0.242 A  
HETATM   19  N   UNL     1     -11.128  14.751  66.803  1.00  0.00    -0.332 NA 
BRANCH  15  20
HETATM   20  N   UNL     1     -10.670  16.222  65.014  1.00  0.00    -0.656 NA 
HETATM   21  H   UNL     1     -10.843  16.428  64.030  1.00  0.00     0.000 HD 
BRANCH  20  22
HETATM   22  C   UNL     1      -9.905  17.167  65.712  1.00  0.00    -0.065 A  
HETATM   23  C   UNL     1     -10.466  18.408  66.022  1.00  0.00    -0.400 A  
HETATM   24  C   UNL     1      -9.763  19.339  66.794  1.00  0.00    -0.413 A  
HETATM   25  C   UNL     1      -8.469  19.066  67.272  1.00  0.00    -0.297 A  
HETATM   26  C   UNL     1      -7.886  17.833  66.928  1.00  0.00    -0.224 A  
HETATM   27  C   UNL     1      -7.786  20.106  68.109  1.00  0.00    -0.223 C  
HETATM   28  C   UNL     1      -8.608  16.899  66.166  1.00  0.00    -0.277 A  
BRANCH  26  29
HETATM   29  S   UNL     1      -6.208  17.383  67.357  1.00  0.00    -0.153 S  
HETATM   30  O   UNL     1      -5.314  18.447  66.976  1.00  0.00    -0.129 OA 
HETATM   31  O   UNL     1      -5.980  16.016  66.941  1.00  0.00    -0.323 OA 
HETATM   32  N   UNL     1      -6.278  17.361  69.032  1.00  0.00    -0.198 N  
HETATM   33  H1  UNL     1      -5.321  17.104  69.276  1.00  0.00     0.000 HD 
HETATM   34  H2  UNL     1      -7.069  17.554  69.645  1.00  0.00     0.000 HD 
ENDBRANCH  26  29
ENDBRANCH  20  22
ENDBRANCH  15  20
ENDBRANCH   2  14
TORSDOF 5
ENDMDL
MODEL       55
REMARK 921   NORMALIZED FREE ENERGY PREDICTED BY IDOCK:   -7.21 KCAL/MOL
REMARK 922        TOTAL FREE ENERGY PREDICTED BY IDOCK:   -9.78 KCAL/MOL
REMARK 923 INTER-LIGAND FREE ENERGY PREDICTED BY IDOCK:   -9.02 KCAL/MOL
REMARK 924 INTRA-LIGAND FREE ENERGY PREDICTED BY IDOCK:   -0.75 KCAL/MOL
REMARK 927      BINDING AFFINITY PREDICTED BY RF-SCORE:    0.00 PKD
ROOT
HETATM    1  C   UNL     1     -11.741  11.783  67.357  1.00  0.00    -0.230 C  
HETATM    2  N   UNL     1     -11.588  12.008  68.795  1.00  0.00    -0.286 NA 
ENDROOT
BRANCH   2   3
HETATM    3  C   UNL     1     -11.027  10.945  69.562  1.00  0.00    -0.253 A  
HETATM    4  C   UNL     1      -8.908   9.621  70.044  1.00  0.00    -0.259 A  
HETATM    5  C   UNL     1      -7.956   7.442  72.136  1.00  0.00    -0.101 C  
HETATM    6  C   UNL     1     -11.791  10.262  70.545  1.00  0.00    -0.419 A  
HETATM    7  C   UNL     1     -11.086   9.288  71.276  1.00  0.00    -0.357 A  
HETATM    8  C   UNL     1      -9.700   9.018  71.009  1.00  0.00    -0.348 A  
HETATM    9  C   UNL     1      -9.284   8.065  71.908  1.00  0.00    -0.167 A  
HETATM   10  N   UNL     1     -11.506   8.489  72.270  1.00  0.00    -0.374 NA 
HETATM   11  N   UNL     1     -10.414   7.785  72.640  1.00  0.00    -0.274 NA 
HETATM   12  C   UNL     1     -10.533   6.846  73.733  1.00  0.00    -0.357 C  
HETATM   13  C   UNL     1      -9.642  10.595  69.329  1.00  0.00    -0.164 A  
ENDBRANCH   2   3
BRANCH   2  14
HETATM   14  C   UNL     1     -11.796  13.320  69.274  1.00  0.00    -0.331 A  
HETATM   15  C   UNL     1     -11.669  15.609  68.874  1.00  0.00    -0.384 A  
HETATM   16  N   UNL     1     -12.049  15.932  70.114  1.00  0.00    -0.316 NA 
HETATM   17  C   UNL     1     -12.344  14.904  70.924  1.00  0.00    -0.328 A  
HETATM   18  C   UNL     1     -12.245  13.582  70.554  1.00  0.00    -0.433 A  
HETATM   19  N   UNL     1     -11.522  14.346  68.448  1.00  0.00    -0.284 NA 
BRANCH  15  20
HETATM   20  N   UNL     1     -11.382  16.661  68.007  1.00  0.00    -0.167 NA 
HETATM   21  H   UNL     1     -12.072  16.840  67.277  1.00  0.00     0.000 HD 
BRANCH  20  22
HETATM   22  C   UNL     1     -10.263  17.506  68.010  1.00  0.00    -0.354 A  
HETATM   23  C   UNL     1     -10.417  18.848  67.662  1.00  0.00    -0.514 A  
HETATM   24  C   UNL     1      -9.341  19.738  67.742  1.00  0.00    -0.443 A  
HETATM   25  C   UNL     1      -8.068  19.311  68.161  1.00  0.00    -0.349 A  
HETATM   26  C   UNL     1      -7.899  17.951  68.475  1.00  0.00    -0.298 A  
HETATM   27  C   UNL     1      -6.967  20.327  68.238  1.00  0.00    -0.295 C  
HETATM   28  C   UNL     1      -8.992  17.070  68.407  1.00  0.00    -0.247 A  
BRANCH  26  29
HETATM   29  S   UNL     1      -6.322  17.228  68.911  1.00  0.00    -0.210 S  
HETATM   30  O   UNL     1      -5.911  17.719  70.203  1.00  0.00    -0.229 OA 
HETATM   31  O   UNL     1      -5.449  17.304  67.760  1.00  0.00    -0.112 OA 
HETATM   32  N   UNL     1      -6.725  15.611  69.093  1.00  0.00    -0.139 N  
HETATM   33  H1  UNL     1      -5.826  15.199  69.341  1.00  0.00     0.000 HD 
HETATM   34  H2  UNL     1      -7.632  15.158  68.983  1.00  0.00     0.000 HD 
ENDBRANCH  26  29
ENDBRANCH  20  22
ENDBRANCH  15  20
ENDBRANCH   2  14
TORSDOF 5
ENDMDL
MODEL       56
REMARK 921   NORMALIZED FREE ENERGY PREDICTED BY IDOCK:   -7.20 KCAL/MOL
REMARK 922        TOTAL FREE ENERGY PREDICTED BY IDOCK:   -9.77 KCAL/MOL
REMARK 923 INTER-LIGAND FREE ENERGY PREDICTED BY IDOCK:   -8.91 KCAL/MOL
REMARK 924 INTRA-LIGAND FREE ENERGY PREDICTED BY IDOCK:   -0.86 KCAL/MOL
REMARK 927      BINDING AFFINITY PREDICTED BY RF-SCORE:    0.00 PKD
ROOT
HETATM    1  C   UNL     1      -8.258   8.021  64.838  1.00  0.00    -0.134 C  
HETATM    2  N   UNL     1      -9.183   8.856  65.605  1.00  0.00    -0.221 NA 
ENDROOT
BRANCH   2   3
HETATM    3  C   UNL     1      -9.326   8.560  66.992  1.00  0.00    -0.161 A  
HETATM    4  C   UNL     1      -8.457   9.071  69.329  1.00  0.00    -0.128 A  
HETATM    5  C   UNL     1      -9.285   8.405  72.312  1.00  0.00    -0.329 C  
HETATM    6  C   UNL     1     -10.346   7.690  67.459  1.00  0.00    -0.326 A  
HETATM    7  C   UNL     1     -10.415   7.549  68.858  1.00  0.00    -0.203 A  
HETATM    8  C   UNL     1      -9.494   8.237  69.719  1.00  0.00    -0.163 A  
HETATM    9  C   UNL     1      -9.843   7.944  71.016  1.00  0.00    -0.170 A  
HETATM   10  N   UNL     1     -11.261   6.824  69.608  1.00  0.00    -0.300 NA 
HETATM   11  N   UNL     1     -10.912   7.089  70.886  1.00  0.00    -0.245 NA 
HETATM   12  C   UNL     1     -11.672   6.477  71.952  1.00  0.00    -0.324 C  
HETATM   13  C   UNL     1      -8.415   9.194  67.921  1.00  0.00    -0.117 A  
ENDBRANCH   2   3
BRANCH   2  14
HETATM   14  C   UNL     1      -9.689  10.014  64.976  1.00  0.00    -0.317 A  
HETATM   15  C   UNL     1     -11.046  11.900  65.113  1.00  0.00    -0.305 A  
HETATM   16  N   UNL     1     -10.839  12.246  63.839  1.00  0.00    -0.373 NA 
HETATM   17  C   UNL     1      -9.998  11.461  63.147  1.00  0.00    -0.372 A  
HETATM   18  C   UNL     1      -9.389  10.342  63.667  1.00  0.00    -0.338 A  
HETATM   19  N   UNL     1     -10.512  10.810  65.683  1.00  0.00    -0.221 NA 
BRANCH  15  20
HETATM   20  N   UNL     1     -11.896  12.715  65.859  1.00  0.00    -0.429 NA 
HETATM   21  H   UNL     1     -12.883  12.459  65.846  1.00  0.00     0.000 HD 
BRANCH  20  22
HETATM   22  C   UNL     1     -11.565  13.841  66.624  1.00  0.00    -0.369 A  
HETATM   23  C   UNL     1     -10.952  14.932  66.006  1.00  0.00    -0.334 A  
HETATM   24  C   UNL     1     -10.689  16.106  66.720  1.00  0.00    -0.235 A  
HETATM   25  C   UNL     1     -11.020  16.224  68.083  1.00  0.00    -0.343 A  
HETATM   26  C   UNL     1     -11.602  15.113  68.718  1.00  0.00    -0.349 A  
HETATM   27  C   UNL     1     -10.724  17.520  68.777  1.00  0.00    -0.134 C  
HETATM   28  C   UNL     1     -11.876  13.945  67.986  1.00  0.00    -0.411 A  
BRANCH  26  29
HETATM   29  S   UNL     1     -11.974  15.060  70.467  1.00  0.00    -0.337 S  
HETATM   30  O   UNL     1     -13.232  15.720  70.708  1.00  0.00    -0.542 OA 
HETATM   31  O   UNL     1     -10.779  15.417  71.201  1.00  0.00    -0.243 OA 
HETATM   32  N   UNL     1     -12.209  13.420  70.718  1.00  0.00    -0.441 N  
HETATM   33  H1  UNL     1     -12.422  13.390  71.715  1.00  0.00     0.000 HD 
HETATM   34  H2  UNL     1     -12.154  12.653  70.048  1.00  0.00     0.000 HD 
ENDBRANCH  26  29
ENDBRANCH  20  22
ENDBRANCH  15  20
ENDBRANCH   2  14
TORSDOF 5
ENDMDL
MODEL       57
REMARK 921   NORMALIZED FREE ENERGY PREDICTED BY IDOCK:   -7.20 KCAL/MOL
REMARK 922        TOTAL FREE ENERGY PREDICTED BY IDOCK:   -9.76 KCAL/MOL
REMARK 923 INTER-LIGAND FREE ENERGY PREDICTED BY IDOCK:   -9.36 KCAL/MOL
REMARK 924 INTRA-LIGAND FREE ENERGY PREDICTED BY IDOCK:   -0.41 KCAL/MOL
REMARK 927      BINDING AFFINITY PREDICTED BY RF-SCORE:    0.00 PKD
ROOT
HETATM    1  C   UNL     1      -9.136   9.865  64.354  1.00  0.00    -0.254 C  
HETATM    2  N   UNL     1     -10.100  10.383  65.326  1.00  0.00    -0.306 NA 
ENDROOT
BRANCH   2   3
HETATM    3  C   UNL     1     -10.075   9.810  66.632  1.00  0.00    -0.237 A  
HETATM    4  C   UNL     1      -9.657  10.272  69.099  1.00  0.00    -0.229 A  
HETATM    5  C   UNL     1     -10.024   8.737  71.845  1.00  0.00    -0.401 C  
HETATM    6  C   UNL     1     -10.460   8.461  66.853  1.00  0.00    -0.359 A  
HETATM    7  C   UNL     1     -10.459   8.054  68.200  1.00  0.00    -0.167 A  
HETATM    8  C   UNL     1     -10.074   8.958  69.248  1.00  0.00    -0.205 A  
HETATM    9  C   UNL     1     -10.223   8.294  70.442  1.00  0.00    -0.201 A  
HETATM   10  N   UNL     1     -10.780   6.867  68.739  1.00  0.00    -0.224 NA 
HETATM   11  N   UNL     1     -10.649   7.040  70.073  1.00  0.00    -0.223 NA 
HETATM   12  C   UNL     1     -10.965   5.934  70.949  1.00  0.00    -0.265 C  
HETATM   13  C   UNL     1      -9.671  10.651  67.738  1.00  0.00    -0.179 A  
ENDBRANCH   2   3
BRANCH   2  14
HETATM   14  C   UNL     1     -10.820  11.544  64.973  1.00  0.00    -0.274 A  
HETATM   15  C   UNL     1     -11.683  13.605  65.628  1.00  0.00    -0.342 A  
HETATM   16  N   UNL     1     -12.298  13.813  64.460  1.00  0.00    -0.579 NA 
HETATM   17  C   UNL     1     -12.121  12.865  63.526  1.00  0.00    -0.555 A  
HETATM   18  C   UNL     1     -11.386  11.719  63.725  1.00  0.00    -0.524 A  
HETATM   19  N   UNL     1     -10.973  12.501  65.907  1.00  0.00    -0.271 NA 
BRANCH  15  20
HETATM   20  N   UNL     1     -11.832  14.587  66.605  1.00  0.00    -0.389 NA 
HETATM   21  H   UNL     1     -12.775  14.710  66.974  1.00  0.00     0.000 HD 
BRANCH  20  22
HETATM   22  C   UNL     1     -10.849  15.428  67.144  1.00  0.00    -0.321 A  
HETATM   23  C   UNL     1      -9.996  14.937  68.134  1.00  0.00    -0.222 A  
HETATM   24  C   UNL     1      -8.948  15.719  68.630  1.00  0.00    -0.204 A  
HETATM   25  C   UNL     1      -8.724  17.026  68.161  1.00  0.00    -0.233 A  
HETATM   26  C   UNL     1      -9.605  17.538  67.192  1.00  0.00    -0.262 A  
HETATM   27  C   UNL     1      -7.569  17.797  68.727  1.00  0.00    -0.260 C  
HETATM   28  C   UNL     1     -10.645  16.737  66.690  1.00  0.00    -0.198 A  
BRANCH  26  29
HETATM   29  S   UNL     1      -9.528  19.217  66.579  1.00  0.00    -0.372 S  
HETATM   30  O   UNL     1      -8.323  19.390  65.809  1.00  0.00    -0.430 OA 
HETATM   31  O   UNL     1      -9.873  20.116  67.659  1.00  0.00    -0.387 OA 
HETATM   32  N   UNL     1     -10.817  19.250  65.508  1.00  0.00    -0.284 N  
HETATM   33  H1  UNL     1     -10.773  20.207  65.158  1.00  0.00     0.000 HD 
HETATM   34  H2  UNL     1     -11.474  18.507  65.269  1.00  0.00     0.000 HD 
ENDBRANCH  26  29
ENDBRANCH  20  22
ENDBRANCH  15  20
ENDBRANCH   2  14
TORSDOF 5
ENDMDL
MODEL       58
REMARK 921   NORMALIZED FREE ENERGY PREDICTED BY IDOCK:   -7.18 KCAL/MOL
REMARK 922        TOTAL FREE ENERGY PREDICTED BY IDOCK:   -9.74 KCAL/MOL
REMARK 923 INTER-LIGAND FREE ENERGY PREDICTED BY IDOCK:   -9.38 KCAL/MOL
REMARK 924 INTRA-LIGAND FREE ENERGY PREDICTED BY IDOCK:   -0.36 KCAL/MOL
REMARK 927      BINDING AFFINITY PREDICTED BY RF-SCORE:    0.00 PKD
ROOT
HETATM    1  C   UNL     1     -12.376  14.269  64.711  1.00  0.00    -0.426 C  
HETATM    2  N   UNL     1     -11.738  13.378  65.681  1.00  0.00    -0.332 NA 
ENDROOT
BRANCH   2   3
HETATM    3  C   UNL     1     -10.969  12.296  65.161  1.00  0.00    -0.303 A  
HETATM    4  C   UNL     1      -9.677  11.445  63.140  1.00  0.00    -0.413 A  
HETATM    5  C   UNL     1      -7.765   9.013  62.461  1.00  0.00    -0.119 C  
HETATM    6  C   UNL     1     -10.641  11.171  65.963  1.00  0.00    -0.298 A  
HETATM    7  C   UNL     1      -9.814  10.217  65.341  1.00  0.00    -0.307 A  
HETATM    8  C   UNL     1      -9.367  10.392  63.987  1.00  0.00    -0.321 A  
HETATM    9  C   UNL     1      -8.544   9.333  63.683  1.00  0.00    -0.196 A  
HETATM   10  N   UNL     1      -9.319   9.066  65.822  1.00  0.00    -0.238 NA 
HETATM   11  N   UNL     1      -8.554   8.568  64.826  1.00  0.00    -0.128 NA 
HETATM   12  C   UNL     1      -7.841   7.331  65.051  1.00  0.00    -0.125 C  
HETATM   13  C   UNL     1     -10.505  12.386  63.793  1.00  0.00    -0.475 A  
ENDBRANCH   2   3
BRANCH   2  14
HETATM   14  C   UNL     1     -11.746  13.778  67.035  1.00  0.00    -0.390 A  
HETATM   15  C   UNL     1     -11.560  15.507  68.583  1.00  0.00    -0.368 A  
HETATM   16  N   UNL     1     -11.630  14.686  69.634  1.00  0.00    -0.290 NA 
HETATM   17  C   UNL     1     -11.804  13.385  69.354  1.00  0.00    -0.335 A  
HETATM   18  C   UNL     1     -11.878  12.879  68.076  1.00  0.00    -0.390 A  
HETATM   19  N   UNL     1     -11.596  15.087  67.309  1.00  0.00    -0.318 NA 
BRANCH  15  20
HETATM   20  N   UNL     1     -11.405  16.866  68.850  1.00  0.00    -0.165 NA 
HETATM   21  H   UNL     1     -12.108  17.283  69.460  1.00  0.00     0.000 HD 
BRANCH  20  22
HETATM   22  C   UNL     1     -10.404  17.731  68.387  1.00  0.00    -0.376 A  
HETATM   23  C   UNL     1     -10.764  18.867  67.659  1.00  0.00    -0.469 A  
HETATM   24  C   UNL     1      -9.800  19.797  67.259  1.00  0.00    -0.513 A  
HETATM   25  C   UNL     1      -8.438  19.616  67.562  1.00  0.00    -0.346 A  
HETATM   26  C   UNL     1      -8.067  18.454  68.260  1.00  0.00    -0.298 A  
HETATM   27  C   UNL     1      -7.465  20.666  67.116  1.00  0.00    -0.381 C  
HETATM   28  C   UNL     1      -9.048  17.534  68.671  1.00  0.00    -0.263 A  
BRANCH  26  29
HETATM   29  S   UNL     1      -6.369  18.019  68.620  1.00  0.00    -0.219 S  
HETATM   30  O   UNL     1      -5.807  18.994  69.521  1.00  0.00    -0.223 OA 
HETATM   31  O   UNL     1      -5.713  17.666  67.380  1.00  0.00    -0.136 OA 
HETATM   32  N   UNL     1      -6.556  16.592  69.479  1.00  0.00    -0.223 N  
HETATM   33  H1  UNL     1      -5.588  16.344  69.684  1.00  0.00     0.000 HD 
HETATM   34  H2  UNL     1      -7.413  16.099  69.729  1.00  0.00     0.000 HD 
ENDBRANCH  26  29
ENDBRANCH  20  22
ENDBRANCH  15  20
ENDBRANCH   2  14
TORSDOF 5
ENDMDL
MODEL       59
REMARK 921   NORMALIZED FREE ENERGY PREDICTED BY IDOCK:   -7.17 KCAL/MOL
REMARK 922        TOTAL FREE ENERGY PREDICTED BY IDOCK:   -9.72 KCAL/MOL
REMARK 923 INTER-LIGAND FREE ENERGY PREDICTED BY IDOCK:   -9.44 KCAL/MOL
REMARK 924 INTRA-LIGAND FREE ENERGY PREDICTED BY IDOCK:   -0.28 KCAL/MOL
REMARK 927      BINDING AFFINITY PREDICTED BY RF-SCORE:    0.00 PKD
ROOT
HETATM    1  C   UNL     1      -9.000  10.770  65.320  1.00  0.00    -0.194 C  
HETATM    2  N   UNL     1     -10.281  10.773  66.027  1.00  0.00    -0.247 NA 
ENDROOT
BRANCH   2   3
HETATM    3  C   UNL     1     -10.439   9.831  67.087  1.00  0.00    -0.250 A  
HETATM    4  C   UNL     1     -10.504   7.357  67.679  1.00  0.00    -0.310 A  
HETATM    5  C   UNL     1     -10.570   5.600  70.313  1.00  0.00    -0.370 C  
HETATM    6  C   UNL     1     -10.573  10.255  68.436  1.00  0.00    -0.247 A  
HETATM    7  C   UNL     1     -10.644   9.215  69.382  1.00  0.00    -0.223 A  
HETATM    8  C   UNL     1     -10.599   7.838  68.976  1.00  0.00    -0.179 A  
HETATM    9  C   UNL     1     -10.637   7.070  70.115  1.00  0.00    -0.228 A  
HETATM   10  N   UNL     1     -10.757   9.277  70.718  1.00  0.00    -0.258 NA 
HETATM   11  N   UNL     1     -10.733   7.991  71.132  1.00  0.00    -0.217 NA 
HETATM   12  C   UNL     1     -10.801   7.718  72.550  1.00  0.00    -0.328 C  
HETATM   13  C   UNL     1     -10.432   8.423  66.753  1.00  0.00    -0.315 A  
ENDBRANCH   2   3
BRANCH   2  14
HETATM   14  C   UNL     1     -11.170  11.836  65.760  1.00  0.00    -0.281 A  
HETATM   15  C   UNL     1     -12.062  13.878  66.435  1.00  0.00    -0.455 A  
HETATM   16  N   UNL     1     -12.936  13.925  65.425  1.00  0.00    -0.748 NA 
HETATM   17  C   UNL     1     -12.878  12.909  64.550  1.00  0.00    -0.196 A  
HETATM   18  C   UNL     1     -12.010  11.847  64.664  1.00  0.00    -0.251 A  
HETATM   19  N   UNL     1     -11.206  12.864  66.628  1.00  0.00    -0.292 NA 
BRANCH  15  20
HETATM   20  N   UNL     1     -12.087  14.935  67.342  1.00  0.00    -0.441 NA 
HETATM   21  H   UNL     1     -12.981  15.108  67.802  1.00  0.00     0.000 HD 
BRANCH  20  22
HETATM   22  C   UNL     1     -11.037  15.791  67.703  1.00  0.00    -0.283 A  
HETATM   23  C   UNL     1     -10.184  15.426  68.746  1.00  0.00    -0.217 A  
HETATM   24  C   UNL     1      -9.074  16.213  69.072  1.00  0.00    -0.250 A  
HETATM   25  C   UNL     1      -8.787  17.400  68.374  1.00  0.00    -0.271 A  
HETATM   26  C   UNL     1      -9.667  17.791  67.349  1.00  0.00    -0.284 A  
HETATM   27  C   UNL     1      -7.569  18.181  68.770  1.00  0.00    -0.285 C  
HETATM   28  C   UNL     1     -10.769  16.984  67.020  1.00  0.00    -0.149 A  
BRANCH  26  29
HETATM   29  S   UNL     1      -9.509  19.328  66.447  1.00  0.00    -0.367 S  
HETATM   30  O   UNL     1     -10.742  19.605  65.754  1.00  0.00    -0.516 OA 
HETATM   31  O   UNL     1      -8.237  19.325  65.757  1.00  0.00    -0.445 OA 
HETATM   32  N   UNL     1      -9.370  20.442  67.691  1.00  0.00    -0.347 N  
HETATM   33  H1  UNL     1      -9.279  21.318  67.176  1.00  0.00     0.000 HD 
HETATM   34  H2  UNL     1      -9.374  20.285  68.699  1.00  0.00     0.000 HD 
ENDBRANCH  26  29
ENDBRANCH  20  22
ENDBRANCH  15  20
ENDBRANCH   2  14
TORSDOF 5
ENDMDL
MODEL       60
REMARK 921   NORMALIZED FREE ENERGY PREDICTED BY IDOCK:   -7.16 KCAL/MOL
REMARK 922        TOTAL FREE ENERGY PREDICTED BY IDOCK:   -9.72 KCAL/MOL
REMARK 923 INTER-LIGAND FREE ENERGY PREDICTED BY IDOCK:   -8.90 KCAL/MOL
REMARK 924 INTRA-LIGAND FREE ENERGY PREDICTED BY IDOCK:   -0.82 KCAL/MOL
REMARK 927      BINDING AFFINITY PREDICTED BY RF-SCORE:    0.00 PKD
ROOT
HETATM    1  C   UNL     1     -11.881  13.445  68.176  1.00  0.00    -0.361 C  
HETATM    2  N   UNL     1     -11.446  13.961  66.878  1.00  0.00    -0.334 NA 
ENDROOT
BRANCH   2   3
HETATM    3  C   UNL     1     -10.832  15.248  66.865  1.00  0.00    -0.317 A  
HETATM    4  C   UNL     1     -10.863  17.579  67.886  1.00  0.00    -0.255 A  
HETATM    5  C   UNL     1      -9.053  20.176  67.804  1.00  0.00    -0.403 C  
HETATM    6  C   UNL     1      -9.694  15.515  66.058  1.00  0.00    -0.378 A  
HETATM    7  C   UNL     1      -9.149  16.804  66.204  1.00  0.00    -0.253 A  
HETATM    8  C   UNL     1      -9.737  17.762  67.099  1.00  0.00    -0.288 A  
HETATM    9  C   UNL     1      -8.960  18.895  67.060  1.00  0.00    -0.294 A  
HETATM   10  N   UNL     1      -8.082  17.358  65.606  1.00  0.00    -0.333 NA 
HETATM   11  N   UNL     1      -7.980  18.593  66.144  1.00  0.00    -0.424 NA 
HETATM   12  C   UNL     1      -6.889  19.444  65.725  1.00  0.00    -0.277 C  
HETATM   13  C   UNL     1     -11.385  16.276  67.721  1.00  0.00    -0.081 A  
ENDBRANCH   2   3
BRANCH   2  14
HETATM   14  C   UNL     1     -11.463  13.069  65.784  1.00  0.00    -0.332 A  
HETATM   15  C   UNL     1     -10.557  11.185  64.761  1.00  0.00    -0.303 A  
HETATM   16  N   UNL     1     -11.308  11.316  63.664  1.00  0.00    -0.216 NA 
HETATM   17  C   UNL     1     -12.182  12.335  63.668  1.00  0.00    -0.567 A  
HETATM   18  C   UNL     1     -12.307  13.233  64.703  1.00  0.00    -0.447 A  
HETATM   19  N   UNL     1     -10.602  12.035  65.797  1.00  0.00    -0.254 NA 
BRANCH  15  20
HETATM   20  N   UNL     1      -9.660  10.118  64.790  1.00  0.00    -0.294 NA 
HETATM   21  H   UNL     1      -9.293   9.819  63.887  1.00  0.00     0.000 HD 
BRANCH  20  22
HETATM   22  C   UNL     1      -9.199   9.405  65.905  1.00  0.00    -0.213 A  
HETATM   23  C   UNL     1      -8.071   9.860  66.590  1.00  0.00    -0.117 A  
HETATM   24  C   UNL     1      -7.637   9.225  67.758  1.00  0.00    -0.084 A  
HETATM   25  C   UNL     1      -8.310   8.102  68.275  1.00  0.00    -0.126 A  
HETATM   26  C   UNL     1      -9.423   7.618  67.565  1.00  0.00    -0.140 A  
HETATM   27  C   UNL     1      -7.796   7.486  69.541  1.00  0.00    -0.120 C  
HETATM   28  C   UNL     1      -9.859   8.275  66.402  1.00  0.00    -0.283 A  
BRANCH  26  29
HETATM   29  S   UNL     1     -10.315   6.136  68.024  1.00  0.00    -0.226 S  
HETATM   30  O   UNL     1     -11.185   6.426  69.136  1.00  0.00    -0.353 OA 
HETATM   31  O   UNL     1      -9.381   5.031  68.061  1.00  0.00    -0.115 OA 
HETATM   32  N   UNL     1     -11.284   5.890  66.679  1.00  0.00    -0.706 N  
HETATM   33  H1  UNL     1     -11.793   5.046  66.940  1.00  0.00     0.000 HD 
HETATM   34  H2  UNL     1     -11.348   6.441  65.823  1.00  0.00     0.000 HD 
ENDBRANCH  26  29
ENDBRANCH  20  22
ENDBRANCH  15  20
ENDBRANCH   2  14
TORSDOF 5
ENDMDL
MODEL       61
REMARK 921   NORMALIZED FREE ENERGY PREDICTED BY IDOCK:   -7.15 KCAL/MOL
REMARK 922        TOTAL FREE ENERGY PREDICTED BY IDOCK:   -9.71 KCAL/MOL
REMARK 923 INTER-LIGAND FREE ENERGY PREDICTED BY IDOCK:   -8.91 KCAL/MOL
REMARK 924 INTRA-LIGAND FREE ENERGY PREDICTED BY IDOCK:   -0.79 KCAL/MOL
REMARK 927      BINDING AFFINITY PREDICTED BY RF-SCORE:    0.00 PKD
ROOT
HETATM    1  C   UNL     1     -10.053   6.371  71.230  1.00  0.00    -0.187 C  
HETATM    2  N   UNL     1     -10.672   7.599  70.731  1.00  0.00    -0.222 NA 
ENDROOT
BRANCH   2   3
HETATM    3  C   UNL     1     -10.044   8.238  69.621  1.00  0.00    -0.199 A  
HETATM    4  C   UNL     1      -8.085   9.690  68.892  1.00  0.00    -0.098 A  
HETATM    5  C   UNL     1      -6.814  10.676  66.164  1.00  0.00    -0.135 C  
HETATM    6  C   UNL     1     -10.532   8.068  68.299  1.00  0.00    -0.210 A  
HETATM    7  C   UNL     1      -9.768   8.694  67.296  1.00  0.00    -0.185 A  
HETATM    8  C   UNL     1      -8.596   9.457  67.624  1.00  0.00    -0.116 A  
HETATM    9  C   UNL     1      -8.045   9.896  66.444  1.00  0.00    -0.118 A  
HETATM   10  N   UNL     1      -9.948   8.714  65.966  1.00  0.00    -0.149 NA 
HETATM   11  N   UNL     1      -8.903   9.419  65.481  1.00  0.00    -0.172 NA 
HETATM   12  C   UNL     1      -8.787   9.591  64.050  1.00  0.00    -0.212 C  
HETATM   13  C   UNL     1      -8.871   9.047  69.876  1.00  0.00    -0.164 A  
ENDBRANCH   2   3
BRANCH   2  14
HETATM   14  C   UNL     1     -11.948   7.936  71.233  1.00  0.00    -0.298 A  
HETATM   15  C   UNL     1     -13.355   9.572  72.106  1.00  0.00    -0.461 A  
HETATM   16  N   UNL     1     -14.352   8.712  72.333  1.00  0.00    -0.535 NA 
HETATM   17  C   UNL     1     -14.132   7.443  71.954  1.00  0.00    -0.301 A  
HETATM   18  C   UNL     1     -12.955   7.004  71.392  1.00  0.00    -0.395 A  
HETATM   19  N   UNL     1     -12.170   9.215  71.588  1.00  0.00    -0.337 NA 
BRANCH  15  20
HETATM   20  N   UNL     1     -13.570  10.900  72.468  1.00  0.00    -0.297 NA 
HETATM   21  H   UNL     1     -14.019  11.049  73.372  1.00  0.00     0.000 HD 
BRANCH  20  22
HETATM   22  C   UNL     1     -13.248  12.058  71.746  1.00  0.00    -0.317 A  
HETATM   23  C   UNL     1     -13.494  13.309  72.314  1.00  0.00    -0.679 A  
HETATM   24  C   UNL     1     -13.103  14.482  71.660  1.00  0.00    -0.416 A  
HETATM   25  C   UNL     1     -12.463  14.444  70.407  1.00  0.00    -0.420 A  
HETATM   26  C   UNL     1     -12.250  13.187  69.815  1.00  0.00    -0.202 A  
HETATM   27  C   UNL     1     -12.058  15.743  69.776  1.00  0.00    -0.298 C  
HETATM   28  C   UNL     1     -12.632  12.015  70.490  1.00  0.00    -0.192 A  
BRANCH  26  29
HETATM   29  S   UNL     1     -11.556  12.973  68.180  1.00  0.00    -0.362 S  
HETATM   30  O   UNL     1     -12.031  14.026  67.317  1.00  0.00    -0.390 OA 
HETATM   31  O   UNL     1     -11.675  11.579  67.810  1.00  0.00    -0.514 OA 
HETATM   32  N   UNL     1      -9.927  13.250  68.460  1.00  0.00    -0.334 N  
HETATM   33  H1  UNL     1      -9.531  13.128  67.528  1.00  0.00     0.000 HD 
HETATM   34  H2  UNL     1      -9.455  13.479  69.335  1.00  0.00     0.000 HD 
ENDBRANCH  26  29
ENDBRANCH  20  22
ENDBRANCH  15  20
ENDBRANCH   2  14
TORSDOF 5
ENDMDL
MODEL       62
REMARK 921   NORMALIZED FREE ENERGY PREDICTED BY IDOCK:   -7.12 KCAL/MOL
REMARK 922        TOTAL FREE ENERGY PREDICTED BY IDOCK:   -9.66 KCAL/MOL
REMARK 923 INTER-LIGAND FREE ENERGY PREDICTED BY IDOCK:   -8.94 KCAL/MOL
REMARK 924 INTRA-LIGAND FREE ENERGY PREDICTED BY IDOCK:   -0.73 KCAL/MOL
REMARK 927      BINDING AFFINITY PREDICTED BY RF-SCORE:    0.00 PKD
ROOT
HETATM    1  C   UNL     1     -12.459  13.363  71.645  1.00  0.00    -0.089 C  
HETATM    2  N   UNL     1     -12.332  12.290  70.658  1.00  0.00    -0.337 NA 
ENDROOT
BRANCH   2   3
HETATM    3  C   UNL     1     -12.033  12.674  69.318  1.00  0.00    -0.246 A  
HETATM    4  C   UNL     1     -11.663  14.646  67.752  1.00  0.00    -0.386 A  
HETATM    5  C   UNL     1     -10.671  15.098  64.779  1.00  0.00    -0.344 C  
HETATM    6  C   UNL     1     -11.741  11.707  68.321  1.00  0.00    -0.374 A  
HETATM    7  C   UNL     1     -11.391  12.234  67.064  1.00  0.00    -0.334 A  
HETATM    8  C   UNL     1     -11.358  13.652  66.836  1.00  0.00    -0.345 A  
HETATM    9  C   UNL     1     -10.937  13.854  65.544  1.00  0.00    -0.302 A  
HETATM   10  N   UNL     1     -11.050  11.598  65.931  1.00  0.00    -0.292 NA 
HETATM   11  N   UNL     1     -10.768  12.582  65.048  1.00  0.00    -0.285 NA 
HETATM   12  C   UNL     1     -10.326  12.216  63.721  1.00  0.00    -0.437 C  
HETATM   13  C   UNL     1     -12.008  14.087  69.004  1.00  0.00    -0.392 A  
ENDBRANCH   2   3
BRANCH   2  14
HETATM   14  C   UNL     1     -12.294  10.963  71.140  1.00  0.00    -0.374 A  
HETATM   15  C   UNL     1     -11.100   8.977  71.357  1.00  0.00    -0.329 A  
HETATM   16  N   UNL     1     -12.119   8.328  71.927  1.00  0.00    -0.312 NA 
HETATM   17  C   UNL     1     -13.232   9.050  72.135  1.00  0.00    -0.446 A  
HETATM   18  C   UNL     1     -13.370  10.370  71.772  1.00  0.00    -0.456 A  
HETATM   19  N   UNL     1     -11.167  10.253  70.950  1.00  0.00    -0.310 NA 
BRANCH  15  20
HETATM   20  N   UNL     1      -9.925   8.255  71.153  1.00  0.00    -0.180 NA 
HETATM   21  H   UNL     1      -9.082   8.647  71.573  1.00  0.00     0.000 HD 
BRANCH  20  22
HETATM   22  C   UNL     1      -9.757   7.058  70.444  1.00  0.00    -0.176 A  
HETATM   23  C   UNL     1      -9.560   5.868  71.147  1.00  0.00    -0.198 A  
HETATM   24  C   UNL     1      -9.478   4.644  70.475  1.00  0.00    -0.247 A  
HETATM   25  C   UNL     1      -9.577   4.569  69.074  1.00  0.00    -0.245 A  
HETATM   26  C   UNL     1      -9.736   5.771  68.360  1.00  0.00    -0.133 A  
HETATM   27  C   UNL     1      -9.499   3.219  68.426  1.00  0.00    -0.209 C  
HETATM   28  C   UNL     1      -9.834   6.992  69.048  1.00  0.00    -0.154 A  
BRANCH  26  29
HETATM   29  S   UNL     1      -9.763   5.859  66.573  1.00  0.00    -0.139 S  
HETATM   30  O   UNL     1     -10.875   5.092  66.073  1.00  0.00    -0.283 OA 
HETATM   31  O   UNL     1      -8.417   5.650  66.084  1.00  0.00    -0.120 OA 
HETATM   32  N   UNL     1     -10.113   7.478  66.316  1.00  0.00    -0.463 N  
HETATM   33  H1  UNL     1     -10.128   7.528  65.298  1.00  0.00     0.000 HD 
HETATM   34  H2  UNL     1     -10.269   8.219  67.000  1.00  0.00     0.000 HD 
ENDBRANCH  26  29
ENDBRANCH  20  22
ENDBRANCH  15  20
ENDBRANCH   2  14
TORSDOF 5
ENDMDL
MODEL       63
REMARK 921   NORMALIZED FREE ENERGY PREDICTED BY IDOCK:   -7.11 KCAL/MOL
REMARK 922        TOTAL FREE ENERGY PREDICTED BY IDOCK:   -9.66 KCAL/MOL
REMARK 923 INTER-LIGAND FREE ENERGY PREDICTED BY IDOCK:   -8.95 KCAL/MOL
REMARK 924 INTRA-LIGAND FREE ENERGY PREDICTED BY IDOCK:   -0.71 KCAL/MOL
REMARK 927      BINDING AFFINITY PREDICTED BY RF-SCORE:    0.00 PKD
ROOT
HETATM    1  C   UNL     1      -8.268   8.019  64.753  1.00  0.00    -0.121 C  
HETATM    2  N   UNL     1      -9.193   8.868  65.503  1.00  0.00    -0.208 NA 
ENDROOT
BRANCH   2   3
HETATM    3  C   UNL     1      -9.374   8.567  66.885  1.00  0.00    -0.172 A  
HETATM    4  C   UNL     1      -8.655   9.156  69.255  1.00  0.00    -0.137 A  
HETATM    5  C   UNL     1      -9.561   8.438  72.203  1.00  0.00    -0.367 C  
HETATM    6  C   UNL     1     -10.341   7.620  67.313  1.00  0.00    -0.367 A  
HETATM    7  C   UNL     1     -10.462   7.480  68.709  1.00  0.00    -0.194 A  
HETATM    8  C   UNL     1      -9.638   8.243  69.605  1.00  0.00    -0.167 A  
HETATM    9  C   UNL     1     -10.020   7.928  70.887  1.00  0.00    -0.182 A  
HETATM   10  N   UNL     1     -11.279   6.692  69.425  1.00  0.00    -0.310 NA 
HETATM   11  N   UNL     1     -11.011   6.990  70.716  1.00  0.00    -0.246 NA 
HETATM   12  C   UNL     1     -11.766   6.322  71.752  1.00  0.00    -0.299 C  
HETATM   13  C   UNL     1      -8.560   9.276  67.849  1.00  0.00    -0.120 A  
ENDBRANCH   2   3
BRANCH   2  14
HETATM   14  C   UNL     1      -9.661  10.040  64.870  1.00  0.00    -0.310 A  
HETATM   15  C   UNL     1     -11.040  11.913  64.957  1.00  0.00    -0.305 A  
HETATM   16  N   UNL     1     -10.742  12.295  63.712  1.00  0.00    -0.410 NA 
HETATM   17  C   UNL     1      -9.846  11.535  63.063  1.00  0.00    -0.343 A  
HETATM   18  C   UNL     1      -9.268  10.406  63.597  1.00  0.00    -0.310 A  
HETATM   19  N   UNL     1     -10.540  10.811  65.535  1.00  0.00    -0.185 NA 
BRANCH  15  20
HETATM   20  N   UNL     1     -11.950  12.701  65.659  1.00  0.00    -0.440 NA 
HETATM   21  H   UNL     1     -12.923  12.632  65.362  1.00  0.00     0.000 HD 
BRANCH  20  22
HETATM   22  C   UNL     1     -11.695  13.578  66.723  1.00  0.00    -0.391 A  
HETATM   23  C   UNL     1     -12.003  13.180  68.026  1.00  0.00    -0.345 A  
HETATM   24  C   UNL     1     -11.680  13.993  69.118  1.00  0.00    -0.375 A  
HETATM   25  C   UNL     1     -11.049  15.238  68.943  1.00  0.00    -0.269 A  
HETATM   26  C   UNL     1     -10.774  15.658  67.630  1.00  0.00    -0.302 A  
HETATM   27  C   UNL     1     -10.718  16.044  70.163  1.00  0.00    -0.316 C  
HETATM   28  C   UNL     1     -11.088  14.826  66.542  1.00  0.00    -0.334 A  
BRANCH  26  29
HETATM   29  S   UNL     1     -10.083  17.260  67.233  1.00  0.00    -0.309 S  
HETATM   30  O   UNL     1     -10.709  18.267  68.052  1.00  0.00    -0.368 OA 
HETATM   31  O   UNL     1     -10.019  17.388  65.793  1.00  0.00    -0.539 OA 
HETATM   32  N   UNL     1      -8.502  17.092  67.763  1.00  0.00    -0.204 N  
HETATM   33  H1  UNL     1      -8.108  18.005  67.536  1.00  0.00     0.000 HD 
HETATM   34  H2  UNL     1      -8.051  16.287  68.197  1.00  0.00     0.000 HD 
ENDBRANCH  26  29
ENDBRANCH  20  22
ENDBRANCH  15  20
ENDBRANCH   2  14
TORSDOF 5
ENDMDL
MODEL       64
REMARK 921   NORMALIZED FREE ENERGY PREDICTED BY IDOCK:   -7.11 KCAL/MOL
REMARK 922        TOTAL FREE ENERGY PREDICTED BY IDOCK:   -9.65 KCAL/MOL
REMARK 923 INTER-LIGAND FREE ENERGY PREDICTED BY IDOCK:   -8.82 KCAL/MOL
REMARK 924 INTRA-LIGAND FREE ENERGY PREDICTED BY IDOCK:   -0.83 KCAL/MOL
REMARK 927      BINDING AFFINITY PREDICTED BY RF-SCORE:    0.00 PKD
ROOT
HETATM    1  C   UNL     1      -9.014  10.856  65.983  1.00  0.00    -0.186 C  
HETATM    2  N   UNL     1     -10.051  11.222  66.948  1.00  0.00    -0.207 NA 
ENDROOT
BRANCH   2   3
HETATM    3  C   UNL     1      -9.989  10.604  68.232  1.00  0.00    -0.158 A  
HETATM    4  C   UNL     1     -11.344   9.465  70.060  1.00  0.00    -0.172 A  
HETATM    5  C   UNL     1     -10.761   7.885  72.742  1.00  0.00    -0.435 C  
HETATM    6  C   UNL     1      -8.750  10.405  68.896  1.00  0.00    -0.157 A  
HETATM    7  C   UNL     1      -8.833   9.715  70.120  1.00  0.00    -0.231 A  
HETATM    8  C   UNL     1     -10.099   9.274  70.638  1.00  0.00    -0.339 A  
HETATM    9  C   UNL     1      -9.852   8.596  71.808  1.00  0.00    -0.295 A  
HETATM   10  N   UNL     1      -7.860   9.359  70.973  1.00  0.00    -0.320 NA 
HETATM   11  N   UNL     1      -8.488   8.680  71.959  1.00  0.00    -0.318 NA 
HETATM   12  C   UNL     1      -7.695   8.125  73.031  1.00  0.00    -0.148 C  
HETATM   13  C   UNL     1     -11.227  10.157  68.833  1.00  0.00    -0.220 A  
ENDBRANCH   2   3
BRANCH   2  14
HETATM   14  C   UNL     1     -10.892  12.308  66.620  1.00  0.00    -0.258 A  
HETATM   15  C   UNL     1     -11.623  14.458  67.126  1.00  0.00    -0.386 A  
HETATM   16  N   UNL     1     -12.552  14.459  66.165  1.00  0.00    -0.290 NA 
HETATM   17  C   UNL     1     -12.605  13.359  65.398  1.00  0.00    -0.475 A  
HETATM   18  C   UNL     1     -11.794  12.261  65.575  1.00  0.00    -0.420 A  
HETATM   19  N   UNL     1     -10.816  13.417  67.378  1.00  0.00    -0.265 NA 
BRANCH  15  20
HETATM   20  N   UNL     1     -11.533  15.601  67.919  1.00  0.00    -0.299 NA 
HETATM   21  H   UNL     1     -12.380  15.861  68.424  1.00  0.00     0.000 HD 
BRANCH  20  22
HETATM   22  C   UNL     1     -10.424  16.437  68.109  1.00  0.00    -0.302 A  
HETATM   23  C   UNL     1      -9.434  16.065  69.020  1.00  0.00    -0.243 A  
HETATM   24  C   UNL     1      -8.273  16.831  69.169  1.00  0.00    -0.098 A  
HETATM   25  C   UNL     1      -8.068  18.003  68.419  1.00  0.00    -0.304 A  
HETATM   26  C   UNL     1      -9.080  18.402  67.529  1.00  0.00    -0.271 A  
HETATM   27  C   UNL     1      -6.789  18.761  68.621  1.00  0.00    -0.294 C  
HETATM   28  C   UNL     1     -10.235  17.616  67.377  1.00  0.00    -0.345 A  
BRANCH  26  29
HETATM   29  S   UNL     1      -9.025  19.924  66.591  1.00  0.00    -0.375 S  
HETATM   30  O   UNL     1      -8.054  19.800  65.534  1.00  0.00    -0.356 OA 
HETATM   31  O   UNL     1      -8.996  21.034  67.519  1.00  0.00    -0.167 OA 
HETATM   32  N   UNL     1     -10.543  19.943  65.880  1.00  0.00    -0.482 N  
HETATM   33  H1  UNL     1     -10.511  20.811  65.345  1.00  0.00     0.000 HD 
HETATM   34  H2  UNL     1     -11.300  19.265  65.962  1.00  0.00     0.000 HD 
ENDBRANCH  26  29
ENDBRANCH  20  22
ENDBRANCH  15  20
ENDBRANCH   2  14
TORSDOF 5
ENDMDL
MODEL       65
REMARK 921   NORMALIZED FREE ENERGY PREDICTED BY IDOCK:   -7.10 KCAL/MOL
REMARK 922        TOTAL FREE ENERGY PREDICTED BY IDOCK:   -9.64 KCAL/MOL
REMARK 923 INTER-LIGAND FREE ENERGY PREDICTED BY IDOCK:   -8.57 KCAL/MOL
REMARK 924 INTRA-LIGAND FREE ENERGY PREDICTED BY IDOCK:   -1.07 KCAL/MOL
REMARK 927      BINDING AFFINITY PREDICTED BY RF-SCORE:    0.00 PKD
ROOT
HETATM    1  C   UNL     1     -10.364  14.224  65.346  1.00  0.00    -0.370 C  
HETATM    2  N   UNL     1     -10.285  13.190  66.379  1.00  0.00    -0.279 NA 
ENDROOT
BRANCH   2   3
HETATM    3  C   UNL     1     -10.895  13.481  67.635  1.00  0.00    -0.260 A  
HETATM    4  C   UNL     1     -12.397  12.572  69.478  1.00  0.00     0.009 A  
HETATM    5  C   UNL     1     -13.303  13.453  72.381  1.00  0.00    -0.629 C  
HETATM    6  C   UNL     1     -10.638  14.700  68.315  1.00  0.00    -0.235 A  
HETATM    7  C   UNL     1     -11.248  14.817  69.578  1.00  0.00    -0.278 A  
HETATM    8  C   UNL     1     -12.078  13.768  70.102  1.00  0.00    -0.429 A  
HETATM    9  C   UNL     1     -12.483  14.149  71.359  1.00  0.00    -0.359 A  
HETATM   10  N   UNL     1     -11.194  15.821  70.468  1.00  0.00    -0.345 NA 
HETATM   11  N   UNL     1     -11.920  15.394  71.524  1.00  0.00    -0.339 NA 
HETATM   12  C   UNL     1     -12.027  16.250  72.684  1.00  0.00    -0.546 C  
HETATM   13  C   UNL     1     -11.768  12.482  68.215  1.00  0.00    -0.390 A  
ENDBRANCH   2   3
BRANCH   2  14
HETATM   14  C   UNL     1      -9.813  11.917  65.991  1.00  0.00    -0.235 A  
HETATM   15  C   UNL     1      -8.589  10.016  66.542  1.00  0.00    -0.125 A  
HETATM   16  N   UNL     1      -8.736   9.469  65.332  1.00  0.00    -0.153 NA 
HETATM   17  C   UNL     1      -9.480  10.165  64.458  1.00  0.00    -0.303 A  
HETATM   18  C   UNL     1     -10.049  11.386  64.738  1.00  0.00    -0.326 A  
HETATM   19  N   UNL     1      -9.089  11.214  66.880  1.00  0.00    -0.156 NA 
BRANCH  15  20
HETATM   20  N   UNL     1      -7.841   9.299  67.474  1.00  0.00    -0.096 NA 
HETATM   21  H   UNL     1      -6.913   9.003  67.169  1.00  0.00     0.000 HD 
BRANCH  20  22
HETATM   22  C   UNL     1      -8.203   8.933  68.778  1.00  0.00    -0.115 A  
HETATM   23  C   UNL     1      -7.446   9.399  69.854  1.00  0.00    -0.100 A  
HETATM   24  C   UNL     1      -7.830   9.127  71.171  1.00  0.00    -0.119 A  
HETATM   25  C   UNL     1      -8.980   8.369  71.457  1.00  0.00    -0.251 A  
HETATM   26  C   UNL     1      -9.723   7.865  70.374  1.00  0.00    -0.179 A  
HETATM   27  C   UNL     1      -9.339   8.135  72.894  1.00  0.00    -0.343 C  
HETATM   28  C   UNL     1      -9.335   8.159  69.055  1.00  0.00    -0.147 A  
BRANCH  26  29
HETATM   29  S   UNL     1     -11.140   6.790  70.566  1.00  0.00    -0.321 S  
HETATM   30  O   UNL     1     -12.208   7.516  71.205  1.00  0.00    -0.314 OA 
HETATM   31  O   UNL     1     -10.682   5.514  71.073  1.00  0.00    -0.244 OA 
HETATM   32  N   UNL     1     -11.591   6.531  68.973  1.00  0.00    -0.594 N  
HETATM   33  H1  UNL     1     -12.399   5.918  69.082  1.00  0.00     0.000 HD 
HETATM   34  H2  UNL     1     -11.168   6.891  68.118  1.00  0.00     0.000 HD 
ENDBRANCH  26  29
ENDBRANCH  20  22
ENDBRANCH  15  20
ENDBRANCH   2  14
TORSDOF 5
ENDMDL
MODEL       66
REMARK 921   NORMALIZED FREE ENERGY PREDICTED BY IDOCK:   -7.10 KCAL/MOL
REMARK 922        TOTAL FREE ENERGY PREDICTED BY IDOCK:   -9.64 KCAL/MOL
REMARK 923 INTER-LIGAND FREE ENERGY PREDICTED BY IDOCK:   -9.28 KCAL/MOL
REMARK 924 INTRA-LIGAND FREE ENERGY PREDICTED BY IDOCK:   -0.35 KCAL/MOL
REMARK 927      BINDING AFFINITY PREDICTED BY RF-SCORE:    0.00 PKD
ROOT
HETATM    1  C   UNL     1     -13.045  12.747  72.127  1.00  0.00    -0.349 C  
HETATM    2  N   UNL     1     -12.668  11.789  71.086  1.00  0.00    -0.358 NA 
ENDROOT
BRANCH   2   3
HETATM    3  C   UNL     1     -12.132  12.324  69.877  1.00  0.00    -0.249 A  
HETATM    4  C   UNL     1     -11.420  11.775  67.496  1.00  0.00    -0.373 A  
HETATM    5  C   UNL     1     -10.531  13.373  64.911  1.00  0.00    -0.404 C  
HETATM    6  C   UNL     1     -11.876  13.713  69.734  1.00  0.00    -0.392 A  
HETATM    7  C   UNL     1     -11.420  14.107  68.462  1.00  0.00    -0.300 A  
HETATM    8  C   UNL     1     -11.223  13.145  67.414  1.00  0.00    -0.319 A  
HETATM    9  C   UNL     1     -10.827  13.832  66.291  1.00  0.00    -0.283 A  
HETATM   10  N   UNL     1     -11.105  15.329  68.003  1.00  0.00    -0.300 NA 
HETATM   11  N   UNL     1     -10.774  15.142  66.707  1.00  0.00    -0.307 NA 
HETATM   12  C   UNL     1     -10.414  16.294  65.911  1.00  0.00    -0.345 C  
HETATM   13  C   UNL     1     -11.879  11.411  68.783  1.00  0.00    -0.388 A  
ENDBRANCH   2   3
BRANCH   2  14
HETATM   14  C   UNL     1     -12.655  10.421  71.434  1.00  0.00    -0.434 A  
HETATM   15  C   UNL     1     -11.457   8.430  71.560  1.00  0.00    -0.278 A  
HETATM   16  N   UNL     1     -12.515   7.721  71.965  1.00  0.00    -0.302 NA 
HETATM   17  C   UNL     1     -13.652   8.412  72.142  1.00  0.00    -0.323 A  
HETATM   18  C   UNL     1     -13.775   9.761  71.901  1.00  0.00    -0.336 A  
HETATM   19  N   UNL     1     -11.505   9.740  71.278  1.00  0.00    -0.379 NA 
BRANCH  15  20
HETATM   20  N   UNL     1     -10.259   7.738  71.395  1.00  0.00    -0.182 NA 
HETATM   21  H   UNL     1      -9.469   8.076  71.945  1.00  0.00     0.000 HD 
BRANCH  20  22
HETATM   22  C   UNL     1     -10.002   6.637  70.566  1.00  0.00    -0.179 A  
HETATM   23  C   UNL     1      -9.841   5.373  71.137  1.00  0.00    -0.243 A  
HETATM   24  C   UNL     1      -9.673   4.241  70.334  1.00  0.00    -0.280 A  
HETATM   25  C   UNL     1      -9.647   4.335  68.931  1.00  0.00    -0.227 A  
HETATM   26  C   UNL     1      -9.768   5.611  68.354  1.00  0.00    -0.128 A  
HETATM   27  C   UNL     1      -9.481   3.073  68.137  1.00  0.00    -0.219 C  
HETATM   28  C   UNL     1      -9.953   6.740  69.170  1.00  0.00    -0.166 A  
BRANCH  26  29
HETATM   29  S   UNL     1      -9.638   5.914  66.595  1.00  0.00    -0.157 S  
HETATM   30  O   UNL     1      -8.575   5.109  66.048  1.00  0.00    -0.118 OA 
HETATM   31  O   UNL     1      -9.700   7.342  66.370  1.00  0.00    -0.173 OA 
HETATM   32  N   UNL     1     -11.086   5.285  66.032  1.00  0.00    -0.793 N  
HETATM   33  H1  UNL     1     -11.012   5.457  65.029  1.00  0.00     0.000 HD 
HETATM   34  H2  UNL     1     -11.843   4.844  66.555  1.00  0.00     0.000 HD 
ENDBRANCH  26  29
ENDBRANCH  20  22
ENDBRANCH  15  20
ENDBRANCH   2  14
TORSDOF 5
ENDMDL
MODEL       67
REMARK 921   NORMALIZED FREE ENERGY PREDICTED BY IDOCK:   -7.10 KCAL/MOL
REMARK 922        TOTAL FREE ENERGY PREDICTED BY IDOCK:   -9.64 KCAL/MOL
REMARK 923 INTER-LIGAND FREE ENERGY PREDICTED BY IDOCK:   -8.69 KCAL/MOL
REMARK 924 INTRA-LIGAND FREE ENERGY PREDICTED BY IDOCK:   -0.94 KCAL/MOL
REMARK 927      BINDING AFFINITY PREDICTED BY RF-SCORE:    0.00 PKD
ROOT
HETATM    1  C   UNL     1     -12.190  13.968  66.093  1.00  0.00    -0.465 C  
HETATM    2  N   UNL     1     -11.230  14.117  67.188  1.00  0.00    -0.306 NA 
ENDROOT
BRANCH   2   3
HETATM    3  C   UNL     1     -10.169  15.049  66.998  1.00  0.00    -0.257 A  
HETATM    4  C   UNL     1      -7.641  15.347  66.967  1.00  0.00    -0.195 A  
HETATM    5  C   UNL     1      -5.578  17.611  66.162  1.00  0.00    -0.241 C  
HETATM    6  C   UNL     1     -10.426  16.391  66.612  1.00  0.00    -0.274 A  
HETATM    7  C   UNL     1      -9.280  17.177  66.387  1.00  0.00    -0.258 A  
HETATM    8  C   UNL     1      -7.961  16.633  66.561  1.00  0.00    -0.342 A  
HETATM    9  C   UNL     1      -7.061  17.615  66.222  1.00  0.00    -0.301 A  
HETATM   10  N   UNL     1      -9.180  18.460  66.004  1.00  0.00    -0.503 NA 
HETATM   11  N   UNL     1      -7.853  18.691  65.896  1.00  0.00    -0.491 NA 
HETATM   12  C   UNL     1      -7.411  19.996  65.458  1.00  0.00    -0.247 C  
HETATM   13  C   UNL     1      -8.811  14.583  67.183  1.00  0.00    -0.245 A  
ENDBRANCH   2   3
BRANCH   2  14
HETATM   14  C   UNL     1     -11.546  13.501  68.419  1.00  0.00    -0.343 A  
HETATM   15  C   UNL     1     -11.933  11.531  69.597  1.00  0.00    -0.339 A  
HETATM   16  N   UNL     1     -12.260  12.171  70.723  1.00  0.00    -0.351 NA 
HETATM   17  C   UNL     1     -12.181  13.510  70.683  1.00  0.00    -0.358 A  
HETATM   18  C   UNL     1     -11.821  14.224  69.563  1.00  0.00    -0.378 A  
HETATM   19  N   UNL     1     -11.600  12.157  68.458  1.00  0.00    -0.293 NA 
BRANCH  15  20
HETATM   20  N   UNL     1     -11.984  10.139  69.622  1.00  0.00    -0.485 NA 
HETATM   21  H   UNL     1     -12.916   9.727  69.670  1.00  0.00     0.000 HD 
BRANCH  20  22
HETATM   22  C   UNL     1     -10.915   9.233  69.590  1.00  0.00    -0.175 A  
HETATM   23  C   UNL     1     -10.395   8.745  70.790  1.00  0.00    -0.264 A  
HETATM   24  C   UNL     1      -9.390   7.772  70.793  1.00  0.00    -0.162 A  
HETATM   25  C   UNL     1      -8.860   7.264  69.593  1.00  0.00    -0.141 A  
HETATM   26  C   UNL     1      -9.353   7.782  68.383  1.00  0.00    -0.143 A  
HETATM   27  C   UNL     1      -7.796   6.210  69.676  1.00  0.00    -0.103 C  
HETATM   28  C   UNL     1     -10.375   8.747  68.393  1.00  0.00    -0.242 A  
BRANCH  26  29
HETATM   29  S   UNL     1      -8.705   7.327  66.778  1.00  0.00    -0.136 S  
HETATM   30  O   UNL     1      -9.013   5.944  66.513  1.00  0.00    -0.123 OA 
HETATM   31  O   UNL     1      -7.356   7.838  66.667  1.00  0.00    -0.084 OA 
HETATM   32  N   UNL     1      -9.649   8.257  65.752  1.00  0.00    -0.446 N  
HETATM   33  H1  UNL     1      -9.279   7.998  64.837  1.00  0.00     0.000 HD 
HETATM   34  H2  UNL     1     -10.396   8.912  65.982  1.00  0.00     0.000 HD 
ENDBRANCH  26  29
ENDBRANCH  20  22
ENDBRANCH  15  20
ENDBRANCH   2  14
TORSDOF 5
ENDMDL
MODEL       68
REMARK 921   NORMALIZED FREE ENERGY PREDICTED BY IDOCK:   -7.08 KCAL/MOL
REMARK 922        TOTAL FREE ENERGY PREDICTED BY IDOCK:   -9.62 KCAL/MOL
REMARK 923 INTER-LIGAND FREE ENERGY PREDICTED BY IDOCK:   -8.87 KCAL/MOL
REMARK 924 INTRA-LIGAND FREE ENERGY PREDICTED BY IDOCK:   -0.75 KCAL/MOL
REMARK 927      BINDING AFFINITY PREDICTED BY RF-SCORE:    0.00 PKD
ROOT
HETATM    1  C   UNL     1     -12.340  12.064  63.455  1.00  0.00    -0.551 C  
HETATM    2  N   UNL     1     -11.148  12.061  64.304  1.00  0.00    -0.328 NA 
ENDROOT
BRANCH   2   3
HETATM    3  C   UNL     1     -11.113  13.000  65.377  1.00  0.00    -0.275 A  
HETATM    4  C   UNL     1     -10.344  15.319  66.088  1.00  0.00    -0.314 A  
HETATM    5  C   UNL     1     -10.750  17.243  68.571  1.00  0.00    -0.305 C  
HETATM    6  C   UNL     1     -11.763  12.734  66.612  1.00  0.00    -0.459 A  
HETATM    7  C   UNL     1     -11.710  13.781  67.550  1.00  0.00    -0.375 A  
HETATM    8  C   UNL     1     -11.025  15.009  67.255  1.00  0.00    -0.326 A  
HETATM    9  C   UNL     1     -11.190  15.845  68.333  1.00  0.00    -0.368 A  
HETATM   10  N   UNL     1     -12.228  13.854  68.787  1.00  0.00    -0.300 NA 
HETATM   11  N   UNL     1     -11.922  15.095  69.224  1.00  0.00    -0.309 NA 
HETATM   12  C   UNL     1     -12.380  15.501  70.533  1.00  0.00    -0.418 C  
HETATM   13  C   UNL     1     -10.417  14.251  65.165  1.00  0.00    -0.432 A  
ENDBRANCH   2   3
BRANCH   2  14
HETATM   14  C   UNL     1     -10.234  10.998  64.139  1.00  0.00    -0.357 A  
HETATM   15  C   UNL     1      -8.899   9.372  65.135  1.00  0.00    -0.195 A  
HETATM   16  N   UNL     1      -8.364   8.980  63.975  1.00  0.00    -0.175 NA 
HETATM   17  C   UNL     1      -8.823   9.602  62.877  1.00  0.00    -0.245 A  
HETATM   18  C   UNL     1      -9.762  10.608  62.901  1.00  0.00    -0.329 A  
HETATM   19  N   UNL     1      -9.797  10.362  65.242  1.00  0.00    -0.275 NA 
BRANCH  15  20
HETATM   20  N   UNL     1      -8.456   8.723  66.286  1.00  0.00    -0.119 NA 
HETATM   21  H   UNL     1      -7.652   8.106  66.169  1.00  0.00     0.000 HD 
BRANCH  20  22
HETATM   22  C   UNL     1      -8.976   8.812  67.584  1.00  0.00    -0.135 A  
HETATM   23  C   UNL     1      -9.054  10.059  68.207  1.00  0.00    -0.122 A  
HETATM   24  C   UNL     1      -9.650  10.196  69.465  1.00  0.00    -0.243 A  
HETATM   25  C   UNL     1     -10.177   9.086  70.151  1.00  0.00    -0.224 A  
HETATM   26  C   UNL     1     -10.065   7.823  69.543  1.00  0.00    -0.194 A  
HETATM   27  C   UNL     1     -10.817   9.314  71.488  1.00  0.00    -0.442 C  
HETATM   28  C   UNL     1      -9.479   7.700  68.272  1.00  0.00    -0.148 A  
BRANCH  26  29
HETATM   29  S   UNL     1     -10.579   6.301  70.332  1.00  0.00    -0.274 S  
HETATM   30  O   UNL     1     -12.012   6.304  70.488  1.00  0.00    -0.263 OA 
HETATM   31  O   UNL     1      -9.696   6.042  71.448  1.00  0.00    -0.163 OA 
HETATM   32  N   UNL     1     -10.204   5.164  69.159  1.00  0.00    -0.209 N  
HETATM   33  H1  UNL     1     -10.497   4.297  69.608  1.00  0.00     0.000 HD 
HETATM   34  H2  UNL     1      -9.790   5.304  68.237  1.00  0.00     0.000 HD 
ENDBRANCH  26  29
ENDBRANCH  20  22
ENDBRANCH  15  20
ENDBRANCH   2  14
TORSDOF 5
ENDMDL
MODEL       69
REMARK 921   NORMALIZED FREE ENERGY PREDICTED BY IDOCK:   -7.07 KCAL/MOL
REMARK 922        TOTAL FREE ENERGY PREDICTED BY IDOCK:   -9.60 KCAL/MOL
REMARK 923 INTER-LIGAND FREE ENERGY PREDICTED BY IDOCK:   -9.03 KCAL/MOL
REMARK 924 INTRA-LIGAND FREE ENERGY PREDICTED BY IDOCK:   -0.58 KCAL/MOL
REMARK 927      BINDING AFFINITY PREDICTED BY RF-SCORE:    0.00 PKD
ROOT
HETATM    1  C   UNL     1     -12.927  11.574  71.520  1.00  0.00    -0.380 C  
HETATM    2  N   UNL     1     -11.906  10.989  70.650  1.00  0.00    -0.345 NA 
ENDROOT
BRANCH   2   3
HETATM    3  C   UNL     1     -11.364   9.730  71.041  1.00  0.00    -0.387 A  
HETATM    4  C   UNL     1     -11.924   7.401  71.901  1.00  0.00    -0.337 A  
HETATM    5  C   UNL     1     -10.395   4.667  72.370  1.00  0.00    -0.262 C  
HETATM    6  C   UNL     1      -9.976   9.455  70.925  1.00  0.00    -0.353 A  
HETATM    7  C   UNL     1      -9.595   8.147  71.277  1.00  0.00    -0.162 A  
HETATM    8  C   UNL     1     -10.565   7.189  71.733  1.00  0.00    -0.230 A  
HETATM    9  C   UNL     1      -9.905   6.003  71.947  1.00  0.00    -0.161 A  
HETATM   10  N   UNL     1      -8.382   7.573  71.265  1.00  0.00    -0.110 NA 
HETATM   11  N   UNL     1      -8.594   6.295  71.650  1.00  0.00    -0.133 NA 
HETATM   12  C   UNL     1      -7.467   5.391  71.703  1.00  0.00    -0.091 C  
HETATM   13  C   UNL     1     -12.276   8.721  71.538  1.00  0.00    -0.382 A  
ENDBRANCH   2   3
BRANCH   2  14
HETATM   14  C   UNL     1     -11.696  11.597  69.393  1.00  0.00    -0.340 A  
HETATM   15  C   UNL     1     -11.591  13.559  68.144  1.00  0.00    -0.333 A  
HETATM   16  N   UNL     1     -11.416  12.912  66.988  1.00  0.00    -0.319 NA 
HETATM   17  C   UNL     1     -11.342  11.574  67.068  1.00  0.00    -0.269 A  
HETATM   18  C   UNL     1     -11.465  10.868  68.243  1.00  0.00    -0.376 A  
HETATM   19  N   UNL     1     -11.747  12.940  69.324  1.00  0.00    -0.308 NA 
BRANCH  15  20
HETATM   20  N   UNL     1     -11.646  14.950  68.089  1.00  0.00    -0.328 NA 
HETATM   21  H   UNL     1     -12.571  15.355  67.945  1.00  0.00     0.000 HD 
BRANCH  20  22
HETATM   22  C   UNL     1     -10.589  15.864  68.205  1.00  0.00    -0.280 A  
HETATM   23  C   UNL     1      -9.516  15.565  69.046  1.00  0.00    -0.242 A  
HETATM   24  C   UNL     1      -8.404  16.411  69.117  1.00  0.00    -0.182 A  
HETATM   25  C   UNL     1      -8.334  17.594  68.358  1.00  0.00    -0.290 A  
HETATM   26  C   UNL     1      -9.431  17.917  67.540  1.00  0.00    -0.258 A  
HETATM   27  C   UNL     1      -7.102  18.441  68.474  1.00  0.00    -0.285 C  
HETATM   28  C   UNL     1     -10.534  17.050  67.464  1.00  0.00    -0.334 A  
BRANCH  26  29
HETATM   29  S   UNL     1      -9.547  19.437  66.603  1.00  0.00    -0.380 S  
HETATM   30  O   UNL     1      -8.407  19.550  65.729  1.00  0.00    -0.420 OA 
HETATM   31  O   UNL     1      -9.917  20.505  67.507  1.00  0.00    -0.425 OA 
HETATM   32  N   UNL     1     -10.890  19.145  65.643  1.00  0.00    -0.321 N  
HETATM   33  H1  UNL     1     -10.956  20.012  65.109  1.00  0.00     0.000 HD 
HETATM   34  H2  UNL     1     -11.484  18.317  65.603  1.00  0.00     0.000 HD 
ENDBRANCH  26  29
ENDBRANCH  20  22
ENDBRANCH  15  20
ENDBRANCH   2  14
TORSDOF 5
ENDMDL
MODEL       70
REMARK 921   NORMALIZED FREE ENERGY PREDICTED BY IDOCK:   -7.06 KCAL/MOL
REMARK 922        TOTAL FREE ENERGY PREDICTED BY IDOCK:   -9.59 KCAL/MOL
REMARK 923 INTER-LIGAND FREE ENERGY PREDICTED BY IDOCK:   -9.23 KCAL/MOL
REMARK 924 INTRA-LIGAND FREE ENERGY PREDICTED BY IDOCK:   -0.36 KCAL/MOL
REMARK 927      BINDING AFFINITY PREDICTED BY RF-SCORE:    0.00 PKD
ROOT
HETATM    1  C   UNL     1     -10.167  16.413  66.330  1.00  0.00    -0.316 C  
HETATM    2  N   UNL     1     -10.798  15.137  66.666  1.00  0.00    -0.316 NA 
ENDROOT
BRANCH   2   3
HETATM    3  C   UNL     1     -11.310  14.995  67.989  1.00  0.00    -0.327 A  
HETATM    4  C   UNL     1     -12.479  13.419  69.610  1.00  0.00    -0.063 A  
HETATM    5  C   UNL     1     -13.196  13.371  72.694  1.00  0.00    -0.436 C  
HETATM    6  C   UNL     1     -11.153  16.024  68.955  1.00  0.00    -0.320 A  
HETATM    7  C   UNL     1     -11.642  15.715  70.239  1.00  0.00    -0.356 A  
HETATM    8  C   UNL     1     -12.264  14.449  70.512  1.00  0.00    -0.411 A  
HETATM    9  C   UNL     1     -12.586  14.427  71.848  1.00  0.00    -0.337 A  
HETATM   10  N   UNL     1     -11.634  16.453  71.361  1.00  0.00    -0.361 NA 
HETATM   11  N   UNL     1     -12.184  15.660  72.306  1.00  0.00    -0.392 NA 
HETATM   12  C   UNL     1     -12.287  16.162  73.658  1.00  0.00    -0.562 C  
HETATM   13  C   UNL     1     -11.976  13.757  68.333  1.00  0.00    -0.395 A  
ENDBRANCH   2   3
BRANCH   2  14
HETATM   14  C   UNL     1     -11.047  14.235  65.608  1.00  0.00    -0.316 A  
HETATM   15  C   UNL     1     -10.381  12.339  64.435  1.00  0.00    -0.331 A  
HETATM   16  N   UNL     1     -11.347  12.463  63.520  1.00  0.00    -0.466 NA 
HETATM   17  C   UNL     1     -12.198  13.485  63.700  1.00  0.00    -0.375 A  
HETATM   18  C   UNL     1     -12.101  14.393  64.729  1.00  0.00    -0.462 A  
HETATM   19  N   UNL     1     -10.204  13.198  65.449  1.00  0.00    -0.299 NA 
BRANCH  15  20
HETATM   20  N   UNL     1      -9.500  11.270  64.283  1.00  0.00    -0.341 NA 
HETATM   21  H   UNL     1      -8.828  11.351  63.520  1.00  0.00     0.000 HD 
BRANCH  20  22
HETATM   22  C   UNL     1      -9.422  10.097  65.047  1.00  0.00    -0.271 A  
HETATM   23  C   UNL     1     -10.126  10.016  66.250  1.00  0.00    -0.310 A  
HETATM   24  C   UNL     1     -10.142   8.830  66.991  1.00  0.00    -0.335 A  
HETATM   25  C   UNL     1      -9.443   7.687  66.561  1.00  0.00    -0.250 A  
HETATM   26  C   UNL     1      -8.702   7.778  65.370  1.00  0.00    -0.020 A  
HETATM   27  C   UNL     1      -9.523   6.447  67.401  1.00  0.00    -0.123 C  
HETATM   28  C   UNL     1      -8.706   8.970  64.625  1.00  0.00    -0.169 A  
BRANCH  26  29
HETATM   29  S   UNL     1      -7.669   6.456  64.749  1.00  0.00    -0.111 S  
HETATM   30  O   UNL     1      -7.102   5.731  65.858  1.00  0.00    -0.067 OA 
HETATM   31  O   UNL     1      -6.840   6.982  63.686  1.00  0.00    -0.045 OA 
HETATM   32  N   UNL     1      -8.797   5.455  64.018  1.00  0.00    -0.347 N  
HETATM   33  H1  UNL     1      -8.208   4.702  63.664  1.00  0.00     0.000 HD 
HETATM   34  H2  UNL     1      -9.807   5.571  63.945  1.00  0.00     0.000 HD 
ENDBRANCH  26  29
ENDBRANCH  20  22
ENDBRANCH  15  20
ENDBRANCH   2  14
TORSDOF 5
ENDMDL
MODEL       71
REMARK 921   NORMALIZED FREE ENERGY PREDICTED BY IDOCK:   -7.01 KCAL/MOL
REMARK 922        TOTAL FREE ENERGY PREDICTED BY IDOCK:   -9.52 KCAL/MOL
REMARK 923 INTER-LIGAND FREE ENERGY PREDICTED BY IDOCK:   -8.69 KCAL/MOL
REMARK 924 INTRA-LIGAND FREE ENERGY PREDICTED BY IDOCK:   -0.83 KCAL/MOL
REMARK 927      BINDING AFFINITY PREDICTED BY RF-SCORE:    0.00 PKD
ROOT
HETATM    1  C   UNL     1     -10.830   6.367  67.094  1.00  0.00    -0.393 C  
HETATM    2  N   UNL     1     -10.524   7.628  67.770  1.00  0.00    -0.221 NA 
ENDROOT
BRANCH   2   3
HETATM    3  C   UNL     1     -10.341   7.578  69.184  1.00  0.00    -0.212 A  
HETATM    4  C   UNL     1     -11.117   6.480  71.345  1.00  0.00    -0.315 A  
HETATM    5  C   UNL     1     -10.204   6.417  74.377  1.00  0.00    -0.343 C  
HETATM    6  C   UNL     1      -9.327   8.338  69.824  1.00  0.00    -0.158 A  
HETATM    7  C   UNL     1      -9.214   8.132  71.211  1.00  0.00    -0.156 A  
HETATM    8  C   UNL     1     -10.088   7.225  71.901  1.00  0.00    -0.196 A  
HETATM    9  C   UNL     1      -9.702   7.200  73.220  1.00  0.00    -0.210 A  
HETATM   10  N   UNL     1      -8.360   8.677  72.093  1.00  0.00    -0.341 NA 
HETATM   11  N   UNL     1      -8.659   8.095  73.276  1.00  0.00    -0.229 NA 
HETATM   12  C   UNL     1      -7.878   8.449  74.439  1.00  0.00    -0.198 C  
HETATM   13  C   UNL     1     -11.204   6.706  69.952  1.00  0.00    -0.421 A  
ENDBRANCH   2   3
BRANCH   2  14
HETATM   14  C   UNL     1     -10.219   8.743  66.961  1.00  0.00    -0.281 A  
HETATM   15  C   UNL     1     -10.754  10.912  66.307  1.00  0.00    -0.176 A  
HETATM   16  N   UNL     1      -9.807  10.952  65.365  1.00  0.00    -0.239 NA 
HETATM   17  C   UNL     1      -9.031   9.861  65.265  1.00  0.00    -0.191 A  
HETATM   18  C   UNL     1      -9.187   8.735  66.042  1.00  0.00    -0.282 A  
HETATM   19  N   UNL     1     -10.984   9.843  67.083  1.00  0.00    -0.165 NA 
BRANCH  15  20
HETATM   20  N   UNL     1     -11.555  12.043  66.446  1.00  0.00    -0.500 NA 
HETATM   21  H   UNL     1     -12.547  11.870  66.609  1.00  0.00     0.000 HD 
BRANCH  20  22
HETATM   22  C   UNL     1     -11.170  13.390  66.390  1.00  0.00    -0.304 A  
HETATM   23  C   UNL     1     -11.299  14.089  65.188  1.00  0.00    -0.328 A  
HETATM   24  C   UNL     1     -11.008  15.455  65.120  1.00  0.00    -0.430 A  
HETATM   25  C   UNL     1     -10.566  16.168  66.249  1.00  0.00    -0.276 A  
HETATM   26  C   UNL     1     -10.398  15.458  67.451  1.00  0.00    -0.262 A  
HETATM   27  C   UNL     1     -10.292  17.635  66.103  1.00  0.00    -0.334 C  
HETATM   28  C   UNL     1     -10.708  14.089  67.512  1.00  0.00    -0.271 A  
BRANCH  26  29
HETATM   29  S   UNL     1      -9.735  16.189  68.944  1.00  0.00    -0.253 S  
HETATM   30  O   UNL     1     -10.649  17.191  69.433  1.00  0.00    -0.321 OA 
HETATM   31  O   UNL     1      -8.334  16.483  68.727  1.00  0.00    -0.227 OA 
HETATM   32  N   UNL     1      -9.787  14.898  70.010  1.00  0.00    -0.455 N  
HETATM   33  H1  UNL     1      -9.409  15.315  70.861  1.00  0.00     0.000 HD 
HETATM   34  H2  UNL     1     -10.111  13.944  69.850  1.00  0.00     0.000 HD 
ENDBRANCH  26  29
ENDBRANCH  20  22
ENDBRANCH  15  20
ENDBRANCH   2  14
TORSDOF 5
ENDMDL
MODEL       72
REMARK 921   NORMALIZED FREE ENERGY PREDICTED BY IDOCK:   -6.98 KCAL/MOL
REMARK 922        TOTAL FREE ENERGY PREDICTED BY IDOCK:   -9.48 KCAL/MOL
REMARK 923 INTER-LIGAND FREE ENERGY PREDICTED BY IDOCK:   -8.96 KCAL/MOL
REMARK 924 INTRA-LIGAND FREE ENERGY PREDICTED BY IDOCK:   -0.52 KCAL/MOL
REMARK 927      BINDING AFFINITY PREDICTED BY RF-SCORE:    0.00 PKD
ROOT
HETATM    1  C   UNL     1     -12.499  12.456  64.758  1.00  0.00    -0.401 C  
HETATM    2  N   UNL     1     -11.334  12.713  65.606  1.00  0.00    -0.308 NA 
ENDROOT
BRANCH   2   3
HETATM    3  C   UNL     1     -11.113  14.062  66.012  1.00  0.00    -0.303 A  
HETATM    4  C   UNL     1     -10.421  15.566  67.946  1.00  0.00    -0.266 A  
HETATM    5  C   UNL     1      -9.724  18.625  68.376  1.00  0.00    -0.405 C  
HETATM    6  C   UNL     1     -11.223  15.138  65.092  1.00  0.00    -0.392 A  
HETATM    7  C   UNL     1     -10.903  16.405  65.615  1.00  0.00    -0.178 A  
HETATM    8  C   UNL     1     -10.515  16.564  66.989  1.00  0.00    -0.289 A  
HETATM    9  C   UNL     1     -10.220  17.892  67.184  1.00  0.00    -0.353 A  
HETATM   10  N   UNL     1     -10.892  17.604  65.013  1.00  0.00    -0.733 NA 
HETATM   11  N   UNL     1     -10.466  18.469  65.960  1.00  0.00    -0.526 NA 
HETATM   12  C   UNL     1     -10.310  19.862  65.607  1.00  0.00    -0.326 C  
HETATM   13  C   UNL     1     -10.745  14.306  67.391  1.00  0.00    -0.282 A  
ENDBRANCH   2   3
BRANCH   2  14
HETATM   14  C   UNL     1     -10.653  11.595  66.133  1.00  0.00    -0.262 A  
HETATM   15  C   UNL     1     -10.659   9.800  67.614  1.00  0.00    -0.276 A  
HETATM   16  N   UNL     1      -9.402   9.451  67.328  1.00  0.00    -0.129 NA 
HETATM   17  C   UNL     1      -8.788  10.184  66.385  1.00  0.00    -0.143 A  
HETATM   18  C   UNL     1      -9.369  11.258  65.750  1.00  0.00    -0.245 A  
HETATM   19  N   UNL     1     -11.283  10.849  67.059  1.00  0.00    -0.337 NA 
BRANCH  15  20
HETATM   20  N   UNL     1     -11.325   9.037  68.572  1.00  0.00    -0.190 NA 
HETATM   21  H   UNL     1     -12.167   9.454  68.968  1.00  0.00     0.000 HD 
BRANCH  20  22
HETATM   22  C   UNL     1     -10.983   7.768  69.059  1.00  0.00     0.081 A  
HETATM   23  C   UNL     1     -10.735   6.732  68.157  1.00  0.00    -0.295 A  
HETATM   24  C   UNL     1     -10.304   5.479  68.605  1.00  0.00    -0.255 A  
HETATM   25  C   UNL     1     -10.119   5.215  69.974  1.00  0.00    -0.345 A  
HETATM   26  C   UNL     1     -10.406   6.244  70.888  1.00  0.00    -0.205 A  
HETATM   27  C   UNL     1      -9.638   3.853  70.376  1.00  0.00    -0.266 C  
HETATM   28  C   UNL     1     -10.822   7.504  70.425  1.00  0.00    -0.255 A  
BRANCH  26  29
HETATM   29  S   UNL     1     -10.333   6.034  72.663  1.00  0.00    -0.205 S  
HETATM   30  O   UNL     1      -8.962   5.845  73.067  1.00  0.00    -0.123 OA 
HETATM   31  O   UNL     1     -11.373   5.109  73.059  1.00  0.00    -0.302 OA 
HETATM   32  N   UNL     1     -10.813   7.545  73.207  1.00  0.00    -0.442 N  
HETATM   33  H1  UNL     1     -10.771   7.425  74.219  1.00  0.00     0.000 HD 
HETATM   34  H2  UNL     1     -11.077   8.369  72.666  1.00  0.00     0.000 HD 
ENDBRANCH  26  29
ENDBRANCH  20  22
ENDBRANCH  15  20
ENDBRANCH   2  14
TORSDOF 5
ENDMDL
MODEL       73
REMARK 921   NORMALIZED FREE ENERGY PREDICTED BY IDOCK:   -6.97 KCAL/MOL
REMARK 922        TOTAL FREE ENERGY PREDICTED BY IDOCK:   -9.47 KCAL/MOL
REMARK 923 INTER-LIGAND FREE ENERGY PREDICTED BY IDOCK:   -8.82 KCAL/MOL
REMARK 924 INTRA-LIGAND FREE ENERGY PREDICTED BY IDOCK:   -0.65 KCAL/MOL
REMARK 927      BINDING AFFINITY PREDICTED BY RF-SCORE:    0.00 PKD
ROOT
HETATM    1  C   UNL     1     -11.901  15.702  69.445  1.00  0.00    -0.375 C  
HETATM    2  N   UNL     1     -11.230  15.466  68.166  1.00  0.00    -0.312 NA 
ENDROOT
BRANCH   2   3
HETATM    3  C   UNL     1     -10.125  16.309  67.849  1.00  0.00    -0.247 A  
HETATM    4  C   UNL     1      -7.940  16.476  66.555  1.00  0.00    -0.345 A  
HETATM    5  C   UNL     1      -5.838  18.730  65.825  1.00  0.00    -0.215 C  
HETATM    6  C   UNL     1     -10.068  17.654  68.303  1.00  0.00    -0.362 A  
HETATM    7  C   UNL     1      -8.957  18.389  67.850  1.00  0.00    -0.283 A  
HETATM    8  C   UNL     1      -7.963  17.787  67.005  1.00  0.00    -0.238 A  
HETATM    9  C   UNL     1      -7.043  18.759  66.693  1.00  0.00    -0.213 A  
HETATM   10  N   UNL     1      -8.622  19.668  68.082  1.00  0.00    -0.320 NA 
HETATM   11  N   UNL     1      -7.491  19.869  67.370  1.00  0.00    -0.261 NA 
HETATM   12  C   UNL     1      -6.888  21.183  67.383  1.00  0.00    -0.339 C  
HETATM   13  C   UNL     1      -9.068  15.765  67.023  1.00  0.00    -0.240 A  
ENDBRANCH   2   3
BRANCH   2  14
HETATM   14  C   UNL     1     -11.579  14.298  67.454  1.00  0.00    -0.369 A  
HETATM   15  C   UNL     1     -11.945  12.000  67.492  1.00  0.00    -0.074 A  
HETATM   16  N   UNL     1     -12.139  11.924  66.172  1.00  0.00    -0.427 NA 
HETATM   17  C   UNL     1     -12.086  13.087  65.503  1.00  0.00    -0.452 A  
HETATM   18  C   UNL     1     -11.821  14.301  66.094  1.00  0.00    -0.413 A  
HETATM   19  N   UNL     1     -11.655  13.140  68.135  1.00  0.00    -0.317 NA 
BRANCH  15  20
HETATM   20  N   UNL     1     -12.020  10.809  68.211  1.00  0.00    -0.810 NA 
HETATM   21  H   UNL     1     -12.958  10.443  68.372  1.00  0.00     0.000 HD 
BRANCH  20  22
HETATM   22  C   UNL     1     -10.968  10.051  68.743  1.00  0.00    -0.202 A  
HETATM   23  C   UNL     1     -10.595  10.236  70.075  1.00  0.00    -0.321 A  
HETATM   24  C   UNL     1      -9.610   9.434  70.661  1.00  0.00    -0.331 A  
HETATM   25  C   UNL     1      -8.954   8.427  69.931  1.00  0.00    -0.142 A  
HETATM   26  C   UNL     1      -9.300   8.264  68.578  1.00  0.00    -0.138 A  
HETATM   27  C   UNL     1      -7.923   7.596  70.634  1.00  0.00    -0.099 C  
HETATM   28  C   UNL     1     -10.303   9.064  68.004  1.00  0.00    -0.275 A  
BRANCH  26  29
HETATM   29  S   UNL     1      -8.481   7.109  67.483  1.00  0.00    -0.122 S  
HETATM   30  O   UNL     1      -8.760   5.762  67.913  1.00  0.00    -0.105 OA 
HETATM   31  O   UNL     1      -7.127   7.569  67.263  1.00  0.00    -0.080 OA 
HETATM   32  N   UNL     1      -9.304   7.358  66.045  1.00  0.00    -0.388 N  
HETATM   33  H1  UNL     1      -8.837   6.700  65.421  1.00  0.00     0.000 HD 
HETATM   34  H2  UNL     1     -10.071   8.001  65.846  1.00  0.00     0.000 HD 
ENDBRANCH  26  29
ENDBRANCH  20  22
ENDBRANCH  15  20
ENDBRANCH   2  14
TORSDOF 5
ENDMDL
MODEL       74
REMARK 921   NORMALIZED FREE ENERGY PREDICTED BY IDOCK:   -6.97 KCAL/MOL
REMARK 922        TOTAL FREE ENERGY PREDICTED BY IDOCK:   -9.46 KCAL/MOL
REMARK 923 INTER-LIGAND FREE ENERGY PREDICTED BY IDOCK:   -9.33 KCAL/MOL
REMARK 924 INTRA-LIGAND FREE ENERGY PREDICTED BY IDOCK:   -0.14 KCAL/MOL
REMARK 927      BINDING AFFINITY PREDICTED BY RF-SCORE:    0.00 PKD
ROOT
HETATM    1  C   UNL     1      -8.081   7.911  66.017  1.00  0.00    -0.112 C  
HETATM    2  N   UNL     1      -9.078   8.980  65.952  1.00  0.00    -0.197 NA 
ENDROOT
BRANCH   2   3
HETATM    3  C   UNL     1      -9.724   9.339  67.172  1.00  0.00    -0.172 A  
HETATM    4  C   UNL     1     -10.725  11.259  68.508  1.00  0.00    -0.235 A  
HETATM    5  C   UNL     1     -12.416  11.609  71.163  1.00  0.00    -0.412 C  
HETATM    6  C   UNL     1     -10.084   8.358  68.133  1.00  0.00    -0.239 A  
HETATM    7  C   UNL     1     -10.782   8.848  69.252  1.00  0.00    -0.162 A  
HETATM    8  C   UNL     1     -11.077  10.248  69.388  1.00  0.00    -0.299 A  
HETATM    9  C   UNL     1     -11.803  10.407  70.544  1.00  0.00    -0.337 A  
HETATM   10  N   UNL     1     -11.271   8.190  70.316  1.00  0.00    -0.227 NA 
HETATM   11  N   UNL     1     -11.887   9.134  71.060  1.00  0.00    -0.287 NA 
HETATM   12  C   UNL     1     -12.556   8.730  72.276  1.00  0.00    -0.394 C  
HETATM   13  C   UNL     1     -10.029  10.736  67.395  1.00  0.00    -0.214 A  
ENDBRANCH   2   3
BRANCH   2  14
HETATM   14  C   UNL     1      -9.166   9.716  64.751  1.00  0.00    -0.238 A  
HETATM   15  C   UNL     1      -9.831  11.673  63.681  1.00  0.00    -0.345 A  
HETATM   16  N   UNL     1      -9.502  11.221  62.467  1.00  0.00    -0.240 NA 
HETATM   17  C   UNL     1      -8.955   9.996  62.425  1.00  0.00    -0.270 A  
HETATM   18  C   UNL     1      -8.755   9.206  63.534  1.00  0.00    -0.148 A  
HETATM   19  N   UNL     1      -9.693  10.953  64.804  1.00  0.00    -0.248 NA 
BRANCH  15  20
HETATM   20  N   UNL     1     -10.378  12.953  63.753  1.00  0.00    -0.600 NA 
HETATM   21  H   UNL     1     -10.562  13.410  62.860  1.00  0.00     0.000 HD 
BRANCH  20  22
HETATM   22  C   UNL     1     -10.706  13.691  64.898  1.00  0.00    -0.391 A  
HETATM   23  C   UNL     1     -11.820  13.322  65.654  1.00  0.00    -0.419 A  
HETATM   24  C   UNL     1     -12.124  13.981  66.850  1.00  0.00    -0.465 A  
HETATM   25  C   UNL     1     -11.331  15.041  67.325  1.00  0.00    -0.337 A  
HETATM   26  C   UNL     1     -10.231  15.441  66.545  1.00  0.00    -0.280 A  
HETATM   27  C   UNL     1     -11.710  15.686  68.625  1.00  0.00    -0.364 C  
HETATM   28  C   UNL     1      -9.926  14.761  65.354  1.00  0.00    -0.369 A  
BRANCH  26  29
HETATM   29  S   UNL     1      -9.195  16.842  66.949  1.00  0.00    -0.248 S  
HETATM   30  O   UNL     1      -8.277  17.087  65.865  1.00  0.00    -0.505 OA 
HETATM   31  O   UNL     1      -8.733  16.694  68.312  1.00  0.00    -0.202 OA 
HETATM   32  N   UNL     1     -10.305  18.097  66.960  1.00  0.00    -0.368 N  
HETATM   33  H1  UNL     1      -9.714  18.896  67.190  1.00  0.00     0.000 HD 
HETATM   34  H2  UNL     1     -11.309  18.069  66.783  1.00  0.00     0.000 HD 
ENDBRANCH  26  29
ENDBRANCH  20  22
ENDBRANCH  15  20
ENDBRANCH   2  14
TORSDOF 5
ENDMDL
MODEL       75
REMARK 921   NORMALIZED FREE ENERGY PREDICTED BY IDOCK:   -6.96 KCAL/MOL
REMARK 922        TOTAL FREE ENERGY PREDICTED BY IDOCK:   -9.46 KCAL/MOL
REMARK 923 INTER-LIGAND FREE ENERGY PREDICTED BY IDOCK:   -8.92 KCAL/MOL
REMARK 924 INTRA-LIGAND FREE ENERGY PREDICTED BY IDOCK:   -0.54 KCAL/MOL
REMARK 927      BINDING AFFINITY PREDICTED BY RF-SCORE:    0.00 PKD
ROOT
HETATM    1  C   UNL     1      -9.006   9.934  69.887  1.00  0.00    -0.202 C  
HETATM    2  N   UNL     1     -10.304  10.574  69.673  1.00  0.00    -0.222 NA 
ENDROOT
BRANCH   2   3
HETATM    3  C   UNL     1     -10.477  11.299  68.457  1.00  0.00    -0.197 A  
HETATM    4  C   UNL     1     -11.074  11.113  65.990  1.00  0.00    -0.117 A  
HETATM    5  C   UNL     1     -11.675  13.090  63.590  1.00  0.00    -0.550 C  
HETATM    6  C   UNL     1     -10.363  12.714  68.420  1.00  0.00    -0.241 A  
HETATM    7  C   UNL     1     -10.633  13.301  67.169  1.00  0.00    -0.258 A  
HETATM    8  C   UNL     1     -10.979  12.496  66.031  1.00  0.00    -0.318 A  
HETATM    9  C   UNL     1     -11.232  13.348  64.983  1.00  0.00    -0.317 A  
HETATM   10  N   UNL     1     -10.628  14.594  66.808  1.00  0.00    -0.284 NA 
HETATM   11  N   UNL     1     -11.004  14.598  65.510  1.00  0.00    -0.324 NA 
HETATM   12  C   UNL     1     -11.131  15.866  64.829  1.00  0.00    -0.384 C  
HETATM   13  C   UNL     1     -10.800  10.554  67.259  1.00  0.00    -0.338 A  
ENDBRANCH   2   3
BRANCH   2  14
HETATM   14  C   UNL     1     -11.347  10.246  70.566  1.00  0.00    -0.341 A  
HETATM   15  C   UNL     1     -12.490   8.595  71.743  1.00  0.00    -0.346 A  
HETATM   16  N   UNL     1     -13.405   9.446  72.214  1.00  0.00    -0.458 NA 
HETATM   17  C   UNL     1     -13.242  10.734  71.871  1.00  0.00    -0.419 A  
HETATM   18  C   UNL     1     -12.228  11.189  71.060  1.00  0.00    -0.438 A  
HETATM   19  N   UNL     1     -11.490   8.957  70.926  1.00  0.00    -0.282 NA 
BRANCH  15  20
HETATM   20  N   UNL     1     -12.625   7.256  72.107  1.00  0.00    -0.505 NA 
HETATM   21  H   UNL     1     -13.513   6.998  72.536  1.00  0.00     0.000 HD 
BRANCH  20  22
HETATM   22  C   UNL     1     -11.692   6.220  71.957  1.00  0.00    -0.322 A  
HETATM   23  C   UNL     1     -11.480   5.332  73.013  1.00  0.00    -0.340 A  
HETATM   24  C   UNL     1     -10.625   4.236  72.866  1.00  0.00    -0.255 A  
HETATM   25  C   UNL     1      -9.941   3.996  71.660  1.00  0.00    -0.232 A  
HETATM   26  C   UNL     1     -10.122   4.911  70.607  1.00  0.00    -0.236 A  
HETATM   27  C   UNL     1      -9.055   2.789  71.572  1.00  0.00    -0.169 C  
HETATM   28  C   UNL     1     -10.997   6.000  70.762  1.00  0.00    -0.364 A  
BRANCH  26  29
HETATM   29  S   UNL     1      -9.239   4.814  69.055  1.00  0.00    -0.134 S  
HETATM   30  O   UNL     1      -9.693   3.662  68.317  1.00  0.00    -0.133 OA 
HETATM   31  O   UNL     1      -7.833   5.043  69.311  1.00  0.00    -0.074 OA 
HETATM   32  N   UNL     1      -9.801   6.176  68.256  1.00  0.00    -0.121 N  
HETATM   33  H1  UNL     1      -9.297   6.121  67.370  1.00  0.00     0.000 HD 
HETATM   34  H2  UNL     1     -10.471   6.877  68.572  1.00  0.00     0.000 HD 
ENDBRANCH  26  29
ENDBRANCH  20  22
ENDBRANCH  15  20
ENDBRANCH   2  14
TORSDOF 5
ENDMDL
MODEL       76
REMARK 921   NORMALIZED FREE ENERGY PREDICTED BY IDOCK:   -6.95 KCAL/MOL
REMARK 922        TOTAL FREE ENERGY PREDICTED BY IDOCK:   -9.44 KCAL/MOL
REMARK 923 INTER-LIGAND FREE ENERGY PREDICTED BY IDOCK:   -9.52 KCAL/MOL
REMARK 924 INTRA-LIGAND FREE ENERGY PREDICTED BY IDOCK:    0.08 KCAL/MOL
REMARK 927      BINDING AFFINITY PREDICTED BY RF-SCORE:    0.00 PKD
ROOT
HETATM    1  C   UNL     1     -12.694  10.235  71.883  1.00  0.00    -0.379 C  
HETATM    2  N   UNL     1     -12.285  11.254  70.915  1.00  0.00    -0.371 NA 
ENDROOT
BRANCH   2   3
HETATM    3  C   UNL     1     -11.652  10.797  69.722  1.00  0.00    -0.317 A  
HETATM    4  C   UNL     1     -11.304  11.259  67.243  1.00  0.00    -0.329 A  
HETATM    5  C   UNL     1      -9.496  10.131  64.901  1.00  0.00    -0.349 C  
HETATM    6  C   UNL     1     -10.781   9.675  69.731  1.00  0.00    -0.269 A  
HETATM    7  C   UNL     1     -10.170   9.385  68.497  1.00  0.00    -0.199 A  
HETATM    8  C   UNL     1     -10.442  10.177  67.329  1.00  0.00    -0.313 A  
HETATM    9  C   UNL     1      -9.667   9.685  66.306  1.00  0.00    -0.240 A  
HETATM   10  N   UNL     1      -9.297   8.416  68.178  1.00  0.00    -0.134 NA 
HETATM   11  N   UNL     1      -9.000   8.626  66.876  1.00  0.00    -0.134 NA 
HETATM   12  C   UNL     1      -8.042   7.754  66.235  1.00  0.00    -0.114 C  
HETATM   13  C   UNL     1     -11.900  11.527  68.497  1.00  0.00    -0.365 A  
ENDBRANCH   2   3
BRANCH   2  14
HETATM   14  C   UNL     1     -12.737  12.574  71.128  1.00  0.00    -0.245 A  
HETATM   15  C   UNL     1     -12.848  14.769  70.362  1.00  0.00    -0.274 A  
HETATM   16  N   UNL     1     -13.462  15.211  71.463  1.00  0.00    -0.424 NA 
HETATM   17  C   UNL     1     -13.747  14.283  72.390  1.00  0.00    -0.516 A  
HETATM   18  C   UNL     1     -13.417  12.952  72.270  1.00  0.00    -0.631 A  
HETATM   19  N   UNL     1     -12.470  13.494  70.184  1.00  0.00    -0.257 NA 
BRANCH  15  20
HETATM   20  N   UNL     1     -12.565  15.710  69.374  1.00  0.00    -0.526 NA 
HETATM   21  H   UNL     1     -13.340  16.310  69.094  1.00  0.00     0.000 HD 
BRANCH  20  22
HETATM   22  C   UNL     1     -11.347  15.936  68.718  1.00  0.00    -0.378 A  
HETATM   23  C   UNL     1     -10.793  14.922  67.935  1.00  0.00    -0.276 A  
HETATM   24  C   UNL     1      -9.627  15.144  67.195  1.00  0.00    -0.224 A  
HETATM   25  C   UNL     1      -8.967  16.386  67.223  1.00  0.00    -0.208 A  
HETATM   26  C   UNL     1      -9.501  17.397  68.041  1.00  0.00    -0.281 A  
HETATM   27  C   UNL     1      -7.732  16.554  66.388  1.00  0.00    -0.294 C  
HETATM   28  C   UNL     1     -10.682  17.168  68.767  1.00  0.00    -0.289 A  
BRANCH  26  29
HETATM   29  S   UNL     1      -8.719  18.989  68.277  1.00  0.00    -0.341 S  
HETATM   30  O   UNL     1      -8.397  19.559  66.992  1.00  0.00    -0.270 OA 
HETATM   31  O   UNL     1      -7.725  18.862  69.320  1.00  0.00    -0.190 OA 
HETATM   32  N   UNL     1      -9.973  19.893  68.926  1.00  0.00    -0.385 N  
HETATM   33  H1  UNL     1      -9.527  20.801  69.060  1.00  0.00     0.000 HD 
HETATM   34  H2  UNL     1     -10.930  19.609  69.133  1.00  0.00     0.000 HD 
ENDBRANCH  26  29
ENDBRANCH  20  22
ENDBRANCH  15  20
ENDBRANCH   2  14
TORSDOF 5
ENDMDL
MODEL       77
REMARK 921   NORMALIZED FREE ENERGY PREDICTED BY IDOCK:   -6.95 KCAL/MOL
REMARK 922        TOTAL FREE ENERGY PREDICTED BY IDOCK:   -9.44 KCAL/MOL
REMARK 923 INTER-LIGAND FREE ENERGY PREDICTED BY IDOCK:   -8.44 KCAL/MOL
REMARK 924 INTRA-LIGAND FREE ENERGY PREDICTED BY IDOCK:   -1.00 KCAL/MOL
REMARK 927      BINDING AFFINITY PREDICTED BY RF-SCORE:    0.00 PKD
ROOT
HETATM    1  C   UNL     1      -9.558  10.396  63.489  1.00  0.00    -0.310 C  
HETATM    2  N   UNL     1     -10.112  10.789  64.786  1.00  0.00    -0.308 NA 
ENDROOT
BRANCH   2   3
HETATM    3  C   UNL     1      -9.677  10.052  65.927  1.00  0.00    -0.247 A  
HETATM    4  C   UNL     1      -7.658   9.387  67.327  1.00  0.00    -0.091 A  
HETATM    5  C   UNL     1      -7.125   7.928  70.087  1.00  0.00    -0.050 C  
HETATM    6  C   UNL     1     -10.604   9.402  66.783  1.00  0.00    -0.210 A  
HETATM    7  C   UNL     1     -10.037   8.779  67.911  1.00  0.00    -0.207 A  
HETATM    8  C   UNL     1      -8.619   8.803  68.138  1.00  0.00    -0.134 A  
HETATM    9  C   UNL     1      -8.380   8.162  69.330  1.00  0.00    -0.123 A  
HETATM   10  N   UNL     1     -10.631   8.102  68.907  1.00  0.00    -0.184 NA 
HETATM   11  N   UNL     1      -9.628   7.761  69.746  1.00  0.00    -0.167 NA 
HETATM   12  C   UNL     1      -9.953   7.042  70.957  1.00  0.00    -0.188 C  
HETATM   13  C   UNL     1      -8.257  10.007  66.206  1.00  0.00    -0.124 A  
ENDBRANCH   2   3
BRANCH   2  14
HETATM   14  C   UNL     1     -10.853  11.989  64.841  1.00  0.00    -0.301 A  
HETATM   15  C   UNL     1     -11.451  13.884  66.053  1.00  0.00    -0.340 A  
HETATM   16  N   UNL     1     -12.326  14.300  65.132  1.00  0.00    -0.428 NA 
HETATM   17  C   UNL     1     -12.419  13.544  64.027  1.00  0.00    -0.229 A  
HETATM   18  C   UNL     1     -11.701  12.387  63.825  1.00  0.00    -0.566 A  
HETATM   19  N   UNL     1     -10.737  12.755  65.941  1.00  0.00    -0.267 NA 
BRANCH  15  20
HETATM   20  N   UNL     1     -11.319  14.666  67.198  1.00  0.00    -0.345 NA 
HETATM   21  H   UNL     1     -10.850  15.564  67.074  1.00  0.00     0.000 HD 
BRANCH  20  22
HETATM   22  C   UNL     1     -11.749  14.375  68.500  1.00  0.00    -0.335 A  
HETATM   23  C   UNL     1     -12.102  15.421  69.355  1.00  0.00    -0.308 A  
HETATM   24  C   UNL     1     -12.620  15.162  70.628  1.00  0.00    -0.450 A  
HETATM   25  C   UNL     1     -12.790  13.846  71.096  1.00  0.00    -0.423 A  
HETATM   26  C   UNL     1     -12.398  12.792  70.253  1.00  0.00    -0.204 A  
HETATM   27  C   UNL     1     -13.368  13.648  72.466  1.00  0.00    -0.638 C  
HETATM   28  C   UNL     1     -11.895  13.064  68.969  1.00  0.00    -0.362 A  
BRANCH  26  29
HETATM   29  S   UNL     1     -12.441  11.071  70.742  1.00  0.00    -0.400 S  
HETATM   30  O   UNL     1     -13.222  10.322  69.789  1.00  0.00     0.108 OA 
HETATM   31  O   UNL     1     -12.712  11.004  72.161  1.00  0.00    -0.213 OA 
HETATM   32  N   UNL     1     -10.839  10.619  70.545  1.00  0.00    -0.394 N  
HETATM   33  H1  UNL     1     -10.864   9.638  70.824  1.00  0.00     0.000 HD 
HETATM   34  H2  UNL     1     -10.047  11.179  70.230  1.00  0.00     0.000 HD 
ENDBRANCH  26  29
ENDBRANCH  20  22
ENDBRANCH  15  20
ENDBRANCH   2  14
TORSDOF 5
ENDMDL
MODEL       78
REMARK 921   NORMALIZED FREE ENERGY PREDICTED BY IDOCK:   -6.93 KCAL/MOL
REMARK 922        TOTAL FREE ENERGY PREDICTED BY IDOCK:   -9.42 KCAL/MOL
REMARK 923 INTER-LIGAND FREE ENERGY PREDICTED BY IDOCK:   -9.12 KCAL/MOL
REMARK 924 INTRA-LIGAND FREE ENERGY PREDICTED BY IDOCK:   -0.30 KCAL/MOL
REMARK 927      BINDING AFFINITY PREDICTED BY RF-SCORE:    0.00 PKD
ROOT
HETATM    1  C   UNL     1     -10.563  14.927  65.246  1.00  0.00    -0.401 C  
HETATM    2  N   UNL     1     -10.602  13.651  65.962  1.00  0.00    -0.285 NA 
ENDROOT
BRANCH   2   3
HETATM    3  C   UNL     1     -11.159  13.661  67.275  1.00  0.00    -0.293 A  
HETATM    4  C   UNL     1     -12.108  12.217  69.143  1.00  0.00    -0.214 A  
HETATM    5  C   UNL     1     -12.991  12.606  72.160  1.00  0.00    -0.333 C  
HETATM    6  C   UNL     1     -11.258  14.863  68.025  1.00  0.00    -0.318 A  
HETATM    7  C   UNL     1     -11.757  14.709  69.332  1.00  0.00    -0.316 A  
HETATM    8  C   UNL     1     -12.146  13.420  69.832  1.00  0.00    -0.389 A  
HETATM    9  C   UNL     1     -12.539  13.584  71.138  1.00  0.00    -0.355 A  
HETATM   10  N   UNL     1     -11.957  15.630  70.288  1.00  0.00    -0.360 NA 
HETATM   11  N   UNL     1     -12.405  14.935  71.357  1.00  0.00    -0.313 NA 
HETATM   12  C   UNL     1     -12.682  15.651  72.582  1.00  0.00    -0.437 C  
HETATM   13  C   UNL     1     -11.600  12.403  67.837  1.00  0.00    -0.415 A  
ENDBRANCH   2   3
BRANCH   2  14
HETATM   14  C   UNL     1     -10.296  12.484  65.230  1.00  0.00    -0.287 A  
HETATM   15  C   UNL     1      -9.445  10.317  65.237  1.00  0.00    -0.240 A  
HETATM   16  N   UNL     1      -9.547  10.183  63.912  1.00  0.00    -0.284 NA 
HETATM   17  C   UNL     1     -10.078  11.225  63.254  1.00  0.00    -0.386 A  
HETATM   18  C   UNL     1     -10.478  12.393  63.863  1.00  0.00    -0.469 A  
HETATM   19  N   UNL     1      -9.786  11.433  65.898  1.00  0.00    -0.217 NA 
BRANCH  15  20
HETATM   20  N   UNL     1      -8.919   9.238  65.944  1.00  0.00    -0.171 NA 
HETATM   21  H   UNL     1      -7.997   8.917  65.648  1.00  0.00     0.000 HD 
BRANCH  20  22
HETATM   22  C   UNL     1      -9.498   8.537  67.011  1.00  0.00    -0.173 A  
HETATM   23  C   UNL     1     -10.438   7.539  66.745  1.00  0.00    -0.319 A  
HETATM   24  C   UNL     1     -10.968   6.760  67.778  1.00  0.00    -0.321 A  
HETATM   25  C   UNL     1     -10.585   6.961  69.117  1.00  0.00    -0.245 A  
HETATM   26  C   UNL     1      -9.668   7.991  69.393  1.00  0.00    -0.170 A  
HETATM   27  C   UNL     1     -11.183   6.074  70.168  1.00  0.00    -0.412 C  
HETATM   28  C   UNL     1      -9.130   8.756  68.344  1.00  0.00    -0.141 A  
BRANCH  26  29
HETATM   29  S   UNL     1      -9.169   8.449  71.049  1.00  0.00    -0.183 S  
HETATM   30  O   UNL     1     -10.339   8.752  71.834  1.00  0.00    -0.299 OA 
HETATM   31  O   UNL     1      -8.060   9.374  70.954  1.00  0.00    -0.256 OA 
HETATM   32  N   UNL     1      -8.536   7.009  71.626  1.00  0.00    -0.115 N  
HETATM   33  H1  UNL     1      -8.251   7.270  72.570  1.00  0.00     0.000 HD 
HETATM   34  H2  UNL     1      -8.455   6.107  71.156  1.00  0.00     0.000 HD 
ENDBRANCH  26  29
ENDBRANCH  20  22
ENDBRANCH  15  20
ENDBRANCH   2  14
TORSDOF 5
ENDMDL
MODEL       79
REMARK 921   NORMALIZED FREE ENERGY PREDICTED BY IDOCK:   -6.89 KCAL/MOL
REMARK 922        TOTAL FREE ENERGY PREDICTED BY IDOCK:   -9.37 KCAL/MOL
REMARK 923 INTER-LIGAND FREE ENERGY PREDICTED BY IDOCK:   -8.68 KCAL/MOL
REMARK 924 INTRA-LIGAND FREE ENERGY PREDICTED BY IDOCK:   -0.69 KCAL/MOL
REMARK 927      BINDING AFFINITY PREDICTED BY RF-SCORE:    0.00 PKD
ROOT
HETATM    1  C   UNL     1     -13.122  10.541  71.966  1.00  0.00    -0.406 C  
HETATM    2  N   UNL     1     -12.031   9.865  71.263  1.00  0.00    -0.374 NA 
ENDROOT
BRANCH   2   3
HETATM    3  C   UNL     1     -11.564   8.638  71.818  1.00  0.00    -0.332 A  
HETATM    4  C   UNL     1     -12.137   6.195  72.244  1.00  0.00    -0.237 A  
HETATM    5  C   UNL     1     -10.638   3.603  73.276  1.00  0.00    -0.276 C  
HETATM    6  C   UNL     1     -10.252   8.520  72.348  1.00  0.00    -0.369 A  
HETATM    7  C   UNL     1      -9.902   7.231  72.793  1.00  0.00    -0.177 A  
HETATM    8  C   UNL     1     -10.835   6.141  72.716  1.00  0.00    -0.282 A  
HETATM    9  C   UNL     1     -10.192   5.015  73.172  1.00  0.00    -0.179 A  
HETATM   10  N   UNL     1      -8.751   6.789  73.324  1.00  0.00    -0.122 NA 
HETATM   11  N   UNL     1      -8.942   5.467  73.525  1.00  0.00    -0.125 NA 
HETATM   12  C   UNL     1      -7.853   4.683  74.063  1.00  0.00    -0.100 C  
HETATM   13  C   UNL     1     -12.458   7.499  71.803  1.00  0.00    -0.360 A  
ENDBRANCH   2   3
BRANCH   2  14
HETATM   14  C   UNL     1     -11.678  10.354  69.986  1.00  0.00    -0.286 A  
HETATM   15  C   UNL     1     -11.882  12.039  68.394  1.00  0.00    -0.300 A  
HETATM   16  N   UNL     1     -11.163  11.380  67.481  1.00  0.00    -0.279 NA 
HETATM   17  C   UNL     1     -10.665  10.195  67.870  1.00  0.00    -0.269 A  
HETATM   18  C   UNL     1     -10.883   9.641  69.110  1.00  0.00    -0.212 A  
HETATM   19  N   UNL     1     -12.161  11.553  69.613  1.00  0.00    -0.310 NA 
BRANCH  15  20
HETATM   20  N   UNL     1     -12.389  13.283  68.022  1.00  0.00    -0.088 NA 
HETATM   21  H   UNL     1     -13.302  13.275  67.568  1.00  0.00     0.000 HD 
BRANCH  20  22
HETATM   22  C   UNL     1     -11.801  14.544  68.193  1.00  0.00    -0.313 A  
HETATM   23  C   UNL     1     -11.650  15.060  69.481  1.00  0.00    -0.337 A  
HETATM   24  C   UNL     1     -10.987  16.273  69.694  1.00  0.00    -0.346 A  
HETATM   25  C   UNL     1     -10.464  17.020  68.623  1.00  0.00    -0.363 A  
HETATM   26  C   UNL     1     -10.649  16.522  67.321  1.00  0.00    -0.285 A  
HETATM   27  C   UNL     1      -9.750  18.302  68.931  1.00  0.00    -0.302 C  
HETATM   28  C   UNL     1     -11.302  15.294  67.121  1.00  0.00    -0.247 A  
BRANCH  26  29
HETATM   29  S   UNL     1     -10.147  17.405  65.848  1.00  0.00    -0.140 S  
HETATM   30  O   UNL     1      -8.730  17.236  65.648  1.00  0.00    -0.473 OA 
HETATM   31  O   UNL     1     -10.758  18.717  65.869  1.00  0.00    -0.420 OA 
HETATM   32  N   UNL     1     -10.931  16.539  64.646  1.00  0.00    -0.369 N  
HETATM   33  H1  UNL     1     -10.645  17.042  63.806  1.00  0.00     0.000 HD 
HETATM   34  H2  UNL     1     -11.536  15.722  64.732  1.00  0.00     0.000 HD 
ENDBRANCH  26  29
ENDBRANCH  20  22
ENDBRANCH  15  20
ENDBRANCH   2  14
TORSDOF 5
ENDMDL
MODEL       80
REMARK 921   NORMALIZED FREE ENERGY PREDICTED BY IDOCK:   -6.89 KCAL/MOL
REMARK 922        TOTAL FREE ENERGY PREDICTED BY IDOCK:   -9.36 KCAL/MOL
REMARK 923 INTER-LIGAND FREE ENERGY PREDICTED BY IDOCK:   -8.74 KCAL/MOL
REMARK 924 INTRA-LIGAND FREE ENERGY PREDICTED BY IDOCK:   -0.62 KCAL/MOL
REMARK 927      BINDING AFFINITY PREDICTED BY RF-SCORE:    0.00 PKD
ROOT
HETATM    1  C   UNL     1     -10.864  11.859  63.821  1.00  0.00    -0.418 C  
HETATM    2  N   UNL     1     -10.159  11.878  65.103  1.00  0.00    -0.256 NA 
ENDROOT
BRANCH   2   3
HETATM    3  C   UNL     1     -10.375  13.008  65.945  1.00  0.00    -0.288 A  
HETATM    4  C   UNL     1     -10.844  13.767  68.329  1.00  0.00    -0.266 A  
HETATM    5  C   UNL     1     -10.951  16.506  69.916  1.00  0.00    -0.273 C  
HETATM    6  C   UNL     1     -10.276  14.333  65.443  1.00  0.00    -0.395 A  
HETATM    7  C   UNL     1     -10.438  15.348  66.403  1.00  0.00    -0.303 A  
HETATM    8  C   UNL     1     -10.701  15.033  67.780  1.00  0.00    -0.278 A  
HETATM    9  C   UNL     1     -10.759  16.218  68.472  1.00  0.00    -0.307 A  
HETATM   10  N   UNL     1     -10.389  16.682  66.260  1.00  0.00    -0.321 NA 
HETATM   11  N   UNL     1     -10.564  17.176  67.505  1.00  0.00    -0.344 NA 
HETATM   12  C   UNL     1     -10.526  18.609  67.694  1.00  0.00    -0.423 C  
HETATM   13  C   UNL     1     -10.673  12.770  67.342  1.00  0.00    -0.248 A  
ENDBRANCH   2   3
BRANCH   2  14
HETATM   14  C   UNL     1      -9.503  10.693  65.502  1.00  0.00    -0.214 A  
HETATM   15  C   UNL     1      -9.678   8.526  66.332  1.00  0.00    -0.258 A  
HETATM   16  N   UNL     1      -8.355   8.361  66.415  1.00  0.00    -0.112 NA 
HETATM   17  C   UNL     1      -7.606   9.390  65.987  1.00  0.00    -0.099 A  
HETATM   18  C   UNL     1      -8.127  10.572  65.513  1.00  0.00    -0.155 A  
HETATM   19  N   UNL     1     -10.260   9.657  65.907  1.00  0.00    -0.221 NA 
BRANCH  15  20
HETATM   20  N   UNL     1     -10.475   7.461  66.747  1.00  0.00    -0.477 NA 
HETATM   21  H   UNL     1     -11.074   7.046  66.033  1.00  0.00     0.000 HD 
BRANCH  20  22
HETATM   22  C   UNL     1     -10.559   6.889  68.024  1.00  0.00    -0.222 A  
HETATM   23  C   UNL     1     -10.171   5.560  68.206  1.00  0.00    -0.237 A  
HETATM   24  C   UNL     1     -10.156   4.985  69.480  1.00  0.00    -0.301 A  
HETATM   25  C   UNL     1     -10.542   5.717  70.618  1.00  0.00    -0.346 A  
HETATM   26  C   UNL     1     -10.970   7.044  70.434  1.00  0.00    -0.268 A  
HETATM   27  C   UNL     1     -10.483   5.038  71.954  1.00  0.00    -0.255 C  
HETATM   28  C   UNL     1     -10.965   7.615  69.150  1.00  0.00     0.002 A  
BRANCH  26  29
HETATM   29  S   UNL     1     -11.601   8.069  71.758  1.00  0.00    -0.305 S  
HETATM   30  O   UNL     1     -12.093   9.308  71.211  1.00  0.00    -0.303 OA 
HETATM   31  O   UNL     1     -10.650   8.046  72.848  1.00  0.00    -0.339 OA 
HETATM   32  N   UNL     1     -12.929   7.185  72.272  1.00  0.00    -0.515 N  
HETATM   33  H1  UNL     1     -13.289   7.769  73.027  1.00  0.00     0.000 HD 
HETATM   34  H2  UNL     1     -13.285   6.295  71.922  1.00  0.00     0.000 HD 
ENDBRANCH  26  29
ENDBRANCH  20  22
ENDBRANCH  15  20
ENDBRANCH   2  14
TORSDOF 5
ENDMDL
MODEL       81
REMARK 921   NORMALIZED FREE ENERGY PREDICTED BY IDOCK:   -6.88 KCAL/MOL
REMARK 922        TOTAL FREE ENERGY PREDICTED BY IDOCK:   -9.36 KCAL/MOL
REMARK 923 INTER-LIGAND FREE ENERGY PREDICTED BY IDOCK:   -8.24 KCAL/MOL
REMARK 924 INTRA-LIGAND FREE ENERGY PREDICTED BY IDOCK:   -1.12 KCAL/MOL
REMARK 927      BINDING AFFINITY PREDICTED BY RF-SCORE:    0.00 PKD
ROOT
HETATM    1  C   UNL     1     -13.096  13.082  71.833  1.00  0.00    -0.384 C  
HETATM    2  N   UNL     1     -12.643  12.079  70.869  1.00  0.00    -0.311 NA 
ENDROOT
BRANCH   2   3
HETATM    3  C   UNL     1     -12.250  12.548  69.581  1.00  0.00    -0.103 A  
HETATM    4  C   UNL     1     -11.612  14.602  68.221  1.00  0.00    -0.353 A  
HETATM    5  C   UNL     1     -10.453  15.210  65.337  1.00  0.00    -0.416 C  
HETATM    6  C   UNL     1     -12.018  11.648  68.508  1.00  0.00    -0.284 A  
HETATM    7  C   UNL     1     -11.562  12.245  67.318  1.00  0.00    -0.357 A  
HETATM    8  C   UNL     1     -11.373  13.666  67.226  1.00  0.00    -0.346 A  
HETATM    9  C   UNL     1     -10.879  13.937  65.972  1.00  0.00    -0.290 A  
HETATM   10  N   UNL     1     -11.241  11.682  66.142  1.00  0.00    -0.289 NA 
HETATM   11  N   UNL     1     -10.822  12.704  65.365  1.00  0.00    -0.280 NA 
HETATM   12  C   UNL     1     -10.365  12.414  64.025  1.00  0.00    -0.409 C  
HETATM   13  C   UNL     1     -12.066  13.972  69.402  1.00  0.00    -0.386 A  
ENDBRANCH   2   3
BRANCH   2  14
HETATM   14  C   UNL     1     -12.421  10.769  71.348  1.00  0.00    -0.373 A  
HETATM   15  C   UNL     1     -10.975   8.955  71.532  1.00  0.00    -0.328 A  
HETATM   16  N   UNL     1     -11.887   8.181  72.128  1.00  0.00    -0.336 NA 
HETATM   17  C   UNL     1     -13.077   8.753  72.366  1.00  0.00    -0.391 A  
HETATM   18  C   UNL     1     -13.394  10.043  72.008  1.00  0.00    -0.513 A  
HETATM   19  N   UNL     1     -11.217  10.211  71.128  1.00  0.00    -0.272 NA 
BRANCH  15  20
HETATM   20  N   UNL     1      -9.723   8.390  71.297  1.00  0.00    -0.176 NA 
HETATM   21  H   UNL     1      -9.409   7.701  71.979  1.00  0.00     0.000 HD 
BRANCH  20  22
HETATM   22  C   UNL     1      -8.840   8.652  70.240  1.00  0.00    -0.152 A  
HETATM   23  C   UNL     1      -7.639   9.315  70.499  1.00  0.00    -0.147 A  
HETATM   24  C   UNL     1      -6.696   9.512  69.485  1.00  0.00    -0.049 A  
HETATM   25  C   UNL     1      -6.928   9.063  68.172  1.00  0.00    -0.077 A  
HETATM   26  C   UNL     1      -8.153   8.430  67.899  1.00  0.00    -0.123 A  
HETATM   27  C   UNL     1      -5.862   9.295  67.143  1.00  0.00    -0.045 C  
HETATM   28  C   UNL     1      -9.086   8.223  68.930  1.00  0.00    -0.147 A  
BRANCH  26  29
HETATM   29  S   UNL     1      -8.648   7.906  66.261  1.00  0.00    -0.156 S  
HETATM   30  O   UNL     1      -7.804   6.820  65.831  1.00  0.00    -0.093 OA 
HETATM   31  O   UNL     1      -8.845   9.083  65.443  1.00  0.00    -0.178 OA 
HETATM   32  N   UNL     1     -10.173   7.273  66.551  1.00  0.00    -0.472 N  
HETATM   33  H1  UNL     1     -10.455   6.975  65.618  1.00  0.00     0.000 HD 
HETATM   34  H2  UNL     1     -10.685   7.205  67.431  1.00  0.00     0.000 HD 
ENDBRANCH  26  29
ENDBRANCH  20  22
ENDBRANCH  15  20
ENDBRANCH   2  14
TORSDOF 5
ENDMDL
MODEL       82
REMARK 921   NORMALIZED FREE ENERGY PREDICTED BY IDOCK:   -6.88 KCAL/MOL
REMARK 922        TOTAL FREE ENERGY PREDICTED BY IDOCK:   -9.36 KCAL/MOL
REMARK 923 INTER-LIGAND FREE ENERGY PREDICTED BY IDOCK:   -8.66 KCAL/MOL
REMARK 924 INTRA-LIGAND FREE ENERGY PREDICTED BY IDOCK:   -0.70 KCAL/MOL
REMARK 927      BINDING AFFINITY PREDICTED BY RF-SCORE:    0.00 PKD
ROOT
HETATM    1  C   UNL     1      -7.934  10.104  68.947  1.00  0.00    -0.110 C  
HETATM    2  N   UNL     1      -9.217   9.413  68.809  1.00  0.00    -0.131 NA 
ENDROOT
BRANCH   2   3
HETATM    3  C   UNL     1      -9.223   8.201  68.058  1.00  0.00    -0.132 A  
HETATM    4  C   UNL     1     -10.690   6.516  66.838  1.00  0.00    -0.403 A  
HETATM    5  C   UNL     1     -10.272   4.009  64.949  1.00  0.00    -0.211 C  
HETATM    6  C   UNL     1      -8.014   7.548  67.700  1.00  0.00    -0.117 A  
HETATM    7  C   UNL     1      -8.170   6.405  66.895  1.00  0.00    -0.110 A  
HETATM    8  C   UNL     1      -9.472   5.949  66.497  1.00  0.00    -0.171 A  
HETATM    9  C   UNL     1      -9.297   4.854  65.684  1.00  0.00    -0.161 A  
HETATM   10  N   UNL     1      -7.240   5.583  66.381  1.00  0.00    -0.076 NA 
HETATM   11  N   UNL     1      -7.933   4.681  65.652  1.00  0.00    -0.094 NA 
HETATM   12  C   UNL     1      -7.202   3.664  64.931  1.00  0.00    -0.067 C  
HETATM   13  C   UNL     1     -10.501   7.663  67.644  1.00  0.00    -0.313 A  
ENDBRANCH   2   3
BRANCH   2  14
HETATM   14  C   UNL     1     -10.292   9.871  69.602  1.00  0.00    -0.241 A  
HETATM   15  C   UNL     1     -11.859  11.539  70.026  1.00  0.00    -0.355 A  
HETATM   16  N   UNL     1     -12.322  10.940  71.127  1.00  0.00    -0.374 NA 
HETATM   17  C   UNL     1     -11.767   9.756  71.430  1.00  0.00    -0.398 A  
HETATM   18  C   UNL     1     -10.758   9.172  70.698  1.00  0.00    -0.313 A  
HETATM   19  N   UNL     1     -10.860  11.047  69.278  1.00  0.00    -0.230 NA 
BRANCH  15  20
HETATM   20  N   UNL     1     -12.438  12.757  69.677  1.00  0.00     0.039 NA 
HETATM   21  H   UNL     1     -13.282  13.013  70.190  1.00  0.00     0.000 HD 
BRANCH  20  22
HETATM   22  C   UNL     1     -12.007  13.676  68.710  1.00  0.00    -0.359 A  
HETATM   23  C   UNL     1     -11.419  14.874  69.118  1.00  0.00    -0.324 A  
HETATM   24  C   UNL     1     -10.897  15.772  68.181  1.00  0.00    -0.307 A  
HETATM   25  C   UNL     1     -10.957  15.507  66.800  1.00  0.00    -0.257 A  
HETATM   26  C   UNL     1     -11.584  14.319  66.384  1.00  0.00    -0.372 A  
HETATM   27  C   UNL     1     -10.360  16.508  65.857  1.00  0.00    -0.365 C  
HETATM   28  C   UNL     1     -12.090  13.417  67.336  1.00  0.00    -0.338 A  
BRANCH  26  29
HETATM   29  S   UNL     1     -11.844  13.891  64.667  1.00  0.00    -0.430 S  
HETATM   30  O   UNL     1     -10.615  13.387  64.107  1.00  0.00    -0.394 OA 
HETATM   31  O   UNL     1     -12.581  14.963  64.033  1.00  0.00    -0.832 OA 
HETATM   32  N   UNL     1     -12.905  12.599  64.793  1.00  0.00    -0.713 N  
HETATM   33  H1  UNL     1     -13.053  12.355  63.813  1.00  0.00     0.000 HD 
HETATM   34  H2  UNL     1     -13.299  12.170  65.630  1.00  0.00     0.000 HD 
ENDBRANCH  26  29
ENDBRANCH  20  22
ENDBRANCH  15  20
ENDBRANCH   2  14
TORSDOF 5
ENDMDL
MODEL       83
REMARK 921   NORMALIZED FREE ENERGY PREDICTED BY IDOCK:   -6.86 KCAL/MOL
REMARK 922        TOTAL FREE ENERGY PREDICTED BY IDOCK:   -9.33 KCAL/MOL
REMARK 923 INTER-LIGAND FREE ENERGY PREDICTED BY IDOCK:   -8.03 KCAL/MOL
REMARK 924 INTRA-LIGAND FREE ENERGY PREDICTED BY IDOCK:   -1.30 KCAL/MOL
REMARK 927      BINDING AFFINITY PREDICTED BY RF-SCORE:    0.00 PKD
ROOT
HETATM    1  C   UNL     1      -7.655   6.016  70.358  1.00  0.00    -0.095 C  
HETATM    2  N   UNL     1      -8.681   6.409  69.390  1.00  0.00    -0.129 NA 
ENDROOT
BRANCH   2   3
HETATM    3  C   UNL     1      -9.825   7.090  69.899  1.00  0.00    -0.170 A  
HETATM    4  C   UNL     1     -12.122   6.797  70.956  1.00  0.00    -0.426 A  
HETATM    5  C   UNL     1     -14.322   8.648  72.284  1.00  0.00    -0.486 C  
HETATM    6  C   UNL     1      -9.865   8.507  69.980  1.00  0.00    -0.181 A  
HETATM    7  C   UNL     1     -11.026   9.038  70.573  1.00  0.00    -0.252 A  
HETATM    8  C   UNL     1     -12.082   8.180  71.035  1.00  0.00    -0.223 A  
HETATM    9  C   UNL     1     -13.044   8.979  71.604  1.00  0.00    -0.365 A  
HETATM   10  N   UNL     1     -11.362  10.316  70.809  1.00  0.00    -0.345 NA 
HETATM   11  N   UNL     1     -12.557  10.255  71.438  1.00  0.00    -0.396 NA 
HETATM   12  C   UNL     1     -13.179  11.487  71.864  1.00  0.00    -0.374 C  
HETATM   13  C   UNL     1     -10.943   6.294  70.359  1.00  0.00    -0.385 A  
ENDBRANCH   2   3
BRANCH   2  14
HETATM   14  C   UNL     1      -8.364   6.284  68.020  1.00  0.00    -0.114 A  
HETATM   15  C   UNL     1      -7.837   7.341  66.014  1.00  0.00    -0.106 A  
HETATM   16  N   UNL     1      -7.843   6.202  65.316  1.00  0.00    -0.099 NA 
HETATM   17  C   UNL     1      -8.080   5.083  66.018  1.00  0.00    -0.108 A  
HETATM   18  C   UNL     1      -8.336   5.066  67.370  1.00  0.00    -0.106 A  
HETATM   19  N   UNL     1      -8.104   7.408  67.326  1.00  0.00    -0.111 NA 
BRANCH  15  20
HETATM   20  N   UNL     1      -7.569   8.513  65.310  1.00  0.00    -0.086 NA 
HETATM   21  H   UNL     1      -6.592   8.673  65.065  1.00  0.00     0.000 HD 
BRANCH  20  22
HETATM   22  C   UNL     1      -8.474   9.500  64.896  1.00  0.00    -0.158 A  
HETATM   23  C   UNL     1      -8.761   9.639  63.537  1.00  0.00    -0.236 A  
HETATM   24  C   UNL     1      -9.725  10.552  63.097  1.00  0.00    -0.351 A  
HETATM   25  C   UNL     1     -10.427  11.368  64.003  1.00  0.00    -0.435 A  
HETATM   26  C   UNL     1     -10.112  11.259  65.369  1.00  0.00    -0.264 A  
HETATM   27  C   UNL     1     -11.459  12.310  63.458  1.00  0.00    -0.558 C  
HETATM   28  C   UNL     1      -9.153  10.326  65.799  1.00  0.00    -0.202 A  
BRANCH  26  29
HETATM   29  S   UNL     1     -10.829  12.304  66.632  1.00  0.00    -0.270 S  
HETATM   30  O   UNL     1     -12.243  12.042  66.724  1.00  0.00    -0.545 OA 
HETATM   31  O   UNL     1     -10.316  13.646  66.462  1.00  0.00    -0.273 OA 
HETATM   32  N   UNL     1     -10.115  11.698  68.022  1.00  0.00    -0.184 N  
HETATM   33  H1  UNL     1     -10.523  12.294  68.742  1.00  0.00     0.000 HD 
HETATM   34  H2  UNL     1      -9.446  10.934  68.122  1.00  0.00     0.000 HD 
ENDBRANCH  26  29
ENDBRANCH  20  22
ENDBRANCH  15  20
ENDBRANCH   2  14
TORSDOF 5
ENDMDL
MODEL       84
REMARK 921   NORMALIZED FREE ENERGY PREDICTED BY IDOCK:   -6.85 KCAL/MOL
REMARK 922        TOTAL FREE ENERGY PREDICTED BY IDOCK:   -9.31 KCAL/MOL
REMARK 923 INTER-LIGAND FREE ENERGY PREDICTED BY IDOCK:   -8.68 KCAL/MOL
REMARK 924 INTRA-LIGAND FREE ENERGY PREDICTED BY IDOCK:   -0.63 KCAL/MOL
REMARK 927      BINDING AFFINITY PREDICTED BY RF-SCORE:    0.00 PKD
ROOT
HETATM    1  C   UNL     1      -9.825  14.176  67.939  1.00  0.00    -0.224 C  
HETATM    2  N   UNL     1     -10.547  12.981  67.501  1.00  0.00    -0.229 NA 
ENDROOT
BRANCH   2   3
HETATM    3  C   UNL     1     -10.948  12.059  68.512  1.00  0.00    -0.240 A  
HETATM    4  C   UNL     1     -12.409  11.735  70.570  1.00  0.00    -0.387 A  
HETATM    5  C   UNL     1     -13.296   9.334  72.435  1.00  0.00    -0.521 C  
HETATM    6  C   UNL     1     -10.497  10.712  68.504  1.00  0.00    -0.212 A  
HETATM    7  C   UNL     1     -11.034   9.898  69.518  1.00  0.00    -0.242 A  
HETATM    8  C   UNL     1     -11.956  10.427  70.485  1.00  0.00    -0.427 A  
HETATM    9  C   UNL     1     -12.337   9.391  71.303  1.00  0.00    -0.341 A  
HETATM   10  N   UNL     1     -10.827   8.597  69.775  1.00  0.00    -0.217 NA 
HETATM   11  N   UNL     1     -11.625   8.315  70.828  1.00  0.00    -0.268 NA 
HETATM   12  C   UNL     1     -11.656   6.960  71.331  1.00  0.00    -0.299 C  
HETATM   13  C   UNL     1     -11.855  12.526  69.538  1.00  0.00    -0.375 A  
ENDBRANCH   2   3
BRANCH   2  14
HETATM   14  C   UNL     1     -10.979  12.937  66.158  1.00  0.00    -0.281 A  
HETATM   15  C   UNL     1     -10.515  12.352  63.954  1.00  0.00    -0.439 A  
HETATM   16  N   UNL     1     -11.646  12.885  63.485  1.00  0.00    -0.491 NA 
HETATM   17  C   UNL     1     -12.469  13.417  64.402  1.00  0.00    -0.277 A  
HETATM   18  C   UNL     1     -12.191  13.461  65.749  1.00  0.00    -0.507 A  
HETATM   19  N   UNL     1     -10.160  12.380  65.247  1.00  0.00    -0.277 NA 
BRANCH  15  20
HETATM   20  N   UNL     1      -9.656  11.771  63.022  1.00  0.00    -0.584 NA 
HETATM   21  H   UNL     1      -9.638  12.205  62.100  1.00  0.00     0.000 HD 
BRANCH  20  22
HETATM   22  C   UNL     1      -8.813  10.664  63.194  1.00  0.00    -0.216 A  
HETATM   23  C   UNL     1      -7.717  10.500  62.346  1.00  0.00    -0.189 A  
HETATM   24  C   UNL     1      -6.806   9.458  62.545  1.00  0.00    -0.094 A  
HETATM   25  C   UNL     1      -6.968   8.534  63.594  1.00  0.00    -0.088 A  
HETATM   26  C   UNL     1      -8.093   8.673  64.426  1.00  0.00    -0.156 A  
HETATM   27  C   UNL     1      -5.940   7.454  63.755  1.00  0.00    -0.048 C  
HETATM   28  C   UNL     1      -8.992   9.734  64.225  1.00  0.00    -0.276 A  
BRANCH  26  29
HETATM   29  S   UNL     1      -8.505   7.516  65.727  1.00  0.00    -0.132 S  
HETATM   30  O   UNL     1      -9.756   7.901  66.331  1.00  0.00    -0.213 OA 
HETATM   31  O   UNL     1      -7.320   7.281  66.524  1.00  0.00    -0.077 OA 
HETATM   32  N   UNL     1      -8.778   6.108  64.860  1.00  0.00    -0.357 N  
HETATM   33  H1  UNL     1      -9.013   5.449  65.602  1.00  0.00     0.000 HD 
HETATM   34  H2  UNL     1      -8.722   5.951  63.854  1.00  0.00     0.000 HD 
ENDBRANCH  26  29
ENDBRANCH  20  22
ENDBRANCH  15  20
ENDBRANCH   2  14
TORSDOF 5
ENDMDL
MODEL       85
REMARK 921   NORMALIZED FREE ENERGY PREDICTED BY IDOCK:   -6.85 KCAL/MOL
REMARK 922        TOTAL FREE ENERGY PREDICTED BY IDOCK:   -9.31 KCAL/MOL
REMARK 923 INTER-LIGAND FREE ENERGY PREDICTED BY IDOCK:   -8.39 KCAL/MOL
REMARK 924 INTRA-LIGAND FREE ENERGY PREDICTED BY IDOCK:   -0.92 KCAL/MOL
REMARK 927      BINDING AFFINITY PREDICTED BY RF-SCORE:    0.00 PKD
ROOT
HETATM    1  C   UNL     1     -13.525  12.885  72.287  1.00  0.00    -0.531 C  
HETATM    2  N   UNL     1     -12.839  12.172  71.208  1.00  0.00    -0.320 NA 
ENDROOT
BRANCH   2   3
HETATM    3  C   UNL     1     -12.272  12.963  70.166  1.00  0.00    -0.266 A  
HETATM    4  C   UNL     1     -11.467  12.955  67.752  1.00  0.00    -0.369 A  
HETATM    5  C   UNL     1     -10.519  15.088  65.612  1.00  0.00    -0.368 C  
HETATM    6  C   UNL     1     -12.037  14.352  70.339  1.00  0.00    -0.399 A  
HETATM    7  C   UNL     1     -11.545  15.019  69.202  1.00  0.00    -0.310 A  
HETATM    8  C   UNL     1     -11.293  14.312  67.977  1.00  0.00    -0.318 A  
HETATM    9  C   UNL     1     -10.872  15.232  67.047  1.00  0.00    -0.321 A  
HETATM   10  N   UNL     1     -11.238  16.315  69.032  1.00  0.00    -0.335 NA 
HETATM   11  N   UNL     1     -10.857  16.420  67.740  1.00  0.00    -0.328 NA 
HETATM   12  C   UNL     1     -10.492  17.721  67.228  1.00  0.00    -0.353 C  
HETATM   13  C   UNL     1     -11.964  12.314  68.909  1.00  0.00    -0.300 A  
ENDBRANCH   2   3
BRANCH   2  14
HETATM   14  C   UNL     1     -12.601  10.792  71.389  1.00  0.00    -0.410 A  
HETATM   15  C   UNL     1     -11.141   8.995  71.151  1.00  0.00    -0.301 A  
HETATM   16  N   UNL     1     -12.036   8.102  71.581  1.00  0.00    -0.291 NA 
HETATM   17  C   UNL     1     -13.226   8.597  71.958  1.00  0.00    -0.386 A  
HETATM   18  C   UNL     1     -13.557   9.931  71.892  1.00  0.00    -0.391 A  
HETATM   19  N   UNL     1     -11.398  10.306  71.033  1.00  0.00    -0.301 NA 
BRANCH  15  20
HETATM   20  N   UNL     1      -9.890   8.508  70.778  1.00  0.00    -0.175 NA 
HETATM   21  H   UNL     1      -9.609   7.625  71.206  1.00  0.00     0.000 HD 
BRANCH  20  22
HETATM   22  C   UNL     1      -8.968   9.078  69.889  1.00  0.00    -0.164 A  
HETATM   23  C   UNL     1      -7.780   9.617  70.387  1.00  0.00    -0.178 A  
HETATM   24  C   UNL     1      -6.800  10.112  69.521  1.00  0.00    -0.079 A  
HETATM   25  C   UNL     1      -6.979  10.097  68.126  1.00  0.00    -0.075 A  
HETATM   26  C   UNL     1      -8.191   9.590  67.624  1.00  0.00    -0.121 A  
HETATM   27  C   UNL     1      -5.875  10.628  67.261  1.00  0.00    -0.046 C  
HETATM   28  C   UNL     1      -9.161   9.081  68.502  1.00  0.00    -0.136 A  
BRANCH  26  29
HETATM   29  S   UNL     1      -8.621   9.607  65.887  1.00  0.00    -0.139 S  
HETATM   30  O   UNL     1      -7.692   8.783  65.156  1.00  0.00    -0.096 OA 
HETATM   31  O   UNL     1      -8.892  10.974  65.495  1.00  0.00    -0.195 OA 
HETATM   32  N   UNL     1     -10.099   8.817  65.893  1.00  0.00    -0.388 N  
HETATM   33  H1  UNL     1     -10.344   8.826  64.903  1.00  0.00     0.000 HD 
HETATM   34  H2  UNL     1     -10.617   8.428  66.680  1.00  0.00     0.000 HD 
ENDBRANCH  26  29
ENDBRANCH  20  22
ENDBRANCH  15  20
ENDBRANCH   2  14
TORSDOF 5
ENDMDL
MODEL       86
REMARK 921   NORMALIZED FREE ENERGY PREDICTED BY IDOCK:   -6.79 KCAL/MOL
REMARK 922        TOTAL FREE ENERGY PREDICTED BY IDOCK:   -9.23 KCAL/MOL
REMARK 923 INTER-LIGAND FREE ENERGY PREDICTED BY IDOCK:   -9.08 KCAL/MOL
REMARK 924 INTRA-LIGAND FREE ENERGY PREDICTED BY IDOCK:   -0.15 KCAL/MOL
REMARK 927      BINDING AFFINITY PREDICTED BY RF-SCORE:    0.00 PKD
ROOT
HETATM    1  C   UNL     1     -12.244  13.491  66.817  1.00  0.00    -0.340 C  
HETATM    2  N   UNL     1     -11.684  14.160  67.991  1.00  0.00    -0.340 NA 
ENDROOT
BRANCH   2   3
HETATM    3  C   UNL     1     -10.908  15.334  67.760  1.00  0.00    -0.295 A  
HETATM    4  C   UNL     1     -10.487  17.730  68.507  1.00  0.00    -0.332 A  
HETATM    5  C   UNL     1      -8.368  20.009  67.918  1.00  0.00    -0.297 C  
HETATM    6  C   UNL     1      -9.862  15.350  66.800  1.00  0.00    -0.255 A  
HETATM    7  C   UNL     1      -9.133  16.552  66.733  1.00  0.00    -0.237 A  
HETATM    8  C   UNL     1      -9.461  17.667  67.577  1.00  0.00    -0.256 A  
HETATM    9  C   UNL     1      -8.550  18.664  67.318  1.00  0.00    -0.266 A  
HETATM   10  N   UNL     1      -8.090  16.882  65.954  1.00  0.00    -0.419 NA 
HETATM   11  N   UNL     1      -7.751  18.133  66.332  1.00  0.00    -0.249 NA 
HETATM   12  C   UNL     1      -6.619  18.768  65.694  1.00  0.00    -0.273 C  
HETATM   13  C   UNL     1     -11.198  16.510  68.553  1.00  0.00    -0.296 A  
ENDBRANCH   2   3
BRANCH   2  14
HETATM   14  C   UNL     1     -12.129  13.730  69.260  1.00  0.00    -0.329 A  
HETATM   15  C   UNL     1     -12.697  11.955  70.653  1.00  0.00    -0.091 A  
HETATM   16  N   UNL     1     -13.092  12.753  71.649  1.00  0.00    -0.381 NA 
HETATM   17  C   UNL     1     -12.954  14.071  71.436  1.00  0.00    -0.353 A  
HETATM   18  C   UNL     1     -12.470  14.612  70.267  1.00  0.00    -0.401 A  
HETATM   19  N   UNL     1     -12.241  12.407  69.476  1.00  0.00    -0.155 NA 
BRANCH  15  20
HETATM   20  N   UNL     1     -12.807  10.581  70.862  1.00  0.00    -0.385 NA 
HETATM   21  H   UNL     1     -13.714  10.168  70.645  1.00  0.00     0.000 HD 
BRANCH  20  22
HETATM   22  C   UNL     1     -11.828   9.695  71.332  1.00  0.00    -0.406 A  
HETATM   23  C   UNL     1     -12.172   8.741  72.291  1.00  0.00    -0.429 A  
HETATM   24  C   UNL     1     -11.243   7.785  72.716  1.00  0.00    -0.456 A  
HETATM   25  C   UNL     1      -9.933   7.759  72.205  1.00  0.00    -0.259 A  
HETATM   26  C   UNL     1      -9.572   8.743  71.268  1.00  0.00    -0.253 A  
HETATM   27  C   UNL     1      -9.000   6.692  72.696  1.00  0.00    -0.136 C  
HETATM   28  C   UNL     1     -10.518   9.688  70.837  1.00  0.00    -0.359 A  
BRANCH  26  29
HETATM   29  S   UNL     1      -7.917   8.918  70.611  1.00  0.00    -0.145 S  
HETATM   30  O   UNL     1      -7.652   7.844  69.688  1.00  0.00    -0.093 OA 
HETATM   31  O   UNL     1      -7.018   9.214  71.706  1.00  0.00    -0.288 OA 
HETATM   32  N   UNL     1      -8.051  10.329  69.716  1.00  0.00    -0.309 N  
HETATM   33  H1  UNL     1      -7.108  10.428  69.341  1.00  0.00     0.000 HD 
HETATM   34  H2  UNL     1      -8.864  10.930  69.581  1.00  0.00     0.000 HD 
ENDBRANCH  26  29
ENDBRANCH  20  22
ENDBRANCH  15  20
ENDBRANCH   2  14
TORSDOF 5
ENDMDL
MODEL       87
REMARK 921   NORMALIZED FREE ENERGY PREDICTED BY IDOCK:   -6.77 KCAL/MOL
REMARK 922        TOTAL FREE ENERGY PREDICTED BY IDOCK:   -9.21 KCAL/MOL
REMARK 923 INTER-LIGAND FREE ENERGY PREDICTED BY IDOCK:   -8.07 KCAL/MOL
REMARK 924 INTRA-LIGAND FREE ENERGY PREDICTED BY IDOCK:   -1.14 KCAL/MOL
REMARK 927      BINDING AFFINITY PREDICTED BY RF-SCORE:    0.00 PKD
ROOT
HETATM    1  C   UNL     1     -13.764   9.385  72.125  1.00  0.00    -0.420 C  
HETATM    2  N   UNL     1     -12.565  10.030  71.590  1.00  0.00    -0.399 NA 
ENDROOT
BRANCH   2   3
HETATM    3  C   UNL     1     -11.483   9.179  71.216  1.00  0.00    -0.335 A  
HETATM    4  C   UNL     1      -9.531   7.794  72.080  1.00  0.00    -0.216 A  
HETATM    5  C   UNL     1      -7.461   5.707  70.902  1.00  0.00    -0.089 C  
HETATM    6  C   UNL     1     -11.284   8.789  69.865  1.00  0.00    -0.059 A  
HETATM    7  C   UNL     1     -10.224   7.887  69.656  1.00  0.00    -0.207 A  
HETATM    8  C   UNL     1      -9.413   7.428  70.748  1.00  0.00    -0.167 A  
HETATM    9  C   UNL     1      -8.506   6.528  70.241  1.00  0.00    -0.135 A  
HETATM   10  N   UNL     1      -9.790   7.322  68.518  1.00  0.00    -0.153 NA 
HETATM   11  N   UNL     1      -8.781   6.506  68.893  1.00  0.00    -0.127 NA 
HETATM   12  C   UNL     1      -8.116   5.715  67.883  1.00  0.00    -0.101 C  
HETATM   13  C   UNL     1     -10.604   8.697  72.260  1.00  0.00    -0.375 A  
ENDBRANCH   2   3
BRANCH   2  14
HETATM   14  C   UNL     1     -12.647  11.405  71.280  1.00  0.00    -0.374 A  
HETATM   15  C   UNL     1     -12.074  13.140  69.839  1.00  0.00    -0.287 A  
HETATM   16  N   UNL     1     -12.632  14.077  70.610  1.00  0.00    -0.344 NA 
HETATM   17  C   UNL     1     -13.245  13.637  71.720  1.00  0.00    -0.394 A  
HETATM   18  C   UNL     1     -13.291  12.314  72.098  1.00  0.00    -0.473 A  
HETATM   19  N   UNL     1     -12.053  11.836  70.153  1.00  0.00    -0.328 NA 
BRANCH  15  20
HETATM   20  N   UNL     1     -11.454  13.571  68.668  1.00  0.00    -0.285 NA 
HETATM   21  H   UNL     1     -11.209  14.561  68.631  1.00  0.00     0.000 HD 
BRANCH  20  22
HETATM   22  C   UNL     1     -11.125  12.816  67.534  1.00  0.00    -0.263 A  
HETATM   23  C   UNL     1     -11.904  12.935  66.382  1.00  0.00    -0.478 A  
HETATM   24  C   UNL     1     -11.552  12.265  65.206  1.00  0.00    -0.405 A  
HETATM   25  C   UNL     1     -10.413  11.441  65.145  1.00  0.00    -0.351 A  
HETATM   26  C   UNL     1      -9.648  11.288  66.314  1.00  0.00    -0.209 A  
HETATM   27  C   UNL     1     -10.090  10.770  63.843  1.00  0.00    -0.397 C  
HETATM   28  C   UNL     1     -10.003  11.979  67.486  1.00  0.00    -0.199 A  
BRANCH  26  29
HETATM   29  S   UNL     1      -8.242  10.189  66.435  1.00  0.00    -0.125 S  
HETATM   30  O   UNL     1      -7.049  10.892  66.034  1.00  0.00    -0.130 OA 
HETATM   31  O   UNL     1      -8.603   8.916  65.850  1.00  0.00    -0.140 OA 
HETATM   32  N   UNL     1      -8.145   9.937  68.089  1.00  0.00    -0.104 N  
HETATM   33  H1  UNL     1      -7.343   9.310  68.158  1.00  0.00     0.000 HD 
HETATM   34  H2  UNL     1      -8.734  10.312  68.832  1.00  0.00     0.000 HD 
ENDBRANCH  26  29
ENDBRANCH  20  22
ENDBRANCH  15  20
ENDBRANCH   2  14
TORSDOF 5
ENDMDL
MODEL       88
REMARK 921   NORMALIZED FREE ENERGY PREDICTED BY IDOCK:   -6.75 KCAL/MOL
REMARK 922        TOTAL FREE ENERGY PREDICTED BY IDOCK:   -9.18 KCAL/MOL
REMARK 923 INTER-LIGAND FREE ENERGY PREDICTED BY IDOCK:   -8.17 KCAL/MOL
REMARK 924 INTRA-LIGAND FREE ENERGY PREDICTED BY IDOCK:   -1.01 KCAL/MOL
REMARK 927      BINDING AFFINITY PREDICTED BY RF-SCORE:    0.00 PKD
ROOT
HETATM    1  C   UNL     1     -10.002  15.892  66.329  1.00  0.00    -0.298 C  
HETATM    2  N   UNL     1      -9.507  15.233  67.538  1.00  0.00    -0.201 NA 
ENDROOT
BRANCH   2   3
HETATM    3  C   UNL     1     -10.424  15.093  68.622  1.00  0.00    -0.234 A  
HETATM    4  C   UNL     1     -12.219  13.611  69.649  1.00  0.00    -0.326 A  
HETATM    5  C   UNL     1     -13.872  13.496  72.348  1.00  0.00    -0.687 C  
HETATM    6  C   UNL     1     -10.460  16.034  69.684  1.00  0.00    -0.300 A  
HETATM    7  C   UNL     1     -11.360  15.728  70.721  1.00  0.00    -0.390 A  
HETATM    8  C   UNL     1     -12.180  14.550  70.668  1.00  0.00    -0.401 A  
HETATM    9  C   UNL     1     -12.907  14.500  71.834  1.00  0.00    -0.338 A  
HETATM   10  N   UNL     1     -11.620  16.395  71.857  1.00  0.00    -0.389 NA 
HETATM   11  N   UNL     1     -12.529  15.636  72.509  1.00  0.00    -0.387 NA 
HETATM   12  C   UNL     1     -12.993  16.073  73.807  1.00  0.00    -0.505 C  
HETATM   13  C   UNL     1     -11.304  13.944  68.625  1.00  0.00    -0.310 A  
ENDBRANCH   2   3
BRANCH   2  14
HETATM   14  C   UNL     1      -8.249  14.597  67.464  1.00  0.00    -0.188 A  
HETATM   15  C   UNL     1      -7.040  12.668  66.981  1.00  0.00     0.085 A  
HETATM   16  N   UNL     1      -5.878  13.196  67.376  1.00  0.00    -0.338 NA 
HETATM   17  C   UNL     1      -5.922  14.474  67.783  1.00  0.00    -0.097 A  
HETATM   18  C   UNL     1      -7.076  15.222  67.838  1.00  0.00    -0.157 A  
HETATM   19  N   UNL     1      -8.209  13.323  67.031  1.00  0.00    -0.105 NA 
BRANCH  15  20
HETATM   20  N   UNL     1      -7.015  11.349  66.529  1.00  0.00    -0.310 NA 
HETATM   21  H   UNL     1      -6.193  11.078  65.989  1.00  0.00     0.000 HD 
BRANCH  20  22
HETATM   22  C   UNL     1      -7.977  10.349  66.724  1.00  0.00    -0.117 A  
HETATM   23  C   UNL     1      -8.586   9.760  65.614  1.00  0.00    -0.154 A  
HETATM   24  C   UNL     1      -9.483   8.698  65.769  1.00  0.00    -0.192 A  
HETATM   25  C   UNL     1      -9.812   8.196  67.041  1.00  0.00    -0.299 A  
HETATM   26  C   UNL     1      -9.230   8.813  68.163  1.00  0.00    -0.140 A  
HETATM   27  C   UNL     1     -10.768   7.044  67.126  1.00  0.00    -0.433 C  
HETATM   28  C   UNL     1      -8.318   9.869  67.994  1.00  0.00    -0.113 A  
BRANCH  26  29
HETATM   29  S   UNL     1      -9.633   8.372  69.850  1.00  0.00    -0.172 S  
HETATM   30  O   UNL     1      -8.861   7.220  70.240  1.00  0.00    -0.146 OA 
HETATM   31  O   UNL     1     -11.071   8.408  70.002  1.00  0.00    -0.235 OA 
HETATM   32  N   UNL     1      -9.036   9.688  70.699  1.00  0.00    -0.297 N  
HETATM   33  H1  UNL     1      -9.265   9.436  71.661  1.00  0.00     0.000 HD 
HETATM   34  H2  UNL     1      -8.566  10.522  70.346  1.00  0.00     0.000 HD 
ENDBRANCH  26  29
ENDBRANCH  20  22
ENDBRANCH  15  20
ENDBRANCH   2  14
TORSDOF 5
ENDMDL
MODEL       89
REMARK 921   NORMALIZED FREE ENERGY PREDICTED BY IDOCK:   -6.71 KCAL/MOL
REMARK 922        TOTAL FREE ENERGY PREDICTED BY IDOCK:   -9.14 KCAL/MOL
REMARK 923 INTER-LIGAND FREE ENERGY PREDICTED BY IDOCK:   -7.80 KCAL/MOL
REMARK 924 INTRA-LIGAND FREE ENERGY PREDICTED BY IDOCK:   -1.33 KCAL/MOL
REMARK 927      BINDING AFFINITY PREDICTED BY RF-SCORE:    0.00 PKD
ROOT
HETATM    1  C   UNL     1     -12.054  14.152  67.018  1.00  0.00    -0.414 C  
HETATM    2  N   UNL     1     -11.539  13.155  67.956  1.00  0.00    -0.312 NA 
ENDROOT
BRANCH   2   3
HETATM    3  C   UNL     1     -10.433  12.366  67.521  1.00  0.00    -0.215 A  
HETATM    4  C   UNL     1      -7.894  12.204  67.449  1.00  0.00    -0.168 A  
HETATM    5  C   UNL     1      -5.727  10.045  66.630  1.00  0.00    -0.050 C  
HETATM    6  C   UNL     1     -10.626  11.101  66.907  1.00  0.00    -0.304 A  
HETATM    7  C   UNL     1      -9.444  10.402  66.599  1.00  0.00    -0.165 A  
HETATM    8  C   UNL     1      -8.153  10.964  66.884  1.00  0.00    -0.137 A  
HETATM    9  C   UNL     1      -7.207  10.035  66.522  1.00  0.00    -0.101 A  
HETATM   10  N   UNL     1      -9.282   9.193  66.036  1.00  0.00    -0.197 NA 
HETATM   11  N   UNL     1      -7.947   8.990  66.017  1.00  0.00    -0.101 NA 
HETATM   12  C   UNL     1      -7.443   7.741  65.494  1.00  0.00    -0.076 C  
HETATM   13  C   UNL     1      -9.099  12.880  67.749  1.00  0.00    -0.197 A  
ENDBRANCH   2   3
BRANCH   2  14
HETATM   14  C   UNL     1     -12.022  13.198  69.282  1.00  0.00    -0.292 A  
HETATM   15  C   UNL     1     -12.765  12.024  71.149  1.00  0.00    -0.266 A  
HETATM   16  N   UNL     1     -13.073  13.132  71.828  1.00  0.00    -0.403 NA 
HETATM   17  C   UNL     1     -12.800  14.293  71.212  1.00  0.00    -0.352 A  
HETATM   18  C   UNL     1     -12.267  14.384  69.947  1.00  0.00    -0.394 A  
HETATM   19  N   UNL     1     -12.270  12.030  69.903  1.00  0.00    -0.223 NA 
BRANCH  15  20
HETATM   20  N   UNL     1     -13.017  10.806  71.779  1.00  0.00    -0.474 NA 
HETATM   21  H   UNL     1     -13.787  10.800  72.447  1.00  0.00     0.000 HD 
BRANCH  20  22
HETATM   22  C   UNL     1     -12.343   9.589  71.610  1.00  0.00    -0.398 A  
HETATM   23  C   UNL     1     -13.022   8.392  71.844  1.00  0.00    -0.381 A  
HETATM   24  C   UNL     1     -12.408   7.159  71.599  1.00  0.00    -0.398 A  
HETATM   25  C   UNL     1     -11.087   7.081  71.122  1.00  0.00    -0.288 A  
HETATM   26  C   UNL     1     -10.387   8.284  70.922  1.00  0.00    -0.192 A  
HETATM   27  C   UNL     1     -10.503   5.724  70.866  1.00  0.00    -0.317 C  
HETATM   28  C   UNL     1     -11.020   9.516  71.156  1.00  0.00    -0.438 A  
BRANCH  26  29
HETATM   29  S   UNL     1      -8.667   8.354  70.432  1.00  0.00    -0.148 S  
HETATM   30  O   UNL     1      -7.881   7.542  71.327  1.00  0.00    -0.091 OA 
HETATM   31  O   UNL     1      -8.323   9.732  70.160  1.00  0.00    -0.181 OA 
HETATM   32  N   UNL     1      -8.703   7.574  68.949  1.00  0.00    -0.132 N  
HETATM   33  H1  UNL     1      -7.723   7.614  68.669  1.00  0.00     0.000 HD 
HETATM   34  H2  UNL     1      -9.497   7.168  68.454  1.00  0.00     0.000 HD 
ENDBRANCH  26  29
ENDBRANCH  20  22
ENDBRANCH  15  20
ENDBRANCH   2  14
TORSDOF 5
ENDMDL
MODEL       90
REMARK 921   NORMALIZED FREE ENERGY PREDICTED BY IDOCK:   -6.69 KCAL/MOL
REMARK 922        TOTAL FREE ENERGY PREDICTED BY IDOCK:   -9.11 KCAL/MOL
REMARK 923 INTER-LIGAND FREE ENERGY PREDICTED BY IDOCK:   -7.99 KCAL/MOL
REMARK 924 INTRA-LIGAND FREE ENERGY PREDICTED BY IDOCK:   -1.12 KCAL/MOL
REMARK 927      BINDING AFFINITY PREDICTED BY RF-SCORE:    0.00 PKD
ROOT
HETATM    1  C   UNL     1      -9.562  15.235  66.374  1.00  0.00    -0.292 C  
HETATM    2  N   UNL     1      -9.163  14.671  67.664  1.00  0.00    -0.189 NA 
ENDROOT
BRANCH   2   3
HETATM    3  C   UNL     1     -10.162  14.606  68.680  1.00  0.00    -0.244 A  
HETATM    4  C   UNL     1     -12.021  13.186  69.682  1.00  0.00    -0.370 A  
HETATM    5  C   UNL     1     -13.883  13.267  72.243  1.00  0.00    -0.637 C  
HETATM    6  C   UNL     1     -10.291  15.631  69.655  1.00  0.00    -0.287 A  
HETATM    7  C   UNL     1     -11.268  15.397  70.640  1.00  0.00    -0.342 A  
HETATM    8  C   UNL     1     -12.071  14.206  70.621  1.00  0.00    -0.421 A  
HETATM    9  C   UNL     1     -12.888  14.240  71.725  1.00  0.00    -0.348 A  
HETATM   10  N   UNL     1     -11.623  16.150  71.693  1.00  0.00    -0.461 NA 
HETATM   11  N   UNL     1     -12.575  15.434  72.332  1.00  0.00    -0.346 NA 
HETATM   12  C   UNL     1     -13.144  15.967  73.549  1.00  0.00    -0.559 C  
HETATM   13  C   UNL     1     -11.030  13.448  68.709  1.00  0.00    -0.290 A  
ENDBRANCH   2   3
BRANCH   2  14
HETATM   14  C   UNL     1      -7.903  14.039  67.737  1.00  0.00    -0.171 A  
HETATM   15  C   UNL     1      -6.698  12.072  68.043  1.00  0.00    -0.070 A  
HETATM   16  N   UNL     1      -5.515  12.692  68.010  1.00  0.00    -0.077 NA 
HETATM   17  C   UNL     1      -5.552  14.016  67.793  1.00  0.00    -0.043 A  
HETATM   18  C   UNL     1      -6.714  14.737  67.639  1.00  0.00    -0.198 A  
HETATM   19  N   UNL     1      -7.873  12.708  67.930  1.00  0.00    -0.140 NA 
BRANCH  15  20
HETATM   20  N   UNL     1      -6.684  10.693  68.243  1.00  0.00    -0.063 NA 
HETATM   21  H   UNL     1      -6.177  10.146  67.547  1.00  0.00     0.000 HD 
BRANCH  20  22
HETATM   22  C   UNL     1      -7.279   9.962  69.281  1.00  0.00    -0.073 A  
HETATM   23  C   UNL     1      -6.479   9.453  70.306  1.00  0.00    -0.064 A  
HETATM   24  C   UNL     1      -7.050   8.797  71.401  1.00  0.00    -0.099 A  
HETATM   25  C   UNL     1      -8.441   8.616  71.503  1.00  0.00    -0.238 A  
HETATM   26  C   UNL     1      -9.246   9.093  70.453  1.00  0.00    -0.233 A  
HETATM   27  C   UNL     1      -8.981   7.919  72.716  1.00  0.00    -0.258 C  
HETATM   28  C   UNL     1      -8.662   9.765  69.366  1.00  0.00    -0.178 A  
BRANCH  26  29
HETATM   29  S   UNL     1     -11.016   8.840  70.375  1.00  0.00    -0.229 S  
HETATM   30  O   UNL     1     -11.648   9.544  71.462  1.00  0.00    -0.357 OA 
HETATM   31  O   UNL     1     -11.268   7.436  70.132  1.00  0.00    -0.266 OA 
HETATM   32  N   UNL     1     -11.414   9.643  68.959  1.00  0.00    -0.453 N  
HETATM   33  H1  UNL     1     -12.422   9.499  68.914  1.00  0.00     0.000 HD 
HETATM   34  H2  UNL     1     -10.806  10.144  68.311  1.00  0.00     0.000 HD 
ENDBRANCH  26  29
ENDBRANCH  20  22
ENDBRANCH  15  20
ENDBRANCH   2  14
TORSDOF 5
ENDMDL
MODEL       91
REMARK 921   NORMALIZED FREE ENERGY PREDICTED BY IDOCK:   -6.69 KCAL/MOL
REMARK 922        TOTAL FREE ENERGY PREDICTED BY IDOCK:   -9.11 KCAL/MOL
REMARK 923 INTER-LIGAND FREE ENERGY PREDICTED BY IDOCK:   -8.44 KCAL/MOL
REMARK 924 INTRA-LIGAND FREE ENERGY PREDICTED BY IDOCK:   -0.66 KCAL/MOL
REMARK 927      BINDING AFFINITY PREDICTED BY RF-SCORE:    0.00 PKD
ROOT
HETATM    1  C   UNL     1     -12.216  11.742  70.339  1.00  0.00    -0.330 C  
HETATM    2  N   UNL     1     -11.117  10.996  69.725  1.00  0.00    -0.256 NA 
ENDROOT
BRANCH   2   3
HETATM    3  C   UNL     1     -10.699   9.801  70.381  1.00  0.00    -0.308 A  
HETATM    4  C   UNL     1      -8.690   8.481  71.218  1.00  0.00    -0.228 A  
HETATM    5  C   UNL     1      -8.177   5.899  72.978  1.00  0.00    -0.117 C  
HETATM    6  C   UNL     1     -11.642   8.872  70.894  1.00  0.00    -0.331 A  
HETATM    7  C   UNL     1     -11.086   7.777  71.583  1.00  0.00    -0.237 A  
HETATM    8  C   UNL     1      -9.664   7.633  71.722  1.00  0.00    -0.196 A  
HETATM    9  C   UNL     1      -9.435   6.508  72.478  1.00  0.00    -0.144 A  
HETATM   10  N   UNL     1     -11.695   6.746  72.190  1.00  0.00    -0.295 NA 
HETATM   11  N   UNL     1     -10.694   6.016  72.729  1.00  0.00    -0.224 NA 
HETATM   12  C   UNL     1     -11.031   4.837  73.495  1.00  0.00    -0.324 C  
HETATM   13  C   UNL     1      -9.278   9.570  70.535  1.00  0.00    -0.284 A  
ENDBRANCH   2   3
BRANCH   2  14
HETATM   14  C   UNL     1     -10.707  11.387  68.432  1.00  0.00    -0.203 A  
HETATM   15  C   UNL     1      -9.523  12.891  67.109  1.00  0.00    -0.229 A  
HETATM   16  N   UNL     1      -9.922  12.329  65.965  1.00  0.00    -0.248 NA 
HETATM   17  C   UNL     1     -10.701  11.243  66.084  1.00  0.00    -0.250 A  
HETATM   18  C   UNL     1     -11.115  10.724  67.290  1.00  0.00    -0.339 A  
HETATM   19  N   UNL     1      -9.906  12.462  68.321  1.00  0.00    -0.223 NA 
BRANCH  15  20
HETATM   20  N   UNL     1      -8.692  14.006  67.010  1.00  0.00    -0.296 NA 
HETATM   21  H   UNL     1      -7.696  13.833  67.144  1.00  0.00     0.000 HD 
BRANCH  20  22
HETATM   22  C   UNL     1      -9.054  15.335  66.750  1.00  0.00    -0.256 A  
HETATM   23  C   UNL     1     -10.061  15.601  65.822  1.00  0.00    -0.394 A  
HETATM   24  C   UNL     1     -10.508  16.909  65.604  1.00  0.00    -0.252 A  
HETATM   25  C   UNL     1      -9.953  17.998  66.300  1.00  0.00    -0.338 A  
HETATM   26  C   UNL     1      -8.911  17.737  67.208  1.00  0.00    -0.246 A  
HETATM   27  C   UNL     1     -10.497  19.369  66.027  1.00  0.00    -0.596 C  
HETATM   28  C   UNL     1      -8.482  16.418  67.430  1.00  0.00    -0.195 A  
BRANCH  26  29
HETATM   29  S   UNL     1      -8.023  19.020  68.084  1.00  0.00    -0.311 S  
HETATM   30  O   UNL     1      -8.912  19.666  69.016  1.00  0.00    -0.310 OA 
HETATM   31  O   UNL     1      -7.249  19.779  67.125  1.00  0.00    -0.214 OA 
HETATM   32  N   UNL     1      -6.922  18.126  68.977  1.00  0.00    -0.271 N  
HETATM   33  H1  UNL     1      -6.417  18.857  69.476  1.00  0.00     0.000 HD 
HETATM   34  H2  UNL     1      -6.793  17.115  69.012  1.00  0.00     0.000 HD 
ENDBRANCH  26  29
ENDBRANCH  20  22
ENDBRANCH  15  20
ENDBRANCH   2  14
TORSDOF 5
ENDMDL
MODEL       92
REMARK 921   NORMALIZED FREE ENERGY PREDICTED BY IDOCK:   -6.68 KCAL/MOL
REMARK 922        TOTAL FREE ENERGY PREDICTED BY IDOCK:   -9.10 KCAL/MOL
REMARK 923 INTER-LIGAND FREE ENERGY PREDICTED BY IDOCK:   -8.46 KCAL/MOL
REMARK 924 INTRA-LIGAND FREE ENERGY PREDICTED BY IDOCK:   -0.63 KCAL/MOL
REMARK 927      BINDING AFFINITY PREDICTED BY RF-SCORE:    0.00 PKD
ROOT
HETATM    1  C   UNL     1     -11.701  15.666  68.748  1.00  0.00    -0.370 C  
HETATM    2  N   UNL     1     -11.698  14.208  68.873  1.00  0.00    -0.313 NA 
ENDROOT
BRANCH   2   3
HETATM    3  C   UNL     1     -10.956  13.476  67.900  1.00  0.00    -0.256 A  
HETATM    4  C   UNL     1      -8.847  12.113  67.485  1.00  0.00    -0.175 A  
HETATM    5  C   UNL     1      -7.663  10.314  65.163  1.00  0.00    -0.136 C  
HETATM    6  C   UNL     1     -11.461  13.269  66.589  1.00  0.00    -0.384 A  
HETATM    7  C   UNL     1     -10.657  12.464  65.761  1.00  0.00    -0.256 A  
HETATM    8  C   UNL     1      -9.413  11.922  66.233  1.00  0.00    -0.238 A  
HETATM    9  C   UNL     1      -8.889  11.148  65.226  1.00  0.00    -0.076 A  
HETATM   10  N   UNL     1     -10.853  12.071  64.492  1.00  0.00    -0.297 NA 
HETATM   11  N   UNL     1      -9.800  11.277  64.203  1.00  0.00    -0.258 NA 
HETATM   12  C   UNL     1      -9.737  10.657  62.899  1.00  0.00    -0.293 C  
HETATM   13  C   UNL     1      -9.678  12.922  68.293  1.00  0.00    -0.217 A  
ENDBRANCH   2   3
BRANCH   2  14
HETATM   14  C   UNL     1     -12.235  13.655  70.055  1.00  0.00    -0.329 A  
HETATM   15  C   UNL     1     -12.727  11.747  71.294  1.00  0.00    -0.316 A  
HETATM   16  N   UNL     1     -13.348  12.431  72.259  1.00  0.00    -0.460 NA 
HETATM   17  C   UNL     1     -13.365  13.766  72.115  1.00  0.00    -0.476 A  
HETATM   18  C   UNL     1     -12.816  14.429  71.041  1.00  0.00    -0.423 A  
HETATM   19  N   UNL     1     -12.193  12.319  70.204  1.00  0.00    -0.267 NA 
BRANCH  15  20
HETATM   20  N   UNL     1     -12.675  10.362  71.434  1.00  0.00    -0.407 NA 
HETATM   21  H   UNL     1     -13.518   9.918  71.797  1.00  0.00     0.000 HD 
BRANCH  20  22
HETATM   22  C   UNL     1     -11.608   9.501  71.139  1.00  0.00    -0.367 A  
HETATM   23  C   UNL     1     -11.116   9.443  69.834  1.00  0.00    -0.223 A  
HETATM   24  C   UNL     1      -9.997   8.663  69.525  1.00  0.00    -0.196 A  
HETATM   25  C   UNL     1      -9.339   7.903  70.508  1.00  0.00    -0.162 A  
HETATM   26  C   UNL     1      -9.856   7.929  71.816  1.00  0.00    -0.173 A  
HETATM   27  C   UNL     1      -8.134   7.106  70.104  1.00  0.00    -0.130 C  
HETATM   28  C   UNL     1     -10.971   8.729  72.118  1.00  0.00    -0.404 A  
BRANCH  26  29
HETATM   29  S   UNL     1      -9.207   6.931  73.152  1.00  0.00    -0.139 S  
HETATM   30  O   UNL     1      -8.150   7.651  73.816  1.00  0.00    -0.128 OA 
HETATM   31  O   UNL     1      -9.015   5.582  72.666  1.00  0.00    -0.130 OA 
HETATM   32  N   UNL     1     -10.513   6.874  74.201  1.00  0.00    -0.465 N  
HETATM   33  H1  UNL     1     -10.143   6.305  74.963  1.00  0.00     0.000 HD 
HETATM   34  H2  UNL     1     -11.436   7.297  74.103  1.00  0.00     0.000 HD 
ENDBRANCH  26  29
ENDBRANCH  20  22
ENDBRANCH  15  20
ENDBRANCH   2  14
TORSDOF 5
ENDMDL
MODEL       93
REMARK 921   NORMALIZED FREE ENERGY PREDICTED BY IDOCK:   -6.68 KCAL/MOL
REMARK 922        TOTAL FREE ENERGY PREDICTED BY IDOCK:   -9.10 KCAL/MOL
REMARK 923 INTER-LIGAND FREE ENERGY PREDICTED BY IDOCK:   -8.84 KCAL/MOL
REMARK 924 INTRA-LIGAND FREE ENERGY PREDICTED BY IDOCK:   -0.26 KCAL/MOL
REMARK 927      BINDING AFFINITY PREDICTED BY RF-SCORE:    0.00 PKD
ROOT
HETATM    1  C   UNL     1      -8.482  10.445  67.040  1.00  0.00    -0.127 C  
HETATM    2  N   UNL     1      -9.873  10.819  67.302  1.00  0.00    -0.176 NA 
ENDROOT
BRANCH   2   3
HETATM    3  C   UNL     1     -10.492  10.247  68.452  1.00  0.00    -0.200 A  
HETATM    4  C   UNL     1     -12.263  10.590  70.248  1.00  0.00    -0.393 A  
HETATM    5  C   UNL     1     -13.605   8.871  72.545  1.00  0.00    -0.467 C  
HETATM    6  C   UNL     1     -10.153   8.944  68.902  1.00  0.00    -0.209 A  
HETATM    7  C   UNL     1     -10.898   8.481  70.002  1.00  0.00    -0.223 A  
HETATM    8  C   UNL     1     -11.907   9.300  70.613  1.00  0.00    -0.246 A  
HETATM    9  C   UNL     1     -12.487   8.563  71.618  1.00  0.00    -0.330 A  
HETATM   10  N   UNL     1     -10.835   7.306  70.649  1.00  0.00    -0.236 NA 
HETATM   11  N   UNL     1     -11.800   7.371  71.592  1.00  0.00    -0.278 NA 
HETATM   12  C   UNL     1     -12.014   6.225  72.446  1.00  0.00    -0.188 C  
HETATM   13  C   UNL     1     -11.501  11.025  69.140  1.00  0.00    -0.370 A  
ENDBRANCH   2   3
BRANCH   2  14
HETATM   14  C   UNL     1     -10.419  11.871  66.536  1.00  0.00    -0.221 A  
HETATM   15  C   UNL     1     -10.200  14.043  65.728  1.00  0.00    -0.328 A  
HETATM   16  N   UNL     1     -11.412  14.046  65.166  1.00  0.00    -0.317 NA 
HETATM   17  C   UNL     1     -12.111  12.905  65.271  1.00  0.00    -0.453 A  
HETATM   18  C   UNL     1     -11.660  11.787  65.934  1.00  0.00    -0.200 A  
HETATM   19  N   UNL     1      -9.702  13.003  66.414  1.00  0.00    -0.265 NA 
BRANCH  15  20
HETATM   20  N   UNL     1      -9.445  15.208  65.610  1.00  0.00    -0.431 NA 
HETATM   21  H   UNL     1      -8.779  15.233  64.837  1.00  0.00     0.000 HD 
BRANCH  20  22
HETATM   22  C   UNL     1      -9.484  16.351  66.420  1.00  0.00    -0.293 A  
HETATM   23  C   UNL     1     -10.524  16.503  67.339  1.00  0.00    -0.310 A  
HETATM   24  C   UNL     1     -10.546  17.586  68.224  1.00  0.00    -0.354 A  
HETATM   25  C   UNL     1      -9.533  18.562  68.212  1.00  0.00    -0.360 A  
HETATM   26  C   UNL     1      -8.505  18.433  67.262  1.00  0.00    -0.254 A  
HETATM   27  C   UNL     1      -9.615  19.684  69.204  1.00  0.00    -0.318 C  
HETATM   28  C   UNL     1      -8.486  17.332  66.389  1.00  0.00    -0.304 A  
BRANCH  26  29
HETATM   29  S   UNL     1      -7.210  19.648  67.040  1.00  0.00    -0.216 S  
HETATM   30  O   UNL     1      -6.295  19.191  66.024  1.00  0.00    -0.179 OA 
HETATM   31  O   UNL     1      -6.746  20.067  68.344  1.00  0.00    -0.282 OA 
HETATM   32  N   UNL     1      -8.062  20.943  66.403  1.00  0.00    -0.309 N  
HETATM   33  H1  UNL     1      -7.324  21.635  66.276  1.00  0.00     0.000 HD 
HETATM   34  H2  UNL     1      -9.058  21.019  66.197  1.00  0.00     0.000 HD 
ENDBRANCH  26  29
ENDBRANCH  20  22
ENDBRANCH  15  20
ENDBRANCH   2  14
TORSDOF 5
ENDMDL
MODEL       94
REMARK 921   NORMALIZED FREE ENERGY PREDICTED BY IDOCK:   -6.68 KCAL/MOL
REMARK 922        TOTAL FREE ENERGY PREDICTED BY IDOCK:   -9.09 KCAL/MOL
REMARK 923 INTER-LIGAND FREE ENERGY PREDICTED BY IDOCK:   -8.42 KCAL/MOL
REMARK 924 INTRA-LIGAND FREE ENERGY PREDICTED BY IDOCK:   -0.67 KCAL/MOL
REMARK 927      BINDING AFFINITY PREDICTED BY RF-SCORE:    0.00 PKD
ROOT
HETATM    1  C   UNL     1      -9.988  15.639  66.387  1.00  0.00    -0.281 C  
HETATM    2  N   UNL     1      -9.689  14.730  67.494  1.00  0.00    -0.212 NA 
ENDROOT
BRANCH   2   3
HETATM    3  C   UNL     1     -10.595  14.729  68.595  1.00  0.00    -0.255 A  
HETATM    4  C   UNL     1     -12.487  13.460  69.730  1.00  0.00    -0.112 A  
HETATM    5  C   UNL     1     -14.098  13.638  72.451  1.00  0.00    -0.586 C  
HETATM    6  C   UNL     1     -10.538  15.731  69.599  1.00  0.00    -0.295 A  
HETATM    7  C   UNL     1     -11.443  15.560  70.663  1.00  0.00    -0.358 A  
HETATM    8  C   UNL     1     -12.356  14.451  70.691  1.00  0.00    -0.422 A  
HETATM    9  C   UNL     1     -13.065  14.529  71.866  1.00  0.00    -0.350 A  
HETATM   10  N   UNL     1     -11.629  16.311  71.761  1.00  0.00    -0.437 NA 
HETATM   11  N   UNL     1     -12.585  15.669  72.467  1.00  0.00    -0.391 NA 
HETATM   12  C   UNL     1     -12.990  16.217  73.742  1.00  0.00    -0.461 C  
HETATM   13  C   UNL     1     -11.565  13.657  68.677  1.00  0.00    -0.364 A  
ENDBRANCH   2   3
BRANCH   2  14
HETATM   14  C   UNL     1      -8.666  13.778  67.296  1.00  0.00    -0.219 A  
HETATM   15  C   UNL     1      -8.083  11.604  66.702  1.00  0.00    -0.121 A  
HETATM   16  N   UNL     1      -6.788  11.787  66.975  1.00  0.00    -0.145 NA 
HETATM   17  C   UNL     1      -6.441  13.019  67.379  1.00  0.00    -0.098 A  
HETATM   18  C   UNL     1      -7.335  14.052  67.546  1.00  0.00    -0.187 A  
HETATM   19  N   UNL     1      -9.017  12.552  66.867  1.00  0.00    -0.210 NA 
BRANCH  15  20
HETATM   20  N   UNL     1      -8.462  10.339  66.256  1.00  0.00    -0.132 NA 
HETATM   21  H   UNL     1      -8.187  10.101  65.304  1.00  0.00     0.000 HD 
BRANCH  20  22
HETATM   22  C   UNL     1      -9.175   9.354  66.953  1.00  0.00    -0.140 A  
HETATM   23  C   UNL     1      -9.486   8.153  66.314  1.00  0.00    -0.259 A  
HETATM   24  C   UNL     1     -10.117   7.115  67.006  1.00  0.00    -0.308 A  
HETATM   25  C   UNL     1     -10.471   7.247  68.362  1.00  0.00    -0.228 A  
HETATM   26  C   UNL     1     -10.195   8.470  68.998  1.00  0.00    -0.207 A  
HETATM   27  C   UNL     1     -11.128   6.083  69.042  1.00  0.00    -0.377 C  
HETATM   28  C   UNL     1      -9.546   9.500  68.296  1.00  0.00    -0.151 A  
BRANCH  26  29
HETATM   29  S   UNL     1     -10.684   8.839  70.679  1.00  0.00    -0.237 S  
HETATM   30  O   UNL     1      -9.561   8.637  71.559  1.00  0.00    -0.205 OA 
HETATM   31  O   UNL     1     -11.966   8.216  70.931  1.00  0.00    -0.275 OA 
HETATM   32  N   UNL     1     -10.969  10.489  70.598  1.00  0.00    -0.398 N  
HETATM   33  H1  UNL     1     -11.248  10.699  71.556  1.00  0.00     0.000 HD 
HETATM   34  H2  UNL     1     -10.886  11.118  69.799  1.00  0.00     0.000 HD 
ENDBRANCH  26  29
ENDBRANCH  20  22
ENDBRANCH  15  20
ENDBRANCH   2  14
TORSDOF 5
ENDMDL
MODEL       95
REMARK 921   NORMALIZED FREE ENERGY PREDICTED BY IDOCK:   -6.67 KCAL/MOL
REMARK 922        TOTAL FREE ENERGY PREDICTED BY IDOCK:   -9.09 KCAL/MOL
REMARK 923 INTER-LIGAND FREE ENERGY PREDICTED BY IDOCK:   -8.32 KCAL/MOL
REMARK 924 INTRA-LIGAND FREE ENERGY PREDICTED BY IDOCK:   -0.77 KCAL/MOL
REMARK 927      BINDING AFFINITY PREDICTED BY RF-SCORE:    0.00 PKD
ROOT
HETATM    1  C   UNL     1     -10.029   8.010  70.843  1.00  0.00    -0.186 C  
HETATM    2  N   UNL     1     -10.316   9.235  70.096  1.00  0.00    -0.206 NA 
ENDROOT
BRANCH   2   3
HETATM    3  C   UNL     1      -9.707   9.371  68.814  1.00  0.00    -0.156 A  
HETATM    4  C   UNL     1     -10.137   9.500  66.309  1.00  0.00    -0.327 A  
HETATM    5  C   UNL     1      -8.469  10.143  63.695  1.00  0.00    -0.184 C  
HETATM    6  C   UNL     1      -8.309   9.583  68.680  1.00  0.00    -0.117 A  
HETATM    7  C   UNL     1      -7.859   9.774  67.360  1.00  0.00    -0.099 A  
HETATM    8  C   UNL     1      -8.772   9.735  66.252  1.00  0.00    -0.152 A  
HETATM    9  C   UNL     1      -8.052  10.004  65.113  1.00  0.00    -0.144 A  
HETATM   10  N   UNL     1      -6.620  10.009  66.901  1.00  0.00    -0.069 NA 
HETATM   11  N   UNL     1      -6.762  10.160  65.566  1.00  0.00    -0.115 NA 
HETATM   12  C   UNL     1      -5.592  10.464  64.774  1.00  0.00    -0.137 C  
HETATM   13  C   UNL     1     -10.559   9.314  67.645  1.00  0.00    -0.324 A  
ENDBRANCH   2   3
BRANCH   2  14
HETATM   14  C   UNL     1     -11.334  10.077  70.594  1.00  0.00    -0.348 A  
HETATM   15  C   UNL     1     -12.272  12.206  70.666  1.00  0.00    -0.300 A  
HETATM   16  N   UNL     1     -13.193  11.861  71.571  1.00  0.00    -0.291 NA 
HETATM   17  C   UNL     1     -13.189  10.574  71.951  1.00  0.00    -0.420 A  
HETATM   18  C   UNL     1     -12.291   9.640  71.489  1.00  0.00    -0.477 A  
HETATM   19  N   UNL     1     -11.347  11.361  70.189  1.00  0.00    -0.199 NA 
BRANCH  15  20
HETATM   20  N   UNL     1     -12.273  13.532  70.237  1.00  0.00    -0.350 NA 
HETATM   21  H   UNL     1     -12.643  14.215  70.898  1.00  0.00     0.000 HD 
BRANCH  20  22
HETATM   22  C   UNL     1     -11.830  14.045  69.011  1.00  0.00    -0.354 A  
HETATM   23  C   UNL     1     -12.060  13.319  67.841  1.00  0.00    -0.270 A  
HETATM   24  C   UNL     1     -11.711  13.843  66.592  1.00  0.00    -0.417 A  
HETATM   25  C   UNL     1     -11.107  15.108  66.471  1.00  0.00    -0.305 A  
HETATM   26  C   UNL     1     -10.838  15.825  67.650  1.00  0.00    -0.310 A  
HETATM   27  C   UNL     1     -10.778  15.610  65.096  1.00  0.00    -0.463 C  
HETATM   28  C   UNL     1     -11.208  15.295  68.898  1.00  0.00    -0.291 A  
BRANCH  26  29
HETATM   29  S   UNL     1      -9.972  17.390  67.676  1.00  0.00    -0.312 S  
HETATM   30  O   UNL     1     -10.572  18.285  66.718  1.00  0.00    -0.370 OA 
HETATM   31  O   UNL     1      -8.549  17.128  67.678  1.00  0.00    -0.208 OA 
HETATM   32  N   UNL     1     -10.349  17.965  69.204  1.00  0.00    -0.412 N  
HETATM   33  H1  UNL     1      -9.856  18.857  69.219  1.00  0.00     0.000 HD 
HETATM   34  H2  UNL     1     -10.922  17.534  69.930  1.00  0.00     0.000 HD 
ENDBRANCH  26  29
ENDBRANCH  20  22
ENDBRANCH  15  20
ENDBRANCH   2  14
TORSDOF 5
ENDMDL
MODEL       96
REMARK 921   NORMALIZED FREE ENERGY PREDICTED BY IDOCK:   -6.66 KCAL/MOL
REMARK 922        TOTAL FREE ENERGY PREDICTED BY IDOCK:   -9.07 KCAL/MOL
REMARK 923 INTER-LIGAND FREE ENERGY PREDICTED BY IDOCK:   -8.19 KCAL/MOL
REMARK 924 INTRA-LIGAND FREE ENERGY PREDICTED BY IDOCK:   -0.89 KCAL/MOL
REMARK 927      BINDING AFFINITY PREDICTED BY RF-SCORE:    0.00 PKD
ROOT
HETATM    1  C   UNL     1     -10.588  12.147  66.448  1.00  0.00    -0.241 C  
HETATM    2  N   UNL     1      -9.913  12.005  67.739  1.00  0.00    -0.191 NA 
ENDROOT
BRANCH   2   3
HETATM    3  C   UNL     1     -10.577  11.231  68.736  1.00  0.00    -0.203 A  
HETATM    4  C   UNL     1     -12.509  11.186  70.391  1.00  0.00    -0.382 A  
HETATM    5  C   UNL     1     -13.893   9.062  72.290  1.00  0.00    -0.547 C  
HETATM    6  C   UNL     1     -10.173   9.901  69.027  1.00  0.00    -0.213 A  
HETATM    7  C   UNL     1     -10.965   9.233  69.978  1.00  0.00    -0.229 A  
HETATM    8  C   UNL     1     -12.083   9.884  70.603  1.00  0.00    -0.343 A  
HETATM    9  C   UNL     1     -12.682   8.969  71.436  1.00  0.00    -0.304 A  
HETATM   10  N   UNL     1     -10.862   7.982  70.456  1.00  0.00    -0.238 NA 
HETATM   11  N   UNL     1     -11.903   7.844  71.306  1.00  0.00    -0.293 NA 
HETATM   12  C   UNL     1     -12.093   6.573  71.968  1.00  0.00    -0.312 C  
HETATM   13  C   UNL     1     -11.697  11.830  69.430  1.00  0.00    -0.405 A  
ENDBRANCH   2   3
BRANCH   2  14
HETATM   14  C   UNL     1      -8.577  12.452  67.827  1.00  0.00    -0.172 A  
HETATM   15  C   UNL     1      -7.073  14.024  68.653  1.00  0.00    -0.108 A  
HETATM   16  N   UNL     1      -6.034  13.500  67.997  1.00  0.00    -0.118 NA 
HETATM   17  C   UNL     1      -6.291  12.398  67.276  1.00  0.00    -0.142 A  
HETATM   18  C   UNL     1      -7.538  11.827  67.164  1.00  0.00    -0.155 A  
HETATM   19  N   UNL     1      -8.322  13.543  68.572  1.00  0.00    -0.135 NA 
BRANCH  15  20
HETATM   20  N   UNL     1      -6.826  15.155  69.430  1.00  0.00    -0.156 NA 
HETATM   21  H   UNL     1      -6.571  14.982  70.402  1.00  0.00     0.000 HD 
BRANCH  20  22
HETATM   22  C   UNL     1      -6.882  16.501  69.042  1.00  0.00    -0.203 A  
HETATM   23  C   UNL     1      -5.760  17.312  69.219  1.00  0.00    -0.191 A  
HETATM   24  C   UNL     1      -5.752  18.634  68.761  1.00  0.00    -0.202 A  
HETATM   25  C   UNL     1      -6.873  19.195  68.123  1.00  0.00    -0.276 A  
HETATM   26  C   UNL     1      -8.019  18.392  67.978  1.00  0.00    -0.276 A  
HETATM   27  C   UNL     1      -6.783  20.613  67.643  1.00  0.00    -0.375 C  
HETATM   28  C   UNL     1      -8.009  17.061  68.427  1.00  0.00    -0.239 A  
BRANCH  26  29
HETATM   29  S   UNL     1      -9.561  18.990  67.295  1.00  0.00    -0.322 S  
HETATM   30  O   UNL     1      -9.372  19.319  65.905  1.00  0.00    -0.429 OA 
HETATM   31  O   UNL     1     -10.139  19.935  68.225  1.00  0.00    -0.423 OA 
HETATM   32  N   UNL     1     -10.519  17.616  67.360  1.00  0.00    -0.362 N  
HETATM   33  H1  UNL     1     -11.398  17.957  66.970  1.00  0.00     0.000 HD 
HETATM   34  H2  UNL     1     -10.284  16.684  67.701  1.00  0.00     0.000 HD 
ENDBRANCH  26  29
ENDBRANCH  20  22
ENDBRANCH  15  20
ENDBRANCH   2  14
TORSDOF 5
ENDMDL
MODEL       97
REMARK 921   NORMALIZED FREE ENERGY PREDICTED BY IDOCK:   -6.66 KCAL/MOL
REMARK 922        TOTAL FREE ENERGY PREDICTED BY IDOCK:   -9.06 KCAL/MOL
REMARK 923 INTER-LIGAND FREE ENERGY PREDICTED BY IDOCK:   -7.93 KCAL/MOL
REMARK 924 INTRA-LIGAND FREE ENERGY PREDICTED BY IDOCK:   -1.14 KCAL/MOL
REMARK 927      BINDING AFFINITY PREDICTED BY RF-SCORE:    0.00 PKD
ROOT
HETATM    1  C   UNL     1     -10.846  15.637  65.572  1.00  0.00    -0.346 C  
HETATM    2  N   UNL     1     -10.190  15.935  66.846  1.00  0.00    -0.270 NA 
ENDROOT
BRANCH   2   3
HETATM    3  C   UNL     1     -10.887  15.568  68.035  1.00  0.00    -0.300 A  
HETATM    4  C   UNL     1     -12.266  13.750  69.162  1.00  0.00    -0.289 A  
HETATM    5  C   UNL     1     -13.419  13.163  72.052  1.00  0.00    -0.598 C  
HETATM    6  C   UNL     1     -10.878  16.404  69.183  1.00  0.00    -0.329 A  
HETATM    7  C   UNL     1     -11.544  15.880  70.307  1.00  0.00    -0.354 A  
HETATM    8  C   UNL     1     -12.190  14.598  70.256  1.00  0.00    -0.389 A  
HETATM    9  C   UNL     1     -12.701  14.342  71.506  1.00  0.00    -0.350 A  
HETATM   10  N   UNL     1     -11.703  16.404  71.533  1.00  0.00    -0.397 NA 
HETATM   11  N   UNL     1     -12.377  15.465  72.231  1.00  0.00    -0.349 NA 
HETATM   12  C   UNL     1     -12.677  15.718  73.623  1.00  0.00    -0.604 C  
HETATM   13  C   UNL     1     -11.587  14.301  68.051  1.00  0.00    -0.364 A  
ENDBRANCH   2   3
BRANCH   2  14
HETATM   14  C   UNL     1      -8.843  16.354  66.803  1.00  0.00    -0.225 A  
HETATM   15  C   UNL     1      -6.610  15.863  67.242  1.00  0.00    -0.165 A  
HETATM   16  N   UNL     1      -6.185  17.077  66.880  1.00  0.00    -0.184 NA 
HETATM   17  C   UNL     1      -7.129  17.921  66.433  1.00  0.00    -0.257 A  
HETATM   18  C   UNL     1      -8.467  17.608  66.364  1.00  0.00    -0.279 A  
HETATM   19  N   UNL     1      -7.900  15.494  67.230  1.00  0.00    -0.186 NA 
BRANCH  15  20
HETATM   20  N   UNL     1      -5.645  14.962  67.686  1.00  0.00    -0.332 NA 
HETATM   21  H   UNL     1      -4.675  15.264  67.592  1.00  0.00     0.000 HD 
BRANCH  20  22
HETATM   22  C   UNL     1      -5.839  13.691  68.246  1.00  0.00    -0.103 A  
HETATM   23  C   UNL     1      -5.724  13.527  69.627  1.00  0.00    -0.104 A  
HETATM   24  C   UNL     1      -5.999  12.295  70.228  1.00  0.00    -0.138 A  
HETATM   25  C   UNL     1      -6.387  11.178  69.465  1.00  0.00    -0.101 A  
HETATM   26  C   UNL     1      -6.465  11.330  68.069  1.00  0.00    -0.057 A  
HETATM   27  C   UNL     1      -6.683   9.894  70.182  1.00  0.00    -0.112 C  
HETATM   28  C   UNL     1      -6.203  12.578  67.479  1.00  0.00    -0.155 A  
BRANCH  26  29
HETATM   29  S   UNL     1      -6.830   9.982  66.950  1.00  0.00    -0.089 S  
HETATM   30  O   UNL     1      -8.156   9.485  67.216  1.00  0.00    -0.109 OA 
HETATM   31  O   UNL     1      -5.684   9.098  66.908  1.00  0.00    -0.043 OA 
HETATM   32  N   UNL     1      -6.874  10.768  65.471  1.00  0.00    -0.350 N  
HETATM   33  H1  UNL     1      -7.082   9.999  64.833  1.00  0.00     0.000 HD 
HETATM   34  H2  UNL     1      -6.731  11.756  65.263  1.00  0.00     0.000 HD 
ENDBRANCH  26  29
ENDBRANCH  20  22
ENDBRANCH  15  20
ENDBRANCH   2  14
TORSDOF 5
ENDMDL
MODEL       98
REMARK 921   NORMALIZED FREE ENERGY PREDICTED BY IDOCK:   -6.65 KCAL/MOL
REMARK 922        TOTAL FREE ENERGY PREDICTED BY IDOCK:   -9.05 KCAL/MOL
REMARK 923 INTER-LIGAND FREE ENERGY PREDICTED BY IDOCK:   -8.76 KCAL/MOL
REMARK 924 INTRA-LIGAND FREE ENERGY PREDICTED BY IDOCK:   -0.29 KCAL/MOL
REMARK 927      BINDING AFFINITY PREDICTED BY RF-SCORE:    0.00 PKD
ROOT
HETATM    1  C   UNL     1     -12.696  13.361  65.377  1.00  0.00    -0.426 C  
HETATM    2  N   UNL     1     -11.233  13.348  65.394  1.00  0.00    -0.286 NA 
ENDROOT
BRANCH   2   3
HETATM    3  C   UNL     1     -10.584  14.348  66.177  1.00  0.00    -0.298 A  
HETATM    4  C   UNL     1      -8.341  15.182  67.043  1.00  0.00    -0.263 A  
HETATM    5  C   UNL     1      -7.242  17.733  68.565  1.00  0.00    -0.259 C  
HETATM    6  C   UNL     1     -11.311  15.431  66.740  1.00  0.00    -0.125 A  
HETATM    7  C   UNL     1     -10.530  16.381  67.422  1.00  0.00    -0.309 A  
HETATM    8  C   UNL     1      -9.106  16.228  67.537  1.00  0.00    -0.196 A  
HETATM    9  C   UNL     1      -8.624  17.328  68.206  1.00  0.00    -0.247 A  
HETATM   10  N   UNL     1     -10.902  17.511  68.045  1.00  0.00    -0.336 NA 
HETATM   11  N   UNL     1      -9.751  18.065  68.486  1.00  0.00    -0.336 NA 
HETATM   12  C   UNL     1      -9.812  19.332  69.179  1.00  0.00    -0.334 C  
HETATM   13  C   UNL     1      -9.152  14.246  66.362  1.00  0.00    -0.171 A  
ENDBRANCH   2   3
BRANCH   2  14
HETATM   14  C   UNL     1     -10.585  12.230  64.825  1.00  0.00    -0.297 A  
HETATM   15  C   UNL     1      -9.446  10.228  65.161  1.00  0.00    -0.252 A  
HETATM   16  N   UNL     1      -9.201  10.052  63.859  1.00  0.00    -0.261 NA 
HETATM   17  C   UNL     1      -9.707  10.982  63.035  1.00  0.00    -0.354 A  
HETATM   18  C   UNL     1     -10.413  12.083  63.462  1.00  0.00    -0.505 A  
HETATM   19  N   UNL     1     -10.102  11.288  65.656  1.00  0.00    -0.236 NA 
BRANCH  15  20
HETATM   20  N   UNL     1      -8.952   9.261  66.034  1.00  0.00    -0.164 NA 
HETATM   21  H   UNL     1      -7.965   9.028  65.930  1.00  0.00     0.000 HD 
BRANCH  20  22
HETATM   22  C   UNL     1      -9.642   8.567  67.038  1.00  0.00    -0.188 A  
HETATM   23  C   UNL     1      -9.917   7.209  66.867  1.00  0.00    -0.293 A  
HETATM   24  C   UNL     1     -10.523   6.466  67.885  1.00  0.00    -0.276 A  
HETATM   25  C   UNL     1     -10.888   7.060  69.107  1.00  0.00    -0.223 A  
HETATM   26  C   UNL     1     -10.649   8.437  69.267  1.00  0.00    -0.182 A  
HETATM   27  C   UNL     1     -11.518   6.196  70.158  1.00  0.00    -0.365 C  
HETATM   28  C   UNL     1     -10.024   9.169  68.243  1.00  0.00    -0.199 A  
BRANCH  26  29
HETATM   29  S   UNL     1     -11.158   9.364  70.710  1.00  0.00    -0.328 S  
HETATM   30  O   UNL     1     -11.082  10.774  70.424  1.00  0.00    -0.266 OA 
HETATM   31  O   UNL     1     -10.516   8.791  71.874  1.00  0.00    -0.307 OA 
HETATM   32  N   UNL     1     -12.782   8.961  70.821  1.00  0.00    -0.479 N  
HETATM   33  H1  UNL     1     -13.072   9.489  71.643  1.00  0.00     0.000 HD 
HETATM   34  H2  UNL     1     -13.334   8.347  70.222  1.00  0.00     0.000 HD 
ENDBRANCH  26  29
ENDBRANCH  20  22
ENDBRANCH  15  20
ENDBRANCH   2  14
TORSDOF 5
ENDMDL
MODEL       99
REMARK 921   NORMALIZED FREE ENERGY PREDICTED BY IDOCK:   -6.65 KCAL/MOL
REMARK 922        TOTAL FREE ENERGY PREDICTED BY IDOCK:   -9.05 KCAL/MOL
REMARK 923 INTER-LIGAND FREE ENERGY PREDICTED BY IDOCK:   -8.37 KCAL/MOL
REMARK 924 INTRA-LIGAND FREE ENERGY PREDICTED BY IDOCK:   -0.68 KCAL/MOL
REMARK 927      BINDING AFFINITY PREDICTED BY RF-SCORE:    0.00 PKD
ROOT
HETATM    1  C   UNL     1     -12.531  12.300  63.539  1.00  0.00    -0.534 C  
HETATM    2  N   UNL     1     -11.337  12.373  64.381  1.00  0.00    -0.322 NA 
ENDROOT
BRANCH   2   3
HETATM    3  C   UNL     1     -10.433  11.272  64.322  1.00  0.00    -0.357 A  
HETATM    4  C   UNL     1      -8.844   9.963  62.825  1.00  0.00    -0.242 A  
HETATM    5  C   UNL     1      -6.690   7.668  63.169  1.00  0.00    -0.066 C  
HETATM    6  C   UNL     1     -10.123  10.509  65.478  1.00  0.00    -0.349 A  
HETATM    7  C   UNL     1      -9.158   9.502  65.286  1.00  0.00    -0.224 A  
HETATM    8  C   UNL     1      -8.563   9.280  63.998  1.00  0.00    -0.204 A  
HETATM    9  C   UNL     1      -7.633   8.277  64.139  1.00  0.00    -0.127 A  
HETATM   10  N   UNL     1      -8.641   8.629  66.166  1.00  0.00    -0.134 NA 
HETATM   11  N   UNL     1      -7.726   7.924  65.465  1.00  0.00    -0.095 NA 
HETATM   12  C   UNL     1      -6.957   6.911  66.152  1.00  0.00    -0.068 C  
HETATM   13  C   UNL     1      -9.813  10.968  63.050  1.00  0.00    -0.370 A  
ENDBRANCH   2   3
BRANCH   2  14
HETATM   14  C   UNL     1     -11.060  13.605  65.013  1.00  0.00    -0.332 A  
HETATM   15  C   UNL     1     -10.553  14.745  66.978  1.00  0.00    -0.290 A  
HETATM   16  N   UNL     1     -10.613  15.946  66.396  1.00  0.00    -0.309 NA 
HETATM   17  C   UNL     1     -10.864  15.948  65.078  1.00  0.00    -0.426 A  
HETATM   18  C   UNL     1     -11.085  14.810  64.337  1.00  0.00    -0.133 A  
HETATM   19  N   UNL     1     -10.785  13.594  66.330  1.00  0.00    -0.283 NA 
BRANCH  15  20
HETATM   20  N   UNL     1     -10.269  14.716  68.342  1.00  0.00    -0.229 NA 
HETATM   21  H   UNL     1      -9.385  15.140  68.622  1.00  0.00     0.000 HD 
BRANCH  20  22
HETATM   22  C   UNL     1     -11.045  14.177  69.377  1.00  0.00    -0.221 A  
HETATM   23  C   UNL     1     -11.678  15.036  70.277  1.00  0.00    -0.338 A  
HETATM   24  C   UNL     1     -12.531  14.536  71.266  1.00  0.00    -0.416 A  
HETATM   25  C   UNL     1     -12.771  13.156  71.398  1.00  0.00    -0.390 A  
HETATM   26  C   UNL     1     -12.103  12.285  70.518  1.00  0.00    -0.282 A  
HETATM   27  C   UNL     1     -13.712  12.697  72.471  1.00  0.00    -0.230 C  
HETATM   28  C   UNL     1     -11.262  12.801  69.518  1.00  0.00    -0.147 A  
BRANCH  26  29
HETATM   29  S   UNL     1     -12.209  10.502  70.628  1.00  0.00    -0.382 S  
HETATM   30  O   UNL     1     -13.593  10.109  70.707  1.00  0.00    -0.233 OA 
HETATM   31  O   UNL     1     -11.235  10.044  71.595  1.00  0.00    -0.162 OA 
HETATM   32  N   UNL     1     -11.638  10.033  69.124  1.00  0.00    -0.477 N  
HETATM   33  H1  UNL     1     -11.698   9.016  69.187  1.00  0.00     0.000 HD 
HETATM   34  H2  UNL     1     -11.314  10.612  68.349  1.00  0.00     0.000 HD 
ENDBRANCH  26  29
ENDBRANCH  20  22
ENDBRANCH  15  20
ENDBRANCH   2  14
TORSDOF 5
ENDMDL
MODEL      100
REMARK 921   NORMALIZED FREE ENERGY PREDICTED BY IDOCK:   -6.64 KCAL/MOL
REMARK 922        TOTAL FREE ENERGY PREDICTED BY IDOCK:   -9.04 KCAL/MOL
REMARK 923 INTER-LIGAND FREE ENERGY PREDICTED BY IDOCK:   -9.11 KCAL/MOL
REMARK 924 INTRA-LIGAND FREE ENERGY PREDICTED BY IDOCK:    0.07 KCAL/MOL
REMARK 927      BINDING AFFINITY PREDICTED BY RF-SCORE:    0.00 PKD
ROOT
HETATM    1  C   UNL     1     -12.019  12.803  67.336  1.00  0.00    -0.272 C  
HETATM    2  N   UNL     1     -11.918  12.589  68.780  1.00  0.00    -0.291 NA 
ENDROOT
BRANCH   2   3
HETATM    3  C   UNL     1     -11.544  11.284  69.216  1.00  0.00    -0.322 A  
HETATM    4  C   UNL     1     -10.527   9.063  68.502  1.00  0.00    -0.232 A  
HETATM    5  C   UNL     1      -9.538   6.402  69.906  1.00  0.00    -0.166 C  
HETATM    6  C   UNL     1     -11.662  10.899  70.578  1.00  0.00    -0.441 A  
HETATM    7  C   UNL     1     -11.185   9.609  70.877  1.00  0.00    -0.352 A  
HETATM    8  C   UNL     1     -10.640   8.764  69.851  1.00  0.00    -0.230 A  
HETATM    9  C   UNL     1     -10.218   7.603  70.454  1.00  0.00    -0.203 A  
HETATM   10  N   UNL     1     -11.140   8.961  72.052  1.00  0.00    -0.371 NA 
HETATM   11  N   UNL     1     -10.546   7.779  71.778  1.00  0.00    -0.213 NA 
HETATM   12  C   UNL     1     -10.314   6.852  72.862  1.00  0.00    -0.226 C  
HETATM   13  C   UNL     1     -11.012  10.363  68.234  1.00  0.00    -0.321 A  
ENDBRANCH   2   3
BRANCH   2  14
HETATM   14  C   UNL     1     -11.979  13.727  69.613  1.00  0.00    -0.342 A  
HETATM   15  C   UNL     1     -11.340  15.933  69.988  1.00  0.00    -0.358 A  
HETATM   16  N   UNL     1     -11.919  15.985  71.191  1.00  0.00    -0.422 NA 
HETATM   17  C   UNL     1     -12.575  14.878  71.575  1.00  0.00    -0.328 A  
HETATM   18  C   UNL     1     -12.645  13.728  70.823  1.00  0.00    -0.410 A  
HETATM   19  N   UNL     1     -11.340  14.841  69.210  1.00  0.00    -0.278 NA 
BRANCH  15  20
HETATM   20  N   UNL     1     -10.674  17.079  69.557  1.00  0.00    -0.368 NA 
HETATM   21  H   UNL     1     -11.134  17.966  69.762  1.00  0.00     0.000 HD 
BRANCH  20  22
HETATM   22  C   UNL     1      -9.452  17.166  68.876  1.00  0.00    -0.217 A  
HETATM   23  C   UNL     1      -8.601  16.060  68.854  1.00  0.00    -0.229 A  
HETATM   24  C   UNL     1      -7.416  16.083  68.110  1.00  0.00    -0.132 A  
HETATM   25  C   UNL     1      -7.036  17.219  67.372  1.00  0.00    -0.185 A  
HETATM   26  C   UNL     1      -7.872  18.348  67.425  1.00  0.00    -0.234 A  
HETATM   27  C   UNL     1      -5.761  17.161  66.585  1.00  0.00    -0.221 C  
HETATM   28  C   UNL     1      -9.067  18.308  68.162  1.00  0.00    -0.310 A  
BRANCH  26  29
HETATM   29  S   UNL     1      -7.474  19.906  66.640  1.00  0.00    -0.272 S  
HETATM   30  O   UNL     1      -7.444  19.727  65.210  1.00  0.00    -0.378 OA 
HETATM   31  O   UNL     1      -6.367  20.508  67.351  1.00  0.00    -0.206 OA 
HETATM   32  N   UNL     1      -8.826  20.827  67.003  1.00  0.00    -0.587 N  
HETATM   33  H1  UNL     1      -8.599  21.715  66.555  1.00  0.00     0.000 HD 
HETATM   34  H2  UNL     1      -9.658  20.568  67.533  1.00  0.00     0.000 HD 
ENDBRANCH  26  29
ENDBRANCH  20  22
ENDBRANCH  15  20
ENDBRANCH   2  14
TORSDOF 5
ENDMDL
MODEL      101
REMARK 921   NORMALIZED FREE ENERGY PREDICTED BY IDOCK:   -6.62 KCAL/MOL
REMARK 922        TOTAL FREE ENERGY PREDICTED BY IDOCK:   -9.02 KCAL/MOL
REMARK 923 INTER-LIGAND FREE ENERGY PREDICTED BY IDOCK:   -8.68 KCAL/MOL
REMARK 924 INTRA-LIGAND FREE ENERGY PREDICTED BY IDOCK:   -0.34 KCAL/MOL
REMARK 927      BINDING AFFINITY PREDICTED BY RF-SCORE:    0.00 PKD
ROOT
HETATM    1  C   UNL     1      -7.893  11.684  67.828  1.00  0.00    -0.129 C  
HETATM    2  N   UNL     1      -9.309  11.443  67.551  1.00  0.00    -0.162 NA 
ENDROOT
BRANCH   2   3
HETATM    3  C   UNL     1      -9.997  10.547  68.422  1.00  0.00    -0.164 A  
HETATM    4  C   UNL     1     -10.069   8.168  69.325  1.00  0.00    -0.202 A  
HETATM    5  C   UNL     1     -11.631   6.586  71.579  1.00  0.00    -0.366 C  
HETATM    6  C   UNL     1     -11.070  10.990  69.239  1.00  0.00    -0.312 A  
HETATM    7  C   UNL     1     -11.603  10.015  70.103  1.00  0.00    -0.252 A  
HETATM    8  C   UNL     1     -11.087   8.674  70.118  1.00  0.00    -0.199 A  
HETATM    9  C   UNL     1     -11.769   7.980  71.088  1.00  0.00    -0.284 A  
HETATM   10  N   UNL     1     -12.598  10.113  70.999  1.00  0.00    -0.353 NA 
HETATM   11  N   UNL     1     -12.665   8.897  71.584  1.00  0.00    -0.333 NA 
HETATM   12  C   UNL     1     -13.632   8.688  72.638  1.00  0.00    -0.226 C  
HETATM   13  C   UNL     1      -9.552   9.170  68.472  1.00  0.00    -0.156 A  
ENDBRANCH   2   3
BRANCH   2  14
HETATM   14  C   UNL     1      -9.936  12.271  66.595  1.00  0.00    -0.215 A  
HETATM   15  C   UNL     1      -9.977  14.313  65.478  1.00  0.00    -0.312 A  
HETATM   16  N   UNL     1     -11.116  14.035  64.838  1.00  0.00    -0.356 NA 
HETATM   17  C   UNL     1     -11.639  12.820  65.068  1.00  0.00    -0.337 A  
HETATM   18  C   UNL     1     -11.086  11.898  65.927  1.00  0.00    -0.365 A  
HETATM   19  N   UNL     1      -9.393  13.478  66.351  1.00  0.00    -0.221 NA 
BRANCH  15  20
HETATM   20  N   UNL     1      -9.403  15.559  65.236  1.00  0.00    -0.246 NA 
HETATM   21  H   UNL     1      -9.363  15.850  64.259  1.00  0.00     0.000 HD 
BRANCH  20  22
HETATM   22  C   UNL     1      -8.872  16.464  66.166  1.00  0.00    -0.314 A  
HETATM   23  C   UNL     1      -7.577  16.269  66.648  1.00  0.00    -0.268 A  
HETATM   24  C   UNL     1      -6.985  17.200  67.507  1.00  0.00    -0.172 A  
HETATM   25  C   UNL     1      -7.674  18.354  67.925  1.00  0.00    -0.261 A  
HETATM   26  C   UNL     1      -8.993  18.533  67.471  1.00  0.00    -0.276 A  
HETATM   27  C   UNL     1      -6.966  19.316  68.832  1.00  0.00    -0.373 C  
HETATM   28  C   UNL     1      -9.571  17.599  66.595  1.00  0.00    -0.301 A  
BRANCH  26  29
HETATM   29  S   UNL     1     -10.041  19.883  68.000  1.00  0.00    -0.432 S  
HETATM   30  O   UNL     1     -10.037  19.956  69.439  1.00  0.00    -0.357 OA 
HETATM   31  O   UNL     1     -11.276  19.826  67.248  1.00  0.00    -0.263 OA 
HETATM   32  N   UNL     1      -9.201  21.214  67.426  1.00  0.00    -0.470 N  
HETATM   33  H1  UNL     1      -9.799  21.984  67.728  1.00  0.00     0.000 HD 
HETATM   34  H2  UNL     1      -8.321  21.247  66.911  1.00  0.00     0.000 HD 
ENDBRANCH  26  29
ENDBRANCH  20  22
ENDBRANCH  15  20
ENDBRANCH   2  14
TORSDOF 5
ENDMDL
MODEL      102
REMARK 921   NORMALIZED FREE ENERGY PREDICTED BY IDOCK:   -6.62 KCAL/MOL
REMARK 922        TOTAL FREE ENERGY PREDICTED BY IDOCK:   -9.01 KCAL/MOL
REMARK 923 INTER-LIGAND FREE ENERGY PREDICTED BY IDOCK:   -8.71 KCAL/MOL
REMARK 924 INTRA-LIGAND FREE ENERGY PREDICTED BY IDOCK:   -0.30 KCAL/MOL
REMARK 927      BINDING AFFINITY PREDICTED BY RF-SCORE:    0.00 PKD
ROOT
HETATM    1  C   UNL     1     -10.166  14.424  66.141  1.00  0.00    -0.306 C  
HETATM    2  N   UNL     1     -10.373  13.032  66.541  1.00  0.00    -0.269 NA 
ENDROOT
BRANCH   2   3
HETATM    3  C   UNL     1     -10.956  12.805  67.823  1.00  0.00    -0.237 A  
HETATM    4  C   UNL     1     -12.095  13.907  69.814  1.00  0.00    -0.404 A  
HETATM    5  C   UNL     1     -13.585  12.973  72.448  1.00  0.00    -0.628 C  
HETATM    6  C   UNL     1     -11.094  11.494  68.349  1.00  0.00    -0.288 A  
HETATM    7  C   UNL     1     -11.755  11.416  69.589  1.00  0.00    -0.345 A  
HETATM    8  C   UNL     1     -12.227  12.599  70.254  1.00  0.00    -0.347 A  
HETATM    9  C   UNL     1     -12.867  12.200  71.403  1.00  0.00    -0.276 A  
HETATM   10  N   UNL     1     -12.055  10.342  70.337  1.00  0.00    -0.301 NA 
HETATM   11  N   UNL     1     -12.730  10.831  71.400  1.00  0.00    -0.416 NA 
HETATM   12  C   UNL     1     -13.231   9.904  72.390  1.00  0.00    -0.225 C  
HETATM   13  C   UNL     1     -11.431  13.952  68.567  1.00  0.00    -0.346 A  
ENDBRANCH   2   3
BRANCH   2  14
HETATM   14  C   UNL     1     -10.191  12.037  65.556  1.00  0.00    -0.258 A  
HETATM   15  C   UNL     1      -9.692   9.818  65.062  1.00  0.00    -0.233 A  
HETATM   16  N   UNL     1      -9.700  10.022  63.742  1.00  0.00    -0.145 NA 
HETATM   17  C   UNL     1     -10.005  11.266  63.341  1.00  0.00    -0.395 A  
HETATM   18  C   UNL     1     -10.268  12.307  64.203  1.00  0.00    -0.376 A  
HETATM   19  N   UNL     1      -9.910  10.786  65.964  1.00  0.00    -0.225 NA 
BRANCH  15  20
HETATM   20  N   UNL     1      -9.402   8.527  65.501  1.00  0.00    -0.433 NA 
HETATM   21  H   UNL     1      -8.885   7.939  64.847  1.00  0.00     0.000 HD 
BRANCH  20  22
HETATM   22  C   UNL     1      -9.732   7.936  66.728  1.00  0.00    -0.234 A  
HETATM   23  C   UNL     1     -10.758   6.990  66.778  1.00  0.00    -0.282 A  
HETATM   24  C   UNL     1     -11.053   6.316  67.967  1.00  0.00    -0.365 A  
HETATM   25  C   UNL     1     -10.340   6.573  69.152  1.00  0.00    -0.226 A  
HETATM   26  C   UNL     1      -9.332   7.552  69.114  1.00  0.00    -0.147 A  
HETATM   27  C   UNL     1     -10.702   5.796  70.383  1.00  0.00    -0.372 C  
HETATM   28  C   UNL     1      -9.033   8.212  67.910  1.00  0.00    -0.133 A  
BRANCH  26  29
HETATM   29  S   UNL     1      -8.414   8.078  70.557  1.00  0.00    -0.128 S  
HETATM   30  O   UNL     1      -7.106   8.529  70.154  1.00  0.00    -0.041 OA 
HETATM   31  O   UNL     1      -8.586   7.086  71.596  1.00  0.00    -0.116 OA 
HETATM   32  N   UNL     1      -9.282   9.426  71.043  1.00  0.00    -0.215 N  
HETATM   33  H1  UNL     1      -8.759   9.726  71.866  1.00  0.00     0.000 HD 
HETATM   34  H2  UNL     1     -10.116   9.839  70.626  1.00  0.00     0.000 HD 
ENDBRANCH  26  29
ENDBRANCH  20  22
ENDBRANCH  15  20
ENDBRANCH   2  14
TORSDOF 5
ENDMDL
MODEL      103
REMARK 921   NORMALIZED FREE ENERGY PREDICTED BY IDOCK:   -6.59 KCAL/MOL
REMARK 922        TOTAL FREE ENERGY PREDICTED BY IDOCK:   -8.98 KCAL/MOL
REMARK 923 INTER-LIGAND FREE ENERGY PREDICTED BY IDOCK:   -9.07 KCAL/MOL
REMARK 924 INTRA-LIGAND FREE ENERGY PREDICTED BY IDOCK:    0.09 KCAL/MOL
REMARK 927      BINDING AFFINITY PREDICTED BY RF-SCORE:    0.00 PKD
ROOT
HETATM    1  C   UNL     1     -12.458  13.896  70.997  1.00  0.00    -0.377 C  
HETATM    2  N   UNL     1     -11.903  12.968  70.011  1.00  0.00    -0.314 NA 
ENDROOT
BRANCH   2   3
HETATM    3  C   UNL     1     -11.865  11.588  70.369  1.00  0.00    -0.320 A  
HETATM    4  C   UNL     1     -12.979   9.766  71.753  1.00  0.00    -0.536 A  
HETATM    5  C   UNL     1     -12.773   6.620  72.049  1.00  0.00    -0.204 C  
HETATM    6  C   UNL     1     -10.930  10.698  69.777  1.00  0.00    -0.340 A  
HETATM    7  C   UNL     1     -11.058   9.352  70.169  1.00  0.00    -0.242 A  
HETATM    8  C   UNL     1     -12.061   8.947  71.114  1.00  0.00    -0.326 A  
HETATM    9  C   UNL     1     -11.970   7.582  71.254  1.00  0.00    -0.307 A  
HETATM   10  N   UNL     1     -10.351   8.276  69.789  1.00  0.00    -0.212 NA 
HETATM   11  N   UNL     1     -10.923   7.235  70.432  1.00  0.00    -0.247 NA 
HETATM   12  C   UNL     1     -10.403   5.906  70.200  1.00  0.00    -0.241 C  
HETATM   13  C   UNL     1     -12.827  11.109  71.338  1.00  0.00    -0.544 A  
ENDBRANCH   2   3
BRANCH   2  14
HETATM   14  C   UNL     1     -11.655  13.467  68.714  1.00  0.00    -0.325 A  
HETATM   15  C   UNL     1     -10.988  15.257  67.384  1.00  0.00    -0.321 A  
HETATM   16  N   UNL     1     -11.235  14.610  66.242  1.00  0.00    -0.337 NA 
HETATM   17  C   UNL     1     -11.664  13.344  66.365  1.00  0.00    -0.368 A  
HETATM   18  C   UNL     1     -11.881  12.722  67.574  1.00  0.00    -0.402 A  
HETATM   19  N   UNL     1     -11.201  14.729  68.598  1.00  0.00    -0.260 NA 
BRANCH  15  20
HETATM   20  N   UNL     1     -10.518  16.565  67.281  1.00  0.00    -0.308 NA 
HETATM   21  H   UNL     1     -11.178  17.249  66.911  1.00  0.00     0.000 HD 
BRANCH  20  22
HETATM   22  C   UNL     1      -9.251  17.059  67.621  1.00  0.00    -0.233 A  
HETATM   23  C   UNL     1      -8.599  16.554  68.748  1.00  0.00    -0.262 A  
HETATM   24  C   UNL     1      -7.298  16.959  69.065  1.00  0.00    -0.231 A  
HETATM   25  C   UNL     1      -6.608  17.894  68.272  1.00  0.00    -0.199 A  
HETATM   26  C   UNL     1      -7.277  18.434  67.158  1.00  0.00    -0.204 A  
HETATM   27  C   UNL     1      -5.210  18.265  68.665  1.00  0.00    -0.169 C  
HETATM   28  C   UNL     1      -8.577  18.007  66.840  1.00  0.00    -0.262 A  
BRANCH  26  29
HETATM   29  S   UNL     1      -6.584  19.715  66.119  1.00  0.00    -0.224 S  
HETATM   30  O   UNL     1      -7.515  20.032  65.065  1.00  0.00    -0.270 OA 
HETATM   31  O   UNL     1      -5.205  19.380  65.835  1.00  0.00    -0.153 OA 
HETATM   32  N   UNL     1      -6.546  21.022  67.167  1.00  0.00    -0.330 N  
HETATM   33  H1  UNL     1      -6.152  21.753  66.574  1.00  0.00     0.000 HD 
HETATM   34  H2  UNL     1      -6.841  21.074  68.142  1.00  0.00     0.000 HD 
ENDBRANCH  26  29
ENDBRANCH  20  22
ENDBRANCH  15  20
ENDBRANCH   2  14
TORSDOF 5
ENDMDL
MODEL      104
REMARK 921   NORMALIZED FREE ENERGY PREDICTED BY IDOCK:   -6.58 KCAL/MOL
REMARK 922        TOTAL FREE ENERGY PREDICTED BY IDOCK:   -8.97 KCAL/MOL
REMARK 923 INTER-LIGAND FREE ENERGY PREDICTED BY IDOCK:   -8.47 KCAL/MOL
REMARK 924 INTRA-LIGAND FREE ENERGY PREDICTED BY IDOCK:   -0.50 KCAL/MOL
REMARK 927      BINDING AFFINITY PREDICTED BY RF-SCORE:    0.00 PKD
ROOT
HETATM    1  C   UNL     1     -10.771   6.210  66.786  1.00  0.00    -0.299 C  
HETATM    2  N   UNL     1     -10.458   7.350  67.649  1.00  0.00    -0.227 NA 
ENDROOT
BRANCH   2   3
HETATM    3  C   UNL     1     -10.246   7.076  69.033  1.00  0.00    -0.187 A  
HETATM    4  C   UNL     1     -11.338   6.268  71.185  1.00  0.00    -0.364 A  
HETATM    5  C   UNL     1     -10.408   5.472  74.105  1.00  0.00    -0.302 C  
HETATM    6  C   UNL     1      -8.958   7.193  69.619  1.00  0.00    -0.141 A  
HETATM    7  C   UNL     1      -8.884   6.818  70.974  1.00  0.00    -0.141 A  
HETATM    8  C   UNL     1     -10.050   6.372  71.685  1.00  0.00    -0.209 A  
HETATM    9  C   UNL     1      -9.653   6.034  72.957  1.00  0.00    -0.154 A  
HETATM   10  N   UNL     1      -7.828   6.798  71.802  1.00  0.00    -0.100 NA 
HETATM   11  N   UNL     1      -8.306   6.312  72.969  1.00  0.00    -0.118 NA 
HETATM   12  C   UNL     1      -7.390   6.133  74.072  1.00  0.00    -0.087 C  
HETATM   13  C   UNL     1     -11.380   6.648  69.824  1.00  0.00    -0.412 A  
ENDBRANCH   2   3
BRANCH   2  14
HETATM   14  C   UNL     1     -10.175   8.583  67.023  1.00  0.00    -0.301 A  
HETATM   15  C   UNL     1     -10.793  10.796  66.655  1.00  0.00    -0.164 A  
HETATM   16  N   UNL     1      -9.808  11.014  65.780  1.00  0.00    -0.223 NA 
HETATM   17  C   UNL     1      -8.972   9.986  65.567  1.00  0.00    -0.174 A  
HETATM   18  C   UNL     1      -9.103   8.754  66.168  1.00  0.00    -0.251 A  
HETATM   19  N   UNL     1     -11.002   9.617  67.259  1.00  0.00    -0.149 NA 
BRANCH  15  20
HETATM   20  N   UNL     1     -11.659  11.858  66.911  1.00  0.00    -0.534 NA 
HETATM   21  H   UNL     1     -12.578  11.801  66.472  1.00  0.00     0.000 HD 
BRANCH  20  22
HETATM   22  C   UNL     1     -11.425  12.997  67.695  1.00  0.00    -0.324 A  
HETATM   23  C   UNL     1     -10.598  14.008  67.204  1.00  0.00    -0.274 A  
HETATM   24  C   UNL     1     -10.415  15.195  67.920  1.00  0.00    -0.245 A  
HETATM   25  C   UNL     1     -11.043  15.407  69.161  1.00  0.00    -0.267 A  
HETATM   26  C   UNL     1     -11.846  14.374  69.677  1.00  0.00    -0.321 A  
HETATM   27  C   UNL     1     -10.814  16.713  69.861  1.00  0.00    -0.206 C  
HETATM   28  C   UNL     1     -12.035  13.192  68.940  1.00  0.00    -0.317 A  
BRANCH  26  29
HETATM   29  S   UNL     1     -12.619  14.438  71.289  1.00  0.00    -0.374 S  
HETATM   30  O   UNL     1     -11.743  15.114  72.213  1.00  0.00    -0.401 OA 
HETATM   31  O   UNL     1     -13.170  13.134  71.586  1.00  0.00    -0.384 OA 
HETATM   32  N   UNL     1     -13.924  15.449  71.003  1.00  0.00    -0.822 N  
HETATM   33  H1  UNL     1     -14.365  15.486  71.922  1.00  0.00     0.000 HD 
HETATM   34  H2  UNL     1     -14.205  15.907  70.136  1.00  0.00     0.000 HD 
ENDBRANCH  26  29
ENDBRANCH  20  22
ENDBRANCH  15  20
ENDBRANCH   2  14
TORSDOF 5
ENDMDL
MODEL      105
REMARK 921   NORMALIZED FREE ENERGY PREDICTED BY IDOCK:   -6.58 KCAL/MOL
REMARK 922        TOTAL FREE ENERGY PREDICTED BY IDOCK:   -8.96 KCAL/MOL
REMARK 923 INTER-LIGAND FREE ENERGY PREDICTED BY IDOCK:   -8.12 KCAL/MOL
REMARK 924 INTRA-LIGAND FREE ENERGY PREDICTED BY IDOCK:   -0.84 KCAL/MOL
REMARK 927      BINDING AFFINITY PREDICTED BY RF-SCORE:    0.00 PKD
ROOT
HETATM    1  C   UNL     1      -9.156   9.949  69.802  1.00  0.00    -0.225 C  
HETATM    2  N   UNL     1     -10.434  10.662  69.802  1.00  0.00    -0.193 NA 
ENDROOT
BRANCH   2   3
HETATM    3  C   UNL     1     -10.668  11.573  68.730  1.00  0.00    -0.211 A  
HETATM    4  C   UNL     1     -10.265  13.940  67.885  1.00  0.00    -0.241 A  
HETATM    5  C   UNL     1     -10.703  15.553  65.195  1.00  0.00    -0.460 C  
HETATM    6  C   UNL     1     -11.331  11.162  67.544  1.00  0.00    -0.351 A  
HETATM    7  C   UNL     1     -11.424  12.146  66.541  1.00  0.00    -0.369 A  
HETATM    8  C   UNL     1     -10.892  13.464  66.744  1.00  0.00    -0.286 A  
HETATM    9  C   UNL     1     -11.088  14.172  65.582  1.00  0.00    -0.307 A  
HETATM   10  N   UNL     1     -11.970  12.075  65.317  1.00  0.00    -0.371 NA 
HETATM   11  N   UNL     1     -11.741  13.285  64.760  1.00  0.00    -0.340 NA 
HETATM   12  C   UNL     1     -12.184  13.518  63.404  1.00  0.00    -0.272 C  
HETATM   13  C   UNL     1     -10.184  12.930  68.871  1.00  0.00    -0.007 A  
ENDBRANCH   2   3
BRANCH   2  14
HETATM   14  C   UNL     1     -11.416  10.239  70.724  1.00  0.00    -0.351 A  
HETATM   15  C   UNL     1     -12.216   8.558  72.120  1.00  0.00    -0.382 A  
HETATM   16  N   UNL     1     -13.316   9.240  72.451  1.00  0.00    -0.464 NA 
HETATM   17  C   UNL     1     -13.426  10.469  71.923  1.00  0.00    -0.256 A  
HETATM   18  C   UNL     1     -12.503  11.021  71.064  1.00  0.00    -0.512 A  
HETATM   19  N   UNL     1     -11.286   9.016  71.268  1.00  0.00    -0.292 NA 
BRANCH  15  20
HETATM   20  N   UNL     1     -12.068   7.289  72.676  1.00  0.00    -0.520 NA 
HETATM   21  H   UNL     1     -12.903   6.889  73.105  1.00  0.00     0.000 HD 
BRANCH  20  22
HETATM   22  C   UNL     1     -10.915   6.492  72.720  1.00  0.00    -0.253 A  
HETATM   23  C   UNL     1     -10.121   6.501  73.868  1.00  0.00    -0.329 A  
HETATM   24  C   UNL     1      -9.015   5.652  73.981  1.00  0.00    -0.122 A  
HETATM   25  C   UNL     1      -8.658   4.772  72.942  1.00  0.00    -0.111 A  
HETATM   26  C   UNL     1      -9.433   4.789  71.770  1.00  0.00    -0.149 A  
HETATM   27  C   UNL     1      -7.470   3.879  73.144  1.00  0.00    -0.073 C  
HETATM   28  C   UNL     1     -10.552   5.635  71.675  1.00  0.00    -0.301 A  
BRANCH  26  29
HETATM   29  S   UNL     1      -9.045   3.818  70.318  1.00  0.00    -0.140 S  
HETATM   30  O   UNL     1      -9.422   2.446  70.544  1.00  0.00    -0.136 OA 
HETATM   31  O   UNL     1      -7.715   4.174  69.871  1.00  0.00    -0.052 OA 
HETATM   32  N   UNL     1     -10.108   4.452  69.188  1.00  0.00    -0.047 N  
HETATM   33  H1  UNL     1      -9.887   3.899  68.360  1.00  0.00     0.000 HD 
HETATM   34  H2  UNL     1     -10.796   5.197  69.299  1.00  0.00     0.000 HD 
ENDBRANCH  26  29
ENDBRANCH  20  22
ENDBRANCH  15  20
ENDBRANCH   2  14
TORSDOF 5
ENDMDL
MODEL      106
REMARK 921   NORMALIZED FREE ENERGY PREDICTED BY IDOCK:   -6.57 KCAL/MOL
REMARK 922        TOTAL FREE ENERGY PREDICTED BY IDOCK:   -8.95 KCAL/MOL
REMARK 923 INTER-LIGAND FREE ENERGY PREDICTED BY IDOCK:   -8.20 KCAL/MOL
REMARK 924 INTRA-LIGAND FREE ENERGY PREDICTED BY IDOCK:   -0.76 KCAL/MOL
REMARK 927      BINDING AFFINITY PREDICTED BY RF-SCORE:    0.00 PKD
ROOT
HETATM    1  C   UNL     1      -8.994   5.231  65.663  1.00  0.00    -0.158 C  
HETATM    2  N   UNL     1      -9.019   6.501  66.389  1.00  0.00    -0.144 NA 
ENDROOT
BRANCH   2   3
HETATM    3  C   UNL     1      -9.678   6.513  67.653  1.00  0.00    -0.123 A  
HETATM    4  C   UNL     1     -10.352   5.101  69.661  1.00  0.00    -0.316 A  
HETATM    5  C   UNL     1     -11.591   5.590  72.534  1.00  0.00    -0.272 C  
HETATM    6  C   UNL     1     -10.184   7.716  68.211  1.00  0.00    -0.229 A  
HETATM    7  C   UNL     1     -10.741   7.589  69.497  1.00  0.00    -0.217 A  
HETATM    8  C   UNL     1     -10.794   6.316  70.160  1.00  0.00    -0.375 A  
HETATM    9  C   UNL     1     -11.340   6.521  71.405  1.00  0.00    -0.294 A  
HETATM   10  N   UNL     1     -11.283   8.524  70.294  1.00  0.00    -0.223 NA 
HETATM   11  N   UNL     1     -11.615   7.868  71.428  1.00  0.00    -0.266 NA 
HETATM   12  C   UNL     1     -12.199   8.619  72.517  1.00  0.00    -0.303 C  
HETATM   13  C   UNL     1      -9.796   5.261  68.371  1.00  0.00    -0.208 A  
ENDBRANCH   2   3
BRANCH   2  14
HETATM   14  C   UNL     1      -8.211   7.549  65.896  1.00  0.00    -0.134 A  
HETATM   15  C   UNL     1      -8.094   9.673  64.952  1.00  0.00    -0.133 A  
HETATM   16  N   UNL     1      -6.767   9.627  64.806  1.00  0.00    -0.097 NA 
HETATM   17  C   UNL     1      -6.164   8.518  65.261  1.00  0.00    -0.052 A  
HETATM   18  C   UNL     1      -6.834   7.455  65.823  1.00  0.00    -0.056 A  
HETATM   19  N   UNL     1      -8.820   8.668  65.463  1.00  0.00    -0.189 NA 
BRANCH  15  20
HETATM   20  N   UNL     1      -8.740  10.826  64.509  1.00  0.00    -0.318 NA 
HETATM   21  H   UNL     1      -8.721  10.989  63.502  1.00  0.00     0.000 HD 
BRANCH  20  22
HETATM   22  C   UNL     1      -9.411  11.790  65.273  1.00  0.00    -0.114 A  
HETATM   23  C   UNL     1      -9.082  11.947  66.620  1.00  0.00    -0.203 A  
HETATM   24  C   UNL     1      -9.668  12.959  67.388  1.00  0.00    -0.201 A  
HETATM   25  C   UNL     1     -10.615  13.842  66.837  1.00  0.00    -0.276 A  
HETATM   26  C   UNL     1     -10.977  13.661  65.491  1.00  0.00    -0.293 A  
HETATM   27  C   UNL     1     -11.186  14.913  67.718  1.00  0.00    -0.329 C  
HETATM   28  C   UNL     1     -10.369  12.652  64.725  1.00  0.00    -0.335 A  
BRANCH  26  29
HETATM   29  S   UNL     1     -12.247  14.623  64.675  1.00  0.00    -0.369 S  
HETATM   30  O   UNL     1     -11.747  15.949  64.411  1.00  0.00    -0.377 OA 
HETATM   31  O   UNL     1     -13.499  14.409  65.367  1.00  0.00    -0.485 OA 
HETATM   32  N   UNL     1     -12.380  13.834  63.202  1.00  0.00    -1.106 N  
HETATM   33  H1  UNL     1     -13.104  14.382  62.737  1.00  0.00     0.000 HD 
HETATM   34  H2  UNL     1     -11.871  13.018  62.861  1.00  0.00     0.000 HD 
ENDBRANCH  26  29
ENDBRANCH  20  22
ENDBRANCH  15  20
ENDBRANCH   2  14
TORSDOF 5
ENDMDL
MODEL      107
REMARK 921   NORMALIZED FREE ENERGY PREDICTED BY IDOCK:   -6.54 KCAL/MOL
REMARK 922        TOTAL FREE ENERGY PREDICTED BY IDOCK:   -8.91 KCAL/MOL
REMARK 923 INTER-LIGAND FREE ENERGY PREDICTED BY IDOCK:   -8.09 KCAL/MOL
REMARK 924 INTRA-LIGAND FREE ENERGY PREDICTED BY IDOCK:   -0.83 KCAL/MOL
REMARK 927      BINDING AFFINITY PREDICTED BY RF-SCORE:    0.00 PKD
ROOT
HETATM    1  C   UNL     1     -13.760   9.847  72.196  1.00  0.00    -0.206 C  
HETATM    2  N   UNL     1     -12.524   9.972  71.423  1.00  0.00    -0.378 NA 
ENDROOT
BRANCH   2   3
HETATM    3  C   UNL     1     -11.688   8.819  71.346  1.00  0.00    -0.305 A  
HETATM    4  C   UNL     1     -11.656   6.281  71.163  1.00  0.00    -0.339 A  
HETATM    5  C   UNL     1      -9.498   4.013  70.686  1.00  0.00    -0.240 C  
HETATM    6  C   UNL     1     -10.274   8.936  71.280  1.00  0.00    -0.361 A  
HETATM    7  C   UNL     1      -9.583   7.719  71.130  1.00  0.00    -0.158 A  
HETATM    8  C   UNL     1     -10.286   6.468  71.070  1.00  0.00    -0.218 A  
HETATM    9  C   UNL     1      -9.353   5.478  70.873  1.00  0.00    -0.156 A  
HETATM   10  N   UNL     1      -8.264   7.489  71.023  1.00  0.00    -0.107 NA 
HETATM   11  N   UNL     1      -8.154   6.153  70.854  1.00  0.00    -0.119 NA 
HETATM   12  C   UNL     1      -6.838   5.584  70.669  1.00  0.00    -0.052 C  
HETATM   13  C   UNL     1     -12.323   7.519  71.309  1.00  0.00    -0.356 A  
ENDBRANCH   2   3
BRANCH   2  14
HETATM   14  C   UNL     1     -12.360  11.135  70.640  1.00  0.00    -0.388 A  
HETATM   15  C   UNL     1     -12.011  12.061  68.533  1.00  0.00    -0.214 A  
HETATM   16  N   UNL     1     -11.920  13.308  69.004  1.00  0.00    -0.311 NA 
HETATM   17  C   UNL     1     -12.098  13.452  70.327  1.00  0.00    -0.349 A  
HETATM   18  C   UNL     1     -12.331  12.403  71.187  1.00  0.00    -0.243 A  
HETATM   19  N   UNL     1     -12.207  10.987  69.311  1.00  0.00    -0.411 NA 
BRANCH  15  20
HETATM   20  N   UNL     1     -11.854  11.891  67.159  1.00  0.00    -0.620 NA 
HETATM   21  H   UNL     1     -12.461  12.457  66.567  1.00  0.00     0.000 HD 
BRANCH  20  22
HETATM   22  C   UNL     1     -10.966  11.039  66.488  1.00  0.00    -0.166 A  
HETATM   23  C   UNL     1     -10.334  11.486  65.326  1.00  0.00    -0.322 A  
HETATM   24  C   UNL     1      -9.376  10.697  64.682  1.00  0.00    -0.280 A  
HETATM   25  C   UNL     1      -9.026   9.425  65.171  1.00  0.00    -0.258 A  
HETATM   26  C   UNL     1      -9.689   8.956  66.319  1.00  0.00    -0.275 A  
HETATM   27  C   UNL     1      -7.976   8.645  64.437  1.00  0.00    -0.146 C  
HETATM   28  C   UNL     1     -10.638   9.765  66.967  1.00  0.00    -0.269 A  
BRANCH  26  29
HETATM   29  S   UNL     1      -9.443   7.319  66.999  1.00  0.00    -0.165 S  
HETATM   30  O   UNL     1     -10.584   6.958  67.802  1.00  0.00    -0.199 OA 
HETATM   31  O   UNL     1      -8.095   7.235  67.517  1.00  0.00    -0.111 OA 
HETATM   32  N   UNL     1      -9.479   6.367  65.619  1.00  0.00    -0.363 N  
HETATM   33  H1  UNL     1      -9.339   5.434  66.007  1.00  0.00     0.000 HD 
HETATM   34  H2  UNL     1      -9.607   6.648  64.647  1.00  0.00     0.000 HD 
ENDBRANCH  26  29
ENDBRANCH  20  22
ENDBRANCH  15  20
ENDBRANCH   2  14
TORSDOF 5
ENDMDL
MODEL      108
REMARK 921   NORMALIZED FREE ENERGY PREDICTED BY IDOCK:   -6.53 KCAL/MOL
REMARK 922        TOTAL FREE ENERGY PREDICTED BY IDOCK:   -8.91 KCAL/MOL
REMARK 923 INTER-LIGAND FREE ENERGY PREDICTED BY IDOCK:   -8.37 KCAL/MOL
REMARK 924 INTRA-LIGAND FREE ENERGY PREDICTED BY IDOCK:   -0.54 KCAL/MOL
REMARK 927      BINDING AFFINITY PREDICTED BY RF-SCORE:    0.00 PKD
ROOT
HETATM    1  C   UNL     1      -7.186  13.130  67.380  1.00  0.00    -0.110 C  
HETATM    2  N   UNL     1      -8.309  14.050  67.566  1.00  0.00    -0.179 NA 
ENDROOT
BRANCH   2   3
HETATM    3  C   UNL     1      -8.008  15.444  67.590  1.00  0.00    -0.155 A  
HETATM    4  C   UNL     1      -7.306  17.396  69.065  1.00  0.00    -0.204 A  
HETATM    5  C   UNL     1      -6.402  20.404  68.662  1.00  0.00    -0.340 C  
HETATM    6  C   UNL     1      -7.987  16.215  66.398  1.00  0.00    -0.252 A  
HETATM    7  C   UNL     1      -7.600  17.558  66.563  1.00  0.00    -0.276 A  
HETATM    8  C   UNL     1      -7.273  18.082  67.860  1.00  0.00    -0.222 A  
HETATM    9  C   UNL     1      -6.889  19.391  67.693  1.00  0.00    -0.219 A  
HETATM   10  N   UNL     1      -7.467  18.532  65.649  1.00  0.00    -0.522 NA 
HETATM   11  N   UNL     1      -7.027  19.606  66.342  1.00  0.00    -0.216 NA 
HETATM   12  C   UNL     1      -6.747  20.828  65.622  1.00  0.00    -0.116 C  
HETATM   13  C   UNL     1      -7.695  16.051  68.866  1.00  0.00    -0.196 A  
ENDBRANCH   2   3
BRANCH   2  14
HETATM   14  C   UNL     1      -9.612  13.512  67.487  1.00  0.00    -0.221 A  
HETATM   15  C   UNL     1     -11.411  12.532  68.591  1.00  0.00    -0.288 A  
HETATM   16  N   UNL     1     -12.104  12.338  67.465  1.00  0.00    -0.486 NA 
HETATM   17  C   UNL     1     -11.532  12.789  66.338  1.00  0.00    -0.357 A  
HETATM   18  C   UNL     1     -10.295  13.391  66.293  1.00  0.00    -0.291 A  
HETATM   19  N   UNL     1     -10.190  13.085  68.625  1.00  0.00    -0.207 NA 
BRANCH  15  20
HETATM   20  N   UNL     1     -11.996  12.094  69.777  1.00  0.00    -0.317 NA 
HETATM   21  H   UNL     1     -12.561  12.782  70.276  1.00  0.00     0.000 HD 
BRANCH  20  22
HETATM   22  C   UNL     1     -11.907  10.828  70.371  1.00  0.00    -0.358 A  
HETATM   23  C   UNL     1     -12.601  10.577  71.556  1.00  0.00    -0.529 A  
HETATM   24  C   UNL     1     -12.606   9.300  72.127  1.00  0.00    -0.443 A  
HETATM   25  C   UNL     1     -11.905   8.232  71.539  1.00  0.00    -0.335 A  
HETATM   26  C   UNL     1     -11.173   8.491  70.366  1.00  0.00    -0.211 A  
HETATM   27  C   UNL     1     -11.972   6.887  72.199  1.00  0.00    -0.302 C  
HETATM   28  C   UNL     1     -11.189   9.774  69.793  1.00  0.00    -0.242 A  
BRANCH  26  29
HETATM   29  S   UNL     1     -10.138   7.273  69.561  1.00  0.00    -0.186 S  
HETATM   30  O   UNL     1      -9.486   7.875  68.426  1.00  0.00    -0.147 OA 
HETATM   31  O   UNL     1     -10.888   6.042  69.439  1.00  0.00    -0.293 OA 
HETATM   32  N   UNL     1      -8.965   6.997  70.726  1.00  0.00    -0.149 N  
HETATM   33  H1  UNL     1      -8.375   6.303  70.267  1.00  0.00     0.000 HD 
HETATM   34  H2  UNL     1      -8.867   7.414  71.652  1.00  0.00     0.000 HD 
ENDBRANCH  26  29
ENDBRANCH  20  22
ENDBRANCH  15  20
ENDBRANCH   2  14
TORSDOF 5
ENDMDL
MODEL      109
REMARK 921   NORMALIZED FREE ENERGY PREDICTED BY IDOCK:   -6.52 KCAL/MOL
REMARK 922        TOTAL FREE ENERGY PREDICTED BY IDOCK:   -8.89 KCAL/MOL
REMARK 923 INTER-LIGAND FREE ENERGY PREDICTED BY IDOCK:   -8.40 KCAL/MOL
REMARK 924 INTRA-LIGAND FREE ENERGY PREDICTED BY IDOCK:   -0.50 KCAL/MOL
REMARK 927      BINDING AFFINITY PREDICTED BY RF-SCORE:    0.00 PKD
ROOT
HETATM    1  C   UNL     1     -11.588  11.102  68.468  1.00  0.00    -0.314 C  
HETATM    2  N   UNL     1     -10.794  11.022  67.241  1.00  0.00    -0.265 NA 
ENDROOT
BRANCH   2   3
HETATM    3  C   UNL     1     -10.298   9.737  66.872  1.00  0.00    -0.234 A  
HETATM    4  C   UNL     1      -8.614   8.494  65.424  1.00  0.00    -0.202 A  
HETATM    5  C   UNL     1      -7.570   5.521  65.107  1.00  0.00    -0.080 C  
HETATM    6  C   UNL     1     -10.778   8.554  67.494  1.00  0.00    -0.211 A  
HETATM    7  C   UNL     1     -10.145   7.366  67.084  1.00  0.00    -0.244 A  
HETATM    8  C   UNL     1      -9.105   7.383  66.094  1.00  0.00    -0.167 A  
HETATM    9  C   UNL     1      -8.654   6.093  65.945  1.00  0.00    -0.147 A  
HETATM   10  N   UNL     1     -10.351   6.101  67.484  1.00  0.00    -0.179 NA 
HETATM   11  N   UNL     1      -9.442   5.366  66.806  1.00  0.00    -0.132 NA 
HETATM   12  C   UNL     1      -9.383   3.942  67.048  1.00  0.00    -0.190 C  
HETATM   13  C   UNL     1      -9.267   9.670  65.859  1.00  0.00    -0.246 A  
ENDBRANCH   2   3
BRANCH   2  14
HETATM   14  C   UNL     1     -10.765  12.162  66.409  1.00  0.00    -0.257 A  
HETATM   15  C   UNL     1      -9.798  14.222  65.921  1.00  0.00    -0.298 A  
HETATM   16  N   UNL     1     -10.664  14.490  64.939  1.00  0.00    -0.420 NA 
HETATM   17  C   UNL     1     -11.570  13.535  64.677  1.00  0.00    -0.368 A  
HETATM   18  C   UNL     1     -11.659  12.351  65.373  1.00  0.00    -0.426 A  
HETATM   19  N   UNL     1      -9.838  13.105  66.661  1.00  0.00    -0.254 NA 
BRANCH  15  20
HETATM   20  N   UNL     1      -8.833  15.189  66.194  1.00  0.00    -0.468 NA 
HETATM   21  H   UNL     1      -7.876  14.850  66.289  1.00  0.00     0.000 HD 
BRANCH  20  22
HETATM   22  C   UNL     1      -9.011  16.570  66.354  1.00  0.00    -0.305 A  
HETATM   23  C   UNL     1     -10.263  17.060  66.728  1.00  0.00    -0.298 A  
HETATM   24  C   UNL     1     -10.453  18.422  66.984  1.00  0.00    -0.429 A  
HETATM   25  C   UNL     1      -9.399  19.345  66.860  1.00  0.00    -0.394 A  
HETATM   26  C   UNL     1      -8.146  18.860  66.444  1.00  0.00    -0.292 A  
HETATM   27  C   UNL     1      -9.675  20.786  67.168  1.00  0.00    -0.457 C  
HETATM   28  C   UNL     1      -7.963  17.487  66.207  1.00  0.00    -0.303 A  
BRANCH  26  29
HETATM   29  S   UNL     1      -6.737  19.917  66.128  1.00  0.00    -0.242 S  
HETATM   30  O   UNL     1      -6.344  20.569  67.351  1.00  0.00    -0.206 OA 
HETATM   31  O   UNL     1      -6.989  20.667  64.916  1.00  0.00    -0.211 OA 
HETATM   32  N   UNL     1      -5.548  18.797  65.751  1.00  0.00    -0.157 N  
HETATM   33  H1  UNL     1      -4.744  19.399  65.571  1.00  0.00     0.000 HD 
HETATM   34  H2  UNL     1      -5.611  17.780  65.712  1.00  0.00     0.000 HD 
ENDBRANCH  26  29
ENDBRANCH  20  22
ENDBRANCH  15  20
ENDBRANCH   2  14
TORSDOF 5
ENDMDL
MODEL      110
REMARK 921   NORMALIZED FREE ENERGY PREDICTED BY IDOCK:   -6.52 KCAL/MOL
REMARK 922        TOTAL FREE ENERGY PREDICTED BY IDOCK:   -8.89 KCAL/MOL
REMARK 923 INTER-LIGAND FREE ENERGY PREDICTED BY IDOCK:   -7.92 KCAL/MOL
REMARK 924 INTRA-LIGAND FREE ENERGY PREDICTED BY IDOCK:   -0.97 KCAL/MOL
REMARK 927      BINDING AFFINITY PREDICTED BY RF-SCORE:    0.00 PKD
ROOT
HETATM    1  C   UNL     1     -12.187  14.220  69.469  1.00  0.00    -0.297 C  
HETATM    2  N   UNL     1     -11.705  13.005  68.810  1.00  0.00    -0.305 NA 
ENDROOT
BRANCH   2   3
HETATM    3  C   UNL     1     -11.459  11.872  69.640  1.00  0.00    -0.266 A  
HETATM    4  C   UNL     1     -12.456  10.324  71.397  1.00  0.00    -0.528 A  
HETATM    5  C   UNL     1     -11.658   7.614  72.828  1.00  0.00    -0.334 C  
HETATM    6  C   UNL     1     -10.241  11.147  69.556  1.00  0.00     0.045 A  
HETATM    7  C   UNL     1     -10.168  10.008  70.380  1.00  0.00    -0.155 A  
HETATM    8  C   UNL     1     -11.258   9.644  71.242  1.00  0.00    -0.446 A  
HETATM    9  C   UNL     1     -10.913   8.473  71.873  1.00  0.00    -0.324 A  
HETATM   10  N   UNL     1      -9.177   9.113  70.523  1.00  0.00    -0.221 NA 
HETATM   11  N   UNL     1      -9.650   8.202  71.401  1.00  0.00    -0.157 NA 
HETATM   12  C   UNL     1      -8.817   7.071  71.742  1.00  0.00    -0.126 C  
HETATM   13  C   UNL     1     -12.501  11.460  70.557  1.00  0.00    -0.381 A  
ENDBRANCH   2   3
BRANCH   2  14
HETATM   14  C   UNL     1     -11.731  12.976  67.399  1.00  0.00    -0.374 A  
HETATM   15  C   UNL     1     -11.014  11.955  65.434  1.00  0.00    -0.301 A  
HETATM   16  N   UNL     1     -11.602  12.863  64.649  1.00  0.00    -0.330 NA 
HETATM   17  C   UNL     1     -12.301  13.820  65.279  1.00  0.00    -0.464 A  
HETATM   18  C   UNL     1     -12.407  13.918  66.647  1.00  0.00    -0.411 A  
HETATM   19  N   UNL     1     -11.049  11.999  66.774  1.00  0.00    -0.288 NA 
BRANCH  15  20
HETATM   20  N   UNL     1     -10.303  10.937  64.801  1.00  0.00    -0.324 NA 
HETATM   21  H   UNL     1     -10.445  10.853  63.795  1.00  0.00     0.000 HD 
BRANCH  20  22
HETATM   22  C   UNL     1      -9.418  10.014  65.375  1.00  0.00    -0.250 A  
HETATM   23  C   UNL     1      -8.044  10.254  65.312  1.00  0.00    -0.151 A  
HETATM   24  C   UNL     1      -7.138   9.401  65.951  1.00  0.00    -0.091 A  
HETATM   25  C   UNL     1      -7.575   8.270  66.664  1.00  0.00    -0.090 A  
HETATM   26  C   UNL     1      -8.955   8.004  66.695  1.00  0.00    -0.150 A  
HETATM   27  C   UNL     1      -6.545   7.413  67.337  1.00  0.00    -0.061 C  
HETATM   28  C   UNL     1      -9.857   8.877  66.064  1.00  0.00    -0.277 A  
BRANCH  26  29
HETATM   29  S   UNL     1      -9.661   6.547  67.458  1.00  0.00    -0.127 S  
HETATM   30  O   UNL     1      -8.720   5.998  68.401  1.00  0.00    -0.114 OA 
HETATM   31  O   UNL     1     -10.259   5.732  66.423  1.00  0.00    -0.180 OA 
HETATM   32  N   UNL     1     -10.929   7.201  68.336  1.00  0.00    -0.447 N  
HETATM   33  H1  UNL     1     -11.331   6.371  68.771  1.00  0.00     0.000 HD 
HETATM   34  H2  UNL     1     -11.222   8.175  68.415  1.00  0.00     0.000 HD 
ENDBRANCH  26  29
ENDBRANCH  20  22
ENDBRANCH  15  20
ENDBRANCH   2  14
TORSDOF 5
ENDMDL
MODEL      111
REMARK 921   NORMALIZED FREE ENERGY PREDICTED BY IDOCK:   -6.52 KCAL/MOL
REMARK 922        TOTAL FREE ENERGY PREDICTED BY IDOCK:   -8.89 KCAL/MOL
REMARK 923 INTER-LIGAND FREE ENERGY PREDICTED BY IDOCK:   -7.86 KCAL/MOL
REMARK 924 INTRA-LIGAND FREE ENERGY PREDICTED BY IDOCK:   -1.03 KCAL/MOL
REMARK 927      BINDING AFFINITY PREDICTED BY RF-SCORE:    0.00 PKD
ROOT
HETATM    1  C   UNL     1      -7.228   9.623  66.262  1.00  0.00    -0.094 C  
HETATM    2  N   UNL     1      -8.679   9.645  66.444  1.00  0.00    -0.133 NA 
ENDROOT
BRANCH   2   3
HETATM    3  C   UNL     1      -9.189   9.098  67.658  1.00  0.00    -0.128 A  
HETATM    4  C   UNL     1     -10.854   7.457  68.664  1.00  0.00    -0.073 A  
HETATM    5  C   UNL     1     -11.491   6.252  71.522  1.00  0.00    -0.351 C  
HETATM    6  C   UNL     1      -8.634   9.451  68.917  1.00  0.00    -0.131 A  
HETATM    7  C   UNL     1      -9.186   8.777  70.022  1.00  0.00    -0.168 A  
HETATM    8  C   UNL     1     -10.245   7.821  69.855  1.00  0.00    -0.213 A  
HETATM    9  C   UNL     1     -10.532   7.302  71.094  1.00  0.00    -0.209 A  
HETATM   10  N   UNL     1      -8.879   8.870  71.326  1.00  0.00    -0.224 NA 
HETATM   11  N   UNL     1      -9.679   7.971  71.940  1.00  0.00    -0.176 NA 
HETATM   12  C   UNL     1      -9.561   7.803  73.371  1.00  0.00    -0.290 C  
HETATM   13  C   UNL     1     -10.277   8.147  67.573  1.00  0.00    -0.309 A  
ENDBRANCH   2   3
BRANCH   2  14
HETATM   14  C   UNL     1      -9.440  10.394  65.520  1.00  0.00    -0.215 A  
HETATM   15  C   UNL     1     -11.075  12.012  65.163  1.00  0.00    -0.318 A  
HETATM   16  N   UNL     1     -11.069  11.845  63.837  1.00  0.00    -0.377 NA 
HETATM   17  C   UNL     1     -10.188  10.952  63.361  1.00  0.00    -0.295 A  
HETATM   18  C   UNL     1      -9.345  10.208  64.154  1.00  0.00    -0.340 A  
HETATM   19  N   UNL     1     -10.304  11.305  66.003  1.00  0.00    -0.245 NA 
BRANCH  15  20
HETATM   20  N   UNL     1     -11.964  12.952  65.678  1.00  0.00    -0.416 NA 
HETATM   21  H   UNL     1     -12.856  13.037  65.191  1.00  0.00     0.000 HD 
BRANCH  20  22
HETATM   22  C   UNL     1     -11.788  13.797  66.783  1.00  0.00    -0.420 A  
HETATM   23  C   UNL     1     -12.353  13.447  68.010  1.00  0.00     0.061 A  
HETATM   24  C   UNL     1     -12.122  14.219  69.153  1.00  0.00    -0.337 A  
HETATM   25  C   UNL     1     -11.326  15.378  69.104  1.00  0.00    -0.323 A  
HETATM   26  C   UNL     1     -10.787  15.755  67.862  1.00  0.00    -0.314 A  
HETATM   27  C   UNL     1     -11.108  16.145  70.375  1.00  0.00    -0.362 C  
HETATM   28  C   UNL     1     -11.013  14.962  66.724  1.00  0.00    -0.326 A  
BRANCH  26  29
HETATM   29  S   UNL     1      -9.852  17.260  67.609  1.00  0.00    -0.289 S  
HETATM   30  O   UNL     1      -8.637  17.204  68.383  1.00  0.00    -0.230 OA 
HETATM   31  O   UNL     1     -10.758  18.384  67.701  1.00  0.00    -0.423 OA 
HETATM   32  N   UNL     1      -9.424  17.129  65.993  1.00  0.00    -0.191 N  
HETATM   33  H1  UNL     1      -8.891  17.987  65.849  1.00  0.00     0.000 HD 
HETATM   34  H2  UNL     1      -9.641  16.387  65.329  1.00  0.00     0.000 HD 
ENDBRANCH  26  29
ENDBRANCH  20  22
ENDBRANCH  15  20
ENDBRANCH   2  14
TORSDOF 5
ENDMDL
MODEL      112
REMARK 921   NORMALIZED FREE ENERGY PREDICTED BY IDOCK:   -6.51 KCAL/MOL
REMARK 922        TOTAL FREE ENERGY PREDICTED BY IDOCK:   -8.88 KCAL/MOL
REMARK 923 INTER-LIGAND FREE ENERGY PREDICTED BY IDOCK:   -8.26 KCAL/MOL
REMARK 924 INTRA-LIGAND FREE ENERGY PREDICTED BY IDOCK:   -0.62 KCAL/MOL
REMARK 927      BINDING AFFINITY PREDICTED BY RF-SCORE:    0.00 PKD
ROOT
HETATM    1  C   UNL     1     -11.807   9.094  70.936  1.00  0.00    -0.270 C  
HETATM    2  N   UNL     1     -11.666  10.367  70.228  1.00  0.00    -0.296 NA 
ENDROOT
BRANCH   2   3
HETATM    3  C   UNL     1     -11.100  10.322  68.920  1.00  0.00    -0.231 A  
HETATM    4  C   UNL     1      -9.502   9.068  67.386  1.00  0.00    -0.179 A  
HETATM    5  C   UNL     1      -8.719   9.103  64.318  1.00  0.00    -0.180 C  
HETATM    6  C   UNL     1     -11.508  11.230  67.908  1.00  0.00    -0.360 A  
HETATM    7  C   UNL     1     -10.921  11.020  66.646  1.00  0.00    -0.190 A  
HETATM    8  C   UNL     1      -9.968   9.965  66.437  1.00  0.00    -0.309 A  
HETATM    9  C   UNL     1      -9.618   9.981  65.108  1.00  0.00    -0.291 A  
HETATM   10  N   UNL     1     -11.102  11.684  65.493  1.00  0.00    -0.272 NA 
HETATM   11  N   UNL     1     -10.331  11.037  64.591  1.00  0.00    -0.330 NA 
HETATM   12  C   UNL     1     -10.335  11.496  63.221  1.00  0.00    -0.384 C  
HETATM   13  C   UNL     1     -10.111   9.303  68.640  1.00  0.00    -0.207 A  
ENDBRANCH   2   3
BRANCH   2  14
HETATM   14  C   UNL     1     -12.293  11.499  70.792  1.00  0.00    -0.375 A  
HETATM   15  C   UNL     1     -12.542  13.813  70.808  1.00  0.00    -0.340 A  
HETATM   16  N   UNL     1     -13.356  13.802  71.867  1.00  0.00    -0.384 NA 
HETATM   17  C   UNL     1     -13.664  12.592  72.359  1.00  0.00    -0.279 A  
HETATM   18  C   UNL     1     -13.170  11.411  71.856  1.00  0.00    -0.485 A  
HETATM   19  N   UNL     1     -11.999  12.707  70.278  1.00  0.00    -0.333 NA 
BRANCH  15  20
HETATM   20  N   UNL     1     -12.228  15.057  70.264  1.00  0.00    -0.318 NA 
HETATM   21  H   UNL     1     -12.751  15.850  70.634  1.00  0.00     0.000 HD 
BRANCH  20  22
HETATM   22  C   UNL     1     -11.284  15.355  69.272  1.00  0.00    -0.296 A  
HETATM   23  C   UNL     1     -11.399  16.545  68.552  1.00  0.00    -0.231 A  
HETATM   24  C   UNL     1     -10.425  16.915  67.619  1.00  0.00    -0.332 A  
HETATM   25  C   UNL     1      -9.307  16.100  67.364  1.00  0.00    -0.220 A  
HETATM   26  C   UNL     1      -9.209  14.882  68.059  1.00  0.00    -0.185 A  
HETATM   27  C   UNL     1      -8.296  16.573  66.362  1.00  0.00    -0.358 C  
HETATM   28  C   UNL     1     -10.185  14.528  69.006  1.00  0.00    -0.210 A  
BRANCH  26  29
HETATM   29  S   UNL     1      -7.914  13.682  67.765  1.00  0.00    -0.189 S  
HETATM   30  O   UNL     1      -6.642  14.251  68.135  1.00  0.00    -0.102 OA 
HETATM   31  O   UNL     1      -8.127  13.086  66.464  1.00  0.00     0.214 OA 
HETATM   32  N   UNL     1      -8.283  12.498  68.893  1.00  0.00    -0.340 N  
HETATM   33  H1  UNL     1      -7.544  11.815  68.726  1.00  0.00     0.000 HD 
HETATM   34  H2  UNL     1      -9.046  12.469  69.569  1.00  0.00     0.000 HD 
ENDBRANCH  26  29
ENDBRANCH  20  22
ENDBRANCH  15  20
ENDBRANCH   2  14
TORSDOF 5
ENDMDL
MODEL      113
REMARK 921   NORMALIZED FREE ENERGY PREDICTED BY IDOCK:   -6.51 KCAL/MOL
REMARK 922        TOTAL FREE ENERGY PREDICTED BY IDOCK:   -8.87 KCAL/MOL
REMARK 923 INTER-LIGAND FREE ENERGY PREDICTED BY IDOCK:   -8.54 KCAL/MOL
REMARK 924 INTRA-LIGAND FREE ENERGY PREDICTED BY IDOCK:   -0.33 KCAL/MOL
REMARK 927      BINDING AFFINITY PREDICTED BY RF-SCORE:    0.00 PKD
ROOT
HETATM    1  C   UNL     1     -12.640  11.995  63.612  1.00  0.00    -0.490 C  
HETATM    2  N   UNL     1     -11.500  12.073  64.526  1.00  0.00    -0.327 NA 
ENDROOT
BRANCH   2   3
HETATM    3  C   UNL     1     -10.390  11.221  64.252  1.00  0.00    -0.340 A  
HETATM    4  C   UNL     1      -8.464  10.764  62.651  1.00  0.00    -0.240 A  
HETATM    5  C   UNL     1      -5.920   8.881  62.555  1.00  0.00    -0.094 C  
HETATM    6  C   UNL     1     -10.016  10.184  65.146  1.00  0.00    -0.379 A  
HETATM    7  C   UNL     1      -8.857   9.474  64.784  1.00  0.00    -0.207 A  
HETATM    8  C   UNL     1      -8.137   9.791  63.582  1.00  0.00    -0.151 A  
HETATM    9  C   UNL     1      -7.036   8.969  63.530  1.00  0.00    -0.089 A  
HETATM   10  N   UNL     1      -8.239   8.460  65.412  1.00  0.00    -0.135 NA 
HETATM   11  N   UNL     1      -7.151   8.190  64.658  1.00  0.00    -0.078 NA 
HETATM   12  C   UNL     1      -6.245   7.152  65.095  1.00  0.00    -0.037 C  
HETATM   13  C   UNL     1      -9.631  11.461  63.043  1.00  0.00    -0.397 A  
ENDBRANCH   2   3
BRANCH   2  14
HETATM   14  C   UNL     1     -11.491  13.125  65.468  1.00  0.00    -0.315 A  
HETATM   15  C   UNL     1     -11.100  15.377  65.904  1.00  0.00    -0.247 A  
HETATM   16  N   UNL     1     -11.322  15.249  67.215  1.00  0.00    -0.310 NA 
HETATM   17  C   UNL     1     -11.677  14.024  67.633  1.00  0.00    -0.377 A  
HETATM   18  C   UNL     1     -11.786  12.931  66.803  1.00  0.00    -0.445 A  
HETATM   19  N   UNL     1     -11.159  14.356  65.037  1.00  0.00    -0.358 NA 
BRANCH  15  20
HETATM   20  N   UNL     1     -10.755  16.646  65.442  1.00  0.00    -0.507 NA 
HETATM   21  H   UNL     1     -11.261  16.975  64.621  1.00  0.00     0.000 HD 
BRANCH  20  22
HETATM   22  C   UNL     1      -9.798  17.527  65.966  1.00  0.00    -0.179 A  
HETATM   23  C   UNL     1     -10.115  18.880  66.100  1.00  0.00    -0.438 A  
HETATM   24  C   UNL     1      -9.218  19.770  66.700  1.00  0.00    -0.467 A  
HETATM   25  C   UNL     1      -7.966  19.339  67.177  1.00  0.00    -0.287 A  
HETATM   26  C   UNL     1      -7.629  17.984  67.008  1.00  0.00    -0.217 A  
HETATM   27  C   UNL     1      -7.066  20.348  67.825  1.00  0.00    -0.344 C  
HETATM   28  C   UNL     1      -8.545  17.097  66.418  1.00  0.00    -0.300 A  
BRANCH  26  29
HETATM   29  S   UNL     1      -6.035  17.303  67.452  1.00  0.00    -0.154 S  
HETATM   30  O   UNL     1      -5.413  18.147  68.441  1.00  0.00    -0.160 OA 
HETATM   31  O   UNL     1      -5.345  16.922  66.239  1.00  0.00    -0.355 OA 
HETATM   32  N   UNL     1      -6.474  15.876  68.214  1.00  0.00    -0.115 N  
HETATM   33  H1  UNL     1      -5.565  15.488  68.468  1.00  0.00     0.000 HD 
HETATM   34  H2  UNL     1      -7.405  15.495  68.380  1.00  0.00     0.000 HD 
ENDBRANCH  26  29
ENDBRANCH  20  22
ENDBRANCH  15  20
ENDBRANCH   2  14
TORSDOF 5
ENDMDL
MODEL      114
REMARK 921   NORMALIZED FREE ENERGY PREDICTED BY IDOCK:   -6.50 KCAL/MOL
REMARK 922        TOTAL FREE ENERGY PREDICTED BY IDOCK:   -8.87 KCAL/MOL
REMARK 923 INTER-LIGAND FREE ENERGY PREDICTED BY IDOCK:   -8.41 KCAL/MOL
REMARK 924 INTRA-LIGAND FREE ENERGY PREDICTED BY IDOCK:   -0.45 KCAL/MOL
REMARK 927      BINDING AFFINITY PREDICTED BY RF-SCORE:    0.00 PKD
ROOT
HETATM    1  C   UNL     1     -13.026  11.396  71.606  1.00  0.00    -0.418 C  
HETATM    2  N   UNL     1     -11.992  11.032  70.637  1.00  0.00    -0.354 NA 
ENDROOT
BRANCH   2   3
HETATM    3  C   UNL     1     -11.347   9.773  70.819  1.00  0.00    -0.342 A  
HETATM    4  C   UNL     1     -11.679   7.346  71.510  1.00  0.00    -0.314 A  
HETATM    5  C   UNL     1      -9.985   4.670  71.482  1.00  0.00    -0.265 C  
HETATM    6  C   UNL     1      -9.980   9.589  70.483  1.00  0.00    -0.335 A  
HETATM    7  C   UNL     1      -9.499   8.276  70.644  1.00  0.00    -0.164 A  
HETATM    8  C   UNL     1     -10.351   7.227  71.132  1.00  0.00    -0.207 A  
HETATM    9  C   UNL     1      -9.618   6.065  71.132  1.00  0.00    -0.172 A  
HETATM   10  N   UNL     1      -8.277   7.774  70.405  1.00  0.00    -0.119 NA 
HETATM   11  N   UNL     1      -8.377   6.456  70.685  1.00  0.00    -0.131 NA 
HETATM   12  C   UNL     1      -7.218   5.616  70.489  1.00  0.00    -0.074 C  
HETATM   13  C   UNL     1     -12.134   8.673  71.335  1.00  0.00    -0.351 A  
ENDBRANCH   2   3
BRANCH   2  14
HETATM   14  C   UNL     1     -11.866  11.838  69.485  1.00  0.00    -0.337 A  
HETATM   15  C   UNL     1     -11.770  13.979  68.577  1.00  0.00    -0.352 A  
HETATM   16  N   UNL     1     -11.739  13.534  67.318  1.00  0.00    -0.361 NA 
HETATM   17  C   UNL     1     -11.731  12.201  67.165  1.00  0.00    -0.302 A  
HETATM   18  C   UNL     1     -11.783  11.309  68.212  1.00  0.00    -0.344 A  
HETATM   19  N   UNL     1     -11.850  13.174  69.647  1.00  0.00    -0.320 NA 
BRANCH  15  20
HETATM   20  N   UNL     1     -11.754  15.360  68.761  1.00  0.00    -0.401 NA 
HETATM   21  H   UNL     1     -12.639  15.784  69.038  1.00  0.00     0.000 HD 
BRANCH  20  22
HETATM   22  C   UNL     1     -10.674  16.241  68.612  1.00  0.00    -0.309 A  
HETATM   23  C   UNL     1     -10.905  17.536  68.145  1.00  0.00    -0.246 A  
HETATM   24  C   UNL     1      -9.864  18.467  68.070  1.00  0.00    -0.370 A  
HETATM   25  C   UNL     1      -8.552  18.131  68.448  1.00  0.00    -0.310 A  
HETATM   26  C   UNL     1      -8.308  16.816  68.883  1.00  0.00    -0.222 A  
HETATM   27  C   UNL     1      -7.493  19.189  68.357  1.00  0.00    -0.342 C  
HETATM   28  C   UNL     1      -9.365  15.894  68.969  1.00  0.00    -0.243 A  
BRANCH  26  29
HETATM   29  S   UNL     1      -6.678  16.199  69.288  1.00  0.00    -0.205 S  
HETATM   30  O   UNL     1      -6.767  14.800  69.626  1.00  0.00    -0.144 OA 
HETATM   31  O   UNL     1      -6.032  17.150  70.165  1.00  0.00    -0.233 OA 
HETATM   32  N   UNL     1      -5.893  16.310  67.811  1.00  0.00    -0.128 N  
HETATM   33  H1  UNL     1      -4.964  15.957  68.042  1.00  0.00     0.000 HD 
HETATM   34  H2  UNL     1      -6.251  16.643  66.916  1.00  0.00     0.000 HD 
ENDBRANCH  26  29
ENDBRANCH  20  22
ENDBRANCH  15  20
ENDBRANCH   2  14
TORSDOF 5
ENDMDL
MODEL      115
REMARK 921   NORMALIZED FREE ENERGY PREDICTED BY IDOCK:   -6.48 KCAL/MOL
REMARK 922        TOTAL FREE ENERGY PREDICTED BY IDOCK:   -8.84 KCAL/MOL
REMARK 923 INTER-LIGAND FREE ENERGY PREDICTED BY IDOCK:   -8.11 KCAL/MOL
REMARK 924 INTRA-LIGAND FREE ENERGY PREDICTED BY IDOCK:   -0.73 KCAL/MOL
REMARK 927      BINDING AFFINITY PREDICTED BY RF-SCORE:    0.00 PKD
ROOT
HETATM    1  C   UNL     1     -12.153   6.455  71.965  1.00  0.00    -0.303 C  
HETATM    2  N   UNL     1     -11.634   7.279  70.873  1.00  0.00    -0.291 NA 
ENDROOT
BRANCH   2   3
HETATM    3  C   UNL     1     -11.006   6.598  69.789  1.00  0.00    -0.313 A  
HETATM    4  C   UNL     1     -10.919   6.352  67.257  1.00  0.00    -0.474 A  
HETATM    5  C   UNL     1      -9.088   4.891  65.127  1.00  0.00    -0.146 C  
HETATM    6  C   UNL     1      -9.937   5.689  70.008  1.00  0.00    -0.267 A  
HETATM    7  C   UNL     1      -9.365   5.150  68.841  1.00  0.00    -0.125 A  
HETATM    8  C   UNL     1      -9.861   5.502  67.540  1.00  0.00    -0.165 A  
HETATM    9  C   UNL     1      -9.076   4.862  66.611  1.00  0.00    -0.119 A  
HETATM   10  N   UNL     1      -8.345   4.287  68.705  1.00  0.00    -0.083 NA 
HETATM   11  N   UNL     1      -8.181   4.146  67.371  1.00  0.00    -0.099 NA 
HETATM   12  C   UNL     1      -7.118   3.293  66.890  1.00  0.00    -0.058 C  
HETATM   13  C   UNL     1     -11.471   6.879  68.448  1.00  0.00     0.219 A  
ENDBRANCH   2   3
BRANCH   2  14
HETATM   14  C   UNL     1     -11.984   8.647  70.867  1.00  0.00    -0.191 A  
HETATM   15  C   UNL     1     -11.499  10.803  70.137  1.00  0.00    -0.331 A  
HETATM   16  N   UNL     1     -12.482  11.357  70.852  1.00  0.00    -0.390 NA 
HETATM   17  C   UNL     1     -13.249  10.507  71.554  1.00  0.00    -0.371 A  
HETATM   18  C   UNL     1     -13.051   9.145  71.589  1.00  0.00    -0.431 A  
HETATM   19  N   UNL     1     -11.226   9.490  70.142  1.00  0.00    -0.244 NA 
BRANCH  15  20
HETATM   20  N   UNL     1     -10.705  11.663  69.381  1.00  0.00    -0.436 NA 
HETATM   21  H   UNL     1      -9.752  11.800  69.715  1.00  0.00     0.000 HD 
BRANCH  20  22
HETATM   22  C   UNL     1     -11.054  12.365  68.218  1.00  0.00    -0.243 A  
HETATM   23  C   UNL     1     -11.478  13.691  68.320  1.00  0.00    -0.348 A  
HETATM   24  C   UNL     1     -11.747  14.447  67.175  1.00  0.00    -0.424 A  
HETATM   25  C   UNL     1     -11.612  13.899  65.886  1.00  0.00    -0.348 A  
HETATM   26  C   UNL     1     -11.222  12.552  65.782  1.00  0.00    -0.320 A  
HETATM   27  C   UNL     1     -11.901  14.777  64.706  1.00  0.00    -0.425 C  
HETATM   28  C   UNL     1     -10.939  11.807  66.939  1.00  0.00    -0.333 A  
BRANCH  26  29
HETATM   29  S   UNL     1     -11.118  11.674  64.226  1.00  0.00    -0.318 S  
HETATM   30  O   UNL     1     -10.039  12.220  63.441  1.00  0.00    -0.407 OA 
HETATM   31  O   UNL     1     -12.453  11.536  63.686  1.00  0.00    -0.275 OA 
HETATM   32  N   UNL     1     -10.650  10.144  64.727  1.00  0.00    -0.050 N  
HETATM   33  H1  UNL     1     -10.590   9.644  63.840  1.00  0.00     0.000 HD 
HETATM   34  H2  UNL     1     -10.473   9.803  65.671  1.00  0.00     0.000 HD 
ENDBRANCH  26  29
ENDBRANCH  20  22
ENDBRANCH  15  20
ENDBRANCH   2  14
TORSDOF 5
ENDMDL
MODEL      116
REMARK 921   NORMALIZED FREE ENERGY PREDICTED BY IDOCK:   -6.48 KCAL/MOL
REMARK 922        TOTAL FREE ENERGY PREDICTED BY IDOCK:   -8.84 KCAL/MOL
REMARK 923 INTER-LIGAND FREE ENERGY PREDICTED BY IDOCK:   -7.92 KCAL/MOL
REMARK 924 INTRA-LIGAND FREE ENERGY PREDICTED BY IDOCK:   -0.92 KCAL/MOL
REMARK 927      BINDING AFFINITY PREDICTED BY RF-SCORE:    0.00 PKD
ROOT
HETATM    1  C   UNL     1      -6.990   8.959  65.213  1.00  0.00    -0.076 C  
HETATM    2  N   UNL     1      -8.322   8.768  65.787  1.00  0.00    -0.126 NA 
ENDROOT
BRANCH   2   3
HETATM    3  C   UNL     1      -9.145   9.926  65.914  1.00  0.00    -0.162 A  
HETATM    4  C   UNL     1     -10.791  11.450  64.711  1.00  0.00    -0.339 A  
HETATM    5  C   UNL     1     -12.723  13.842  65.470  1.00  0.00    -0.536 C  
HETATM    6  C   UNL     1      -9.269  10.611  67.151  1.00  0.00    -0.161 A  
HETATM    7  C   UNL     1     -10.174  11.689  67.147  1.00  0.00    -0.213 A  
HETATM    8  C   UNL     1     -10.890  12.053  65.956  1.00  0.00    -0.329 A  
HETATM    9  C   UNL     1     -11.724  13.097  66.277  1.00  0.00    -0.375 A  
HETATM   10  N   UNL     1     -10.525  12.519  68.142  1.00  0.00    -0.222 NA 
HETATM   11  N   UNL     1     -11.459  13.335  67.606  1.00  0.00    -0.302 NA 
HETATM   12  C   UNL     1     -12.072  14.336  68.450  1.00  0.00    -0.262 C  
HETATM   13  C   UNL     1      -9.878  10.371  64.748  1.00  0.00    -0.406 A  
ENDBRANCH   2   3
BRANCH   2  14
HETATM   14  C   UNL     1      -8.770   7.442  65.965  1.00  0.00    -0.153 A  
HETATM   15  C   UNL     1     -10.149   5.963  67.119  1.00  0.00    -0.177 A  
HETATM   16  N   UNL     1      -9.658   4.888  66.496  1.00  0.00    -0.153 NA 
HETATM   17  C   UNL     1      -8.728   5.125  65.558  1.00  0.00    -0.147 A  
HETATM   18  C   UNL     1      -8.256   6.380  65.246  1.00  0.00    -0.137 A  
HETATM   19  N   UNL     1      -9.720   7.213  66.890  1.00  0.00    -0.175 NA 
BRANCH  15  20
HETATM   20  N   UNL     1     -11.134   5.743  68.079  1.00  0.00    -0.158 NA 
HETATM   21  H   UNL     1     -11.987   5.293  67.749  1.00  0.00     0.000 HD 
BRANCH  20  22
HETATM   22  C   UNL     1     -11.099   6.063  69.444  1.00  0.00    -0.375 A  
HETATM   23  C   UNL     1     -10.354   5.267  70.315  1.00  0.00    -0.350 A  
HETATM   24  C   UNL     1     -10.225   5.609  71.665  1.00  0.00    -0.261 A  
HETATM   25  C   UNL     1     -10.849   6.753  72.194  1.00  0.00    -0.257 A  
HETATM   26  C   UNL     1     -11.633   7.536  71.327  1.00  0.00    -0.281 A  
HETATM   27  C   UNL     1     -10.650   7.065  73.647  1.00  0.00    -0.383 C  
HETATM   28  C   UNL     1     -11.741   7.191  69.969  1.00  0.00    -0.105 A  
BRANCH  26  29
HETATM   29  S   UNL     1     -12.583   8.952  71.867  1.00  0.00    -0.406 S  
HETATM   30  O   UNL     1     -11.795  10.148  71.704  1.00  0.00    -0.333 OA 
HETATM   31  O   UNL     1     -13.215   8.628  73.128  1.00  0.00    -0.171 OA 
HETATM   32  N   UNL     1     -13.808   8.998  70.723  1.00  0.00    -0.390 N  
HETATM   33  H1  UNL     1     -14.349   9.806  71.031  1.00  0.00     0.000 HD 
HETATM   34  H2  UNL     1     -13.969   8.380  69.929  1.00  0.00     0.000 HD 
ENDBRANCH  26  29
ENDBRANCH  20  22
ENDBRANCH  15  20
ENDBRANCH   2  14
TORSDOF 5
ENDMDL
MODEL      117
REMARK 921   NORMALIZED FREE ENERGY PREDICTED BY IDOCK:   -6.48 KCAL/MOL
REMARK 922        TOTAL FREE ENERGY PREDICTED BY IDOCK:   -8.83 KCAL/MOL
REMARK 923 INTER-LIGAND FREE ENERGY PREDICTED BY IDOCK:   -8.14 KCAL/MOL
REMARK 924 INTRA-LIGAND FREE ENERGY PREDICTED BY IDOCK:   -0.69 KCAL/MOL
REMARK 927      BINDING AFFINITY PREDICTED BY RF-SCORE:    0.00 PKD
ROOT
HETATM    1  C   UNL     1      -9.570   4.256  65.760  1.00  0.00    -0.189 C  
HETATM    2  N   UNL     1      -9.284   5.181  66.857  1.00  0.00    -0.116 NA 
ENDROOT
BRANCH   2   3
HETATM    3  C   UNL     1      -9.513   4.707  68.182  1.00  0.00    -0.146 A  
HETATM    4  C   UNL     1      -9.203   2.744  69.771  1.00  0.00    -0.206 A  
HETATM    5  C   UNL     1      -9.590   2.173  72.862  1.00  0.00    -0.133 C  
HETATM    6  C   UNL     1     -10.088   5.542  69.176  1.00  0.00    -0.286 A  
HETATM    7  C   UNL     1     -10.184   4.966  70.456  1.00  0.00    -0.218 A  
HETATM    8  C   UNL     1      -9.740   3.622  70.700  1.00  0.00    -0.215 A  
HETATM    9  C   UNL     1      -9.914   3.365  72.039  1.00  0.00    -0.152 A  
HETATM   10  N   UNL     1     -10.659   5.487  71.599  1.00  0.00    -0.231 NA 
HETATM   11  N   UNL     1     -10.472   4.524  72.528  1.00  0.00    -0.197 NA 
HETATM   12  C   UNL     1     -10.854   4.796  73.895  1.00  0.00    -0.294 C  
HETATM   13  C   UNL     1      -9.116   3.351  68.498  1.00  0.00    -0.206 A  
ENDBRANCH   2   3
BRANCH   2  14
HETATM   14  C   UNL     1      -8.604   6.377  66.539  1.00  0.00    -0.125 A  
HETATM   15  C   UNL     1      -8.703   8.527  65.653  1.00  0.00    -0.181 A  
HETATM   16  N   UNL     1      -7.387   8.726  65.767  1.00  0.00    -0.084 NA 
HETATM   17  C   UNL     1      -6.687   7.723  66.322  1.00  0.00    -0.054 A  
HETATM   18  C   UNL     1      -7.245   6.535  66.734  1.00  0.00    -0.077 A  
HETATM   19  N   UNL     1      -9.315   7.387  66.006  1.00  0.00    -0.055 NA 
BRANCH  15  20
HETATM   20  N   UNL     1      -9.454   9.564  65.103  1.00  0.00    -0.379 NA 
HETATM   21  H   UNL     1      -9.508   9.584  64.085  1.00  0.00     0.000 HD 
BRANCH  20  22
HETATM   22  C   UNL     1     -10.145  10.583  65.773  1.00  0.00    -0.265 A  
HETATM   23  C   UNL     1     -10.246  10.541  67.164  1.00  0.00    -0.270 A  
HETATM   24  C   UNL     1     -10.850  11.587  67.871  1.00  0.00    -0.257 A  
HETATM   25  C   UNL     1     -11.385  12.706  67.208  1.00  0.00    -0.372 A  
HETATM   26  C   UNL     1     -11.319  12.733  65.803  1.00  0.00    -0.320 A  
HETATM   27  C   UNL     1     -12.000  13.796  68.034  1.00  0.00    -0.390 C  
HETATM   28  C   UNL     1     -10.696  11.684  65.106  1.00  0.00    -0.351 A  
BRANCH  26  29
HETATM   29  S   UNL     1     -12.054  14.025  64.807  1.00  0.00    -0.450 S  
HETATM   30  O   UNL     1     -11.105  15.096  64.637  1.00  0.00    -0.375 OA 
HETATM   31  O   UNL     1     -13.395  14.270  65.291  1.00  0.00    -0.660 OA 
HETATM   32  N   UNL     1     -12.219  13.261  63.324  1.00  0.00    -0.886 N  
HETATM   33  H1  UNL     1     -12.638  13.997  62.756  1.00  0.00     0.000 HD 
HETATM   34  H2  UNL     1     -11.968  12.309  63.060  1.00  0.00     0.000 HD 
ENDBRANCH  26  29
ENDBRANCH  20  22
ENDBRANCH  15  20
ENDBRANCH   2  14
TORSDOF 5
ENDMDL
MODEL      118
REMARK 921   NORMALIZED FREE ENERGY PREDICTED BY IDOCK:   -6.45 KCAL/MOL
REMARK 922        TOTAL FREE ENERGY PREDICTED BY IDOCK:   -8.80 KCAL/MOL
REMARK 923 INTER-LIGAND FREE ENERGY PREDICTED BY IDOCK:   -8.21 KCAL/MOL
REMARK 924 INTRA-LIGAND FREE ENERGY PREDICTED BY IDOCK:   -0.59 KCAL/MOL
REMARK 927      BINDING AFFINITY PREDICTED BY RF-SCORE:    0.00 PKD
ROOT
HETATM    1  C   UNL     1      -8.475   5.569  70.906  1.00  0.00    -0.123 C  
HETATM    2  N   UNL     1      -9.286   6.222  69.878  1.00  0.00    -0.150 NA 
ENDROOT
BRANCH   2   3
HETATM    3  C   UNL     1      -9.470   5.517  68.652  1.00  0.00    -0.129 A  
HETATM    4  C   UNL     1     -10.886   5.343  66.544  1.00  0.00    -0.222 A  
HETATM    5  C   UNL     1     -10.775   3.777  63.794  1.00  0.00    -0.246 C  
HETATM    6  C   UNL     1      -8.566   4.503  68.241  1.00  0.00    -0.107 A  
HETATM    7  C   UNL     1      -8.828   3.947  66.976  1.00  0.00    -0.126 A  
HETATM    8  C   UNL     1      -9.949   4.385  66.190  1.00  0.00    -0.256 A  
HETATM    9  C   UNL     1      -9.911   3.702  64.998  1.00  0.00    -0.146 A  
HETATM   10  N   UNL     1      -8.165   2.993  66.302  1.00  0.00    -0.089 NA 
HETATM   11  N   UNL     1      -8.817   2.878  65.124  1.00  0.00    -0.123 NA 
HETATM   12  C   UNL     1      -8.316   1.941  64.144  1.00  0.00    -0.078 C  
HETATM   13  C   UNL     1     -10.594   5.884  67.817  1.00  0.00    -0.331 A  
ENDBRANCH   2   3
BRANCH   2  14
HETATM   14  C   UNL     1      -9.998   7.383  70.250  1.00  0.00    -0.188 A  
HETATM   15  C   UNL     1     -10.340   9.667  69.958  1.00  0.00    -0.257 A  
HETATM   16  N   UNL     1     -11.230   9.746  70.951  1.00  0.00    -0.332 NA 
HETATM   17  C   UNL     1     -11.526   8.592  71.569  1.00  0.00    -0.287 A  
HETATM   18  C   UNL     1     -10.949   7.383  71.253  1.00  0.00    -0.263 A  
HETATM   19  N   UNL     1      -9.715   8.532  69.610  1.00  0.00    -0.177 NA 
BRANCH  15  20
HETATM   20  N   UNL     1     -10.035  10.848  69.285  1.00  0.00    -0.384 NA 
HETATM   21  H   UNL     1      -9.571  11.569  69.838  1.00  0.00     0.000 HD 
BRANCH  20  22
HETATM   22  C   UNL     1     -10.288  11.172  67.945  1.00  0.00    -0.185 A  
HETATM   23  C   UNL     1      -9.956  10.256  66.946  1.00  0.00    -0.259 A  
HETATM   24  C   UNL     1     -10.276  10.508  65.608  1.00  0.00    -0.315 A  
HETATM   25  C   UNL     1     -10.928  11.693  65.221  1.00  0.00    -0.327 A  
HETATM   26  C   UNL     1     -11.229  12.635  66.220  1.00  0.00    -0.311 A  
HETATM   27  C   UNL     1     -11.255  11.884  63.770  1.00  0.00    -0.519 C  
HETATM   28  C   UNL     1     -10.918  12.363  67.564  1.00  0.00    -0.293 A  
BRANCH  26  29
HETATM   29  S   UNL     1     -11.951  14.237  65.880  1.00  0.00    -0.378 S  
HETATM   30  O   UNL     1     -13.241  14.059  65.263  1.00  0.00    -0.782 OA 
HETATM   31  O   UNL     1     -10.936  15.079  65.285  1.00  0.00    -0.337 OA 
HETATM   32  N   UNL     1     -12.210  14.830  67.426  1.00  0.00    -0.492 N  
HETATM   33  H1  UNL     1     -12.622  15.743  67.231  1.00  0.00     0.000 HD 
HETATM   34  H2  UNL     1     -12.009  14.393  68.325  1.00  0.00     0.000 HD 
ENDBRANCH  26  29
ENDBRANCH  20  22
ENDBRANCH  15  20
ENDBRANCH   2  14
TORSDOF 5
ENDMDL
MODEL      119
REMARK 921   NORMALIZED FREE ENERGY PREDICTED BY IDOCK:   -6.45 KCAL/MOL
REMARK 922        TOTAL FREE ENERGY PREDICTED BY IDOCK:   -8.80 KCAL/MOL
REMARK 923 INTER-LIGAND FREE ENERGY PREDICTED BY IDOCK:   -8.28 KCAL/MOL
REMARK 924 INTRA-LIGAND FREE ENERGY PREDICTED BY IDOCK:   -0.52 KCAL/MOL
REMARK 927      BINDING AFFINITY PREDICTED BY RF-SCORE:    0.00 PKD
ROOT
HETATM    1  C   UNL     1      -8.001   7.815  69.887  1.00  0.00    -0.110 C  
HETATM    2  N   UNL     1      -9.354   7.292  69.692  1.00  0.00    -0.153 NA 
ENDROOT
BRANCH   2   3
HETATM    3  C   UNL     1      -9.537   6.343  68.643  1.00  0.00    -0.120 A  
HETATM    4  C   UNL     1     -10.637   5.921  66.388  1.00  0.00    -0.180 A  
HETATM    5  C   UNL     1     -10.543   3.695  64.137  1.00  0.00    -0.246 C  
HETATM    6  C   UNL     1      -8.874   5.088  68.661  1.00  0.00    -0.111 A  
HETATM    7  C   UNL     1      -9.088   4.285  67.525  1.00  0.00    -0.134 A  
HETATM    8  C   UNL     1      -9.936   4.727  66.452  1.00  0.00    -0.264 A  
HETATM    9  C   UNL     1      -9.906   3.760  65.476  1.00  0.00    -0.115 A  
HETATM   10  N   UNL     1      -8.603   3.069  67.229  1.00  0.00    -0.098 NA 
HETATM   11  N   UNL     1      -9.088   2.786  66.000  1.00  0.00    -0.140 NA 
HETATM   12  C   UNL     1      -8.711   1.538  65.376  1.00  0.00    -0.112 C  
HETATM   13  C   UNL     1     -10.400   6.706  67.539  1.00  0.00    -0.262 A  
ENDBRANCH   2   3
BRANCH   2  14
HETATM   14  C   UNL     1     -10.317   7.592  70.679  1.00  0.00    -0.208 A  
HETATM   15  C   UNL     1     -12.142   8.884  71.327  1.00  0.00    -0.306 A  
HETATM   16  N   UNL     1     -12.185   8.357  72.555  1.00  0.00    -0.370 NA 
HETATM   17  C   UNL     1     -11.286   7.395  72.814  1.00  0.00    -0.332 A  
HETATM   18  C   UNL     1     -10.338   6.968  71.912  1.00  0.00    -0.213 A  
HETATM   19  N   UNL     1     -11.232   8.540  70.404  1.00  0.00    -0.241 NA 
BRANCH  15  20
HETATM   20  N   UNL     1     -13.082   9.867  71.027  1.00  0.00    -0.507 NA 
HETATM   21  H   UNL     1     -14.018   9.533  70.795  1.00  0.00     0.000 HD 
BRANCH  20  22
HETATM   22  C   UNL     1     -12.905  11.257  71.004  1.00  0.00    -0.300 A  
HETATM   23  C   UNL     1     -13.408  12.029  72.053  1.00  0.00    -0.447 A  
HETATM   24  C   UNL     1     -13.171  13.406  72.107  1.00  0.00    -0.557 A  
HETATM   25  C   UNL     1     -12.432  14.062  71.105  1.00  0.00    -0.447 A  
HETATM   26  C   UNL     1     -11.957  13.294  70.028  1.00  0.00    -0.329 A  
HETATM   27  C   UNL     1     -12.203  15.538  71.242  1.00  0.00    -0.447 C  
HETATM   28  C   UNL     1     -12.187  11.908  69.993  1.00  0.00    -0.291 A  
BRANCH  26  29
HETATM   29  S   UNL     1     -11.103  13.994  68.620  1.00  0.00    -0.277 S  
HETATM   30  O   UNL     1     -10.917  12.974  67.618  1.00  0.00    -0.243 OA 
HETATM   31  O   UNL     1      -9.996  14.790  69.104  1.00  0.00    -0.220 OA 
HETATM   32  N   UNL     1     -12.241  15.075  68.032  1.00  0.00    -0.498 N  
HETATM   33  H1  UNL     1     -11.754  15.473  67.229  1.00  0.00     0.000 HD 
HETATM   34  H2  UNL     1     -13.176  15.280  68.385  1.00  0.00     0.000 HD 
ENDBRANCH  26  29
ENDBRANCH  20  22
ENDBRANCH  15  20
ENDBRANCH   2  14
TORSDOF 5
ENDMDL
MODEL      120
REMARK 921   NORMALIZED FREE ENERGY PREDICTED BY IDOCK:   -6.43 KCAL/MOL
REMARK 922        TOTAL FREE ENERGY PREDICTED BY IDOCK:   -8.78 KCAL/MOL
REMARK 923 INTER-LIGAND FREE ENERGY PREDICTED BY IDOCK:   -8.05 KCAL/MOL
REMARK 924 INTRA-LIGAND FREE ENERGY PREDICTED BY IDOCK:   -0.73 KCAL/MOL
REMARK 927      BINDING AFFINITY PREDICTED BY RF-SCORE:    0.00 PKD
ROOT
HETATM    1  C   UNL     1     -10.531  14.451  65.041  1.00  0.00    -0.430 C  
HETATM    2  N   UNL     1     -10.462  13.189  65.778  1.00  0.00    -0.278 NA 
ENDROOT
BRANCH   2   3
HETATM    3  C   UNL     1     -11.014  13.175  67.093  1.00  0.00    -0.268 A  
HETATM    4  C   UNL     1     -12.030  14.604  68.938  1.00  0.00    -0.309 A  
HETATM    5  C   UNL     1     -13.481  14.128  71.712  1.00  0.00    -0.471 C  
HETATM    6  C   UNL     1     -11.204  11.959  67.801  1.00  0.00    -0.330 A  
HETATM    7  C   UNL     1     -11.828  12.091  69.056  1.00  0.00    -0.315 A  
HETATM    8  C   UNL     1     -12.216  13.379  69.560  1.00  0.00    -0.260 A  
HETATM    9  C   UNL     1     -12.838  13.179  70.769  1.00  0.00    -0.095 A  
HETATM   10  N   UNL     1     -12.159  11.149  69.954  1.00  0.00    -0.330 NA 
HETATM   11  N   UNL     1     -12.773  11.818  70.954  1.00  0.00    -0.283 NA 
HETATM   12  C   UNL     1     -13.289  11.066  72.076  1.00  0.00    -0.288 C  
HETATM   13  C   UNL     1     -11.405  14.439  67.681  1.00  0.00    -0.348 A  
ENDBRANCH   2   3
BRANCH   2  14
HETATM   14  C   UNL     1     -10.063  12.038  65.064  1.00  0.00    -0.264 A  
HETATM   15  C   UNL     1      -9.056   9.940  65.108  1.00  0.00    -0.211 A  
HETATM   16  N   UNL     1      -9.132   9.783  63.784  1.00  0.00    -0.248 NA 
HETATM   17  C   UNL     1      -9.730  10.776  63.107  1.00  0.00    -0.357 A  
HETATM   18  C   UNL     1     -10.221  11.919  63.697  1.00  0.00    -0.466 A  
HETATM   19  N   UNL     1      -9.486  11.036  65.752  1.00  0.00    -0.202 NA 
BRANCH  15  20
HETATM   20  N   UNL     1      -8.461   8.910  65.834  1.00  0.00    -0.129 NA 
HETATM   21  H   UNL     1      -8.016   8.175  65.284  1.00  0.00     0.000 HD 
BRANCH  20  22
HETATM   22  C   UNL     1      -8.396   8.757  67.226  1.00  0.00    -0.104 A  
HETATM   23  C   UNL     1      -7.291   9.254  67.919  1.00  0.00    -0.080 A  
HETATM   24  C   UNL     1      -7.236   9.198  69.315  1.00  0.00    -0.065 A  
HETATM   25  C   UNL     1      -8.281   8.631  70.067  1.00  0.00    -0.122 A  
HETATM   26  C   UNL     1      -9.378   8.094  69.370  1.00  0.00    -0.155 A  
HETATM   27  C   UNL     1      -8.159   8.624  71.562  1.00  0.00    -0.188 C  
HETATM   28  C   UNL     1      -9.429   8.171  67.968  1.00  0.00    -0.155 A  
BRANCH  26  29
HETATM   29  S   UNL     1     -10.729   7.236  70.170  1.00  0.00    -0.249 S  
HETATM   30  O   UNL     1     -11.586   8.195  70.821  1.00  0.00    -0.283 OA 
HETATM   31  O   UNL     1     -10.193   6.095  70.879  1.00  0.00    -0.190 OA 
HETATM   32  N   UNL     1     -11.570   6.623  68.856  1.00  0.00    -0.576 N  
HETATM   33  H1  UNL     1     -12.341   6.134  69.311  1.00  0.00     0.000 HD 
HETATM   34  H2  UNL     1     -11.365   6.715  67.861  1.00  0.00     0.000 HD 
ENDBRANCH  26  29
ENDBRANCH  20  22
ENDBRANCH  15  20
ENDBRANCH   2  14
TORSDOF 5
ENDMDL
MODEL      121
REMARK 921   NORMALIZED FREE ENERGY PREDICTED BY IDOCK:   -6.41 KCAL/MOL
REMARK 922        TOTAL FREE ENERGY PREDICTED BY IDOCK:   -8.74 KCAL/MOL
REMARK 923 INTER-LIGAND FREE ENERGY PREDICTED BY IDOCK:   -8.15 KCAL/MOL
REMARK 924 INTRA-LIGAND FREE ENERGY PREDICTED BY IDOCK:   -0.60 KCAL/MOL
REMARK 927      BINDING AFFINITY PREDICTED BY RF-SCORE:    0.00 PKD
ROOT
HETATM    1  C   UNL     1      -9.112   9.900  69.816  1.00  0.00    -0.225 C  
HETATM    2  N   UNL     1     -10.402  10.590  69.820  1.00  0.00    -0.209 NA 
ENDROOT
BRANCH   2   3
HETATM    3  C   UNL     1     -10.671  11.468  68.729  1.00  0.00    -0.211 A  
HETATM    4  C   UNL     1     -10.282  13.801  67.790  1.00  0.00    -0.241 A  
HETATM    5  C   UNL     1     -10.816  15.329  65.068  1.00  0.00    -0.457 C  
HETATM    6  C   UNL     1     -11.387  11.025  67.585  1.00  0.00    -0.355 A  
HETATM    7  C   UNL     1     -11.513  11.976  66.555  1.00  0.00    -0.349 A  
HETATM    8  C   UNL     1     -10.960  13.295  66.692  1.00  0.00    -0.297 A  
HETATM    9  C   UNL     1     -11.197  13.966  65.516  1.00  0.00    -0.307 A  
HETATM   10  N   UNL     1     -12.109  11.871  65.357  1.00  0.00    -0.332 NA 
HETATM   11  N   UNL     1     -11.892  13.059  64.751  1.00  0.00    -0.343 NA 
HETATM   12  C   UNL     1     -12.388  13.252  63.408  1.00  0.00    -0.324 C  
HETATM   13  C   UNL     1     -10.170  12.823  68.805  1.00  0.00    -0.094 A  
ENDBRANCH   2   3
BRANCH   2  14
HETATM   14  C   UNL     1     -11.359  10.175  70.771  1.00  0.00    -0.354 A  
HETATM   15  C   UNL     1     -12.059   8.552  72.285  1.00  0.00    -0.387 A  
HETATM   16  N   UNL     1     -13.201   9.187  72.566  1.00  0.00    -0.441 NA 
HETATM   17  C   UNL     1     -13.385  10.366  71.951  1.00  0.00    -0.364 A  
HETATM   18  C   UNL     1     -12.494  10.910  71.054  1.00  0.00    -0.514 A  
HETATM   19  N   UNL     1     -11.157   9.004  71.402  1.00  0.00    -0.300 NA 
BRANCH  15  20
HETATM   20  N   UNL     1     -11.835   7.338  72.931  1.00  0.00    -0.545 NA 
HETATM   21  H   UNL     1     -12.580   7.018  73.550  1.00  0.00     0.000 HD 
BRANCH  20  22
HETATM   22  C   UNL     1     -10.715   6.501  72.837  1.00  0.00    -0.251 A  
HETATM   23  C   UNL     1     -10.897   5.133  72.626  1.00  0.00    -0.303 A  
HETATM   24  C   UNL     1      -9.802   4.285  72.438  1.00  0.00    -0.217 A  
HETATM   25  C   UNL     1      -8.483   4.773  72.469  1.00  0.00    -0.116 A  
HETATM   26  C   UNL     1      -8.294   6.144  72.721  1.00  0.00    -0.117 A  
HETATM   27  C   UNL     1      -7.360   3.805  72.241  1.00  0.00    -0.053 C  
HETATM   28  C   UNL     1      -9.403   6.989  72.891  1.00  0.00    -0.165 A  
BRANCH  26  29
HETATM   29  S   UNL     1      -6.682   6.899  72.906  1.00  0.00    -0.070 S  
HETATM   30  O   UNL     1      -6.046   6.991  71.616  1.00  0.00    -0.037 OA 
HETATM   31  O   UNL     1      -6.017   6.289  74.037  1.00  0.00    -0.061 OA 
HETATM   32  N   UNL     1      -7.086   8.455  73.379  1.00  0.00    -0.108 N  
HETATM   33  H1  UNL     1      -6.168   8.886  73.484  1.00  0.00     0.000 HD 
HETATM   34  H2  UNL     1      -8.009   8.865  73.523  1.00  0.00     0.000 HD 
ENDBRANCH  26  29
ENDBRANCH  20  22
ENDBRANCH  15  20
ENDBRANCH   2  14
TORSDOF 5
ENDMDL
MODEL      122
REMARK 921   NORMALIZED FREE ENERGY PREDICTED BY IDOCK:   -6.39 KCAL/MOL
REMARK 922        TOTAL FREE ENERGY PREDICTED BY IDOCK:   -8.72 KCAL/MOL
REMARK 923 INTER-LIGAND FREE ENERGY PREDICTED BY IDOCK:   -7.53 KCAL/MOL
REMARK 924 INTRA-LIGAND FREE ENERGY PREDICTED BY IDOCK:   -1.19 KCAL/MOL
REMARK 927      BINDING AFFINITY PREDICTED BY RF-SCORE:    0.00 PKD
ROOT
HETATM    1  C   UNL     1      -7.347   4.610  66.539  1.00  0.00    -0.081 C  
HETATM    2  N   UNL     1      -7.850   5.979  66.661  1.00  0.00    -0.100 NA 
ENDROOT
BRANCH   2   3
HETATM    3  C   UNL     1      -8.529   6.315  67.869  1.00  0.00    -0.117 A  
HETATM    4  C   UNL     1      -8.323   7.503  70.110  1.00  0.00    -0.134 A  
HETATM    5  C   UNL     1     -10.246   8.328  72.488  1.00  0.00    -0.386 C  
HETATM    6  C   UNL     1      -9.897   5.985  68.063  1.00  0.00    -0.137 A  
HETATM    7  C   UNL     1     -10.455   6.446  69.270  1.00  0.00    -0.231 A  
HETATM    8  C   UNL     1      -9.666   7.178  70.221  1.00  0.00    -0.175 A  
HETATM    9  C   UNL     1     -10.494   7.531  71.260  1.00  0.00    -0.207 A  
HETATM   10  N   UNL     1     -11.705   6.316  69.742  1.00  0.00    -0.294 NA 
HETATM   11  N   UNL     1     -11.708   6.983  70.917  1.00  0.00    -0.326 NA 
HETATM   12  C   UNL     1     -12.941   7.061  71.667  1.00  0.00    -0.352 C  
HETATM   13  C   UNL     1      -7.792   7.030  68.888  1.00  0.00    -0.115 A  
ENDBRANCH   2   3
BRANCH   2  14
HETATM   14  C   UNL     1      -7.439   6.913  65.685  1.00  0.00    -0.085 A  
HETATM   15  C   UNL     1      -8.045   8.529  64.124  1.00  0.00    -0.154 A  
HETATM   16  N   UNL     1      -6.794   8.693  63.684  1.00  0.00    -0.088 NA 
HETATM   17  C   UNL     1      -5.852   7.965  64.305  1.00  0.00    -0.052 A  
HETATM   18  C   UNL     1      -6.117   7.070  65.316  1.00  0.00    -0.037 A  
HETATM   19  N   UNL     1      -8.385   7.657  65.083  1.00  0.00    -0.125 NA 
BRANCH  15  20
HETATM   20  N   UNL     1      -9.036   9.293  63.510  1.00  0.00    -0.422 NA 
HETATM   21  H   UNL     1      -9.258   9.044  62.546  1.00  0.00     0.000 HD 
BRANCH  20  22
HETATM   22  C   UNL     1      -9.766  10.359  64.052  1.00  0.00    -0.311 A  
HETATM   23  C   UNL     1     -10.346  11.297  63.195  1.00  0.00    -0.338 A  
HETATM   24  C   UNL     1     -11.155  12.322  63.697  1.00  0.00    -0.537 A  
HETATM   25  C   UNL     1     -11.402  12.452  65.075  1.00  0.00    -0.363 A  
HETATM   26  C   UNL     1     -10.788  11.533  65.944  1.00  0.00    -0.260 A  
HETATM   27  C   UNL     1     -12.295  13.566  65.536  1.00  0.00    -0.524 C  
HETATM   28  C   UNL     1      -9.990  10.498  65.427  1.00  0.00    -0.353 A  
BRANCH  26  29
HETATM   29  S   UNL     1     -10.906  11.631  67.727  1.00  0.00    -0.232 S  
HETATM   30  O   UNL     1     -12.258  11.341  68.133  1.00  0.00    -0.622 OA 
HETATM   31  O   UNL     1     -10.224  12.829  68.167  1.00  0.00    -0.227 OA 
HETATM   32  N   UNL     1      -9.950  10.340  68.205  1.00  0.00    -0.144 N  
HETATM   33  H1  UNL     1     -10.017  10.396  69.221  1.00  0.00     0.000 HD 
HETATM   34  H2  UNL     1      -9.435   9.674  67.630  1.00  0.00     0.000 HD 
ENDBRANCH  26  29
ENDBRANCH  20  22
ENDBRANCH  15  20
ENDBRANCH   2  14
TORSDOF 5
ENDMDL
MODEL      123
REMARK 921   NORMALIZED FREE ENERGY PREDICTED BY IDOCK:   -6.38 KCAL/MOL
REMARK 922        TOTAL FREE ENERGY PREDICTED BY IDOCK:   -8.71 KCAL/MOL
REMARK 923 INTER-LIGAND FREE ENERGY PREDICTED BY IDOCK:   -7.49 KCAL/MOL
REMARK 924 INTRA-LIGAND FREE ENERGY PREDICTED BY IDOCK:   -1.22 KCAL/MOL
REMARK 927      BINDING AFFINITY PREDICTED BY RF-SCORE:    0.00 PKD
ROOT
HETATM    1  C   UNL     1     -14.036   9.310  72.329  1.00  0.00    -0.300 C  
HETATM    2  N   UNL     1     -12.768   9.731  71.732  1.00  0.00    -0.400 NA 
ENDROOT
BRANCH   2   3
HETATM    3  C   UNL     1     -11.785   8.720  71.518  1.00  0.00    -0.309 A  
HETATM    4  C   UNL     1      -9.504   7.852  72.237  1.00  0.00    -0.248 A  
HETATM    5  C   UNL     1      -7.725   5.284  71.713  1.00  0.00    -0.109 C  
HETATM    6  C   UNL     1     -12.013   7.649  70.614  1.00  0.00    -0.122 A  
HETATM    7  C   UNL     1     -10.988   6.686  70.561  1.00  0.00    -0.286 A  
HETATM    8  C   UNL     1      -9.804   6.818  71.364  1.00  0.00    -0.188 A  
HETATM    9  C   UNL     1      -9.023   5.710  71.133  1.00  0.00    -0.138 A  
HETATM   10  N   UNL     1     -10.903   5.562  69.832  1.00  0.00    -0.299 NA 
HETATM   11  N   UNL     1      -9.735   4.991  70.202  1.00  0.00    -0.190 NA 
HETATM   12  C   UNL     1      -9.365   3.725  69.611  1.00  0.00    -0.175 C  
HETATM   13  C   UNL     1     -10.551   8.800  72.271  1.00  0.00    -0.319 A  
ENDBRANCH   2   3
BRANCH   2  14
HETATM   14  C   UNL     1     -12.696  11.043  71.216  1.00  0.00    -0.432 A  
HETATM   15  C   UNL     1     -12.025  12.447  69.486  1.00  0.00    -0.261 A  
HETATM   16  N   UNL     1     -12.387  13.558  70.134  1.00  0.00    -0.304 NA 
HETATM   17  C   UNL     1     -12.955  13.377  71.337  1.00  0.00    -0.328 A  
HETATM   18  C   UNL     1     -13.142  12.145  71.920  1.00  0.00    -0.475 A  
HETATM   19  N   UNL     1     -12.149  11.214  69.999  1.00  0.00    -0.338 NA 
BRANCH  15  20
HETATM   20  N   UNL     1     -11.456  12.609  68.224  1.00  0.00    -0.289 NA 
HETATM   21  H   UNL     1     -11.903  13.298  67.618  1.00  0.00     0.000 HD 
BRANCH  20  22
HETATM   22  C   UNL     1     -10.349  11.943  67.681  1.00  0.00    -0.200 A  
HETATM   23  C   UNL     1     -10.552  10.918  66.756  1.00  0.00    -0.313 A  
HETATM   24  C   UNL     1      -9.469  10.293  66.129  1.00  0.00    -0.229 A  
HETATM   25  C   UNL     1      -8.142  10.665  66.416  1.00  0.00    -0.148 A  
HETATM   26  C   UNL     1      -7.933  11.670  67.376  1.00  0.00    -0.147 A  
HETATM   27  C   UNL     1      -7.034   9.962  65.689  1.00  0.00    -0.108 C  
HETATM   28  C   UNL     1      -9.030  12.301  67.988  1.00  0.00    -0.190 A  
BRANCH  26  29
HETATM   29  S   UNL     1      -6.311  12.175  67.937  1.00  0.00    -0.091 S  
HETATM   30  O   UNL     1      -5.720  13.055  66.961  1.00  0.00    -0.298 OA 
HETATM   31  O   UNL     1      -5.611  11.007  68.427  1.00  0.00    -0.043 OA 
HETATM   32  N   UNL     1      -6.687  13.099  69.284  1.00  0.00    -0.210 N  
HETATM   33  H1  UNL     1      -5.762  13.387  69.603  1.00  0.00     0.000 HD 
HETATM   34  H2  UNL     1      -7.602  13.316  69.680  1.00  0.00     0.000 HD 
ENDBRANCH  26  29
ENDBRANCH  20  22
ENDBRANCH  15  20
ENDBRANCH   2  14
TORSDOF 5
ENDMDL
MODEL      124
REMARK 921   NORMALIZED FREE ENERGY PREDICTED BY IDOCK:   -6.38 KCAL/MOL
REMARK 922        TOTAL FREE ENERGY PREDICTED BY IDOCK:   -8.71 KCAL/MOL
REMARK 923 INTER-LIGAND FREE ENERGY PREDICTED BY IDOCK:   -7.54 KCAL/MOL
REMARK 924 INTRA-LIGAND FREE ENERGY PREDICTED BY IDOCK:   -1.16 KCAL/MOL
REMARK 927      BINDING AFFINITY PREDICTED BY RF-SCORE:    0.00 PKD
ROOT
HETATM    1  C   UNL     1      -8.890   5.105  66.697  1.00  0.00    -0.112 C  
HETATM    2  N   UNL     1      -8.273   6.372  67.090  1.00  0.00    -0.112 NA 
ENDROOT
BRANCH   2   3
HETATM    3  C   UNL     1      -8.528   7.503  66.260  1.00  0.00    -0.140 A  
HETATM    4  C   UNL     1      -8.085   8.558  63.987  1.00  0.00    -0.156 A  
HETATM    5  C   UNL     1      -9.134  11.050  62.338  1.00  0.00    -0.328 C  
HETATM    6  C   UNL     1      -9.403   8.541  66.677  1.00  0.00    -0.243 A  
HETATM    7  C   UNL     1      -9.619   9.555  65.725  1.00  0.00    -0.270 A  
HETATM    8  C   UNL     1      -8.973   9.520  64.442  1.00  0.00    -0.255 A  
HETATM    9  C   UNL     1      -9.417  10.605  63.725  1.00  0.00    -0.290 A  
HETATM   10  N   UNL     1     -10.389  10.653  65.799  1.00  0.00    -0.244 NA 
HETATM   11  N   UNL     1     -10.267  11.250  64.594  1.00  0.00    -0.279 NA 
HETATM   12  C   UNL     1     -11.016  12.460  64.340  1.00  0.00    -0.334 C  
HETATM   13  C   UNL     1      -7.890   7.553  64.962  1.00  0.00    -0.127 A  
ENDBRANCH   2   3
BRANCH   2  14
HETATM   14  C   UNL     1      -7.663   6.431  68.362  1.00  0.00    -0.104 A  
HETATM   15  C   UNL     1      -7.746   7.206  70.555  1.00  0.00    -0.094 A  
HETATM   16  N   UNL     1      -6.538   6.723  70.860  1.00  0.00    -0.052 NA 
HETATM   17  C   UNL     1      -5.912   6.045  69.885  1.00  0.00    -0.025 A  
HETATM   18  C   UNL     1      -6.432   5.861  68.624  1.00  0.00    -0.045 A  
HETATM   19  N   UNL     1      -8.306   7.091  69.342  1.00  0.00    -0.131 NA 
BRANCH  15  20
HETATM   20  N   UNL     1      -8.425   7.892  71.560  1.00  0.00    -0.108 NA 
HETATM   21  H   UNL     1      -7.926   7.998  72.444  1.00  0.00     0.000 HD 
BRANCH  20  22
HETATM   22  C   UNL     1      -9.708   8.455  71.510  1.00  0.00    -0.210 A  
HETATM   23  C   UNL     1     -10.712   7.944  72.333  1.00  0.00    -0.367 A  
HETATM   24  C   UNL     1     -11.978   8.539  72.373  1.00  0.00    -0.434 A  
HETATM   25  C   UNL     1     -12.286   9.659  71.580  1.00  0.00    -0.484 A  
HETATM   26  C   UNL     1     -11.288  10.152  70.721  1.00  0.00    -0.354 A  
HETATM   27  C   UNL     1     -13.659  10.253  71.692  1.00  0.00    -0.242 C  
HETATM   28  C   UNL     1     -10.016   9.556  70.701  1.00  0.00    -0.342 A  
BRANCH  26  29
HETATM   29  S   UNL     1     -11.556  11.493  69.567  1.00  0.00    -0.357 S  
HETATM   30  O   UNL     1     -11.928  12.681  70.292  1.00  0.00    -0.348 OA 
HETATM   31  O   UNL     1     -12.353  10.998  68.465  1.00  0.00    -0.536 OA 
HETATM   32  N   UNL     1     -10.013  11.736  68.961  1.00  0.00    -0.419 N  
HETATM   33  H1  UNL     1     -10.165  12.500  68.303  1.00  0.00     0.000 HD 
HETATM   34  H2  UNL     1      -9.147  11.247  69.189  1.00  0.00     0.000 HD 
ENDBRANCH  26  29
ENDBRANCH  20  22
ENDBRANCH  15  20
ENDBRANCH   2  14
TORSDOF 5
ENDMDL
MODEL      125
REMARK 921   NORMALIZED FREE ENERGY PREDICTED BY IDOCK:   -6.36 KCAL/MOL
REMARK 922        TOTAL FREE ENERGY PREDICTED BY IDOCK:   -8.69 KCAL/MOL
REMARK 923 INTER-LIGAND FREE ENERGY PREDICTED BY IDOCK:   -8.39 KCAL/MOL
REMARK 924 INTRA-LIGAND FREE ENERGY PREDICTED BY IDOCK:   -0.30 KCAL/MOL
REMARK 927      BINDING AFFINITY PREDICTED BY RF-SCORE:    0.00 PKD
ROOT
HETATM    1  C   UNL     1      -8.902   8.698  71.575  1.00  0.00    -0.219 C  
HETATM    2  N   UNL     1      -9.970   8.765  70.577  1.00  0.00    -0.181 NA 
ENDROOT
BRANCH   2   3
HETATM    3  C   UNL     1      -9.869   7.885  69.459  1.00  0.00    -0.176 A  
HETATM    4  C   UNL     1     -10.994   5.980  68.202  1.00  0.00    -0.340 A  
HETATM    5  C   UNL     1     -10.585   4.441  65.464  1.00  0.00    -0.193 C  
HETATM    6  C   UNL     1      -8.807   8.000  68.524  1.00  0.00    -0.134 A  
HETATM    7  C   UNL     1      -8.876   7.116  67.431  1.00  0.00    -0.119 A  
HETATM    8  C   UNL     1      -9.949   6.168  67.311  1.00  0.00    -0.174 A  
HETATM    9  C   UNL     1      -9.771   5.490  66.128  1.00  0.00    -0.123 A  
HETATM   10  N   UNL     1      -8.050   6.981  66.381  1.00  0.00    -0.109 NA 
HETATM   11  N   UNL     1      -8.612   6.022  65.613  1.00  0.00    -0.154 NA 
HETATM   12  C   UNL     1      -7.969   5.666  64.369  1.00  0.00    -0.125 C  
HETATM   13  C   UNL     1     -10.898   6.883  69.285  1.00  0.00    -0.270 A  
ENDBRANCH   2   3
BRANCH   2  14
HETATM   14  C   UNL     1     -11.117   9.522  70.900  1.00  0.00    -0.336 A  
HETATM   15  C   UNL     1     -12.217  11.571  70.808  1.00  0.00    -0.363 A  
HETATM   16  N   UNL     1     -13.241  11.150  71.556  1.00  0.00    -0.350 NA 
HETATM   17  C   UNL     1     -13.198   9.864  71.940  1.00  0.00    -0.458 A  
HETATM   18  C   UNL     1     -12.168   9.006  71.633  1.00  0.00    -0.418 A  
HETATM   19  N   UNL     1     -11.164  10.803  70.491  1.00  0.00    -0.218 NA 
BRANCH  15  20
HETATM   20  N   UNL     1     -12.252  12.895  70.376  1.00  0.00    -0.367 NA 
HETATM   21  H   UNL     1     -12.651  13.568  71.031  1.00  0.00     0.000 HD 
BRANCH  20  22
HETATM   22  C   UNL     1     -11.809  13.420  69.154  1.00  0.00    -0.336 A  
HETATM   23  C   UNL     1     -12.030  12.699  67.979  1.00  0.00    -0.300 A  
HETATM   24  C   UNL     1     -11.682  13.233  66.734  1.00  0.00    -0.434 A  
HETATM   25  C   UNL     1     -11.086  14.503  66.623  1.00  0.00    -0.333 A  
HETATM   26  C   UNL     1     -10.826  15.215  67.807  1.00  0.00    -0.292 A  
HETATM   27  C   UNL     1     -10.757  15.016  65.253  1.00  0.00    -0.406 C  
HETATM   28  C   UNL     1     -11.196  14.675  69.051  1.00  0.00    -0.287 A  
BRANCH  26  29
HETATM   29  S   UNL     1      -9.972  16.786  67.845  1.00  0.00    -0.278 S  
HETATM   30  O   UNL     1     -10.351  17.565  66.693  1.00  0.00    -0.326 OA 
HETATM   31  O   UNL     1      -8.583  16.546  68.174  1.00  0.00    -0.184 OA 
HETATM   32  N   UNL     1     -10.655  17.515  69.191  1.00  0.00    -0.392 N  
HETATM   33  H1  UNL     1     -10.169  18.411  69.212  1.00  0.00     0.000 HD 
HETATM   34  H2  UNL     1     -11.371  17.156  69.823  1.00  0.00     0.000 HD 
ENDBRANCH  26  29
ENDBRANCH  20  22
ENDBRANCH  15  20
ENDBRANCH   2  14
TORSDOF 5
ENDMDL
MODEL      126
REMARK 921   NORMALIZED FREE ENERGY PREDICTED BY IDOCK:   -6.36 KCAL/MOL
REMARK 922        TOTAL FREE ENERGY PREDICTED BY IDOCK:   -8.68 KCAL/MOL
REMARK 923 INTER-LIGAND FREE ENERGY PREDICTED BY IDOCK:   -7.89 KCAL/MOL
REMARK 924 INTRA-LIGAND FREE ENERGY PREDICTED BY IDOCK:   -0.79 KCAL/MOL
REMARK 927      BINDING AFFINITY PREDICTED BY RF-SCORE:    0.00 PKD
ROOT
HETATM    1  C   UNL     1     -12.270  11.186  70.637  1.00  0.00    -0.397 C  
HETATM    2  N   UNL     1     -11.318  10.238  70.058  1.00  0.00    -0.281 NA 
ENDROOT
BRANCH   2   3
HETATM    3  C   UNL     1     -11.050   9.051  70.802  1.00  0.00    -0.272 A  
HETATM    4  C   UNL     1     -11.662   6.599  71.097  1.00  0.00    -0.399 A  
HETATM    5  C   UNL     1     -10.570   4.112  72.726  1.00  0.00    -0.226 C  
HETATM    6  C   UNL     1     -10.024   9.011  71.783  1.00  0.00    -0.359 A  
HETATM    7  C   UNL     1      -9.823   7.754  72.383  1.00  0.00    -0.206 A  
HETATM    8  C   UNL     1     -10.626   6.620  72.018  1.00  0.00    -0.236 A  
HETATM    9  C   UNL     1     -10.162   5.539  72.729  1.00  0.00    -0.186 A  
HETATM   10  N   UNL     1      -8.937   7.382  73.320  1.00  0.00    -0.149 NA 
HETATM   11  N   UNL     1      -9.146   6.059  73.496  1.00  0.00    -0.131 NA 
HETATM   12  C   UNL     1      -8.310   5.344  74.433  1.00  0.00    -0.106 C  
HETATM   13  C   UNL     1     -11.838   7.873  70.510  1.00  0.00    -0.037 A  
ENDBRANCH   2   3
BRANCH   2  14
HETATM   14  C   UNL     1     -10.910  10.458  68.724  1.00  0.00    -0.232 A  
HETATM   15  C   UNL     1     -11.165  11.680  66.760  1.00  0.00    -0.308 A  
HETATM   16  N   UNL     1     -10.293  10.930  66.081  1.00  0.00    -0.248 NA 
HETATM   17  C   UNL     1      -9.695   9.949  66.775  1.00  0.00    -0.192 A  
HETATM   18  C   UNL     1      -9.958   9.676  68.098  1.00  0.00    -0.185 A  
HETATM   19  N   UNL     1     -11.495  11.459  68.041  1.00  0.00    -0.381 NA 
BRANCH  15  20
HETATM   20  N   UNL     1     -11.779  12.720  66.065  1.00  0.00    -0.396 NA 
HETATM   21  H   UNL     1     -12.634  12.479  65.564  1.00  0.00     0.000 HD 
BRANCH  20  22
HETATM   22  C   UNL     1     -11.370  14.058  65.970  1.00  0.00    -0.328 A  
HETATM   23  C   UNL     1     -11.632  14.772  64.799  1.00  0.00    -0.418 A  
HETATM   24  C   UNL     1     -11.318  16.131  64.703  1.00  0.00    -0.287 A  
HETATM   25  C   UNL     1     -10.718  16.821  65.772  1.00  0.00    -0.185 A  
HETATM   26  C   UNL     1     -10.417  16.096  66.938  1.00  0.00    -0.300 A  
HETATM   27  C   UNL     1     -10.428  18.283  65.601  1.00  0.00    -0.109 C  
HETATM   28  C   UNL     1     -10.753  14.734  67.029  1.00  0.00    -0.300 A  
BRANCH  26  29
HETATM   29  S   UNL     1      -9.552  16.796  68.339  1.00  0.00    -0.249 S  
HETATM   30  O   UNL     1     -10.463  17.606  69.108  1.00  0.00    -0.331 OA 
HETATM   31  O   UNL     1      -8.281  17.314  67.881  1.00  0.00    -0.209 OA 
HETATM   32  N   UNL     1      -9.206  15.430  69.246  1.00  0.00    -0.246 N  
HETATM   33  H1  UNL     1      -8.713  15.829  70.045  1.00  0.00     0.000 HD 
HETATM   34  H2  UNL     1      -9.430  14.454  69.050  1.00  0.00     0.000 HD 
ENDBRANCH  26  29
ENDBRANCH  20  22
ENDBRANCH  15  20
ENDBRANCH   2  14
TORSDOF 5
ENDMDL
MODEL      127
REMARK 921   NORMALIZED FREE ENERGY PREDICTED BY IDOCK:   -6.35 KCAL/MOL
REMARK 922        TOTAL FREE ENERGY PREDICTED BY IDOCK:   -8.66 KCAL/MOL
REMARK 923 INTER-LIGAND FREE ENERGY PREDICTED BY IDOCK:   -8.18 KCAL/MOL
REMARK 924 INTRA-LIGAND FREE ENERGY PREDICTED BY IDOCK:   -0.49 KCAL/MOL
REMARK 927      BINDING AFFINITY PREDICTED BY RF-SCORE:    0.00 PKD
ROOT
HETATM    1  C   UNL     1     -11.141   6.626  66.926  1.00  0.00    -0.249 C  
HETATM    2  N   UNL     1     -10.531   7.747  67.641  1.00  0.00    -0.239 NA 
ENDROOT
BRANCH   2   3
HETATM    3  C   UNL     1     -10.185   7.534  69.008  1.00  0.00    -0.205 A  
HETATM    4  C   UNL     1      -8.864   8.440  70.985  1.00  0.00    -0.193 A  
HETATM    5  C   UNL     1      -8.590   7.816  74.078  1.00  0.00    -0.319 C  
HETATM    6  C   UNL     1     -10.748   6.465  69.753  1.00  0.00    -0.341 A  
HETATM    7  C   UNL     1     -10.374   6.422  71.109  1.00  0.00    -0.205 A  
HETATM    8  C   UNL     1      -9.474   7.395  71.662  1.00  0.00    -0.163 A  
HETATM    9  C   UNL     1      -9.343   7.123  73.003  1.00  0.00    -0.153 A  
HETATM   10  N   UNL     1     -10.737   5.560  72.073  1.00  0.00    -0.231 NA 
HETATM   11  N   UNL     1     -10.126   6.008  73.192  1.00  0.00    -0.179 NA 
HETATM   12  C   UNL     1     -10.350   5.303  74.433  1.00  0.00    -0.272 C  
HETATM   13  C   UNL     1      -9.260   8.458  69.628  1.00  0.00    -0.160 A  
ENDBRANCH   2   3
BRANCH   2  14
HETATM   14  C   UNL     1     -10.133   8.866  66.878  1.00  0.00    -0.273 A  
HETATM   15  C   UNL     1     -10.606  11.025  66.147  1.00  0.00    -0.228 A  
HETATM   16  N   UNL     1      -9.537  11.079  65.347  1.00  0.00    -0.213 NA 
HETATM   17  C   UNL     1      -8.737  10.001  65.362  1.00  0.00    -0.159 A  
HETATM   18  C   UNL     1      -8.982   8.875  66.114  1.00  0.00    -0.218 A  
HETATM   19  N   UNL     1     -10.926   9.953  66.887  1.00  0.00    -0.068 NA 
BRANCH  15  20
HETATM   20  N   UNL     1     -11.438  12.143  66.167  1.00  0.00    -0.363 NA 
HETATM   21  H   UNL     1     -12.171  12.167  65.458  1.00  0.00     0.000 HD 
BRANCH  20  22
HETATM   22  C   UNL     1     -11.394  13.239  67.040  1.00  0.00    -0.312 A  
HETATM   23  C   UNL     1     -11.784  13.072  68.369  1.00  0.00    -0.386 A  
HETATM   24  C   UNL     1     -11.668  14.120  69.288  1.00  0.00    -0.368 A  
HETATM   25  C   UNL     1     -11.168  15.378  68.904  1.00  0.00    -0.296 A  
HETATM   26  C   UNL     1     -10.811  15.561  67.557  1.00  0.00    -0.306 A  
HETATM   27  C   UNL     1     -11.056  16.447  69.950  1.00  0.00    -0.313 C  
HETATM   28  C   UNL     1     -10.917  14.495  66.647  1.00  0.00    -0.321 A  
BRANCH  26  29
HETATM   29  S   UNL     1     -10.270  17.129  66.886  1.00  0.00    -0.311 S  
HETATM   30  O   UNL     1     -10.987  18.199  67.531  1.00  0.00    -0.324 OA 
HETATM   31  O   UNL     1     -10.214  17.016  65.444  1.00  0.00    -0.605 OA 
HETATM   32  N   UNL     1      -8.681  17.198  67.416  1.00  0.00    -0.202 N  
HETATM   33  H1  UNL     1      -8.373  18.092  67.033  1.00  0.00     0.000 HD 
HETATM   34  H2  UNL     1      -8.159  16.523  67.974  1.00  0.00     0.000 HD 
ENDBRANCH  26  29
ENDBRANCH  20  22
ENDBRANCH  15  20
ENDBRANCH   2  14
TORSDOF 5
ENDMDL
MODEL      128
REMARK 921   NORMALIZED FREE ENERGY PREDICTED BY IDOCK:   -6.35 KCAL/MOL
REMARK 922        TOTAL FREE ENERGY PREDICTED BY IDOCK:   -8.66 KCAL/MOL
REMARK 923 INTER-LIGAND FREE ENERGY PREDICTED BY IDOCK:   -7.64 KCAL/MOL
REMARK 924 INTRA-LIGAND FREE ENERGY PREDICTED BY IDOCK:   -1.02 KCAL/MOL
REMARK 927      BINDING AFFINITY PREDICTED BY RF-SCORE:    0.00 PKD
ROOT
HETATM    1  C   UNL     1     -12.506  12.536  64.724  1.00  0.00    -0.457 C  
HETATM    2  N   UNL     1     -11.723  13.081  65.834  1.00  0.00    -0.373 NA 
ENDROOT
BRANCH   2   3
HETATM    3  C   UNL     1     -11.473  12.213  66.937  1.00  0.00    -0.351 A  
HETATM    4  C   UNL     1     -11.875  11.840  69.423  1.00  0.00    -0.398 A  
HETATM    5  C   UNL     1     -11.391   9.528  71.532  1.00  0.00    -0.456 C  
HETATM    6  C   UNL     1     -10.781  10.985  66.769  1.00  0.00    -0.319 A  
HETATM    7  C   UNL     1     -10.674  10.197  67.930  1.00  0.00    -0.269 A  
HETATM    8  C   UNL     1     -11.220  10.641  69.182  1.00  0.00    -0.324 A  
HETATM    9  C   UNL     1     -11.004   9.646  70.104  1.00  0.00    -0.275 A  
HETATM   10  N   UNL     1     -10.102   8.995  68.102  1.00  0.00    -0.183 NA 
HETATM   11  N   UNL     1     -10.327   8.681  69.396  1.00  0.00    -0.215 NA 
HETATM   12  C   UNL     1      -9.857   7.407  69.892  1.00  0.00    -0.178 C  
HETATM   13  C   UNL     1     -11.969  12.607  68.239  1.00  0.00    -0.271 A  
ENDBRANCH   2   3
BRANCH   2  14
HETATM   14  C   UNL     1     -11.095  14.330  65.636  1.00  0.00    -0.316 A  
HETATM   15  C   UNL     1      -9.210  15.659  65.941  1.00  0.00    -0.295 A  
HETATM   16  N   UNL     1      -9.787  16.745  65.419  1.00  0.00    -0.508 NA 
HETATM   17  C   UNL     1     -11.039  16.582  64.963  1.00  0.00    -0.166 A  
HETATM   18  C   UNL     1     -11.735  15.398  65.037  1.00  0.00    -0.102 A  
HETATM   19  N   UNL     1      -9.832  14.478  66.074  1.00  0.00    -0.307 NA 
BRANCH  15  20
HETATM   20  N   UNL     1      -7.900  15.797  66.399  1.00  0.00    -0.241 NA 
HETATM   21  H   UNL     1      -7.290  16.386  65.833  1.00  0.00     0.000 HD 
BRANCH  20  22
HETATM   22  C   UNL     1      -7.317  15.227  67.539  1.00  0.00    -0.196 A  
HETATM   23  C   UNL     1      -6.954  16.050  68.607  1.00  0.00    -0.133 A  
HETATM   24  C   UNL     1      -6.453  15.506  69.793  1.00  0.00    -0.167 A  
HETATM   25  C   UNL     1      -6.285  14.117  69.949  1.00  0.00    -0.146 A  
HETATM   26  C   UNL     1      -6.613  13.289  68.861  1.00  0.00    -0.107 A  
HETATM   27  C   UNL     1      -5.760  13.607  71.257  1.00  0.00    -0.184 C  
HETATM   28  C   UNL     1      -7.131  13.846  67.680  1.00  0.00    -0.190 A  
BRANCH  26  29
HETATM   29  S   UNL     1      -6.350  11.519  68.856  1.00  0.00    -0.066 S  
HETATM   30  O   UNL     1      -5.271  11.193  69.755  1.00  0.00    -0.041 OA 
HETATM   31  O   UNL     1      -6.358  11.058  67.485  1.00  0.00    -0.058 OA 
HETATM   32  N   UNL     1      -7.769  10.960  69.551  1.00  0.00    -0.351 N  
HETATM   33  H1  UNL     1      -7.619   9.951  69.548  1.00  0.00     0.000 HD 
HETATM   34  H2  UNL     1      -8.572  11.490  69.888  1.00  0.00     0.000 HD 
ENDBRANCH  26  29
ENDBRANCH  20  22
ENDBRANCH  15  20
ENDBRANCH   2  14
TORSDOF 5
ENDMDL
MODEL      129
REMARK 921   NORMALIZED FREE ENERGY PREDICTED BY IDOCK:   -6.34 KCAL/MOL
REMARK 922        TOTAL FREE ENERGY PREDICTED BY IDOCK:   -8.66 KCAL/MOL
REMARK 923 INTER-LIGAND FREE ENERGY PREDICTED BY IDOCK:   -8.03 KCAL/MOL
REMARK 924 INTRA-LIGAND FREE ENERGY PREDICTED BY IDOCK:   -0.63 KCAL/MOL
REMARK 927      BINDING AFFINITY PREDICTED BY RF-SCORE:    0.00 PKD
ROOT
HETATM    1  C   UNL     1      -8.474   8.455  63.190  1.00  0.00    -0.017 C  
HETATM    2  N   UNL     1      -8.658   8.684  64.623  1.00  0.00    -0.137 NA 
ENDROOT
BRANCH   2   3
HETATM    3  C   UNL     1      -9.414   9.831  65.005  1.00  0.00    -0.272 A  
HETATM    4  C   UNL     1     -10.198  11.248  66.969  1.00  0.00    -0.250 A  
HETATM    5  C   UNL     1     -11.673  14.018  67.393  1.00  0.00    -0.421 C  
HETATM    6  C   UNL     1      -9.999  10.686  64.033  1.00  0.00    -0.401 A  
HETATM    7  C   UNL     1     -10.651  11.819  64.553  1.00  0.00    -0.313 A  
HETATM    8  C   UNL     1     -10.716  12.055  65.968  1.00  0.00    -0.317 A  
HETATM    9  C   UNL     1     -11.364  13.252  66.159  1.00  0.00    -0.309 A  
HETATM   10  N   UNL     1     -11.284  12.815  63.912  1.00  0.00    -0.412 NA 
HETATM   11  N   UNL     1     -11.683  13.663  64.886  1.00  0.00    -0.345 NA 
HETATM   12  C   UNL     1     -12.374  14.875  64.509  1.00  0.00    -0.315 C  
HETATM   13  C   UNL     1      -9.548  10.120  66.417  1.00  0.00    -0.242 A  
ENDBRANCH   2   3
BRANCH   2  14
HETATM   14  C   UNL     1      -8.269   7.650  65.503  1.00  0.00    -0.135 A  
HETATM   15  C   UNL     1      -8.909   6.025  67.041  1.00  0.00    -0.113 A  
HETATM   16  N   UNL     1      -7.650   5.687  67.335  1.00  0.00    -0.088 NA 
HETATM   17  C   UNL     1      -6.694   6.335  66.652  1.00  0.00    -0.060 A  
HETATM   18  C   UNL     1      -6.947   7.316  65.720  1.00  0.00    -0.061 A  
HETATM   19  N   UNL     1      -9.235   6.988  66.166  1.00  0.00    -0.123 NA 
BRANCH  15  20
HETATM   20  N   UNL     1      -9.921   5.348  67.719  1.00  0.00    -0.150 NA 
HETATM   21  H   UNL     1     -10.500   4.728  67.154  1.00  0.00     0.000 HD 
BRANCH  20  22
HETATM   22  C   UNL     1     -10.242   5.412  69.082  1.00  0.00    -0.232 A  
HETATM   23  C   UNL     1      -9.794   4.405  69.939  1.00  0.00    -0.290 A  
HETATM   24  C   UNL     1     -10.020   4.484  71.317  1.00  0.00    -0.258 A  
HETATM   25  C   UNL     1     -10.713   5.568  71.885  1.00  0.00    -0.292 A  
HETATM   26  C   UNL     1     -11.200   6.564  71.020  1.00  0.00    -0.309 A  
HETATM   27  C   UNL     1     -10.900   5.592  73.373  1.00  0.00    -0.315 C  
HETATM   28  C   UNL     1     -10.952   6.482  69.639  1.00  0.00    -0.394 A  
BRANCH  26  29
HETATM   29  S   UNL     1     -12.198   7.944  71.568  1.00  0.00    -0.319 S  
HETATM   30  O   UNL     1     -11.561   8.577  72.695  1.00  0.00    -0.357 OA 
HETATM   31  O   UNL     1     -13.580   7.518  71.620  1.00  0.00    -0.365 OA 
HETATM   32  N   UNL     1     -12.076   8.993  70.267  1.00  0.00    -0.425 N  
HETATM   33  H1  UNL     1     -12.645   9.780  70.580  1.00  0.00     0.000 HD 
HETATM   34  H2  UNL     1     -11.566   8.876  69.392  1.00  0.00     0.000 HD 
ENDBRANCH  26  29
ENDBRANCH  20  22
ENDBRANCH  15  20
ENDBRANCH   2  14
TORSDOF 5
ENDMDL
MODEL      130
REMARK 921   NORMALIZED FREE ENERGY PREDICTED BY IDOCK:   -6.33 KCAL/MOL
REMARK 922        TOTAL FREE ENERGY PREDICTED BY IDOCK:   -8.64 KCAL/MOL
REMARK 923 INTER-LIGAND FREE ENERGY PREDICTED BY IDOCK:   -8.45 KCAL/MOL
REMARK 924 INTRA-LIGAND FREE ENERGY PREDICTED BY IDOCK:   -0.20 KCAL/MOL
REMARK 927      BINDING AFFINITY PREDICTED BY RF-SCORE:    0.00 PKD
ROOT
HETATM    1  C   UNL     1      -9.472  10.964  63.635  1.00  0.00    -0.285 C  
HETATM    2  N   UNL     1     -10.138  10.859  64.933  1.00  0.00    -0.290 NA 
ENDROOT
BRANCH   2   3
HETATM    3  C   UNL     1      -9.796   9.740  65.748  1.00  0.00    -0.290 A  
HETATM    4  C   UNL     1     -10.379   8.452  67.865  1.00  0.00    -0.279 A  
HETATM    5  C   UNL     1      -9.543   5.717  69.225  1.00  0.00    -0.176 C  
HETATM    6  C   UNL     1      -8.781   8.826  65.359  1.00  0.00    -0.217 A  
HETATM    7  C   UNL     1      -8.604   7.729  66.222  1.00  0.00    -0.150 A  
HETATM    8  C   UNL     1      -9.399   7.583  67.410  1.00  0.00    -0.164 A  
HETATM    9  C   UNL     1      -9.033   6.402  68.010  1.00  0.00    -0.115 A  
HETATM   10  N   UNL     1      -7.752   6.695  66.134  1.00  0.00    -0.093 NA 
HETATM   11  N   UNL     1      -8.038   5.912  67.197  1.00  0.00    -0.102 NA 
HETATM   12  C   UNL     1      -7.303   4.679  67.368  1.00  0.00    -0.074 C  
HETATM   13  C   UNL     1     -10.535   9.542  66.977  1.00  0.00    -0.302 A  
ENDBRANCH   2   3
BRANCH   2  14
HETATM   14  C   UNL     1     -10.889  11.971  65.372  1.00  0.00    -0.291 A  
HETATM   15  C   UNL     1     -11.170  13.666  66.942  1.00  0.00    -0.312 A  
HETATM   16  N   UNL     1     -12.318  14.088  66.405  1.00  0.00    -0.461 NA 
HETATM   17  C   UNL     1     -12.721  13.444  65.298  1.00  0.00    -0.422 A  
HETATM   18  C   UNL     1     -12.041  12.388  64.735  1.00  0.00    -0.483 A  
HETATM   19  N   UNL     1     -10.466  12.628  66.468  1.00  0.00    -0.245 NA 
BRANCH  15  20
HETATM   20  N   UNL     1     -10.719  14.336  68.078  1.00  0.00    -0.235 NA 
HETATM   21  H   UNL     1     -11.019  13.950  68.973  1.00  0.00     0.000 HD 
BRANCH  20  22
HETATM   22  C   UNL     1      -9.904  15.475  68.145  1.00  0.00    -0.216 A  
HETATM   23  C   UNL     1      -8.817  15.488  69.020  1.00  0.00    -0.242 A  
HETATM   24  C   UNL     1      -7.932  16.571  69.048  1.00  0.00    -0.225 A  
HETATM   25  C   UNL     1      -8.113  17.686  68.208  1.00  0.00    -0.278 A  
HETATM   26  C   UNL     1      -9.229  17.693  67.354  1.00  0.00    -0.247 A  
HETATM   27  C   UNL     1      -7.112  18.800  68.282  1.00  0.00    -0.278 C  
HETATM   28  C   UNL     1     -10.102  16.591  67.323  1.00  0.00    -0.273 A  
BRANCH  26  29
HETATM   29  S   UNL     1      -9.663  19.081  66.311  1.00  0.00    -0.319 S  
HETATM   30  O   UNL     1     -10.768  18.713  65.461  1.00  0.00    -0.577 OA 
HETATM   31  O   UNL     1      -8.447  19.646  65.770  1.00  0.00    -0.401 OA 
HETATM   32  N   UNL     1     -10.239  20.184  67.434  1.00  0.00    -0.410 N  
HETATM   33  H1  UNL     1     -10.487  20.975  66.839  1.00  0.00     0.000 HD 
HETATM   34  H2  UNL     1     -10.320  20.090  68.446  1.00  0.00     0.000 HD 
ENDBRANCH  26  29
ENDBRANCH  20  22
ENDBRANCH  15  20
ENDBRANCH   2  14
TORSDOF 5
ENDMDL
MODEL      131
REMARK 921   NORMALIZED FREE ENERGY PREDICTED BY IDOCK:   -6.32 KCAL/MOL
REMARK 922        TOTAL FREE ENERGY PREDICTED BY IDOCK:   -8.64 KCAL/MOL
REMARK 923 INTER-LIGAND FREE ENERGY PREDICTED BY IDOCK:   -8.15 KCAL/MOL
REMARK 924 INTRA-LIGAND FREE ENERGY PREDICTED BY IDOCK:   -0.49 KCAL/MOL
REMARK 927      BINDING AFFINITY PREDICTED BY RF-SCORE:    0.00 PKD
ROOT
HETATM    1  C   UNL     1     -12.713  13.389  71.558  1.00  0.00    -0.293 C  
HETATM    2  N   UNL     1     -12.449  12.308  70.608  1.00  0.00    -0.285 NA 
ENDROOT
BRANCH   2   3
HETATM    3  C   UNL     1     -12.119  12.684  69.273  1.00  0.00    -0.166 A  
HETATM    4  C   UNL     1     -11.707  14.647  67.706  1.00  0.00    -0.386 A  
HETATM    5  C   UNL     1     -10.647  15.079  64.753  1.00  0.00    -0.319 C  
HETATM    6  C   UNL     1     -11.810  11.710  68.287  1.00  0.00    -0.335 A  
HETATM    7  C   UNL     1     -11.430  12.229  67.035  1.00  0.00    -0.354 A  
HETATM    8  C   UNL     1     -11.386  13.646  66.802  1.00  0.00    -0.346 A  
HETATM    9  C   UNL     1     -10.935  13.840  65.518  1.00  0.00    -0.299 A  
HETATM   10  N   UNL     1     -11.067  11.587  65.914  1.00  0.00    -0.257 NA 
HETATM   11  N   UNL     1     -10.761  12.565  65.032  1.00  0.00    -0.285 NA 
HETATM   12  C   UNL     1     -10.292  12.190  63.718  1.00  0.00    -0.437 C  
HETATM   13  C   UNL     1     -12.082  14.095  68.952  1.00  0.00    -0.339 A  
ENDBRANCH   2   3
BRANCH   2  14
HETATM   14  C   UNL     1     -12.323  11.001  71.128  1.00  0.00    -0.359 A  
HETATM   15  C   UNL     1     -11.075   9.041  71.254  1.00  0.00    -0.312 A  
HETATM   16  N   UNL     1     -11.997   8.401  71.979  1.00  0.00    -0.332 NA 
HETATM   17  C   UNL     1     -13.085   9.115  72.309  1.00  0.00    -0.438 A  
HETATM   18  C   UNL     1     -13.294  10.419  71.920  1.00  0.00    -0.469 A  
HETATM   19  N   UNL     1     -11.219  10.299  70.814  1.00  0.00    -0.334 NA 
BRANCH  15  20
HETATM   20  N   UNL     1      -9.926   8.327  70.921  1.00  0.00    -0.187 NA 
HETATM   21  H   UNL     1      -9.044   8.724  71.244  1.00  0.00     0.000 HD 
BRANCH  20  22
HETATM   22  C   UNL     1      -9.829   7.131  70.196  1.00  0.00    -0.179 A  
HETATM   23  C   UNL     1     -10.322   7.079  68.891  1.00  0.00    -0.198 A  
HETATM   24  C   UNL     1     -10.161   5.930  68.109  1.00  0.00    -0.225 A  
HETATM   25  C   UNL     1      -9.513   4.787  68.611  1.00  0.00    -0.208 A  
HETATM   26  C   UNL     1      -9.050   4.822  69.939  1.00  0.00    -0.104 A  
HETATM   27  C   UNL     1      -9.363   3.600  67.707  1.00  0.00    -0.242 C  
HETATM   28  C   UNL     1      -9.203   5.988  70.709  1.00  0.00    -0.165 A  
BRANCH  26  29
HETATM   29  S   UNL     1      -8.311   3.416  70.762  1.00  0.00    -0.065 S  
HETATM   30  O   UNL     1      -7.084   3.062  70.094  1.00  0.00    -0.034 OA 
HETATM   31  O   UNL     1      -9.345   2.437  71.016  1.00  0.00    -0.118 OA 
HETATM   32  N   UNL     1      -7.901   4.068  72.251  1.00  0.00    -0.079 N  
HETATM   33  H1  UNL     1      -7.480   3.267  72.720  1.00  0.00     0.000 HD 
HETATM   34  H2  UNL     1      -8.039   5.018  72.597  1.00  0.00     0.000 HD 
ENDBRANCH  26  29
ENDBRANCH  20  22
ENDBRANCH  15  20
ENDBRANCH   2  14
TORSDOF 5
ENDMDL
MODEL      132
REMARK 921   NORMALIZED FREE ENERGY PREDICTED BY IDOCK:   -6.32 KCAL/MOL
REMARK 922        TOTAL FREE ENERGY PREDICTED BY IDOCK:   -8.63 KCAL/MOL
REMARK 923 INTER-LIGAND FREE ENERGY PREDICTED BY IDOCK:   -8.03 KCAL/MOL
REMARK 924 INTRA-LIGAND FREE ENERGY PREDICTED BY IDOCK:   -0.60 KCAL/MOL
REMARK 927      BINDING AFFINITY PREDICTED BY RF-SCORE:    0.00 PKD
ROOT
HETATM    1  C   UNL     1      -9.068   7.905  73.418  1.00  0.00    -0.283 C  
HETATM    2  N   UNL     1      -9.731   7.599  72.150  1.00  0.00    -0.166 NA 
ENDROOT
BRANCH   2   3
HETATM    3  C   UNL     1      -9.237   6.483  71.413  1.00  0.00    -0.148 A  
HETATM    4  C   UNL     1      -7.219   4.985  71.008  1.00  0.00    -0.060 A  
HETATM    5  C   UNL     1      -6.594   2.302  69.447  1.00  0.00    -0.029 C  
HETATM    6  C   UNL     1     -10.078   5.745  70.539  1.00  0.00    -0.269 A  
HETATM    7  C   UNL     1      -9.476   4.625  69.936  1.00  0.00    -0.167 A  
HETATM    8  C   UNL     1      -8.103   4.291  70.196  1.00  0.00    -0.060 A  
HETATM    9  C   UNL     1      -7.823   3.132  69.513  1.00  0.00    -0.049 A  
HETATM   10  N   UNL     1      -9.994   3.726  69.084  1.00  0.00     0.122 NA 
HETATM   11  N   UNL     1      -8.998   2.840  68.861  1.00  0.00    -0.109 NA 
HETATM   12  C   UNL     1      -9.257   1.710  67.998  1.00  0.00    -0.173 C  
HETATM   13  C   UNL     1      -7.853   6.102  71.600  1.00  0.00    -0.102 A  
ENDBRANCH   2   3
BRANCH   2  14
HETATM   14  C   UNL     1     -10.933   8.282  71.863  1.00  0.00    -0.287 A  
HETATM   15  C   UNL     1     -12.047   9.843  70.545  1.00  0.00    -0.207 A  
HETATM   16  N   UNL     1     -13.174   9.766  71.258  1.00  0.00    -0.384 NA 
HETATM   17  C   UNL     1     -13.169   8.886  72.272  1.00  0.00    -0.447 A  
HETATM   18  C   UNL     1     -12.082   8.113  72.611  1.00  0.00    -0.311 A  
HETATM   19  N   UNL     1     -10.938   9.144  70.830  1.00  0.00    -0.258 NA 
BRANCH  15  20
HETATM   20  N   UNL     1     -12.037  10.732  69.471  1.00  0.00    -0.469 NA 
HETATM   21  H   UNL     1     -12.256  10.332  68.559  1.00  0.00     0.000 HD 
BRANCH  20  22
HETATM   22  C   UNL     1     -11.765  12.107  69.488  1.00  0.00    -0.336 A  
HETATM   23  C   UNL     1     -10.923  12.650  68.516  1.00  0.00    -0.292 A  
HETATM   24  C   UNL     1     -10.701  14.029  68.450  1.00  0.00    -0.261 A  
HETATM   25  C   UNL     1     -11.304  14.913  69.363  1.00  0.00    -0.312 A  
HETATM   26  C   UNL     1     -12.122  14.365  70.367  1.00  0.00    -0.331 A  
HETATM   27  C   UNL     1     -11.033  16.381  69.217  1.00  0.00    -0.322 C  
HETATM   28  C   UNL     1     -12.350  12.980  70.414  1.00  0.00    -0.351 A  
BRANCH  26  29
HETATM   29  S   UNL     1     -12.867  15.338  71.671  1.00  0.00    -0.434 S  
HETATM   30  O   UNL     1     -14.143  15.838  71.225  1.00  0.00    -0.501 OA 
HETATM   31  O   UNL     1     -11.858  16.219  72.220  1.00  0.00    -0.510 OA 
HETATM   32  N   UNL     1     -13.164  14.174  72.840  1.00  0.00    -0.523 N  
HETATM   33  H1  UNL     1     -13.589  14.729  73.583  1.00  0.00     0.000 HD 
HETATM   34  H2  UNL     1     -12.970  13.173  72.814  1.00  0.00     0.000 HD 
ENDBRANCH  26  29
ENDBRANCH  20  22
ENDBRANCH  15  20
ENDBRANCH   2  14
TORSDOF 5
ENDMDL
MODEL      133
REMARK 921   NORMALIZED FREE ENERGY PREDICTED BY IDOCK:   -6.28 KCAL/MOL
REMARK 922        TOTAL FREE ENERGY PREDICTED BY IDOCK:   -8.58 KCAL/MOL
REMARK 923 INTER-LIGAND FREE ENERGY PREDICTED BY IDOCK:   -8.01 KCAL/MOL
REMARK 924 INTRA-LIGAND FREE ENERGY PREDICTED BY IDOCK:   -0.57 KCAL/MOL
REMARK 927      BINDING AFFINITY PREDICTED BY RF-SCORE:    0.00 PKD
ROOT
HETATM    1  C   UNL     1      -8.301   9.278  68.042  1.00  0.00    -0.120 C  
HETATM    2  N   UNL     1      -9.248   8.202  68.337  1.00  0.00    -0.136 NA 
ENDROOT
BRANCH   2   3
HETATM    3  C   UNL     1      -9.206   7.052  67.494  1.00  0.00    -0.124 A  
HETATM    4  C   UNL     1     -10.610   5.320  66.268  1.00  0.00    -0.308 A  
HETATM    5  C   UNL     1     -10.125   3.010  64.156  1.00  0.00    -0.134 C  
HETATM    6  C   UNL     1      -7.977   6.553  66.987  1.00  0.00    -0.112 A  
HETATM    7  C   UNL     1      -8.095   5.460  66.109  1.00  0.00    -0.106 A  
HETATM    8  C   UNL     1      -9.379   4.904  65.783  1.00  0.00    -0.165 A  
HETATM    9  C   UNL     1      -9.174   3.894  64.874  1.00  0.00    -0.149 A  
HETATM   10  N   UNL     1      -7.141   4.776  65.456  1.00  0.00    -0.063 NA 
HETATM   11  N   UNL     1      -7.808   3.863  64.716  1.00  0.00    -0.085 NA 
HETATM   12  C   UNL     1      -7.051   2.980  63.858  1.00  0.00    -0.049 C  
HETATM   13  C   UNL     1     -10.459   6.418  67.144  1.00  0.00    -0.342 A  
ENDBRANCH   2   3
BRANCH   2  14
HETATM   14  C   UNL     1      -9.969   8.283  69.548  1.00  0.00    -0.187 A  
HETATM   15  C   UNL     1     -11.691   9.281  70.754  1.00  0.00    -0.269 A  
HETATM   16  N   UNL     1     -11.394   8.627  71.881  1.00  0.00    -0.323 NA 
HETATM   17  C   UNL     1     -10.379   7.753  71.802  1.00  0.00    -0.199 A  
HETATM   18  C   UNL     1      -9.641   7.534  70.661  1.00  0.00    -0.171 A  
HETATM   19  N   UNL     1     -11.002   9.144  69.612  1.00  0.00    -0.198 NA 
BRANCH  15  20
HETATM   20  N   UNL     1     -12.758  10.177  70.805  1.00  0.00    -0.450 NA 
HETATM   21  H   UNL     1     -13.686   9.772  70.684  1.00  0.00     0.000 HD 
BRANCH  20  22
HETATM   22  C   UNL     1     -12.716  11.564  71.003  1.00  0.00    -0.328 A  
HETATM   23  C   UNL     1     -13.408  12.124  72.077  1.00  0.00    -0.470 A  
HETATM   24  C   UNL     1     -13.315  13.491  72.356  1.00  0.00    -0.641 A  
HETATM   25  C   UNL     1     -12.534  14.349  71.559  1.00  0.00    -0.430 A  
HETATM   26  C   UNL     1     -11.867  13.795  70.453  1.00  0.00    -0.253 A  
HETATM   27  C   UNL     1     -12.469  15.801  71.931  1.00  0.00    -0.527 C  
HETATM   28  C   UNL     1     -11.955  12.417  70.193  1.00  0.00    -0.376 A  
BRANCH  26  29
HETATM   29  S   UNL     1     -10.931  14.767  69.278  1.00  0.00    -0.269 S  
HETATM   30  O   UNL     1     -11.634  15.996  69.006  1.00  0.00    -0.367 OA 
HETATM   31  O   UNL     1     -10.488  13.896  68.211  1.00  0.00    -0.236 OA 
HETATM   32  N   UNL     1      -9.565  15.157  70.168  1.00  0.00    -0.421 N  
HETATM   33  H1  UNL     1      -9.032  15.711  69.498  1.00  0.00     0.000 HD 
HETATM   34  H2  UNL     1      -9.329  14.905  71.127  1.00  0.00     0.000 HD 
ENDBRANCH  26  29
ENDBRANCH  20  22
ENDBRANCH  15  20
ENDBRANCH   2  14
TORSDOF 5
ENDMDL
MODEL      134
REMARK 921   NORMALIZED FREE ENERGY PREDICTED BY IDOCK:   -6.27 KCAL/MOL
REMARK 922        TOTAL FREE ENERGY PREDICTED BY IDOCK:   -8.57 KCAL/MOL
REMARK 923 INTER-LIGAND FREE ENERGY PREDICTED BY IDOCK:   -7.96 KCAL/MOL
REMARK 924 INTRA-LIGAND FREE ENERGY PREDICTED BY IDOCK:   -0.61 KCAL/MOL
REMARK 927      BINDING AFFINITY PREDICTED BY RF-SCORE:    0.00 PKD
ROOT
HETATM    1  C   UNL     1     -12.420  12.624  65.292  1.00  0.00    -0.416 C  
HETATM    2  N   UNL     1     -11.156  12.992  65.930  1.00  0.00    -0.277 NA 
ENDROOT
BRANCH   2   3
HETATM    3  C   UNL     1     -10.907  14.383  66.122  1.00  0.00    -0.309 A  
HETATM    4  C   UNL     1     -10.747  16.647  64.971  1.00  0.00    -0.171 A  
HETATM    5  C   UNL     1     -10.468  19.680  65.838  1.00  0.00    -0.591 C  
HETATM    6  C   UNL     1     -10.694  14.922  67.419  1.00  0.00    -0.292 A  
HETATM    7  C   UNL     1     -10.537  16.320  67.464  1.00  0.00    -0.310 A  
HETATM    8  C   UNL     1     -10.578  17.111  66.266  1.00  0.00    -0.185 A  
HETATM    9  C   UNL     1     -10.448  18.429  66.635  1.00  0.00    -0.385 A  
HETATM   10  N   UNL     1     -10.338  17.128  68.518  1.00  0.00    -0.341 NA 
HETATM   11  N   UNL     1     -10.306  18.376  68.002  1.00  0.00    -0.382 NA 
HETATM   12  C   UNL     1     -10.139  19.494  68.903  1.00  0.00    -0.401 C  
HETATM   13  C   UNL     1     -10.904  15.242  64.957  1.00  0.00    -0.457 A  
ENDBRANCH   2   3
BRANCH   2  14
HETATM   14  C   UNL     1     -10.387  11.954  66.499  1.00  0.00    -0.216 A  
HETATM   15  C   UNL     1     -10.329   9.807  67.397  1.00  0.00    -0.240 A  
HETATM   16  N   UNL     1      -9.035   9.886  67.719  1.00  0.00    -0.131 NA 
HETATM   17  C   UNL     1      -8.412  11.024  67.375  1.00  0.00    -0.132 A  
HETATM   18  C   UNL     1      -9.036  12.083  66.756  1.00  0.00    -0.198 A  
HETATM   19  N   UNL     1     -11.013  10.806  66.819  1.00  0.00    -0.200 NA 
BRANCH  15  20
HETATM   20  N   UNL     1     -10.991   8.625  67.722  1.00  0.00    -0.487 NA 
HETATM   21  H   UNL     1     -11.937   8.527  67.353  1.00  0.00     0.000 HD 
BRANCH  20  22
HETATM   22  C   UNL     1     -10.521   7.554  68.494  1.00  0.00    -0.180 A  
HETATM   23  C   UNL     1     -10.600   7.626  69.886  1.00  0.00    -0.237 A  
HETATM   24  C   UNL     1     -10.223   6.540  70.682  1.00  0.00    -0.220 A  
HETATM   25  C   UNL     1      -9.742   5.346  70.114  1.00  0.00    -0.252 A  
HETATM   26  C   UNL     1      -9.624   5.285  68.714  1.00  0.00    -0.137 A  
HETATM   27  C   UNL     1      -9.375   4.219  71.032  1.00  0.00    -0.221 C  
HETATM   28  C   UNL     1     -10.021   6.377  67.923  1.00  0.00    -0.145 A  
BRANCH  26  29
HETATM   29  S   UNL     1      -8.922   3.887  67.845  1.00  0.00    -0.138 S  
HETATM   30  O   UNL     1      -9.768   2.735  68.030  1.00  0.00    -0.132 OA 
HETATM   31  O   UNL     1      -7.503   3.838  68.124  1.00  0.00    -0.061 OA 
HETATM   32  N   UNL     1      -9.072   4.368  66.246  1.00  0.00    -0.120 N  
HETATM   33  H1  UNL     1      -8.672   3.571  65.751  1.00  0.00     0.000 HD 
HETATM   34  H2  UNL     1      -9.461   5.232  65.868  1.00  0.00     0.000 HD 
ENDBRANCH  26  29
ENDBRANCH  20  22
ENDBRANCH  15  20
ENDBRANCH   2  14
TORSDOF 5
ENDMDL
MODEL      135
REMARK 921   NORMALIZED FREE ENERGY PREDICTED BY IDOCK:   -6.25 KCAL/MOL
REMARK 922        TOTAL FREE ENERGY PREDICTED BY IDOCK:   -8.54 KCAL/MOL
REMARK 923 INTER-LIGAND FREE ENERGY PREDICTED BY IDOCK:   -7.92 KCAL/MOL
REMARK 924 INTRA-LIGAND FREE ENERGY PREDICTED BY IDOCK:   -0.62 KCAL/MOL
REMARK 927      BINDING AFFINITY PREDICTED BY RF-SCORE:    0.00 PKD
ROOT
HETATM    1  C   UNL     1     -10.588  14.631  65.017  1.00  0.00    -0.439 C  
HETATM    2  N   UNL     1     -10.424  13.353  65.710  1.00  0.00    -0.285 NA 
ENDROOT
BRANCH   2   3
HETATM    3  C   UNL     1     -10.904  13.277  67.051  1.00  0.00    -0.269 A  
HETATM    4  C   UNL     1     -11.609  14.630  69.088  1.00  0.00    -0.331 A  
HETATM    5  C   UNL     1     -12.967  14.069  71.894  1.00  0.00    -0.444 C  
HETATM    6  C   UNL     1     -11.227  12.031  67.650  1.00  0.00    -0.343 A  
HETATM    7  C   UNL     1     -11.760  12.114  68.950  1.00  0.00    -0.327 A  
HETATM    8  C   UNL     1     -11.935  13.383  69.600  1.00  0.00    -0.386 A  
HETATM    9  C   UNL     1     -12.515  13.145  70.823  1.00  0.00    -0.308 A  
HETATM   10  N   UNL     1     -12.175  11.138  69.772  1.00  0.00    -0.315 NA 
HETATM   11  N   UNL     1     -12.636  11.776  70.871  1.00  0.00    -0.333 NA 
HETATM   12  C   UNL     1     -13.194  10.988  71.946  1.00  0.00    -0.398 C  
HETATM   13  C   UNL     1     -11.079  14.514  67.783  1.00  0.00    -0.295 A  
ENDBRANCH   2   3
BRANCH   2  14
HETATM   14  C   UNL     1     -10.012  12.243  64.942  1.00  0.00    -0.195 A  
HETATM   15  C   UNL     1      -8.756  10.287  64.817  1.00  0.00    -0.188 A  
HETATM   16  N   UNL     1      -9.041  10.087  63.527  1.00  0.00    -0.257 NA 
HETATM   17  C   UNL     1      -9.869  10.980  62.962  1.00  0.00    -0.337 A  
HETATM   18  C   UNL     1     -10.390  12.068  63.624  1.00  0.00    -0.482 A  
HETATM   19  N   UNL     1      -9.203  11.337  65.521  1.00  0.00    -0.216 NA 
BRANCH  15  20
HETATM   20  N   UNL     1      -7.918   9.358  65.431  1.00  0.00    -0.103 NA 
HETATM   21  H   UNL     1      -6.920   9.560  65.386  1.00  0.00     0.000 HD 
BRANCH  20  22
HETATM   22  C   UNL     1      -8.276   8.181  66.102  1.00  0.00    -0.117 A  
HETATM   23  C   UNL     1      -8.282   8.163  67.498  1.00  0.00    -0.123 A  
HETATM   24  C   UNL     1      -8.719   7.035  68.199  1.00  0.00    -0.127 A  
HETATM   25  C   UNL     1      -9.154   5.878  67.526  1.00  0.00    -0.106 A  
HETATM   26  C   UNL     1      -9.112   5.878  66.121  1.00  0.00    -0.150 A  
HETATM   27  C   UNL     1      -9.625   4.714  68.346  1.00  0.00    -0.212 C  
HETATM   28  C   UNL     1      -8.686   7.024  65.428  1.00  0.00     0.009 A  
BRANCH  26  29
HETATM   29  S   UNL     1      -9.520   4.451  65.122  1.00  0.00    -0.171 S  
HETATM   30  O   UNL     1     -10.950   4.274  65.102  1.00  0.00    -0.231 OA 
HETATM   31  O   UNL     1      -8.628   3.369  65.483  1.00  0.00    -0.106 OA 
HETATM   32  N   UNL     1      -9.054   4.958  63.594  1.00  0.00    -0.337 N  
HETATM   33  H1  UNL     1      -9.286   4.144  63.025  1.00  0.00     0.000 HD 
HETATM   34  H2  UNL     1      -8.644   5.847  63.309  1.00  0.00     0.000 HD 
ENDBRANCH  26  29
ENDBRANCH  20  22
ENDBRANCH  15  20
ENDBRANCH   2  14
TORSDOF 5
ENDMDL
MODEL      136
REMARK 921   NORMALIZED FREE ENERGY PREDICTED BY IDOCK:   -6.20 KCAL/MOL
REMARK 922        TOTAL FREE ENERGY PREDICTED BY IDOCK:   -8.47 KCAL/MOL
REMARK 923 INTER-LIGAND FREE ENERGY PREDICTED BY IDOCK:   -7.56 KCAL/MOL
REMARK 924 INTRA-LIGAND FREE ENERGY PREDICTED BY IDOCK:   -0.91 KCAL/MOL
REMARK 927      BINDING AFFINITY PREDICTED BY RF-SCORE:    0.00 PKD
ROOT
HETATM    1  C   UNL     1      -7.237   8.972  64.871  1.00  0.00    -0.095 C  
HETATM    2  N   UNL     1      -8.523   9.000  65.569  1.00  0.00    -0.135 NA 
ENDROOT
BRANCH   2   3
HETATM    3  C   UNL     1      -9.217  10.245  65.599  1.00  0.00    -0.184 A  
HETATM    4  C   UNL     1     -10.965  11.681  64.433  1.00  0.00    -0.399 A  
HETATM    5  C   UNL     1     -12.521  14.377  65.014  1.00  0.00    -0.366 C  
HETATM    6  C   UNL     1      -9.031  11.168  66.661  1.00  0.00    -0.175 A  
HETATM    7  C   UNL     1      -9.838  12.320  66.598  1.00  0.00    -0.220 A  
HETATM    8  C   UNL     1     -10.759  12.522  65.515  1.00  0.00    -0.303 A  
HETATM    9  C   UNL     1     -11.431  13.697  65.757  1.00  0.00    -0.315 A  
HETATM   10  N   UNL     1      -9.914  13.362  67.441  1.00  0.00    -0.227 NA 
HETATM   11  N   UNL     1     -10.879  14.158  66.930  1.00  0.00    -0.293 NA 
HETATM   12  C   UNL     1     -11.229  15.366  67.640  1.00  0.00    -0.311 C  
HETATM   13  C   UNL     1     -10.144  10.534  64.525  1.00  0.00    -0.402 A  
ENDBRANCH   2   3
BRANCH   2  14
HETATM   14  C   UNL     1      -9.077   7.762  65.962  1.00  0.00    -0.121 A  
HETATM   15  C   UNL     1     -10.443   6.594  67.440  1.00  0.00    -0.260 A  
HETATM   16  N   UNL     1     -10.145   5.405  66.909  1.00  0.00    -0.185 NA 
HETATM   17  C   UNL     1      -9.319   5.426  65.850  1.00  0.00    -0.143 A  
HETATM   18  C   UNL     1      -8.766   6.574  65.331  1.00  0.00    -0.020 A  
HETATM   19  N   UNL     1      -9.923   7.752  67.008  1.00  0.00    -0.219 NA 
BRANCH  15  20
HETATM   20  N   UNL     1     -11.319   6.600  68.525  1.00  0.00    -0.576 NA 
HETATM   21  H   UNL     1     -12.312   6.625  68.296  1.00  0.00     0.000 HD 
BRANCH  20  22
HETATM   22  C   UNL     1     -11.005   6.577  69.891  1.00  0.00    -0.335 A  
HETATM   23  C   UNL     1     -11.117   7.750  70.639  1.00  0.00    -0.264 A  
HETATM   24  C   UNL     1     -10.899   7.742  72.021  1.00  0.00    -0.295 A  
HETATM   25  C   UNL     1     -10.547   6.561  72.700  1.00  0.00    -0.248 A  
HETATM   26  C   UNL     1     -10.395   5.386  71.943  1.00  0.00    -0.212 A  
HETATM   27  C   UNL     1     -10.347   6.628  74.185  1.00  0.00    -0.347 C  
HETATM   28  C   UNL     1     -10.633   5.403  70.558  1.00  0.00    -0.312 A  
BRANCH  26  29
HETATM   29  S   UNL     1      -9.841   3.832  72.636  1.00  0.00    -0.158 S  
HETATM   30  O   UNL     1     -10.864   3.303  73.502  1.00  0.00    -0.191 OA 
HETATM   31  O   UNL     1      -8.475   3.992  73.085  1.00  0.00    -0.091 OA 
HETATM   32  N   UNL     1      -9.780   2.854  71.276  1.00  0.00    -0.158 N  
HETATM   33  H1  UNL     1      -9.464   1.968  71.671  1.00  0.00     0.000 HD 
HETATM   34  H2  UNL     1     -10.000   3.085  70.307  1.00  0.00     0.000 HD 
ENDBRANCH  26  29
ENDBRANCH  20  22
ENDBRANCH  15  20
ENDBRANCH   2  14
TORSDOF 5
ENDMDL
MODEL      137
REMARK 921   NORMALIZED FREE ENERGY PREDICTED BY IDOCK:   -6.16 KCAL/MOL
REMARK 922        TOTAL FREE ENERGY PREDICTED BY IDOCK:   -8.42 KCAL/MOL
REMARK 923 INTER-LIGAND FREE ENERGY PREDICTED BY IDOCK:   -7.74 KCAL/MOL
REMARK 924 INTRA-LIGAND FREE ENERGY PREDICTED BY IDOCK:   -0.68 KCAL/MOL
REMARK 927      BINDING AFFINITY PREDICTED BY RF-SCORE:    0.00 PKD
ROOT
HETATM    1  C   UNL     1     -10.119   5.959  71.894  1.00  0.00    -0.185 C  
HETATM    2  N   UNL     1     -10.289   6.613  70.596  1.00  0.00    -0.200 NA 
ENDROOT
BRANCH   2   3
HETATM    3  C   UNL     1     -10.045   5.822  69.435  1.00  0.00    -0.213 A  
HETATM    4  C   UNL     1      -8.898   3.732  68.544  1.00  0.00    -0.152 A  
HETATM    5  C   UNL     1      -8.851   2.080  65.843  1.00  0.00    -0.119 C  
HETATM    6  C   UNL     1     -10.642   6.140  68.186  1.00  0.00    -0.328 A  
HETATM    7  C   UNL     1     -10.373   5.230  67.147  1.00  0.00    -0.216 A  
HETATM    8  C   UNL     1      -9.537   4.082  67.365  1.00  0.00    -0.222 A  
HETATM    9  C   UNL     1      -9.505   3.366  66.192  1.00  0.00    -0.112 A  
HETATM   10  N   UNL     1     -10.791   5.234  65.872  1.00  0.00    -0.058 NA 
HETATM   11  N   UNL     1     -10.277   4.108  65.330  1.00  0.00    -0.215 NA 
HETATM   12  C   UNL     1     -10.582   3.801  63.950  1.00  0.00    -0.261 C  
HETATM   13  C   UNL     1      -9.189   4.662  69.568  1.00  0.00    -0.182 A  
ENDBRANCH   2   3
BRANCH   2  14
HETATM   14  C   UNL     1     -10.887   7.892  70.584  1.00  0.00    -0.237 A  
HETATM   15  C   UNL     1     -10.724  10.140  70.005  1.00  0.00    -0.305 A  
HETATM   16  N   UNL     1     -11.882  10.461  70.588  1.00  0.00    -0.322 NA 
HETATM   17  C   UNL     1     -12.562   9.445  71.142  1.00  0.00    -0.282 A  
HETATM   18  C   UNL     1     -12.117   8.143  71.160  1.00  0.00    -0.281 A  
HETATM   19  N   UNL     1     -10.211   8.901  70.005  1.00  0.00    -0.192 NA 
BRANCH  15  20
HETATM   20  N   UNL     1     -10.012  11.174  69.401  1.00  0.00    -0.428 NA 
HETATM   21  H   UNL     1      -9.078  11.350  69.772  1.00  0.00     0.000 HD 
BRANCH  20  22
HETATM   22  C   UNL     1     -10.417  12.004  68.347  1.00  0.00    -0.219 A  
HETATM   23  C   UNL     1     -11.300  11.509  67.386  1.00  0.00    -0.367 A  
HETATM   24  C   UNL     1     -11.795  12.336  66.372  1.00  0.00    -0.382 A  
HETATM   25  C   UNL     1     -11.413  13.687  66.278  1.00  0.00    -0.352 A  
HETATM   26  C   UNL     1     -10.494  14.179  67.221  1.00  0.00    -0.272 A  
HETATM   27  C   UNL     1     -12.000  14.516  65.175  1.00  0.00    -0.369 C  
HETATM   28  C   UNL     1     -10.016  13.342  68.245  1.00  0.00    -0.240 A  
BRANCH  26  29
HETATM   29  S   UNL     1      -9.821  15.836  67.170  1.00  0.00    -0.229 S  
HETATM   30  O   UNL     1     -10.884  16.790  67.357  1.00  0.00    -0.283 OA 
HETATM   31  O   UNL     1      -8.910  15.927  66.050  1.00  0.00    -0.333 OA 
HETATM   32  N   UNL     1      -8.873  15.863  68.552  1.00  0.00    -0.187 N  
HETATM   33  H1  UNL     1      -8.490  16.808  68.523  1.00  0.00     0.000 HD 
HETATM   34  H2  UNL     1      -8.720  15.127  69.242  1.00  0.00     0.000 HD 
ENDBRANCH  26  29
ENDBRANCH  20  22
ENDBRANCH  15  20
ENDBRANCH   2  14
TORSDOF 5
ENDMDL
MODEL      138
REMARK 921   NORMALIZED FREE ENERGY PREDICTED BY IDOCK:   -6.16 KCAL/MOL
REMARK 922        TOTAL FREE ENERGY PREDICTED BY IDOCK:   -8.42 KCAL/MOL
REMARK 923 INTER-LIGAND FREE ENERGY PREDICTED BY IDOCK:   -7.58 KCAL/MOL
REMARK 924 INTRA-LIGAND FREE ENERGY PREDICTED BY IDOCK:   -0.83 KCAL/MOL
REMARK 927      BINDING AFFINITY PREDICTED BY RF-SCORE:    0.00 PKD
ROOT
HETATM    1  C   UNL     1      -5.820  14.079  69.965  1.00  0.00    -0.133 C  
HETATM    2  N   UNL     1      -6.709  14.408  68.851  1.00  0.00    -0.092 NA 
ENDROOT
BRANCH   2   3
HETATM    3  C   UNL     1      -6.721  15.764  68.409  1.00  0.00    -0.116 A  
HETATM    4  C   UNL     1      -6.518  18.192  69.141  1.00  0.00    -0.257 A  
HETATM    5  C   UNL     1      -6.278  21.027  67.749  1.00  0.00    -0.414 C  
HETATM    6  C   UNL     1      -6.825  16.090  67.031  1.00  0.00    -0.180 A  
HETATM    7  C   UNL     1      -6.747  17.463  66.736  1.00  0.00    -0.213 A  
HETATM    8  C   UNL     1      -6.591  18.439  67.779  1.00  0.00    -0.213 A  
HETATM    9  C   UNL     1      -6.496  19.673  67.181  1.00  0.00    -0.193 A  
HETATM   10  N   UNL     1      -6.796  18.091  65.550  1.00  0.00    -0.453 NA 
HETATM   11  N   UNL     1      -6.627  19.401  65.839  1.00  0.00    -0.218 NA 
HETATM   12  C   UNL     1      -6.595  20.352  64.751  1.00  0.00    -0.270 C  
HETATM   13  C   UNL     1      -6.596  16.806  69.406  1.00  0.00    -0.228 A  
ENDBRANCH   2   3
BRANCH   2  14
HETATM   14  C   UNL     1      -7.315  13.334  68.162  1.00  0.00    -0.120 A  
HETATM   15  C   UNL     1      -9.227  12.063  67.781  1.00  0.00    -0.190 A  
HETATM   16  N   UNL     1      -8.597  11.205  66.973  1.00  0.00    -0.143 NA 
HETATM   17  C   UNL     1      -7.302  11.464  66.736  1.00  0.00    -0.135 A  
HETATM   18  C   UNL     1      -6.615  12.517  67.295  1.00  0.00    -0.125 A  
HETATM   19  N   UNL     1      -8.620  13.096  68.385  1.00  0.00    -0.157 NA 
BRANCH  15  20
HETATM   20  N   UNL     1     -10.579  11.829  68.022  1.00  0.00    -0.199 NA 
HETATM   21  H   UNL     1     -11.223  12.152  67.300  1.00  0.00     0.000 HD 
BRANCH  20  22
HETATM   22  C   UNL     1     -11.166  11.206  69.132  1.00  0.00    -0.264 A  
HETATM   23  C   UNL     1     -12.048  11.929  69.937  1.00  0.00    -0.344 A  
HETATM   24  C   UNL     1     -12.719  11.313  70.998  1.00  0.00    -0.457 A  
HETATM   25  C   UNL     1     -12.522   9.953  71.298  1.00  0.00    -0.479 A  
HETATM   26  C   UNL     1     -11.605   9.231  70.514  1.00  0.00    -0.217 A  
HETATM   27  C   UNL     1     -13.291   9.358  72.440  1.00  0.00    -0.503 C  
HETATM   28  C   UNL     1     -10.949   9.857  69.440  1.00  0.00    -0.263 A  
BRANCH  26  29
HETATM   29  S   UNL     1     -11.156   7.530  70.838  1.00  0.00    -0.268 S  
HETATM   30  O   UNL     1     -12.267   6.672  70.514  1.00  0.00    -0.364 OA 
HETATM   31  O   UNL     1     -10.500   7.466  72.126  1.00  0.00    -0.201 OA 
HETATM   32  N   UNL     1      -9.965   7.266  69.688  1.00  0.00    -0.174 N  
HETATM   33  H1  UNL     1      -9.709   6.296  69.872  1.00  0.00     0.000 HD 
HETATM   34  H2  UNL     1      -9.594   7.907  68.987  1.00  0.00     0.000 HD 
ENDBRANCH  26  29
ENDBRANCH  20  22
ENDBRANCH  15  20
ENDBRANCH   2  14
TORSDOF 5
ENDMDL
MODEL      139
REMARK 921   NORMALIZED FREE ENERGY PREDICTED BY IDOCK:   -6.16 KCAL/MOL
REMARK 922        TOTAL FREE ENERGY PREDICTED BY IDOCK:   -8.42 KCAL/MOL
REMARK 923 INTER-LIGAND FREE ENERGY PREDICTED BY IDOCK:   -8.27 KCAL/MOL
REMARK 924 INTRA-LIGAND FREE ENERGY PREDICTED BY IDOCK:   -0.15 KCAL/MOL
REMARK 927      BINDING AFFINITY PREDICTED BY RF-SCORE:    0.00 PKD
ROOT
HETATM    1  C   UNL     1     -11.160  15.511  70.754  1.00  0.00    -0.351 C  
HETATM    2  N   UNL     1     -10.971  15.126  69.355  1.00  0.00    -0.251 NA 
ENDROOT
BRANCH   2   3
HETATM    3  C   UNL     1     -10.176  15.990  68.546  1.00  0.00    -0.236 A  
HETATM    4  C   UNL     1     -10.126  18.205  67.294  1.00  0.00    -0.354 A  
HETATM    5  C   UNL     1      -7.969  19.988  65.812  1.00  0.00    -0.176 C  
HETATM    6  C   UNL     1      -8.819  15.689  68.258  1.00  0.00    -0.180 A  
HETATM    7  C   UNL     1      -8.137  16.668  67.512  1.00  0.00    -0.168 A  
HETATM    8  C   UNL     1      -8.800  17.865  67.077  1.00  0.00    -0.256 A  
HETATM    9  C   UNL     1      -7.870  18.639  66.424  1.00  0.00    -0.283 A  
HETATM   10  N   UNL     1      -6.861  16.694  67.093  1.00  0.00    -0.169 NA 
HETATM   11  N   UNL     1      -6.723  17.882  66.465  1.00  0.00    -0.196 NA 
HETATM   12  C   UNL     1      -5.430  18.233  65.922  1.00  0.00    -0.180 C  
HETATM   13  C   UNL     1     -10.784  17.205  68.046  1.00  0.00    -0.372 A  
ENDBRANCH   2   3
BRANCH   2  14
HETATM   14  C   UNL     1     -11.397  13.836  68.972  1.00  0.00    -0.289 A  
HETATM   15  C   UNL     1     -12.140  11.729  69.625  1.00  0.00    -0.258 A  
HETATM   16  N   UNL     1     -12.142  11.250  68.378  1.00  0.00    -0.609 NA 
HETATM   17  C   UNL     1     -11.798  12.119  67.415  1.00  0.00    -0.227 A  
HETATM   18  C   UNL     1     -11.427  13.423  67.654  1.00  0.00    -0.353 A  
HETATM   19  N   UNL     1     -11.765  12.977  69.941  1.00  0.00    -0.289 NA 
BRANCH  15  20
HETATM   20  N   UNL     1     -12.519  10.852  70.640  1.00  0.00    -0.350 NA 
HETATM   21  H   UNL     1     -13.310  11.147  71.212  1.00  0.00     0.000 HD 
BRANCH  20  22
HETATM   22  C   UNL     1     -11.949   9.615  70.973  1.00  0.00    -0.343 A  
HETATM   23  C   UNL     1     -12.266   9.023  72.196  1.00  0.00    -0.427 A  
HETATM   24  C   UNL     1     -11.787   7.750  72.522  1.00  0.00    -0.354 A  
HETATM   25  C   UNL     1     -10.961   7.030  71.639  1.00  0.00    -0.258 A  
HETATM   26  C   UNL     1     -10.608   7.641  70.422  1.00  0.00    -0.230 A  
HETATM   27  C   UNL     1     -10.502   5.663  72.050  1.00  0.00    -0.270 C  
HETATM   28  C   UNL     1     -11.110   8.913  70.100  1.00  0.00    -0.217 A  
BRANCH  26  29
HETATM   29  S   UNL     1      -9.476   6.910  69.245  1.00  0.00    -0.146 S  
HETATM   30  O   UNL     1      -8.432   6.214  69.954  1.00  0.00    -0.125 OA 
HETATM   31  O   UNL     1      -9.176   7.893  68.227  1.00  0.00    -0.138 OA 
HETATM   32  N   UNL     1     -10.444   5.753  68.513  1.00  0.00    -0.217 N  
HETATM   33  H1  UNL     1      -9.799   5.336  67.842  1.00  0.00     0.000 HD 
HETATM   34  H2  UNL     1     -11.422   5.526  68.692  1.00  0.00     0.000 HD 
ENDBRANCH  26  29
ENDBRANCH  20  22
ENDBRANCH  15  20
ENDBRANCH   2  14
TORSDOF 5
ENDMDL
MODEL      140
REMARK 921   NORMALIZED FREE ENERGY PREDICTED BY IDOCK:   -6.15 KCAL/MOL
REMARK 922        TOTAL FREE ENERGY PREDICTED BY IDOCK:   -8.42 KCAL/MOL
REMARK 923 INTER-LIGAND FREE ENERGY PREDICTED BY IDOCK:   -7.54 KCAL/MOL
REMARK 924 INTRA-LIGAND FREE ENERGY PREDICTED BY IDOCK:   -0.87 KCAL/MOL
REMARK 927      BINDING AFFINITY PREDICTED BY RF-SCORE:    0.00 PKD
ROOT
HETATM    1  C   UNL     1     -10.659  17.878  67.188  1.00  0.00    -0.307 C  
HETATM    2  N   UNL     1      -9.846  16.880  67.884  1.00  0.00    -0.256 NA 
ENDROOT
BRANCH   2   3
HETATM    3  C   UNL     1     -10.522  16.008  68.787  1.00  0.00    -0.248 A  
HETATM    4  C   UNL     1     -11.888  15.885  70.931  1.00  0.00    -0.453 A  
HETATM    5  C   UNL     1     -13.542  13.694  72.509  1.00  0.00    -0.675 C  
HETATM    6  C   UNL     1     -10.631  14.616  68.527  1.00  0.00    -0.245 A  
HETATM    7  C   UNL     1     -11.389  13.892  69.465  1.00  0.00    -0.237 A  
HETATM    8  C   UNL     1     -11.983  14.542  70.600  1.00  0.00    -0.387 A  
HETATM    9  C   UNL     1     -12.695  13.593  71.295  1.00  0.00    -0.361 A  
HETATM   10  N   UNL     1     -11.691  12.584  69.500  1.00  0.00    -0.306 NA 
HETATM   11  N   UNL     1     -12.481  12.434  70.585  1.00  0.00    -0.284 NA 
HETATM   12  C   UNL     1     -13.011  11.123  70.882  1.00  0.00    -0.187 C  
HETATM   13  C   UNL     1     -11.123  16.586  69.970  1.00  0.00    -0.217 A  
ENDBRANCH   2   3
BRANCH   2  14
HETATM   14  C   UNL     1      -8.513  16.710  67.451  1.00  0.00    -0.188 A  
HETATM   15  C   UNL     1      -6.633  15.343  67.346  1.00  0.00    -0.116 A  
HETATM   16  N   UNL     1      -5.880  16.280  66.764  1.00  0.00    -0.292 NA 
HETATM   17  C   UNL     1      -6.494  17.442  66.492  1.00  0.00    -0.234 A  
HETATM   18  C   UNL     1      -7.808  17.707  66.803  1.00  0.00    -0.265 A  
HETATM   19  N   UNL     1      -7.911  15.534  67.705  1.00  0.00    -0.134 NA 
BRANCH  15  20
HETATM   20  N   UNL     1      -6.023  14.119  67.616  1.00  0.00    -0.330 NA 
HETATM   21  H   UNL     1      -5.003  14.118  67.610  1.00  0.00     0.000 HD 
BRANCH  20  22
HETATM   22  C   UNL     1      -6.635  12.889  67.895  1.00  0.00    -0.125 A  
HETATM   23  C   UNL     1      -6.299  12.207  69.065  1.00  0.00    -0.087 A  
HETATM   24  C   UNL     1      -6.955  11.023  69.418  1.00  0.00    -0.126 A  
HETATM   25  C   UNL     1      -7.962  10.474  68.604  1.00  0.00    -0.124 A  
HETATM   26  C   UNL     1      -8.276  11.138  67.406  1.00  0.00    -0.132 A  
HETATM   27  C   UNL     1      -8.633   9.211  69.058  1.00  0.00    -0.133 C  
HETATM   28  C   UNL     1      -7.622  12.335  67.070  1.00  0.00    -0.071 A  
BRANCH  26  29
HETATM   29  S   UNL     1      -9.448  10.509  66.208  1.00  0.00    -0.185 S  
HETATM   30  O   UNL     1     -10.784  10.644  66.730  1.00  0.00    -0.250 OA 
HETATM   31  O   UNL     1      -8.955   9.245  65.704  1.00  0.00    -0.172 OA 
HETATM   32  N   UNL     1      -9.283  11.612  64.957  1.00  0.00    -0.419 N  
HETATM   33  H1  UNL     1      -9.951  11.254  64.274  1.00  0.00     0.000 HD 
HETATM   34  H2  UNL     1      -8.674  12.428  64.894  1.00  0.00     0.000 HD 
ENDBRANCH  26  29
ENDBRANCH  20  22
ENDBRANCH  15  20
ENDBRANCH   2  14
TORSDOF 5
ENDMDL
MODEL      141
REMARK 921   NORMALIZED FREE ENERGY PREDICTED BY IDOCK:   -6.14 KCAL/MOL
REMARK 922        TOTAL FREE ENERGY PREDICTED BY IDOCK:   -8.40 KCAL/MOL
REMARK 923 INTER-LIGAND FREE ENERGY PREDICTED BY IDOCK:   -7.75 KCAL/MOL
REMARK 924 INTRA-LIGAND FREE ENERGY PREDICTED BY IDOCK:   -0.65 KCAL/MOL
REMARK 927      BINDING AFFINITY PREDICTED BY RF-SCORE:    0.00 PKD
ROOT
HETATM    1  C   UNL     1      -5.500  14.003  68.092  1.00  0.00    -0.121 C  
HETATM    2  N   UNL     1      -6.932  13.880  67.814  1.00  0.00    -0.158 NA 
ENDROOT
BRANCH   2   3
HETATM    3  C   UNL     1      -7.700  15.081  67.825  1.00  0.00    -0.153 A  
HETATM    4  C   UNL     1      -8.714  16.889  69.302  1.00  0.00     0.069 A  
HETATM    5  C   UNL     1     -10.151  19.682  68.899  1.00  0.00    -0.491 C  
HETATM    6  C   UNL     1      -8.115  15.703  66.617  1.00  0.00    -0.239 A  
HETATM    7  C   UNL     1      -8.800  16.921  66.780  1.00  0.00    -0.235 A  
HETATM    8  C   UNL     1      -9.059  17.459  68.086  1.00  0.00    -0.267 A  
HETATM    9  C   UNL     1      -9.692  18.668  67.918  1.00  0.00    -0.318 A  
HETATM   10  N   UNL     1      -9.304  17.753  65.854  1.00  0.00    -0.514 NA 
HETATM   11  N   UNL     1      -9.813  18.791  66.553  1.00  0.00    -0.349 NA 
HETATM   12  C   UNL     1     -10.406  19.891  65.828  1.00  0.00    -0.410 C  
HETATM   13  C   UNL     1      -8.026  15.669  69.107  1.00  0.00    -0.227 A  
ENDBRANCH   2   3
BRANCH   2  14
HETATM   14  C   UNL     1      -7.399  12.633  67.344  1.00  0.00    -0.140 A  
HETATM   15  C   UNL     1      -9.145  11.099  67.225  1.00  0.00    -0.150 A  
HETATM   16  N   UNL     1      -8.409  10.184  66.588  1.00  0.00    -0.122 NA 
HETATM   17  C   UNL     1      -7.149  10.542  66.296  1.00  0.00    -0.132 A  
HETATM   18  C   UNL     1      -6.597  11.755  66.641  1.00  0.00     0.010 A  
HETATM   19  N   UNL     1      -8.671  12.290  67.619  1.00  0.00    -0.166 NA 
BRANCH  15  20
HETATM   20  N   UNL     1     -10.465  10.759  67.516  1.00  0.00    -0.206 NA 
HETATM   21  H   UNL     1     -11.114  10.778  66.730  1.00  0.00     0.000 HD 
BRANCH  20  22
HETATM   22  C   UNL     1     -11.012  10.393  68.754  1.00  0.00    -0.245 A  
HETATM   23  C   UNL     1     -12.019  11.179  69.317  1.00  0.00    -0.421 A  
HETATM   24  C   UNL     1     -12.648  10.794  70.505  1.00  0.00    -0.421 A  
HETATM   25  C   UNL     1     -12.283   9.615  71.179  1.00  0.00    -0.437 A  
HETATM   26  C   UNL     1     -11.242   8.842  70.636  1.00  0.00    -0.257 A  
HETATM   27  C   UNL     1     -13.016   9.259  72.438  1.00  0.00    -0.450 C  
HETATM   28  C   UNL     1     -10.628   9.229  69.432  1.00  0.00    -0.234 A  
BRANCH  26  29
HETATM   29  S   UNL     1     -10.582   7.380  71.430  1.00  0.00    -0.214 S  
HETATM   30  O   UNL     1      -9.487   6.864  70.648  1.00  0.00    -0.165 OA 
HETATM   31  O   UNL     1     -11.687   6.539  71.834  1.00  0.00    -0.296 OA 
HETATM   32  N   UNL     1      -9.936   8.019  72.839  1.00  0.00    -0.285 N  
HETATM   33  H1  UNL     1      -9.559   7.186  73.291  1.00  0.00     0.000 HD 
HETATM   34  H2  UNL     1      -9.923   8.987  73.159  1.00  0.00     0.000 HD 
ENDBRANCH  26  29
ENDBRANCH  20  22
ENDBRANCH  15  20
ENDBRANCH   2  14
TORSDOF 5
ENDMDL
MODEL      142
REMARK 921   NORMALIZED FREE ENERGY PREDICTED BY IDOCK:   -6.14 KCAL/MOL
REMARK 922        TOTAL FREE ENERGY PREDICTED BY IDOCK:   -8.40 KCAL/MOL
REMARK 923 INTER-LIGAND FREE ENERGY PREDICTED BY IDOCK:   -7.61 KCAL/MOL
REMARK 924 INTRA-LIGAND FREE ENERGY PREDICTED BY IDOCK:   -0.79 KCAL/MOL
REMARK 927      BINDING AFFINITY PREDICTED BY RF-SCORE:    0.00 PKD
ROOT
HETATM    1  C   UNL     1     -10.707   5.416  66.239  1.00  0.00    -0.169 C  
HETATM    2  N   UNL     1     -10.314   6.231  67.389  1.00  0.00    -0.180 NA 
ENDROOT
BRANCH   2   3
HETATM    3  C   UNL     1     -10.216   5.571  68.649  1.00  0.00    -0.193 A  
HETATM    4  C   UNL     1      -9.292   3.535  69.865  1.00  0.00    -0.247 A  
HETATM    5  C   UNL     1      -9.016   2.545  72.861  1.00  0.00    -0.093 C  
HETATM    6  C   UNL     1     -10.740   6.156  69.832  1.00  0.00    -0.366 A  
HETATM    7  C   UNL     1     -10.505   5.428  71.012  1.00  0.00    -0.232 A  
HETATM    8  C   UNL     1      -9.798   4.177  70.984  1.00  0.00    -0.247 A  
HETATM    9  C   UNL     1      -9.684   3.738  72.282  1.00  0.00    -0.156 A  
HETATM   10  N   UNL     1     -10.851   5.709  72.279  1.00  0.00    -0.232 NA 
HETATM   11  N   UNL     1     -10.337   4.701  73.016  1.00  0.00    -0.171 NA 
HETATM   12  C   UNL     1     -10.510   4.732  74.450  1.00  0.00    -0.285 C  
HETATM   13  C   UNL     1      -9.541   4.291  68.697  1.00  0.00    -0.210 A  
ENDBRANCH   2   3
BRANCH   2  14
HETATM   14  C   UNL     1      -9.852   7.540  67.132  1.00  0.00    -0.201 A  
HETATM   15  C   UNL     1     -10.360   9.798  66.884  1.00  0.00    -0.234 A  
HETATM   16  N   UNL     1      -9.112  10.127  66.538  1.00  0.00    -0.143 NA 
HETATM   17  C   UNL     1      -8.219   9.125  66.536  1.00  0.00    -0.111 A  
HETATM   18  C   UNL     1      -8.532   7.818  66.833  1.00  0.00    -0.125 A  
HETATM   19  N   UNL     1     -10.748   8.544  67.160  1.00  0.00    -0.229 NA 
BRANCH  15  20
HETATM   20  N   UNL     1     -11.299  10.827  66.918  1.00  0.00    -0.279 NA 
HETATM   21  H   UNL     1     -12.184  10.608  67.376  1.00  0.00     0.000 HD 
BRANCH  20  22
HETATM   22  C   UNL     1     -11.181  12.125  66.402  1.00  0.00    -0.331 A  
HETATM   23  C   UNL     1     -11.576  12.377  65.087  1.00  0.00    -0.408 A  
HETATM   24  C   UNL     1     -11.556  13.676  64.570  1.00  0.00    -0.415 A  
HETATM   25  C   UNL     1     -11.126  14.768  65.346  1.00  0.00    -0.359 A  
HETATM   26  C   UNL     1     -10.690  14.511  66.658  1.00  0.00    -0.305 A  
HETATM   27  C   UNL     1     -11.150  16.134  64.728  1.00  0.00    -0.345 C  
HETATM   28  C   UNL     1     -10.731  13.204  67.173  1.00  0.00    -0.263 A  
BRANCH  26  29
HETATM   29  S   UNL     1     -10.007  15.767  67.733  1.00  0.00    -0.229 S  
HETATM   30  O   UNL     1     -11.041  16.705  68.091  1.00  0.00    -0.361 OA 
HETATM   31  O   UNL     1      -8.744  16.207  67.180  1.00  0.00    -0.179 OA 
HETATM   32  N   UNL     1      -9.637  14.879  69.106  1.00  0.00    -0.313 N  
HETATM   33  H1  UNL     1      -9.247  15.596  69.719  1.00  0.00     0.000 HD 
HETATM   34  H2  UNL     1      -9.767  13.883  69.282  1.00  0.00     0.000 HD 
ENDBRANCH  26  29
ENDBRANCH  20  22
ENDBRANCH  15  20
ENDBRANCH   2  14
TORSDOF 5
ENDMDL
MODEL      143
REMARK 921   NORMALIZED FREE ENERGY PREDICTED BY IDOCK:   -6.12 KCAL/MOL
REMARK 922        TOTAL FREE ENERGY PREDICTED BY IDOCK:   -8.37 KCAL/MOL
REMARK 923 INTER-LIGAND FREE ENERGY PREDICTED BY IDOCK:   -7.57 KCAL/MOL
REMARK 924 INTRA-LIGAND FREE ENERGY PREDICTED BY IDOCK:   -0.80 KCAL/MOL
REMARK 927      BINDING AFFINITY PREDICTED BY RF-SCORE:    0.00 PKD
ROOT
HETATM    1  C   UNL     1      -8.602   9.550  69.661  1.00  0.00    -0.183 C  
HETATM    2  N   UNL     1      -9.769   8.778  70.090  1.00  0.00    -0.168 NA 
ENDROOT
BRANCH   2   3
HETATM    3  C   UNL     1      -9.573   7.386  70.330  1.00  0.00    -0.165 A  
HETATM    4  C   UNL     1     -10.065   5.039  69.479  1.00  0.00    -0.301 A  
HETATM    5  C   UNL     1      -9.148   2.083  70.155  1.00  0.00    -0.165 C  
HETATM    6  C   UNL     1      -8.760   6.930  71.401  1.00  0.00    -0.126 A  
HETATM    7  C   UNL     1      -8.596   5.534  71.471  1.00  0.00    -0.132 A  
HETATM    8  C   UNL     1      -9.233   4.663  70.523  1.00  0.00    -0.193 A  
HETATM    9  C   UNL     1      -8.847   3.377  70.817  1.00  0.00    -0.081 A  
HETATM   10  N   UNL     1      -7.888   4.795  72.340  1.00  0.00    -0.090 NA 
HETATM   11  N   UNL     1      -8.038   3.519  71.921  1.00  0.00    -0.062 NA 
HETATM   12  C   UNL     1      -7.356   2.468  72.641  1.00  0.00    -0.043 C  
HETATM   13  C   UNL     1     -10.208   6.444  69.433  1.00  0.00    -0.230 A  
ENDBRANCH   2   3
BRANCH   2  14
HETATM   14  C   UNL     1     -10.931   9.498  70.443  1.00  0.00    -0.278 A  
HETATM   15  C   UNL     1     -12.061  11.533  70.465  1.00  0.00    -0.378 A  
HETATM   16  N   UNL     1     -13.089  11.050  71.169  1.00  0.00    -0.307 NA 
HETATM   17  C   UNL     1     -13.033   9.743  71.470  1.00  0.00    -0.407 A  
HETATM   18  C   UNL     1     -11.985   8.920  71.124  1.00  0.00    -0.344 A  
HETATM   19  N   UNL     1     -10.992  10.802  70.116  1.00  0.00    -0.228 NA 
BRANCH  15  20
HETATM   20  N   UNL     1     -12.109  12.882  70.119  1.00  0.00    -0.367 NA 
HETATM   21  H   UNL     1     -12.791  13.448  70.623  1.00  0.00     0.000 HD 
BRANCH  20  22
HETATM   22  C   UNL     1     -11.337  13.559  69.165  1.00  0.00    -0.282 A  
HETATM   23  C   UNL     1     -10.198  14.253  69.573  1.00  0.00     0.152 A  
HETATM   24  C   UNL     1      -9.357  14.864  68.637  1.00  0.00    -0.194 A  
HETATM   25  C   UNL     1      -9.634  14.812  67.259  1.00  0.00    -0.223 A  
HETATM   26  C   UNL     1     -10.803  14.146  66.847  1.00  0.00    -0.296 A  
HETATM   27  C   UNL     1      -8.676  15.475  66.315  1.00  0.00    -0.283 C  
HETATM   28  C   UNL     1     -11.631  13.522  67.796  1.00  0.00    -0.374 A  
BRANCH  26  29
HETATM   29  S   UNL     1     -11.358  14.090  65.147  1.00  0.00    -0.345 S  
HETATM   30  O   UNL     1     -10.531  13.171  64.405  1.00  0.00    -0.393 OA 
HETATM   31  O   UNL     1     -11.581  15.445  64.692  1.00  0.00    -0.399 OA 
HETATM   32  N   UNL     1     -12.872  13.389  65.305  1.00  0.00    -0.686 N  
HETATM   33  H1  UNL     1     -13.188  13.356  64.336  1.00  0.00     0.000 HD 
HETATM   34  H2  UNL     1     -13.351  13.076  66.149  1.00  0.00     0.000 HD 
ENDBRANCH  26  29
ENDBRANCH  20  22
ENDBRANCH  15  20
ENDBRANCH   2  14
TORSDOF 5
ENDMDL
MODEL      144
REMARK 921   NORMALIZED FREE ENERGY PREDICTED BY IDOCK:   -6.10 KCAL/MOL
REMARK 922        TOTAL FREE ENERGY PREDICTED BY IDOCK:   -8.35 KCAL/MOL
REMARK 923 INTER-LIGAND FREE ENERGY PREDICTED BY IDOCK:   -7.53 KCAL/MOL
REMARK 924 INTRA-LIGAND FREE ENERGY PREDICTED BY IDOCK:   -0.82 KCAL/MOL
REMARK 927      BINDING AFFINITY PREDICTED BY RF-SCORE:    0.00 PKD
ROOT
HETATM    1  C   UNL     1     -11.773  15.878  64.239  1.00  0.00    -0.132 C  
HETATM    2  N   UNL     1     -11.063  15.716  65.508  1.00  0.00    -0.271 NA 
ENDROOT
BRANCH   2   3
HETATM    3  C   UNL     1     -11.190  14.457  66.166  1.00  0.00    -0.336 A  
HETATM    4  C   UNL     1     -10.862  11.944  65.929  1.00  0.00    -0.342 A  
HETATM    5  C   UNL     1     -10.972   9.399  67.811  1.00  0.00    -0.122 C  
HETATM    6  C   UNL     1     -11.599  14.371  67.523  1.00  0.00    -0.398 A  
HETATM    7  C   UNL     1     -11.606  13.071  68.062  1.00  0.00    -0.343 A  
HETATM    8  C   UNL     1     -11.236  11.934  67.264  1.00  0.00    -0.376 A  
HETATM    9  C   UNL     1     -11.292  10.825  68.074  1.00  0.00    -0.307 A  
HETATM   10  N   UNL     1     -11.922  12.655  69.299  1.00  0.00    -0.278 NA 
HETATM   11  N   UNL     1     -11.711  11.321  69.286  1.00  0.00    -0.305 NA 
HETATM   12  C   UNL     1     -11.932  10.573  70.503  1.00  0.00    -0.342 C  
HETATM   13  C   UNL     1     -10.862  13.262  65.417  1.00  0.00    -0.304 A  
ENDBRANCH   2   3
BRANCH   2  14
HETATM   14  C   UNL     1     -10.142  16.722  65.872  1.00  0.00    -0.304 A  
HETATM   15  C   UNL     1      -8.015  17.261  66.648  1.00  0.00    -0.261 A  
HETATM   16  N   UNL     1      -8.279  18.569  66.715  1.00  0.00    -0.249 NA 
HETATM   17  C   UNL     1      -9.501  18.943  66.305  1.00  0.00    -0.297 A  
HETATM   18  C   UNL     1     -10.465  18.065  65.866  1.00  0.00    -0.268 A  
HETATM   19  N   UNL     1      -8.910  16.341  66.258  1.00  0.00    -0.308 NA 
BRANCH  15  20
HETATM   20  N   UNL     1      -6.743  16.851  67.045  1.00  0.00    -0.186 NA 
HETATM   21  H   UNL     1      -5.979  17.099  66.417  1.00  0.00     0.000 HD 
BRANCH  20  22
HETATM   22  C   UNL     1      -6.383  16.142  68.198  1.00  0.00    -0.122 A  
HETATM   23  C   UNL     1      -5.936  16.841  69.321  1.00  0.00    -0.180 A  
HETATM   24  C   UNL     1      -5.654  16.172  70.516  1.00  0.00    -0.104 A  
HETATM   25  C   UNL     1      -5.797  14.777  70.627  1.00  0.00    -0.149 A  
HETATM   26  C   UNL     1      -6.208  14.065  69.486  1.00  0.00    -0.117 A  
HETATM   27  C   UNL     1      -5.493  14.133  71.947  1.00  0.00    -0.224 C  
HETATM   28  C   UNL     1      -6.505  14.750  68.296  1.00  0.00    -0.121 A  
BRANCH  26  29
HETATM   29  S   UNL     1      -6.326  12.281  69.428  1.00  0.00    -0.111 S  
HETATM   30  O   UNL     1      -6.192  11.749  70.760  1.00  0.00    -0.284 OA 
HETATM   31  O   UNL     1      -5.507  11.803  68.336  1.00  0.00    -0.046 OA 
HETATM   32  N   UNL     1      -7.919  12.058  68.955  1.00  0.00    -0.346 N  
HETATM   33  H1  UNL     1      -7.986  11.041  68.922  1.00  0.00     0.000 HD 
HETATM   34  H2  UNL     1      -8.634  12.757  68.754  1.00  0.00     0.000 HD 
ENDBRANCH  26  29
ENDBRANCH  20  22
ENDBRANCH  15  20
ENDBRANCH   2  14
TORSDOF 5
ENDMDL
MODEL      145
REMARK 921   NORMALIZED FREE ENERGY PREDICTED BY IDOCK:   -6.10 KCAL/MOL
REMARK 922        TOTAL FREE ENERGY PREDICTED BY IDOCK:   -8.34 KCAL/MOL
REMARK 923 INTER-LIGAND FREE ENERGY PREDICTED BY IDOCK:   -7.37 KCAL/MOL
REMARK 924 INTRA-LIGAND FREE ENERGY PREDICTED BY IDOCK:   -0.97 KCAL/MOL
REMARK 927      BINDING AFFINITY PREDICTED BY RF-SCORE:    0.00 PKD
ROOT
HETATM    1  C   UNL     1      -9.891   4.327  65.838  1.00  0.00    -0.223 C  
HETATM    2  N   UNL     1      -9.475   5.225  66.915  1.00  0.00    -0.129 NA 
ENDROOT
BRANCH   2   3
HETATM    3  C   UNL     1      -9.674   4.770  68.252  1.00  0.00    -0.140 A  
HETATM    4  C   UNL     1      -9.404   2.801  69.841  1.00  0.00    -0.202 A  
HETATM    5  C   UNL     1      -9.694   2.267  72.950  1.00  0.00    -0.160 C  
HETATM    6  C   UNL     1     -10.163   5.640  69.263  1.00  0.00    -0.309 A  
HETATM    7  C   UNL     1     -10.237   5.076  70.550  1.00  0.00    -0.246 A  
HETATM    8  C   UNL     1      -9.855   3.711  70.785  1.00  0.00    -0.142 A  
HETATM    9  C   UNL     1      -9.987   3.471  72.132  1.00  0.00    -0.164 A  
HETATM   10  N   UNL     1     -10.635   5.627  71.707  1.00  0.00    -0.232 NA 
HETATM   11  N   UNL     1     -10.461   4.660  72.635  1.00  0.00    -0.195 NA 
HETATM   12  C   UNL     1     -10.772   4.959  74.014  1.00  0.00    -0.294 C  
HETATM   13  C   UNL     1      -9.338   3.397  68.561  1.00  0.00    -0.231 A  
ENDBRANCH   2   3
BRANCH   2  14
HETATM   14  C   UNL     1      -8.718   6.362  66.559  1.00  0.00    -0.133 A  
HETATM   15  C   UNL     1      -8.583   8.340  65.339  1.00  0.00    -0.151 A  
HETATM   16  N   UNL     1      -7.315   8.570  65.692  1.00  0.00    -0.082 NA 
HETATM   17  C   UNL     1      -6.769   7.679  66.535  1.00  0.00    -0.058 A  
HETATM   18  C   UNL     1      -7.426   6.566  67.006  1.00  0.00    -0.087 A  
HETATM   19  N   UNL     1      -9.280   7.264  65.734  1.00  0.00     0.039 NA 
BRANCH  15  20
HETATM   20  N   UNL     1      -9.179   9.265  64.485  1.00  0.00    -0.434 NA 
HETATM   21  H   UNL     1      -9.090   9.073  63.487  1.00  0.00     0.000 HD 
BRANCH  20  22
HETATM   22  C   UNL     1      -9.887  10.426  64.824  1.00  0.00    -0.340 A  
HETATM   23  C   UNL     1     -10.576  11.123  63.830  1.00  0.00    -0.431 A  
HETATM   24  C   UNL     1     -11.365  12.233  64.149  1.00  0.00    -0.442 A  
HETATM   25  C   UNL     1     -11.481  12.694  65.473  1.00  0.00    -0.375 A  
HETATM   26  C   UNL     1     -10.756  12.018  66.471  1.00  0.00    -0.258 A  
HETATM   27  C   UNL     1     -12.359  13.880  65.740  1.00  0.00    -0.518 C  
HETATM   28  C   UNL     1      -9.980  10.894  66.141  1.00  0.00    -0.282 A  
BRANCH  26  29
HETATM   29  S   UNL     1     -10.704  12.546  68.180  1.00  0.00    -0.236 S  
HETATM   30  O   UNL     1     -11.991  12.323  68.789  1.00  0.00    -0.302 OA 
HETATM   31  O   UNL     1     -10.050  13.836  68.241  1.00  0.00    -0.227 OA 
HETATM   32  N   UNL     1      -9.634  11.442  68.846  1.00  0.00    -0.384 N  
HETATM   33  H1  UNL     1      -9.604  11.743  69.821  1.00  0.00     0.000 HD 
HETATM   34  H2  UNL     1      -9.141  10.671  68.396  1.00  0.00     0.000 HD 
ENDBRANCH  26  29
ENDBRANCH  20  22
ENDBRANCH  15  20
ENDBRANCH   2  14
TORSDOF 5
ENDMDL
MODEL      146
REMARK 921   NORMALIZED FREE ENERGY PREDICTED BY IDOCK:   -6.08 KCAL/MOL
REMARK 922        TOTAL FREE ENERGY PREDICTED BY IDOCK:   -8.32 KCAL/MOL
REMARK 923 INTER-LIGAND FREE ENERGY PREDICTED BY IDOCK:   -7.73 KCAL/MOL
REMARK 924 INTRA-LIGAND FREE ENERGY PREDICTED BY IDOCK:   -0.60 KCAL/MOL
REMARK 927      BINDING AFFINITY PREDICTED BY RF-SCORE:    0.00 PKD
ROOT
HETATM    1  C   UNL     1      -5.331  14.196  70.537  1.00  0.00    -0.115 C  
HETATM    2  N   UNL     1      -6.368  14.042  69.516  1.00  0.00    -0.115 NA 
ENDROOT
BRANCH   2   3
HETATM    3  C   UNL     1      -6.868  15.235  68.914  1.00  0.00    -0.122 A  
HETATM    4  C   UNL     1      -6.324  17.154  67.334  1.00  0.00    -0.174 A  
HETATM    5  C   UNL     1      -7.882  19.541  65.955  1.00  0.00    -0.318 C  
HETATM    6  C   UNL     1      -8.208  15.658  69.118  1.00  0.00    -0.248 A  
HETATM    7  C   UNL     1      -8.584  16.810  68.402  1.00  0.00    -0.235 A  
HETATM    8  C   UNL     1      -7.651  17.492  67.550  1.00  0.00    -0.209 A  
HETATM    9  C   UNL     1      -8.319  18.536  66.956  1.00  0.00    -0.255 A  
HETATM   10  N   UNL     1      -9.764  17.450  68.363  1.00  0.00    -0.290 NA 
HETATM   11  N   UNL     1      -9.587  18.460  67.484  1.00  0.00    -0.280 NA 
HETATM   12  C   UNL     1     -10.705  19.328  67.190  1.00  0.00    -0.480 C  
HETATM   13  C   UNL     1      -5.977  15.993  68.063  1.00  0.00    -0.134 A  
ENDBRANCH   2   3
BRANCH   2  14
HETATM   14  C   UNL     1      -6.635  12.736  69.051  1.00  0.00    -0.099 A  
HETATM   15  C   UNL     1      -7.246  11.362  67.275  1.00  0.00    -0.119 A  
HETATM   16  N   UNL     1      -7.289  10.261  68.032  1.00  0.00    -0.085 NA 
HETATM   17  C   UNL     1      -6.953  10.422  69.321  1.00  0.00    -0.080 A  
HETATM   18  C   UNL     1      -6.609  11.631  69.880  1.00  0.00    -0.030 A  
HETATM   19  N   UNL     1      -6.948  12.579  67.752  1.00  0.00    -0.107 NA 
BRANCH  15  20
HETATM   20  N   UNL     1      -7.567  11.215  65.927  1.00  0.00    -0.358 NA 
HETATM   21  H   UNL     1      -6.821  10.864  65.326  1.00  0.00     0.000 HD 
BRANCH  20  22
HETATM   22  C   UNL     1      -8.786  11.490  65.292  1.00  0.00     0.144 A  
HETATM   23  C   UNL     1      -9.161  10.741  64.175  1.00  0.00    -0.215 A  
HETATM   24  C   UNL     1     -10.409  10.928  63.573  1.00  0.00    -0.342 A  
HETATM   25  C   UNL     1     -11.322  11.881  64.060  1.00  0.00    -0.475 A  
HETATM   26  C   UNL     1     -10.932  12.664  65.161  1.00  0.00    -0.291 A  
HETATM   27  C   UNL     1     -12.649  12.011  63.373  1.00  0.00    -0.592 C  
HETATM   28  C   UNL     1      -9.682  12.455  65.768  1.00  0.00    -0.210 A  
BRANCH  26  29
HETATM   29  S   UNL     1     -11.927  13.994  65.826  1.00  0.00    -0.425 S  
HETATM   30  O   UNL     1     -13.238  13.956  65.229  1.00  0.00    -0.774 OA 
HETATM   31  O   UNL     1     -11.132  15.203  65.832  1.00  0.00    -0.339 OA 
HETATM   32  N   UNL     1     -12.092  13.529  67.428  1.00  0.00    -0.353 N  
HETATM   33  H1  UNL     1     -12.659  14.287  67.808  1.00  0.00     0.000 HD 
HETATM   34  H2  UNL     1     -11.721  12.705  67.900  1.00  0.00     0.000 HD 
ENDBRANCH  26  29
ENDBRANCH  20  22
ENDBRANCH  15  20
ENDBRANCH   2  14
TORSDOF 5
ENDMDL
MODEL      147
REMARK 921   NORMALIZED FREE ENERGY PREDICTED BY IDOCK:   -6.07 KCAL/MOL
REMARK 922        TOTAL FREE ENERGY PREDICTED BY IDOCK:   -8.30 KCAL/MOL
REMARK 923 INTER-LIGAND FREE ENERGY PREDICTED BY IDOCK:   -7.89 KCAL/MOL
REMARK 924 INTRA-LIGAND FREE ENERGY PREDICTED BY IDOCK:   -0.41 KCAL/MOL
REMARK 927      BINDING AFFINITY PREDICTED BY RF-SCORE:    0.00 PKD
ROOT
HETATM    1  C   UNL     1     -11.945  13.913  68.497  1.00  0.00    -0.359 C  
HETATM    2  N   UNL     1     -11.296  13.487  67.257  1.00  0.00    -0.302 NA 
ENDROOT
BRANCH   2   3
HETATM    3  C   UNL     1     -10.633  12.224  67.273  1.00  0.00    -0.224 A  
HETATM    4  C   UNL     1      -8.530  10.970  66.580  1.00  0.00    -0.153 A  
HETATM    5  C   UNL     1      -7.248   8.120  67.096  1.00  0.00    -0.084 C  
HETATM    6  C   UNL     1     -11.192  11.106  67.945  1.00  0.00    -0.365 A  
HETATM    7  C   UNL     1     -10.393   9.948  67.942  1.00  0.00    -0.212 A  
HETATM    8  C   UNL     1      -9.117   9.928  67.282  1.00  0.00    -0.149 A  
HETATM    9  C   UNL     1      -8.560   8.690  67.494  1.00  0.00    -0.135 A  
HETATM   10  N   UNL     1     -10.622   8.745  68.492  1.00  0.00    -0.172 NA 
HETATM   11  N   UNL     1      -9.512   8.021  68.228  1.00  0.00    -0.140 NA 
HETATM   12  C   UNL     1      -9.432   6.667  68.729  1.00  0.00    -0.129 C  
HETATM   13  C   UNL     1      -9.354  12.118  66.604  1.00  0.00    -0.226 A  
ENDBRANCH   2   3
BRANCH   2  14
HETATM   14  C   UNL     1     -11.558  14.241  66.093  1.00  0.00    -0.369 A  
HETATM   15  C   UNL     1     -11.384  16.278  64.981  1.00  0.00    -0.076 A  
HETATM   16  N   UNL     1     -12.097  15.862  63.931  1.00  0.00    -0.750 NA 
HETATM   17  C   UNL     1     -12.507  14.584  63.968  1.00  0.00    -0.055 A  
HETATM   18  C   UNL     1     -12.257  13.729  65.017  1.00  0.00    -0.448 A  
HETATM   19  N   UNL     1     -11.124  15.514  66.052  1.00  0.00    -0.245 NA 
BRANCH  15  20
HETATM   20  N   UNL     1     -10.927  17.595  64.954  1.00  0.00    -0.765 NA 
HETATM   21  H   UNL     1     -11.348  18.199  64.248  1.00  0.00     0.000 HD 
BRANCH  20  22
HETATM   22  C   UNL     1      -9.960  18.193  65.774  1.00  0.00     0.064 A  
HETATM   23  C   UNL     1     -10.002  19.572  65.987  1.00  0.00    -0.477 A  
HETATM   24  C   UNL     1      -9.108  20.187  66.870  1.00  0.00    -0.469 A  
HETATM   25  C   UNL     1      -8.132  19.446  67.560  1.00  0.00    -0.315 A  
HETATM   26  C   UNL     1      -8.063  18.063  67.318  1.00  0.00    -0.210 A  
HETATM   27  C   UNL     1      -7.222  20.174  68.504  1.00  0.00    -0.236 C  
HETATM   28  C   UNL     1      -8.976  17.453  66.441  1.00  0.00    -0.274 A  
BRANCH  26  29
HETATM   29  S   UNL     1      -6.809  17.000  68.025  1.00  0.00    -0.164 S  
HETATM   30  O   UNL     1      -7.234  16.562  69.331  1.00  0.00    -0.231 OA 
HETATM   31  O   UNL     1      -5.516  17.615  67.817  1.00  0.00    -0.134 OA 
HETATM   32  N   UNL     1      -6.871  15.672  67.005  1.00  0.00    -0.083 N  
HETATM   33  H1  UNL     1      -6.156  15.066  67.408  1.00  0.00     0.000 HD 
HETATM   34  H2  UNL     1      -7.466  15.512  66.193  1.00  0.00     0.000 HD 
ENDBRANCH  26  29
ENDBRANCH  20  22
ENDBRANCH  15  20
ENDBRANCH   2  14
TORSDOF 5
ENDMDL
MODEL      148
REMARK 921   NORMALIZED FREE ENERGY PREDICTED BY IDOCK:   -6.06 KCAL/MOL
REMARK 922        TOTAL FREE ENERGY PREDICTED BY IDOCK:   -8.30 KCAL/MOL
REMARK 923 INTER-LIGAND FREE ENERGY PREDICTED BY IDOCK:   -7.78 KCAL/MOL
REMARK 924 INTRA-LIGAND FREE ENERGY PREDICTED BY IDOCK:   -0.51 KCAL/MOL
REMARK 927      BINDING AFFINITY PREDICTED BY RF-SCORE:    0.00 PKD
ROOT
HETATM    1  C   UNL     1     -12.473  10.825  71.163  1.00  0.00    -0.414 C  
HETATM    2  N   UNL     1     -11.624  10.067  70.244  1.00  0.00    -0.275 NA 
ENDROOT
BRANCH   2   3
HETATM    3  C   UNL     1     -11.384  10.640  68.960  1.00  0.00    -0.277 A  
HETATM    4  C   UNL     1     -10.525  10.188  66.607  1.00  0.00    -0.254 A  
HETATM    5  C   UNL     1     -10.442  11.712  63.832  1.00  0.00    -0.433 C  
HETATM    6  C   UNL     1     -11.757  11.979  68.668  1.00  0.00    -0.380 A  
HETATM    7  C   UNL     1     -11.529  12.385  67.340  1.00  0.00    -0.352 A  
HETATM    8  C   UNL     1     -10.943  11.491  66.381  1.00  0.00    -0.336 A  
HETATM    9  C   UNL     1     -10.895  12.150  65.176  1.00  0.00    -0.300 A  
HETATM   10  N   UNL     1     -11.781  13.563  66.747  1.00  0.00    -0.369 NA 
HETATM   11  N   UNL     1     -11.412  13.393  65.459  1.00  0.00    -0.301 NA 
HETATM   12  C   UNL     1     -11.596  14.490  64.535  1.00  0.00    -0.377 C  
HETATM   13  C   UNL     1     -10.770   9.809  67.947  1.00  0.00    -0.312 A  
ENDBRANCH   2   3
BRANCH   2  14
HETATM   14  C   UNL     1     -10.935   8.950  70.765  1.00  0.00    -0.253 A  
HETATM   15  C   UNL     1     -10.600   6.647  70.731  1.00  0.00    -0.226 A  
HETATM   16  N   UNL     1      -9.749   6.671  71.760  1.00  0.00    -0.162 NA 
HETATM   17  C   UNL     1      -9.467   7.884  72.262  1.00  0.00    -0.189 A  
HETATM   18  C   UNL     1     -10.022   9.054  71.797  1.00  0.00    -0.359 A  
HETATM   19  N   UNL     1     -11.203   7.740  70.241  1.00  0.00    -0.243 NA 
BRANCH  15  20
HETATM   20  N   UNL     1     -10.888   5.401  70.178  1.00  0.00    -0.235 NA 
HETATM   21  H   UNL     1     -11.813   5.023  70.386  1.00  0.00     0.000 HD 
BRANCH  20  22
HETATM   22  C   UNL     1     -10.067   4.602  69.371  1.00  0.00    -0.124 A  
HETATM   23  C   UNL     1      -9.389   3.523  69.940  1.00  0.00    -0.247 A  
HETATM   24  C   UNL     1      -8.634   2.652  69.149  1.00  0.00    -0.117 A  
HETATM   25  C   UNL     1      -8.520   2.838  67.759  1.00  0.00    -0.103 A  
HETATM   26  C   UNL     1      -9.170   3.947  67.188  1.00  0.00    -0.176 A  
HETATM   27  C   UNL     1      -7.707   1.852  66.973  1.00  0.00    -0.065 C  
HETATM   28  C   UNL     1      -9.939   4.805  67.991  1.00  0.00    -0.154 A  
BRANCH  26  29
HETATM   29  S   UNL     1      -9.029   4.388  65.459  1.00  0.00    -0.142 S  
HETATM   30  O   UNL     1     -10.056   3.712  64.708  1.00  0.00    -0.177 OA 
HETATM   31  O   UNL     1      -7.636   4.310  65.078  1.00  0.00    -0.076 OA 
HETATM   32  N   UNL     1      -9.420   6.018  65.490  1.00  0.00    -0.359 N  
HETATM   33  H1  UNL     1      -9.340   6.270  64.505  1.00  0.00     0.000 HD 
HETATM   34  H2  UNL     1      -9.671   6.604  66.286  1.00  0.00     0.000 HD 
ENDBRANCH  26  29
ENDBRANCH  20  22
ENDBRANCH  15  20
ENDBRANCH   2  14
TORSDOF 5
ENDMDL
MODEL      149
REMARK 921   NORMALIZED FREE ENERGY PREDICTED BY IDOCK:   -6.04 KCAL/MOL
REMARK 922        TOTAL FREE ENERGY PREDICTED BY IDOCK:   -8.27 KCAL/MOL
REMARK 923 INTER-LIGAND FREE ENERGY PREDICTED BY IDOCK:   -7.83 KCAL/MOL
REMARK 924 INTRA-LIGAND FREE ENERGY PREDICTED BY IDOCK:   -0.44 KCAL/MOL
REMARK 927      BINDING AFFINITY PREDICTED BY RF-SCORE:    0.00 PKD
ROOT
HETATM    1  C   UNL     1     -12.156  13.001  69.932  1.00  0.00    -0.277 C  
HETATM    2  N   UNL     1     -12.028  11.584  69.593  1.00  0.00    -0.332 NA 
ENDROOT
BRANCH   2   3
HETATM    3  C   UNL     1     -11.503  11.269  68.305  1.00  0.00    -0.308 A  
HETATM    4  C   UNL     1     -11.248  12.083  65.907  1.00  0.00    -0.385 A  
HETATM    5  C   UNL     1      -9.675  11.193  63.306  1.00  0.00    -0.398 C  
HETATM    6  C   UNL     1     -10.737  10.094  68.087  1.00  0.00    -0.285 A  
HETATM    7  C   UNL     1     -10.220   9.952  66.786  1.00  0.00    -0.236 A  
HETATM    8  C   UNL     1     -10.483  10.935  65.772  1.00  0.00    -0.275 A  
HETATM    9  C   UNL     1      -9.810  10.549  64.637  1.00  0.00    -0.340 A  
HETATM   10  N   UNL     1      -9.456   8.978  66.267  1.00  0.00    -0.221 NA 
HETATM   11  N   UNL     1      -9.211   9.363  64.995  1.00  0.00    -0.239 NA 
HETATM   12  C   UNL     1      -8.370   8.528  64.167  1.00  0.00    -0.095 C  
HETATM   13  C   UNL     1     -11.750  12.199  67.224  1.00  0.00    -0.369 A  
ENDBRANCH   2   3
BRANCH   2  14
HETATM   14  C   UNL     1     -12.221  10.646  70.631  1.00  0.00    -0.365 A  
HETATM   15  C   UNL     1     -11.338   8.921  71.920  1.00  0.00    -0.376 A  
HETATM   16  N   UNL     1     -12.489   8.697  72.560  1.00  0.00    -0.366 NA 
HETATM   17  C   UNL     1     -13.508   9.510  72.238  1.00  0.00    -0.440 A  
HETATM   18  C   UNL     1     -13.426  10.504  71.291  1.00  0.00    -0.150 A  
HETATM   19  N   UNL     1     -11.188   9.852  70.966  1.00  0.00    -0.363 NA 
BRANCH  15  20
HETATM   20  N   UNL     1     -10.258   8.106  72.256  1.00  0.00    -0.252 NA 
HETATM   21  H   UNL     1      -9.619   8.480  72.958  1.00  0.00     0.000 HD 
BRANCH  20  22
HETATM   22  C   UNL     1      -9.941   6.838  71.751  1.00  0.00    -0.174 A  
HETATM   23  C   UNL     1     -10.337   5.701  72.458  1.00  0.00    -0.240 A  
HETATM   24  C   UNL     1     -10.116   4.421  71.938  1.00  0.00    -0.245 A  
HETATM   25  C   UNL     1      -9.479   4.234  70.698  1.00  0.00    -0.241 A  
HETATM   26  C   UNL     1      -9.044   5.376  70.002  1.00  0.00    -0.130 A  
HETATM   27  C   UNL     1      -9.293   2.832  70.198  1.00  0.00    -0.199 C  
HETATM   28  C   UNL     1      -9.286   6.657  70.527  1.00  0.00    -0.167 A  
BRANCH  26  29
HETATM   29  S   UNL     1      -8.118   5.305  68.473  1.00  0.00    -0.086 S  
HETATM   30  O   UNL     1      -7.244   4.158  68.496  1.00  0.00    -0.054 OA 
HETATM   31  O   UNL     1      -7.620   6.630  68.176  1.00  0.00    -0.099 OA 
HETATM   32  N   UNL     1      -9.327   4.993  67.355  1.00  0.00    -0.122 N  
HETATM   33  H1  UNL     1      -8.799   4.952  66.483  1.00  0.00     0.000 HD 
HETATM   34  H2  UNL     1     -10.328   4.876  67.507  1.00  0.00     0.000 HD 
ENDBRANCH  26  29
ENDBRANCH  20  22
ENDBRANCH  15  20
ENDBRANCH   2  14
TORSDOF 5
ENDMDL
MODEL      150
REMARK 921   NORMALIZED FREE ENERGY PREDICTED BY IDOCK:   -6.03 KCAL/MOL
REMARK 922        TOTAL FREE ENERGY PREDICTED BY IDOCK:   -8.25 KCAL/MOL
REMARK 923 INTER-LIGAND FREE ENERGY PREDICTED BY IDOCK:   -7.10 KCAL/MOL
REMARK 924 INTRA-LIGAND FREE ENERGY PREDICTED BY IDOCK:   -1.15 KCAL/MOL
REMARK 927      BINDING AFFINITY PREDICTED BY RF-SCORE:    0.00 PKD
ROOT
HETATM    1  C   UNL     1      -9.689  13.483  67.372  1.00  0.00    -0.229 C  
HETATM    2  N   UNL     1      -9.899  12.039  67.258  1.00  0.00    -0.191 NA 
ENDROOT
BRANCH   2   3
HETATM    3  C   UNL     1     -10.302  11.347  68.438  1.00  0.00    -0.195 A  
HETATM    4  C   UNL     1     -12.280  10.733  69.917  1.00  0.00    -0.384 A  
HETATM    5  C   UNL     1     -12.829   8.835  72.392  1.00  0.00    -0.434 C  
HETATM    6  C   UNL     1      -9.374  10.592  69.203  1.00  0.00    -0.200 A  
HETATM    7  C   UNL     1      -9.928   9.901  70.297  1.00  0.00    -0.203 A  
HETATM    8  C   UNL     1     -11.329   9.989  70.599  1.00  0.00    -0.425 A  
HETATM    9  C   UNL     1     -11.572   9.175  71.680  1.00  0.00    -0.379 A  
HETATM   10  N   UNL     1      -9.334   9.100  71.196  1.00  0.00    -0.259 NA 
HETATM   11  N   UNL     1     -10.333   8.667  71.995  1.00  0.00    -0.329 NA 
HETATM   12  C   UNL     1     -10.018   7.742  73.060  1.00  0.00    -0.293 C  
HETATM   13  C   UNL     1     -11.696  11.412  68.823  1.00  0.00    -0.404 A  
ENDBRANCH   2   3
BRANCH   2  14
HETATM   14  C   UNL     1      -9.904  11.482  65.960  1.00  0.00    -0.225 A  
HETATM   15  C   UNL     1      -9.085   9.859  64.508  1.00  0.00    -0.250 A  
HETATM   16  N   UNL     1      -9.730  10.360  63.450  1.00  0.00    -0.305 NA 
HETATM   17  C   UNL     1     -10.509  11.427  63.688  1.00  0.00    -0.414 A  
HETATM   18  C   UNL     1     -10.640  12.021  64.922  1.00  0.00    -0.334 A  
HETATM   19  N   UNL     1      -9.141  10.398  65.734  1.00  0.00    -0.161 NA 
BRANCH  15  20
HETATM   20  N   UNL     1      -8.290   8.735  64.290  1.00  0.00    -0.227 NA 
HETATM   21  H   UNL     1      -7.754   8.730  63.422  1.00  0.00     0.000 HD 
BRANCH  20  22
HETATM   22  C   UNL     1      -8.135   7.611  65.113  1.00  0.00    -0.134 A  
HETATM   23  C   UNL     1      -7.082   6.728  64.874  1.00  0.00    -0.060 A  
HETATM   24  C   UNL     1      -6.845   5.647  65.729  1.00  0.00    -0.057 A  
HETATM   25  C   UNL     1      -7.663   5.405  66.848  1.00  0.00    -0.100 A  
HETATM   26  C   UNL     1      -8.748   6.270  67.069  1.00  0.00    -0.108 A  
HETATM   27  C   UNL     1      -7.335   4.236  67.729  1.00  0.00    -0.068 C  
HETATM   28  C   UNL     1      -8.966   7.362  66.212  1.00  0.00    -0.192 A  
BRANCH  26  29
HETATM   29  S   UNL     1      -9.947   6.033  68.376  1.00  0.00    -0.157 S  
HETATM   30  O   UNL     1     -10.164   4.622  68.576  1.00  0.00    -0.067 OA 
HETATM   31  O   UNL     1     -11.050   6.945  68.158  1.00  0.00    -0.175 OA 
HETATM   32  N   UNL     1      -9.115   6.608  69.712  1.00  0.00    -0.143 N  
HETATM   33  H1  UNL     1      -9.799   6.473  70.457  1.00  0.00     0.000 HD 
HETATM   34  H2  UNL     1      -8.173   6.993  69.766  1.00  0.00     0.000 HD 
ENDBRANCH  26  29
ENDBRANCH  20  22
ENDBRANCH  15  20
ENDBRANCH   2  14
TORSDOF 5
ENDMDL
MODEL      151
REMARK 921   NORMALIZED FREE ENERGY PREDICTED BY IDOCK:   -6.02 KCAL/MOL
REMARK 922        TOTAL FREE ENERGY PREDICTED BY IDOCK:   -8.24 KCAL/MOL
REMARK 923 INTER-LIGAND FREE ENERGY PREDICTED BY IDOCK:   -7.93 KCAL/MOL
REMARK 924 INTRA-LIGAND FREE ENERGY PREDICTED BY IDOCK:   -0.30 KCAL/MOL
REMARK 927      BINDING AFFINITY PREDICTED BY RF-SCORE:    0.00 PKD
ROOT
HETATM    1  C   UNL     1     -11.524  10.931  68.288  1.00  0.00    -0.305 C  
HETATM    2  N   UNL     1     -10.593  10.456  67.264  1.00  0.00    -0.252 NA 
ENDROOT
BRANCH   2   3
HETATM    3  C   UNL     1      -9.986   9.184  67.480  1.00  0.00    -0.205 A  
HETATM    4  C   UNL     1      -7.985   7.979  68.491  1.00  0.00    -0.120 A  
HETATM    5  C   UNL     1      -7.120   4.986  69.059  1.00  0.00    -0.053 C  
HETATM    6  C   UNL     1     -10.633   7.982  67.091  1.00  0.00    -0.367 A  
HETATM    7  C   UNL     1      -9.951   6.800  67.435  1.00  0.00    -0.148 A  
HETATM    8  C   UNL     1      -8.686   6.844  68.115  1.00  0.00    -0.126 A  
HETATM    9  C   UNL     1      -8.300   5.547  68.355  1.00  0.00    -0.098 A  
HETATM   10  N   UNL     1     -10.294   5.519  67.227  1.00  0.00    -0.221 NA 
HETATM   11  N   UNL     1      -9.307   4.793  67.798  1.00  0.00    -0.129 NA 
HETATM   12  C   UNL     1      -9.404   3.351  67.775  1.00  0.00    -0.194 C  
HETATM   13  C   UNL     1      -8.695   9.148  68.135  1.00  0.00    -0.129 A  
ENDBRANCH   2   3
BRANCH   2  14
HETATM   14  C   UNL     1     -10.535  11.177  66.052  1.00  0.00    -0.256 A  
HETATM   15  C   UNL     1     -10.627  13.240  64.978  1.00  0.00    -0.346 A  
HETATM   16  N   UNL     1     -10.551  12.702  63.757  1.00  0.00    -0.422 NA 
HETATM   17  C   UNL     1     -10.424  11.367  63.710  1.00  0.00    -0.399 A  
HETATM   18  C   UNL     1     -10.400  10.559  64.824  1.00  0.00    -0.300 A  
HETATM   19  N   UNL     1     -10.639  12.518  66.108  1.00  0.00    -0.249 NA 
BRANCH  15  20
HETATM   20  N   UNL     1     -10.734  14.627  65.052  1.00  0.00    -0.404 NA 
HETATM   21  H   UNL     1     -11.472  15.049  64.488  1.00  0.00     0.000 HD 
BRANCH  20  22
HETATM   22  C   UNL     1      -9.955  15.517  65.805  1.00  0.00    -0.359 A  
HETATM   23  C   UNL     1      -8.835  15.039  66.486  1.00  0.00    -0.286 A  
HETATM   24  C   UNL     1      -7.986  15.913  67.172  1.00  0.00    -0.243 A  
HETATM   25  C   UNL     1      -8.236  17.297  67.211  1.00  0.00    -0.213 A  
HETATM   26  C   UNL     1      -9.385  17.777  66.559  1.00  0.00    -0.279 A  
HETATM   27  C   UNL     1      -7.270  18.173  67.952  1.00  0.00    -0.223 C  
HETATM   28  C   UNL     1     -10.222  16.891  65.859  1.00  0.00    -0.330 A  
BRANCH  26  29
HETATM   29  S   UNL     1      -9.906  19.488  66.611  1.00  0.00    -0.432 S  
HETATM   30  O   UNL     1      -8.801  20.336  66.239  1.00  0.00    -0.252 OA 
HETATM   31  O   UNL     1     -10.648  19.704  67.834  1.00  0.00    -0.427 OA 
HETATM   32  N   UNL     1     -11.024  19.544  65.364  1.00  0.00    -0.166 N  
HETATM   33  H1  UNL     1     -11.321  20.519  65.394  1.00  0.00     0.000 HD 
HETATM   34  H2  UNL     1     -11.328  18.798  64.739  1.00  0.00     0.000 HD 
ENDBRANCH  26  29
ENDBRANCH  20  22
ENDBRANCH  15  20
ENDBRANCH   2  14
TORSDOF 5
ENDMDL
MODEL      152
REMARK 921   NORMALIZED FREE ENERGY PREDICTED BY IDOCK:   -6.00 KCAL/MOL
REMARK 922        TOTAL FREE ENERGY PREDICTED BY IDOCK:   -8.22 KCAL/MOL
REMARK 923 INTER-LIGAND FREE ENERGY PREDICTED BY IDOCK:   -7.54 KCAL/MOL
REMARK 924 INTRA-LIGAND FREE ENERGY PREDICTED BY IDOCK:   -0.67 KCAL/MOL
REMARK 927      BINDING AFFINITY PREDICTED BY RF-SCORE:    0.00 PKD
ROOT
HETATM    1  C   UNL     1      -7.067   8.937  64.759  1.00  0.00    -0.088 C  
HETATM    2  N   UNL     1      -8.346   9.041  65.462  1.00  0.00    -0.125 NA 
ENDROOT
BRANCH   2   3
HETATM    3  C   UNL     1      -9.014  10.300  65.410  1.00  0.00    -0.178 A  
HETATM    4  C   UNL     1     -10.831  11.644  64.239  1.00  0.00    -0.418 A  
HETATM    5  C   UNL     1     -12.285  14.428  64.642  1.00  0.00    -0.479 C  
HETATM    6  C   UNL     1      -8.722  11.329  66.343  1.00  0.00    -0.180 A  
HETATM    7  C   UNL     1      -9.512  12.488  66.218  1.00  0.00    -0.210 A  
HETATM    8  C   UNL     1     -10.519  12.594  65.200  1.00  0.00    -0.319 A  
HETATM    9  C   UNL     1     -11.147  13.805  65.364  1.00  0.00    -0.302 A  
HETATM   10  N   UNL     1      -9.498  13.618  66.942  1.00  0.00    -0.253 NA 
HETATM   11  N   UNL     1     -10.489  14.378  66.427  1.00  0.00    -0.289 NA 
HETATM   12  C   UNL     1     -10.757  15.666  67.025  1.00  0.00    -0.314 C  
HETATM   13  C   UNL     1     -10.024  10.493  64.391  1.00  0.00    -0.410 A  
ENDBRANCH   2   3
BRANCH   2  14
HETATM   14  C   UNL     1      -8.923   7.846  65.945  1.00  0.00    -0.123 A  
HETATM   15  C   UNL     1     -10.352   6.822  67.469  1.00  0.00    -0.210 A  
HETATM   16  N   UNL     1     -10.041   5.588  67.061  1.00  0.00    -0.171 NA 
HETATM   17  C   UNL     1      -9.175   5.510  66.038  1.00  0.00    -0.158 A  
HETATM   18  C   UNL     1      -8.595   6.604  65.438  1.00  0.00    -0.065 A  
HETATM   19  N   UNL     1      -9.809   7.934  66.954  1.00  0.00    -0.216 NA 
BRANCH  15  20
HETATM   20  N   UNL     1     -11.269   6.929  68.514  1.00  0.00    -0.518 NA 
HETATM   21  H   UNL     1     -12.249   7.001  68.242  1.00  0.00     0.000 HD 
BRANCH  20  22
HETATM   22  C   UNL     1     -11.012   6.951  69.892  1.00  0.00    -0.277 A  
HETATM   23  C   UNL     1     -11.992   6.500  70.778  1.00  0.00    -0.351 A  
HETATM   24  C   UNL     1     -11.737   6.424  72.150  1.00  0.00    -0.366 A  
HETATM   25  C   UNL     1     -10.495   6.810  72.687  1.00  0.00    -0.240 A  
HETATM   26  C   UNL     1      -9.519   7.302  71.802  1.00  0.00    -0.150 A  
HETATM   27  C   UNL     1     -10.289   6.683  74.167  1.00  0.00    -0.347 C  
HETATM   28  C   UNL     1      -9.782   7.358  70.422  1.00  0.00    -0.175 A  
BRANCH  26  29
HETATM   29  S   UNL     1      -7.936   7.940  72.337  1.00  0.00    -0.127 S  
HETATM   30  O   UNL     1      -8.140   8.923  73.370  1.00  0.00    -0.353 OA 
HETATM   31  O   UNL     1      -7.138   8.227  71.164  1.00  0.00    -0.050 OA 
HETATM   32  N   UNL     1      -7.248   6.591  73.056  1.00  0.00    -0.081 N  
HETATM   33  H1  UNL     1      -6.346   6.954  73.361  1.00  0.00     0.000 HD 
HETATM   34  H2  UNL     1      -7.633   5.652  73.161  1.00  0.00     0.000 HD 
ENDBRANCH  26  29
ENDBRANCH  20  22
ENDBRANCH  15  20
ENDBRANCH   2  14
TORSDOF 5
ENDMDL
MODEL      153
REMARK 921   NORMALIZED FREE ENERGY PREDICTED BY IDOCK:   -6.00 KCAL/MOL
REMARK 922        TOTAL FREE ENERGY PREDICTED BY IDOCK:   -8.22 KCAL/MOL
REMARK 923 INTER-LIGAND FREE ENERGY PREDICTED BY IDOCK:   -8.11 KCAL/MOL
REMARK 924 INTRA-LIGAND FREE ENERGY PREDICTED BY IDOCK:   -0.11 KCAL/MOL
REMARK 927      BINDING AFFINITY PREDICTED BY RF-SCORE:    0.00 PKD
ROOT
HETATM    1  C   UNL     1     -12.246  14.458  64.235  1.00  0.00    -0.423 C  
HETATM    2  N   UNL     1     -10.942  14.354  64.891  1.00  0.00    -0.387 NA 
ENDROOT
BRANCH   2   3
HETATM    3  C   UNL     1     -10.419  15.540  65.486  1.00  0.00    -0.386 A  
HETATM    4  C   UNL     1     -10.807  18.028  65.854  1.00  0.00     0.025 A  
HETATM    5  C   UNL     1      -9.510  20.352  67.571  1.00  0.00    -0.532 C  
HETATM    6  C   UNL     1      -9.240  15.510  66.278  1.00  0.00    -0.364 A  
HETATM    7  C   UNL     1      -8.884  16.740  66.862  1.00  0.00    -0.218 A  
HETATM    8  C   UNL     1      -9.669  17.922  66.640  1.00  0.00    -0.319 A  
HETATM    9  C   UNL     1      -9.105  18.937  67.375  1.00  0.00    -0.279 A  
HETATM   10  N   UNL     1      -7.851  17.042  67.665  1.00  0.00    -0.169 NA 
HETATM   11  N   UNL     1      -8.014  18.348  67.970  1.00  0.00    -0.268 NA 
HETATM   12  C   UNL     1      -7.066  18.974  68.864  1.00  0.00    -0.328 C  
HETATM   13  C   UNL     1     -11.140  16.778  65.283  1.00  0.00     0.005 A  
ENDBRANCH   2   3
BRANCH   2  14
HETATM   14  C   UNL     1     -10.408  13.060  65.078  1.00  0.00    -0.318 A  
HETATM   15  C   UNL     1      -9.539  11.479  66.548  1.00  0.00    -0.205 A  
HETATM   16  N   UNL     1      -9.254  10.608  65.575  1.00  0.00    -0.186 NA 
HETATM   17  C   UNL     1      -9.603  10.980  64.333  1.00  0.00    -0.259 A  
HETATM   18  C   UNL     1     -10.190  12.187  64.030  1.00  0.00    -0.396 A  
HETATM   19  N   UNL     1     -10.084  12.684  66.329  1.00  0.00    -0.248 NA 
BRANCH  15  20
HETATM   20  N   UNL     1      -9.209  11.104  67.849  1.00  0.00    -0.150 NA 
HETATM   21  H   UNL     1      -8.260  11.326  68.150  1.00  0.00     0.000 HD 
BRANCH  20  22
HETATM   22  C   UNL     1     -10.016  10.459  68.795  1.00  0.00    -0.188 A  
HETATM   23  C   UNL     1     -11.157  11.104  69.275  1.00  0.00    -0.318 A  
HETATM   24  C   UNL     1     -12.033  10.454  70.151  1.00  0.00    -0.357 A  
HETATM   25  C   UNL     1     -11.790   9.139  70.588  1.00  0.00    -0.222 A  
HETATM   26  C   UNL     1     -10.621   8.501  70.138  1.00  0.00    -0.232 A  
HETATM   27  C   UNL     1     -12.784   8.502  71.513  1.00  0.00    -0.340 C  
HETATM   28  C   UNL     1      -9.758   9.158  69.245  1.00  0.00    -0.164 A  
BRANCH  26  29
HETATM   29  S   UNL     1     -10.110   6.878  70.690  1.00  0.00    -0.194 S  
HETATM   30  O   UNL     1     -10.298   6.776  72.115  1.00  0.00    -0.198 OA 
HETATM   31  O   UNL     1      -8.842   6.560  70.068  1.00  0.00    -0.141 OA 
HETATM   32  N   UNL     1     -11.253   5.892  69.961  1.00  0.00    -0.346 N  
HETATM   33  H1  UNL     1     -10.961   4.967  70.275  1.00  0.00     0.000 HD 
HETATM   34  H2  UNL     1     -12.035   6.150  69.359  1.00  0.00     0.000 HD 
ENDBRANCH  26  29
ENDBRANCH  20  22
ENDBRANCH  15  20
ENDBRANCH   2  14
TORSDOF 5
ENDMDL
MODEL      154
REMARK 921   NORMALIZED FREE ENERGY PREDICTED BY IDOCK:   -5.99 KCAL/MOL
REMARK 922        TOTAL FREE ENERGY PREDICTED BY IDOCK:   -8.21 KCAL/MOL
REMARK 923 INTER-LIGAND FREE ENERGY PREDICTED BY IDOCK:   -7.08 KCAL/MOL
REMARK 924 INTRA-LIGAND FREE ENERGY PREDICTED BY IDOCK:   -1.13 KCAL/MOL
REMARK 927      BINDING AFFINITY PREDICTED BY RF-SCORE:    0.00 PKD
ROOT
HETATM    1  C   UNL     1     -11.792  15.693  69.366  1.00  0.00    -0.375 C  
HETATM    2  N   UNL     1     -10.667  15.394  68.479  1.00  0.00    -0.248 NA 
ENDROOT
BRANCH   2   3
HETATM    3  C   UNL     1     -10.906  14.472  67.417  1.00  0.00    -0.291 A  
HETATM    4  C   UNL     1     -12.609  13.663  65.708  1.00  0.00    -0.511 A  
HETATM    5  C   UNL     1     -12.648  11.718  63.209  1.00  0.00    -0.382 C  
HETATM    6  C   UNL     1      -9.881  13.611  66.944  1.00  0.00    -0.261 A  
HETATM    7  C   UNL     1     -10.238  12.810  65.843  1.00  0.00    -0.287 A  
HETATM    8  C   UNL     1     -11.556  12.872  65.275  1.00  0.00    -0.376 A  
HETATM    9  C   UNL     1     -11.581  12.022  64.196  1.00  0.00    -0.379 A  
HETATM   10  N   UNL     1      -9.507  11.914  65.161  1.00  0.00    -0.114 NA 
HETATM   11  N   UNL     1     -10.321  11.473  64.177  1.00  0.00    -0.302 NA 
HETATM   12  C   UNL     1      -9.806  10.509  63.231  1.00  0.00    -0.253 C  
HETATM   13  C   UNL     1     -12.220  14.457  66.812  1.00  0.00    -0.319 A  
ENDBRANCH   2   3
BRANCH   2  14
HETATM   14  C   UNL     1      -9.511  16.195  68.602  1.00  0.00    -0.227 A  
HETATM   15  C   UNL     1      -7.284  16.355  69.258  1.00  0.00    -0.221 A  
HETATM   16  N   UNL     1      -7.215  17.664  69.001  1.00  0.00    -0.245 NA 
HETATM   17  C   UNL     1      -8.324  18.222  68.493  1.00  0.00    -0.310 A  
HETATM   18  C   UNL     1      -9.494  17.534  68.265  1.00  0.00    -0.296 A  
HETATM   19  N   UNL     1      -8.395  15.623  69.089  1.00  0.00    -0.234 NA 
BRANCH  15  20
HETATM   20  N   UNL     1      -6.135  15.748  69.763  1.00  0.00    -0.157 NA 
HETATM   21  H   UNL     1      -5.383  16.378  70.042  1.00  0.00     0.000 HD 
BRANCH  20  22
HETATM   22  C   UNL     1      -5.883  14.380  69.936  1.00  0.00    -0.122 A  
HETATM   23  C   UNL     1      -5.351  13.929  71.144  1.00  0.00    -0.175 A  
HETATM   24  C   UNL     1      -5.171  12.563  71.383  1.00  0.00    -0.100 A  
HETATM   25  C   UNL     1      -5.506  11.599  70.414  1.00  0.00    -0.135 A  
HETATM   26  C   UNL     1      -6.006  12.053  69.181  1.00  0.00    -0.074 A  
HETATM   27  C   UNL     1      -5.302  10.152  70.750  1.00  0.00    -0.067 C  
HETATM   28  C   UNL     1      -6.198  13.427  68.959  1.00  0.00    -0.092 A  
BRANCH  26  29
HETATM   29  S   UNL     1      -6.370  10.967  67.806  1.00  0.00    -0.059 S  
HETATM   30  O   UNL     1      -7.591  10.250  68.072  1.00  0.00    -0.087 OA 
HETATM   31  O   UNL     1      -5.154  10.278  67.431  1.00  0.00    -0.040 OA 
HETATM   32  N   UNL     1      -6.689  12.064  66.579  1.00  0.00    -0.339 N  
HETATM   33  H1  UNL     1      -6.896  11.445  65.795  1.00  0.00     0.000 HD 
HETATM   34  H2  UNL     1      -6.677  13.083  66.608  1.00  0.00     0.000 HD 
ENDBRANCH  26  29
ENDBRANCH  20  22
ENDBRANCH  15  20
ENDBRANCH   2  14
TORSDOF 5
ENDMDL
MODEL      155
REMARK 921   NORMALIZED FREE ENERGY PREDICTED BY IDOCK:   -5.98 KCAL/MOL
REMARK 922        TOTAL FREE ENERGY PREDICTED BY IDOCK:   -8.19 KCAL/MOL
REMARK 923 INTER-LIGAND FREE ENERGY PREDICTED BY IDOCK:   -7.13 KCAL/MOL
REMARK 924 INTRA-LIGAND FREE ENERGY PREDICTED BY IDOCK:   -1.06 KCAL/MOL
REMARK 927      BINDING AFFINITY PREDICTED BY RF-SCORE:    0.00 PKD
ROOT
HETATM    1  C   UNL     1      -8.182   3.754  66.315  1.00  0.00    -0.101 C  
HETATM    2  N   UNL     1      -8.647   5.141  66.351  1.00  0.00    -0.112 NA 
ENDROOT
BRANCH   2   3
HETATM    3  C   UNL     1      -9.097   5.642  67.608  1.00  0.00    -0.106 A  
HETATM    4  C   UNL     1     -11.134   6.035  69.082  1.00  0.00    -0.405 A  
HETATM    5  C   UNL     1     -11.705   6.926  72.067  1.00  0.00    -0.336 C  
HETATM    6  C   UNL     1      -8.181   6.102  68.590  1.00  0.00    -0.108 A  
HETATM    7  C   UNL     1      -8.762   6.496  69.809  1.00  0.00    -0.143 A  
HETATM    8  C   UNL     1     -10.184   6.440  70.006  1.00  0.00    -0.221 A  
HETATM    9  C   UNL     1     -10.438   6.835  71.298  1.00  0.00    -0.213 A  
HETATM   10  N   UNL     1      -8.181   6.957  70.928  1.00  0.00    -0.117 NA 
HETATM   11  N   UNL     1      -9.195   7.135  71.803  1.00  0.00    -0.140 NA 
HETATM   12  C   UNL     1      -8.886   7.598  73.137  1.00  0.00    -0.179 C  
HETATM   13  C   UNL     1     -10.521   5.644  67.870  1.00  0.00    -0.274 A  
ENDBRANCH   2   3
BRANCH   2  14
HETATM   14  C   UNL     1      -8.413   5.936  65.208  1.00  0.00    -0.144 A  
HETATM   15  C   UNL     1      -8.143   8.066  64.309  1.00  0.00    -0.117 A  
HETATM   16  N   UNL     1      -8.070   7.618  63.053  1.00  0.00    -0.114 NA 
HETATM   17  C   UNL     1      -8.131   6.286  62.899  1.00  0.00    -0.068 A  
HETATM   18  C   UNL     1      -8.292   5.401  63.941  1.00  0.00    -0.109 A  
HETATM   19  N   UNL     1      -8.327   7.269  65.372  1.00  0.00    -0.139 NA 
BRANCH  15  20
HETATM   20  N   UNL     1      -8.056   9.445  64.495  1.00  0.00    -0.127 NA 
HETATM   21  H   UNL     1      -7.118   9.843  64.450  1.00  0.00     0.000 HD 
BRANCH  20  22
HETATM   22  C   UNL     1      -9.095  10.353  64.737  1.00  0.00    -0.213 A  
HETATM   23  C   UNL     1      -9.743  10.955  63.657  1.00  0.00    -0.374 A  
HETATM   24  C   UNL     1     -10.842  11.797  63.860  1.00  0.00    -0.468 A  
HETATM   25  C   UNL     1     -11.323  12.075  65.152  1.00  0.00    -0.359 A  
HETATM   26  C   UNL     1     -10.648  11.501  66.244  1.00  0.00    -0.263 A  
HETATM   27  C   UNL     1     -12.518  12.972  65.288  1.00  0.00    -0.555 C  
HETATM   28  C   UNL     1      -9.556  10.645  66.027  1.00  0.00    -0.244 A  
BRANCH  26  29
HETATM   29  S   UNL     1     -11.061  11.847  67.950  1.00  0.00    -0.263 S  
HETATM   30  O   UNL     1     -12.188  11.040  68.343  1.00  0.00    -0.586 OA 
HETATM   31  O   UNL     1     -11.054  13.281  68.142  1.00  0.00    -0.239 OA 
HETATM   32  N   UNL     1      -9.715  11.256  68.754  1.00  0.00    -0.294 N  
HETATM   33  H1  UNL     1      -9.950  11.453  69.727  1.00  0.00     0.000 HD 
HETATM   34  H2  UNL     1      -8.879  10.815  68.371  1.00  0.00     0.000 HD 
ENDBRANCH  26  29
ENDBRANCH  20  22
ENDBRANCH  15  20
ENDBRANCH   2  14
TORSDOF 5
ENDMDL
MODEL      156
REMARK 921   NORMALIZED FREE ENERGY PREDICTED BY IDOCK:   -5.96 KCAL/MOL
REMARK 922        TOTAL FREE ENERGY PREDICTED BY IDOCK:   -8.17 KCAL/MOL
REMARK 923 INTER-LIGAND FREE ENERGY PREDICTED BY IDOCK:   -7.73 KCAL/MOL
REMARK 924 INTRA-LIGAND FREE ENERGY PREDICTED BY IDOCK:   -0.43 KCAL/MOL
REMARK 927      BINDING AFFINITY PREDICTED BY RF-SCORE:    0.00 PKD
ROOT
HETATM    1  C   UNL     1     -12.237  11.618  69.899  1.00  0.00    -0.239 C  
HETATM    2  N   UNL     1     -10.969  10.930  69.655  1.00  0.00    -0.260 NA 
ENDROOT
BRANCH   2   3
HETATM    3  C   UNL     1     -10.587   9.923  70.589  1.00  0.00    -0.271 A  
HETATM    4  C   UNL     1     -11.406   8.399  72.456  1.00  0.00    -0.416 A  
HETATM    5  C   UNL     1     -10.266   5.974  74.144  1.00  0.00    -0.307 C  
HETATM    6  C   UNL     1      -9.273   9.386  70.599  1.00  0.00    -0.303 A  
HETATM    7  C   UNL     1      -9.061   8.346  71.524  1.00  0.00    -0.195 A  
HETATM    8  C   UNL     1     -10.115   7.897  72.390  1.00  0.00    -0.310 A  
HETATM    9  C   UNL     1      -9.623   6.851  73.133  1.00  0.00    -0.158 A  
HETATM   10  N   UNL     1      -7.954   7.628  71.770  1.00  0.00    -0.092 NA 
HETATM   11  N   UNL     1      -8.317   6.735  72.716  1.00  0.00    -0.110 NA 
HETATM   12  C   UNL     1      -7.338   5.777  73.177  1.00  0.00    -0.095 C  
HETATM   13  C   UNL     1     -11.589   9.438  71.515  1.00  0.00    -0.467 A  
ENDBRANCH   2   3
BRANCH   2  14
HETATM   14  C   UNL     1     -10.335  11.155  68.413  1.00  0.00    -0.186 A  
HETATM   15  C   UNL     1      -8.695  12.288  67.212  1.00  0.00    -0.188 A  
HETATM   16  N   UNL     1      -9.078  11.773  66.041  1.00  0.00    -0.192 NA 
HETATM   17  C   UNL     1     -10.093  10.896  66.088  1.00  0.00    -0.239 A  
HETATM   18  C   UNL     1     -10.750  10.544  67.245  1.00  0.00    -0.333 A  
HETATM   19  N   UNL     1      -9.302  12.016  68.377  1.00  0.00    -0.197 NA 
BRANCH  15  20
HETATM   20  N   UNL     1      -7.627  13.182  67.191  1.00  0.00    -0.375 NA 
HETATM   21  H   UNL     1      -6.711  12.779  66.991  1.00  0.00     0.000 HD 
BRANCH  20  22
HETATM   22  C   UNL     1      -7.652  14.567  67.409  1.00  0.00    -0.184 A  
HETATM   23  C   UNL     1      -6.448  15.270  67.482  1.00  0.00    -0.158 A  
HETATM   24  C   UNL     1      -6.438  16.663  67.610  1.00  0.00    -0.174 A  
HETATM   25  C   UNL     1      -7.634  17.400  67.682  1.00  0.00    -0.199 A  
HETATM   26  C   UNL     1      -8.848  16.691  67.648  1.00  0.00    -0.201 A  
HETATM   27  C   UNL     1      -7.544  18.892  67.799  1.00  0.00    -0.255 C  
HETATM   28  C   UNL     1      -8.845  15.293  67.503  1.00  0.00    -0.188 A  
BRANCH  26  29
HETATM   29  S   UNL     1     -10.448  17.467  67.844  1.00  0.00    -0.388 S  
HETATM   30  O   UNL     1     -11.440  16.456  68.112  1.00  0.00    -0.283 OA 
HETATM   31  O   UNL     1     -10.622  18.436  66.784  1.00  0.00    -0.381 OA 
HETATM   32  N   UNL     1     -10.232  18.345  69.255  1.00  0.00    -0.388 N  
HETATM   33  H1  UNL     1     -11.144  18.787  69.368  1.00  0.00     0.000 HD 
HETATM   34  H2  UNL     1      -9.404  18.418  69.847  1.00  0.00     0.000 HD 
ENDBRANCH  26  29
ENDBRANCH  20  22
ENDBRANCH  15  20
ENDBRANCH   2  14
TORSDOF 5
ENDMDL
MODEL      157
REMARK 921   NORMALIZED FREE ENERGY PREDICTED BY IDOCK:   -5.96 KCAL/MOL
REMARK 922        TOTAL FREE ENERGY PREDICTED BY IDOCK:   -8.16 KCAL/MOL
REMARK 923 INTER-LIGAND FREE ENERGY PREDICTED BY IDOCK:   -7.43 KCAL/MOL
REMARK 924 INTRA-LIGAND FREE ENERGY PREDICTED BY IDOCK:   -0.74 KCAL/MOL
REMARK 927      BINDING AFFINITY PREDICTED BY RF-SCORE:    0.00 PKD
ROOT
HETATM    1  C   UNL     1     -11.967  10.864  69.077  1.00  0.00    -0.251 C  
HETATM    2  N   UNL     1     -11.187  11.309  67.921  1.00  0.00    -0.266 NA 
ENDROOT
BRANCH   2   3
HETATM    3  C   UNL     1     -10.326  10.350  67.312  1.00  0.00    -0.228 A  
HETATM    4  C   UNL     1      -8.181  10.028  65.981  1.00  0.00    -0.126 A  
HETATM    5  C   UNL     1      -6.368   7.606  65.046  1.00  0.00    -0.038 C  
HETATM    6  C   UNL     1     -10.571   8.956  67.433  1.00  0.00    -0.305 A  
HETATM    7  C   UNL     1      -9.598   8.127  66.845  1.00  0.00    -0.208 A  
HETATM    8  C   UNL     1      -8.462   8.683  66.165  1.00  0.00    -0.140 A  
HETATM    9  C   UNL     1      -7.675   7.636  65.748  1.00  0.00    -0.100 A  
HETATM   10  N   UNL     1      -9.527   6.787  66.797  1.00  0.00    -0.158 NA 
HETATM   11  N   UNL     1      -8.368   6.520  66.156  1.00  0.00    -0.123 NA 
HETATM   12  C   UNL     1      -7.979   5.139  65.974  1.00  0.00    -0.107 C  
HETATM   13  C   UNL     1      -9.173  10.835  66.584  1.00  0.00    -0.184 A  
ENDBRANCH   2   3
BRANCH   2  14
HETATM   14  C   UNL     1     -11.505  12.568  67.368  1.00  0.00    -0.341 A  
HETATM   15  C   UNL     1     -11.448  14.886  67.576  1.00  0.00    -0.348 A  
HETATM   16  N   UNL     1     -12.157  15.088  66.462  1.00  0.00     0.011 NA 
HETATM   17  C   UNL     1     -12.503  13.986  65.778  1.00  0.00    -0.494 A  
HETATM   18  C   UNL     1     -12.195  12.706  66.179  1.00  0.00    -0.279 A  
HETATM   19  N   UNL     1     -11.134  13.669  68.046  1.00  0.00    -0.253 NA 
BRANCH  15  20
HETATM   20  N   UNL     1     -11.056  16.017  68.290  1.00  0.00    -0.340 NA 
HETATM   21  H   UNL     1     -11.773  16.447  68.874  1.00  0.00     0.000 HD 
BRANCH  20  22
HETATM   22  C   UNL     1      -9.800  16.638  68.306  1.00  0.00    -0.253 A  
HETATM   23  C   UNL     1      -8.733  16.009  68.952  1.00  0.00    -0.236 A  
HETATM   24  C   UNL     1      -7.447  16.557  68.911  1.00  0.00    -0.225 A  
HETATM   25  C   UNL     1      -7.185  17.762  68.232  1.00  0.00    -0.237 A  
HETATM   26  C   UNL     1      -8.265  18.417  67.614  1.00  0.00    -0.254 A  
HETATM   27  C   UNL     1      -5.777  18.277  68.216  1.00  0.00    -0.173 C  
HETATM   28  C   UNL     1      -9.549  17.848  67.648  1.00  0.00    -0.270 A  
BRANCH  26  29
HETATM   29  S   UNL     1      -8.122  20.010  66.812  1.00  0.00    -0.315 S  
HETATM   30  O   UNL     1      -7.533  19.838  65.508  1.00  0.00    -0.368 OA 
HETATM   31  O   UNL     1      -7.587  20.957  67.766  1.00  0.00    -0.204 OA 
HETATM   32  N   UNL     1      -9.730  20.425  66.586  1.00  0.00    -0.614 N  
HETATM   33  H1  UNL     1      -9.648  21.333  66.129  1.00  0.00     0.000 HD 
HETATM   34  H2  UNL     1     -10.570  19.906  66.840  1.00  0.00     0.000 HD 
ENDBRANCH  26  29
ENDBRANCH  20  22
ENDBRANCH  15  20
ENDBRANCH   2  14
TORSDOF 5
ENDMDL
MODEL      158
REMARK 921   NORMALIZED FREE ENERGY PREDICTED BY IDOCK:   -5.95 KCAL/MOL
REMARK 922        TOTAL FREE ENERGY PREDICTED BY IDOCK:   -8.15 KCAL/MOL
REMARK 923 INTER-LIGAND FREE ENERGY PREDICTED BY IDOCK:   -7.80 KCAL/MOL
REMARK 924 INTRA-LIGAND FREE ENERGY PREDICTED BY IDOCK:   -0.35 KCAL/MOL
REMARK 927      BINDING AFFINITY PREDICTED BY RF-SCORE:    0.00 PKD
ROOT
HETATM    1  C   UNL     1      -8.341   9.793  69.411  1.00  0.00    -0.152 C  
HETATM    2  N   UNL     1      -9.722  10.278  69.392  1.00  0.00    -0.223 NA 
ENDROOT
BRANCH   2   3
HETATM    3  C   UNL     1     -10.051  11.258  68.410  1.00  0.00    -0.195 A  
HETATM    4  C   UNL     1      -9.519  13.588  67.536  1.00  0.00    -0.222 A  
HETATM    5  C   UNL     1     -10.292  15.363  65.030  1.00  0.00    -0.362 C  
HETATM    6  C   UNL     1     -10.999  10.989  67.387  1.00  0.00    -0.349 A  
HETATM    7  C   UNL     1     -11.167  12.020  66.444  1.00  0.00    -0.337 A  
HETATM    8  C   UNL     1     -10.430  13.249  66.549  1.00  0.00    -0.282 A  
HETATM    9  C   UNL     1     -10.769  14.027  65.468  1.00  0.00    -0.313 A  
HETATM   10  N   UNL     1     -11.963  12.074  65.364  1.00  0.00    -0.403 NA 
HETATM   11  N   UNL     1     -11.695  13.268  64.791  1.00  0.00    -0.340 NA 
HETATM   12  C   UNL     1     -12.378  13.617  63.565  1.00  0.00    -0.201 C  
HETATM   13  C   UNL     1      -9.370  12.534  68.466  1.00  0.00    -0.084 A  
ENDBRANCH   2   3
BRANCH   2  14
HETATM   14  C   UNL     1     -10.665   9.590  70.186  1.00  0.00    -0.257 A  
HETATM   15  C   UNL     1     -11.453   7.554  70.993  1.00  0.00    -0.278 A  
HETATM   16  N   UNL     1     -12.501   8.109  71.610  1.00  0.00    -0.310 NA 
HETATM   17  C   UNL     1     -12.588   9.446  71.532  1.00  0.00    -0.362 A  
HETATM   18  C   UNL     1     -11.695  10.234  70.844  1.00  0.00    -0.472 A  
HETATM   19  N   UNL     1     -10.557   8.252  70.280  1.00  0.00    -0.223 NA 
BRANCH  15  20
HETATM   20  N   UNL     1     -11.328   6.169  71.082  1.00  0.00    -0.296 NA 
HETATM   21  H   UNL     1     -11.961   5.704  71.732  1.00  0.00     0.000 HD 
BRANCH  20  22
HETATM   22  C   UNL     1     -10.440   5.334  70.389  1.00  0.00    -0.251 A  
HETATM   23  C   UNL     1      -9.570   4.513  71.108  1.00  0.00    -0.245 A  
HETATM   24  C   UNL     1      -8.735   3.604  70.451  1.00  0.00    -0.125 A  
HETATM   25  C   UNL     1      -8.732   3.493  69.049  1.00  0.00    -0.139 A  
HETATM   26  C   UNL     1      -9.578   4.347  68.319  1.00  0.00    -0.138 A  
HETATM   27  C   UNL     1      -7.822   2.482  68.417  1.00  0.00    -0.057 C  
HETATM   28  C   UNL     1     -10.425   5.245  68.992  1.00  0.00    -0.206 A  
BRANCH  26  29
HETATM   29  S   UNL     1      -9.608   4.413  66.532  1.00  0.00    -0.213 S  
HETATM   30  O   UNL     1      -8.340   4.898  66.050  1.00  0.00    -0.111 OA 
HETATM   31  O   UNL     1     -10.857   5.014  66.116  1.00  0.00    -0.294 OA 
HETATM   32  N   UNL     1      -9.710   2.789  66.131  1.00  0.00    -0.363 N  
HETATM   33  H1  UNL     1      -9.726   2.826  65.112  1.00  0.00     0.000 HD 
HETATM   34  H2  UNL     1      -9.746   1.976  66.746  1.00  0.00     0.000 HD 
ENDBRANCH  26  29
ENDBRANCH  20  22
ENDBRANCH  15  20
ENDBRANCH   2  14
TORSDOF 5
ENDMDL
MODEL      159
REMARK 921   NORMALIZED FREE ENERGY PREDICTED BY IDOCK:   -5.93 KCAL/MOL
REMARK 922        TOTAL FREE ENERGY PREDICTED BY IDOCK:   -8.12 KCAL/MOL
REMARK 923 INTER-LIGAND FREE ENERGY PREDICTED BY IDOCK:   -7.40 KCAL/MOL
REMARK 924 INTRA-LIGAND FREE ENERGY PREDICTED BY IDOCK:   -0.72 KCAL/MOL
REMARK 927      BINDING AFFINITY PREDICTED BY RF-SCORE:    0.00 PKD
ROOT
HETATM    1  C   UNL     1     -11.259  10.806  67.804  1.00  0.00    -0.316 C  
HETATM    2  N   UNL     1     -10.285  10.252  66.862  1.00  0.00    -0.220 NA 
ENDROOT
BRANCH   2   3
HETATM    3  C   UNL     1      -9.718   8.984  67.187  1.00  0.00    -0.181 A  
HETATM    4  C   UNL     1      -7.649   7.796  68.073  1.00  0.00    -0.120 A  
HETATM    5  C   UNL     1      -6.862   4.864  68.977  1.00  0.00    -0.051 C  
HETATM    6  C   UNL     1     -10.480   7.789  67.093  1.00  0.00    -0.413 A  
HETATM    7  C   UNL     1      -9.814   6.624  67.517  1.00  0.00    -0.129 A  
HETATM    8  C   UNL     1      -8.458   6.673  67.988  1.00  0.00    -0.116 A  
HETATM    9  C   UNL     1      -8.108   5.401  68.373  1.00  0.00    -0.091 A  
HETATM   10  N   UNL     1     -10.252   5.355  67.568  1.00  0.00    -0.192 NA 
HETATM   11  N   UNL     1      -9.227   4.651  68.096  1.00  0.00    -0.121 NA 
HETATM   12  C   UNL     1      -9.401   3.233  68.317  1.00  0.00    -0.184 C  
HETATM   13  C   UNL     1      -8.345   8.949  67.643  1.00  0.00    -0.110 A  
ENDBRANCH   2   3
BRANCH   2  14
HETATM   14  C   UNL     1     -10.147  10.896  65.614  1.00  0.00    -0.261 A  
HETATM   15  C   UNL     1     -10.463  12.819  64.341  1.00  0.00    -0.386 A  
HETATM   16  N   UNL     1     -10.040  12.244  63.213  1.00  0.00    -0.397 NA 
HETATM   17  C   UNL     1      -9.626  10.971  63.321  1.00  0.00    -0.345 A  
HETATM   18  C   UNL     1      -9.649  10.255  64.496  1.00  0.00    -0.378 A  
HETATM   19  N   UNL     1     -10.541  12.179  65.517  1.00  0.00    -0.268 NA 
BRANCH  15  20
HETATM   20  N   UNL     1     -10.875  14.148  64.258  1.00  0.00    -0.586 NA 
HETATM   21  H   UNL     1     -11.589  14.351  63.559  1.00  0.00     0.000 HD 
BRANCH  20  22
HETATM   22  C   UNL     1     -10.430  15.241  65.014  1.00  0.00    -0.382 A  
HETATM   23  C   UNL     1     -11.114  16.455  64.931  1.00  0.00    -0.249 A  
HETATM   24  C   UNL     1     -10.752  17.539  65.738  1.00  0.00    -0.106 A  
HETATM   25  C   UNL     1      -9.683  17.449  66.648  1.00  0.00    -0.296 A  
HETATM   26  C   UNL     1      -8.967  16.241  66.706  1.00  0.00    -0.231 A  
HETATM   27  C   UNL     1      -9.366  18.648  67.492  1.00  0.00    -0.301 C  
HETATM   28  C   UNL     1      -9.350  15.154  65.902  1.00  0.00    -0.279 A  
BRANCH  26  29
HETATM   29  S   UNL     1      -7.514  16.004  67.723  1.00  0.00    -0.147 S  
HETATM   30  O   UNL     1      -7.912  15.869  69.101  1.00  0.00    -0.209 OA 
HETATM   31  O   UNL     1      -6.508  16.960  67.315  1.00  0.00    -0.137 OA 
HETATM   32  N   UNL     1      -6.976  14.503  67.206  1.00  0.00    -0.204 N  
HETATM   33  H1  UNL     1      -6.148  14.368  67.786  1.00  0.00     0.000 HD 
HETATM   34  H2  UNL     1      -7.373  13.887  66.497  1.00  0.00     0.000 HD 
ENDBRANCH  26  29
ENDBRANCH  20  22
ENDBRANCH  15  20
ENDBRANCH   2  14
TORSDOF 5
ENDMDL
MODEL      160
REMARK 921   NORMALIZED FREE ENERGY PREDICTED BY IDOCK:   -5.92 KCAL/MOL
REMARK 922        TOTAL FREE ENERGY PREDICTED BY IDOCK:   -8.12 KCAL/MOL
REMARK 923 INTER-LIGAND FREE ENERGY PREDICTED BY IDOCK:   -7.24 KCAL/MOL
REMARK 924 INTRA-LIGAND FREE ENERGY PREDICTED BY IDOCK:   -0.88 KCAL/MOL
REMARK 927      BINDING AFFINITY PREDICTED BY RF-SCORE:    0.00 PKD
ROOT
HETATM    1  C   UNL     1      -7.859  13.495  68.542  1.00  0.00    -0.125 C  
HETATM    2  N   UNL     1      -8.979  14.194  67.911  1.00  0.00    -0.177 NA 
ENDROOT
BRANCH   2   3
HETATM    3  C   UNL     1      -8.785  15.568  67.584  1.00  0.00    -0.175 A  
HETATM    4  C   UNL     1      -9.265  17.964  68.296  1.00  0.00    -0.283 A  
HETATM    5  C   UNL     1      -8.353  20.871  67.432  1.00  0.00    -0.124 C  
HETATM    6  C   UNL     1      -7.982  15.958  66.480  1.00  0.00    -0.231 A  
HETATM    7  C   UNL     1      -7.818  17.346  66.323  1.00  0.00    -0.295 A  
HETATM    8  C   UNL     1      -8.444  18.274  67.223  1.00  0.00    -0.250 A  
HETATM    9  C   UNL     1      -8.060  19.539  66.846  1.00  0.00    -0.282 A  
HETATM   10  N   UNL     1      -7.118  18.030  65.403  1.00  0.00    -0.430 NA 
HETATM   11  N   UNL     1      -7.263  19.329  65.745  1.00  0.00    -0.357 NA 
HETATM   12  C   UNL     1      -6.587  20.333  64.955  1.00  0.00    -0.291 C  
HETATM   13  C   UNL     1      -9.409  16.564  68.429  1.00  0.00    -0.221 A  
ENDBRANCH   2   3
BRANCH   2  14
HETATM   14  C   UNL     1     -10.073  13.413  67.477  1.00  0.00    -0.227 A  
HETATM   15  C   UNL     1     -11.165  11.358  67.509  1.00  0.00    -0.292 A  
HETATM   16  N   UNL     1     -12.090  11.741  66.625  1.00  0.00    -0.353 NA 
HETATM   17  C   UNL     1     -12.007  13.011  66.200  1.00  0.00    -0.427 A  
HETATM   18  C   UNL     1     -11.027  13.891  66.600  1.00  0.00    -0.302 A  
HETATM   19  N   UNL     1     -10.164  12.148  67.926  1.00  0.00    -0.193 NA 
BRANCH  15  20
HETATM   20  N   UNL     1     -11.246  10.050  67.983  1.00  0.00    -0.508 NA 
HETATM   21  H   UNL     1     -11.841   9.907  68.799  1.00  0.00     0.000 HD 
BRANCH  20  22
HETATM   22  C   UNL     1     -10.611   8.906  67.480  1.00  0.00    -0.237 A  
HETATM   23  C   UNL     1     -11.029   7.646  67.912  1.00  0.00     0.011 A  
HETATM   24  C   UNL     1     -10.480   6.482  67.364  1.00  0.00    -0.314 A  
HETATM   25  C   UNL     1      -9.483   6.539  66.373  1.00  0.00    -0.165 A  
HETATM   26  C   UNL     1      -9.032   7.806  65.964  1.00  0.00    -0.145 A  
HETATM   27  C   UNL     1      -8.955   5.248  65.821  1.00  0.00    -0.154 C  
HETATM   28  C   UNL     1      -9.603   8.968  66.510  1.00  0.00    -0.286 A  
BRANCH  26  29
HETATM   29  S   UNL     1      -7.693   8.049  64.802  1.00  0.00    -0.127 S  
HETATM   30  O   UNL     1      -8.119   7.634  63.489  1.00  0.00    -0.120 OA 
HETATM   31  O   UNL     1      -6.473   7.547  65.397  1.00  0.00    -0.041 OA 
HETATM   32  N   UNL     1      -7.557   9.719  64.781  1.00  0.00    -0.123 N  
HETATM   33  H1  UNL     1      -6.794   9.857  64.119  1.00  0.00     0.000 HD 
HETATM   34  H2  UNL     1      -8.095  10.415  65.297  1.00  0.00     0.000 HD 
ENDBRANCH  26  29
ENDBRANCH  20  22
ENDBRANCH  15  20
ENDBRANCH   2  14
TORSDOF 5
ENDMDL
MODEL      161
REMARK 921   NORMALIZED FREE ENERGY PREDICTED BY IDOCK:   -5.92 KCAL/MOL
REMARK 922        TOTAL FREE ENERGY PREDICTED BY IDOCK:   -8.11 KCAL/MOL
REMARK 923 INTER-LIGAND FREE ENERGY PREDICTED BY IDOCK:   -7.29 KCAL/MOL
REMARK 924 INTRA-LIGAND FREE ENERGY PREDICTED BY IDOCK:   -0.82 KCAL/MOL
REMARK 927      BINDING AFFINITY PREDICTED BY RF-SCORE:    0.00 PKD
ROOT
HETATM    1  C   UNL     1     -12.850  13.321  65.591  1.00  0.00    -0.153 C  
HETATM    2  N   UNL     1     -11.429  13.658  65.493  1.00  0.00    -0.302 NA 
ENDROOT
BRANCH   2   3
HETATM    3  C   UNL     1     -11.015  14.894  66.073  1.00  0.00    -0.334 A  
HETATM    4  C   UNL     1     -11.095  16.341  68.165  1.00  0.00    -0.329 A  
HETATM    5  C   UNL     1      -9.726  19.001  69.204  1.00  0.00    -0.310 C  
HETATM    6  C   UNL     1     -10.164  15.789  65.372  1.00  0.00    -0.380 A  
HETATM    7  C   UNL     1      -9.777  16.932  66.096  1.00  0.00    -0.272 A  
HETATM    8  C   UNL     1     -10.240  17.154  67.438  1.00  0.00    -0.321 A  
HETATM    9  C   UNL     1      -9.656  18.312  67.891  1.00  0.00    -0.289 A  
HETATM   10  N   UNL     1      -8.979  17.949  65.732  1.00  0.00    -0.375 NA 
HETATM   11  N   UNL     1      -8.909  18.747  66.820  1.00  0.00    -0.295 NA 
HETATM   12  C   UNL     1      -8.082  19.931  66.760  1.00  0.00    -0.315 C  
HETATM   13  C   UNL     1     -11.465  15.202  67.414  1.00  0.00    -0.284 A  
ENDBRANCH   2   3
BRANCH   2  14
HETATM   14  C   UNL     1     -10.551  12.652  65.037  1.00  0.00    -0.303 A  
HETATM   15  C   UNL     1      -8.705  11.302  65.467  1.00  0.00    -0.036 A  
HETATM   16  N   UNL     1      -8.698  10.775  64.239  1.00  0.00    -0.126 NA 
HETATM   17  C   UNL     1      -9.679  11.184  63.419  1.00  0.00    -0.352 A  
HETATM   18  C   UNL     1     -10.635  12.110  63.769  1.00  0.00    -0.482 A  
HETATM   19  N   UNL     1      -9.585  12.229  65.872  1.00  0.00    -0.229 NA 
BRANCH  15  20
HETATM   20  N   UNL     1      -7.710  10.874  66.344  1.00  0.00    -0.151 NA 
HETATM   21  H   UNL     1      -6.749  11.015  66.033  1.00  0.00     0.000 HD 
BRANCH  20  22
HETATM   22  C   UNL     1      -7.864  10.272  67.601  1.00  0.00    -0.098 A  
HETATM   23  C   UNL     1      -6.740   9.783  68.268  1.00  0.00    -0.060 A  
HETATM   24  C   UNL     1      -6.845   9.259  69.561  1.00  0.00    -0.048 A  
HETATM   25  C   UNL     1      -8.083   9.194  70.226  1.00  0.00    -0.156 A  
HETATM   26  C   UNL     1      -9.223   9.650  69.541  1.00  0.00    -0.203 A  
HETATM   27  C   UNL     1      -8.114   8.636  71.618  1.00  0.00    -0.183 C  
HETATM   28  C   UNL     1      -9.102  10.190  68.250  1.00  0.00    -0.122 A  
BRANCH  26  29
HETATM   29  S   UNL     1     -10.882   9.530  70.201  1.00  0.00    -0.276 S  
HETATM   30  O   UNL     1     -10.991  10.357  71.376  1.00  0.00     0.247 OA 
HETATM   31  O   UNL     1     -11.269   8.135  70.217  1.00  0.00    -0.253 OA 
HETATM   32  N   UNL     1     -11.785  10.256  68.990  1.00  0.00    -0.503 N  
HETATM   33  H1  UNL     1     -12.731  10.187  69.366  1.00  0.00     0.000 HD 
HETATM   34  H2  UNL     1     -11.471  10.660  68.108  1.00  0.00     0.000 HD 
ENDBRANCH  26  29
ENDBRANCH  20  22
ENDBRANCH  15  20
ENDBRANCH   2  14
TORSDOF 5
ENDMDL
MODEL      162
REMARK 921   NORMALIZED FREE ENERGY PREDICTED BY IDOCK:   -5.92 KCAL/MOL
REMARK 922        TOTAL FREE ENERGY PREDICTED BY IDOCK:   -8.11 KCAL/MOL
REMARK 923 INTER-LIGAND FREE ENERGY PREDICTED BY IDOCK:   -7.48 KCAL/MOL
REMARK 924 INTRA-LIGAND FREE ENERGY PREDICTED BY IDOCK:   -0.63 KCAL/MOL
REMARK 927      BINDING AFFINITY PREDICTED BY RF-SCORE:    0.00 PKD
ROOT
HETATM    1  C   UNL     1      -9.514  10.060  64.281  1.00  0.00    -0.273 C  
HETATM    2  N   UNL     1      -9.481   9.894  65.734  1.00  0.00    -0.202 NA 
ENDROOT
BRANCH   2   3
HETATM    3  C   UNL     1      -9.565  11.078  66.524  1.00  0.00    -0.195 A  
HETATM    4  C   UNL     1      -8.224  12.859  67.752  1.00  0.00    -0.174 A  
HETATM    5  C   UNL     1      -8.800  15.622  69.189  1.00  0.00    -0.251 C  
HETATM    6  C   UNL     1     -10.814  11.694  66.800  1.00  0.00    -0.322 A  
HETATM    7  C   UNL     1     -10.737  12.897  67.527  1.00  0.00    -0.226 A  
HETATM    8  C   UNL     1      -9.473  13.425  67.957  1.00  0.00    -0.218 A  
HETATM    9  C   UNL     1      -9.717  14.620  68.590  1.00  0.00    -0.220 A  
HETATM   10  N   UNL     1     -11.718  13.720  67.931  1.00  0.00    -0.340 NA 
HETATM   11  N   UNL     1     -11.086  14.744  68.544  1.00  0.00    -0.253 NA 
HETATM   12  C   UNL     1     -11.879  15.834  69.068  1.00  0.00    -0.355 C  
HETATM   13  C   UNL     1      -8.333  11.656  67.018  1.00  0.00    -0.169 A  
ENDBRANCH   2   3
BRANCH   2  14
HETATM   14  C   UNL     1      -9.591   8.581  66.242  1.00  0.00    -0.236 A  
HETATM   15  C   UNL     1     -10.512   7.152  67.832  1.00  0.00    -0.212 A  
HETATM   16  N   UNL     1      -9.816   6.094  67.407  1.00  0.00    -0.125 NA 
HETATM   17  C   UNL     1      -9.023   6.301  66.343  1.00  0.00    -0.152 A  
HETATM   18  C   UNL     1      -8.881   7.518  65.718  1.00  0.00    -0.122 A  
HETATM   19  N   UNL     1     -10.406   8.376  67.293  1.00  0.00    -0.274 NA 
BRANCH  15  20
HETATM   20  N   UNL     1     -11.360   6.956  68.920  1.00  0.00    -0.533 NA 
HETATM   21  H   UNL     1     -12.348   6.832  68.698  1.00  0.00     0.000 HD 
BRANCH  20  22
HETATM   22  C   UNL     1     -11.027   6.907  70.280  1.00  0.00    -0.281 A  
HETATM   23  C   UNL     1     -11.879   6.251  71.171  1.00  0.00    -0.234 A  
HETATM   24  C   UNL     1     -11.533   6.106  72.518  1.00  0.00    -0.318 A  
HETATM   25  C   UNL     1     -10.327   6.625  73.025  1.00  0.00    -0.244 A  
HETATM   26  C   UNL     1      -9.485   7.320  72.139  1.00  0.00    -0.135 A  
HETATM   27  C   UNL     1     -10.017   6.414  74.477  1.00  0.00    -0.370 C  
HETATM   28  C   UNL     1      -9.836   7.445  70.784  1.00  0.00    -0.178 A  
BRANCH  26  29
HETATM   29  S   UNL     1      -7.977   8.137  72.649  1.00  0.00    -0.140 S  
HETATM   30  O   UNL     1      -8.129   8.624  73.997  1.00  0.00    -0.385 OA 
HETATM   31  O   UNL     1      -7.539   9.002  71.575  1.00  0.00    -0.275 OA 
HETATM   32  N   UNL     1      -6.895   6.858  72.695  1.00  0.00    -0.069 N  
HETATM   33  H1  UNL     1      -6.035   7.323  72.986  1.00  0.00     0.000 HD 
HETATM   34  H2  UNL     1      -7.054   5.872  72.487  1.00  0.00     0.000 HD 
ENDBRANCH  26  29
ENDBRANCH  20  22
ENDBRANCH  15  20
ENDBRANCH   2  14
TORSDOF 5
ENDMDL
MODEL      163
REMARK 921   NORMALIZED FREE ENERGY PREDICTED BY IDOCK:   -5.92 KCAL/MOL
REMARK 922        TOTAL FREE ENERGY PREDICTED BY IDOCK:   -8.11 KCAL/MOL
REMARK 923 INTER-LIGAND FREE ENERGY PREDICTED BY IDOCK:   -7.83 KCAL/MOL
REMARK 924 INTRA-LIGAND FREE ENERGY PREDICTED BY IDOCK:   -0.28 KCAL/MOL
REMARK 927      BINDING AFFINITY PREDICTED BY RF-SCORE:    0.00 PKD
ROOT
HETATM    1  C   UNL     1     -10.285  10.794  66.239  1.00  0.00    -0.245 C  
HETATM    2  N   UNL     1      -9.317  10.539  67.307  1.00  0.00    -0.146 NA 
ENDROOT
BRANCH   2   3
HETATM    3  C   UNL     1      -9.676   9.570  68.290  1.00  0.00    -0.147 A  
HETATM    4  C   UNL     1     -10.168   7.107  68.701  1.00  0.00    -0.186 A  
HETATM    5  C   UNL     1     -10.646   5.219  71.198  1.00  0.00    -0.243 C  
HETATM    6  C   UNL     1      -9.807   9.922  69.659  1.00  0.00    -0.255 A  
HETATM    7  C   UNL     1     -10.091   8.850  70.525  1.00  0.00    -0.205 A  
HETATM    8  C   UNL     1     -10.248   7.512  70.024  1.00  0.00    -0.215 A  
HETATM    9  C   UNL     1     -10.466   6.689  71.103  1.00  0.00    -0.217 A  
HETATM   10  N   UNL     1     -10.259   8.843  71.857  1.00  0.00    -0.343 NA 
HETATM   11  N   UNL     1     -10.462   7.546  72.179  1.00  0.00    -0.207 NA 
HETATM   12  C   UNL     1     -10.643   7.198  73.570  1.00  0.00    -0.374 C  
HETATM   13  C   UNL     1      -9.879   8.204  67.857  1.00  0.00    -0.206 A  
ENDBRANCH   2   3
BRANCH   2  14
HETATM   14  C   UNL     1      -8.028  11.098  67.165  1.00  0.00    -0.139 A  
HETATM   15  C   UNL     1      -6.682  12.995  67.239  1.00  0.00    -0.008 A  
HETATM   16  N   UNL     1      -5.595  12.343  66.817  1.00  0.00    -0.261 NA 
HETATM   17  C   UNL     1      -5.744  11.026  66.609  1.00  0.00    -0.104 A  
HETATM   18  C   UNL     1      -6.932  10.352  66.777  1.00  0.00    -0.103 A  
HETATM   19  N   UNL     1      -7.881  12.415  67.399  1.00  0.00    -0.165 NA 
BRANCH  15  20
HETATM   20  N   UNL     1      -6.545  14.360  67.486  1.00  0.00    -0.287 NA 
HETATM   21  H   UNL     1      -5.667  14.650  67.915  1.00  0.00     0.000 HD 
BRANCH  20  22
HETATM   22  C   UNL     1      -7.464  15.385  67.218  1.00  0.00    -0.207 A  
HETATM   23  C   UNL     1      -7.186  16.683  67.650  1.00  0.00    -0.158 A  
HETATM   24  C   UNL     1      -8.036  17.744  67.322  1.00  0.00    -0.223 A  
HETATM   25  C   UNL     1      -9.201  17.541  66.560  1.00  0.00    -0.286 A  
HETATM   26  C   UNL     1      -9.504  16.229  66.157  1.00  0.00    -0.339 A  
HETATM   27  C   UNL     1     -10.053  18.731  66.233  1.00  0.00    -0.447 C  
HETATM   28  C   UNL     1      -8.634  15.173  66.479  1.00  0.00    -0.226 A  
BRANCH  26  29
HETATM   29  S   UNL     1     -11.003  15.786  65.286  1.00  0.00    -0.309 S  
HETATM   30  O   UNL     1     -11.322  16.816  64.329  1.00  0.00    -1.170 OA 
HETATM   31  O   UNL     1     -11.975  15.323  66.252  1.00  0.00     0.066 OA 
HETATM   32  N   UNL     1     -10.512  14.435  64.425  1.00  0.00    -0.476 N  
HETATM   33  H1  UNL     1     -11.367  14.183  63.928  1.00  0.00     0.000 HD 
HETATM   34  H2  UNL     1      -9.598  13.983  64.403  1.00  0.00     0.000 HD 
ENDBRANCH  26  29
ENDBRANCH  20  22
ENDBRANCH  15  20
ENDBRANCH   2  14
TORSDOF 5
ENDMDL
MODEL      164
REMARK 921   NORMALIZED FREE ENERGY PREDICTED BY IDOCK:   -5.91 KCAL/MOL
REMARK 922        TOTAL FREE ENERGY PREDICTED BY IDOCK:   -8.10 KCAL/MOL
REMARK 923 INTER-LIGAND FREE ENERGY PREDICTED BY IDOCK:   -7.66 KCAL/MOL
REMARK 924 INTRA-LIGAND FREE ENERGY PREDICTED BY IDOCK:   -0.44 KCAL/MOL
REMARK 927      BINDING AFFINITY PREDICTED BY RF-SCORE:    0.00 PKD
ROOT
HETATM    1  C   UNL     1      -9.770  10.255  63.217  1.00  0.00    -0.174 C  
HETATM    2  N   UNL     1     -10.083  10.623  64.598  1.00  0.00    -0.334 NA 
ENDROOT
BRANCH   2   3
HETATM    3  C   UNL     1      -9.722   9.691  65.615  1.00  0.00    -0.293 A  
HETATM    4  C   UNL     1      -7.882   8.156  66.472  1.00  0.00    -0.093 A  
HETATM    5  C   UNL     1      -7.330   6.408  69.054  1.00  0.00    -0.089 C  
HETATM    6  C   UNL     1     -10.588   9.418  66.707  1.00  0.00    -0.210 A  
HETATM    7  C   UNL     1     -10.069   8.536  67.673  1.00  0.00    -0.213 A  
HETATM    8  C   UNL     1      -8.762   7.959  67.525  1.00  0.00    -0.125 A  
HETATM    9  C   UNL     1      -8.520   7.191  68.639  1.00  0.00    -0.125 A  
HETATM   10  N   UNL     1     -10.620   8.091  68.813  1.00  0.00    -0.165 NA 
HETATM   11  N   UNL     1      -9.674   7.308  69.378  1.00  0.00    -0.161 NA 
HETATM   12  C   UNL     1      -9.954   6.698  70.659  1.00  0.00    -0.184 C  
HETATM   13  C   UNL     1      -8.429   9.047  65.521  1.00  0.00    -0.158 A  
ENDBRANCH   2   3
BRANCH   2  14
HETATM   14  C   UNL     1     -10.510  11.948  64.838  1.00  0.00    -0.287 A  
HETATM   15  C   UNL     1     -10.262  13.907  66.070  1.00  0.00    -0.310 A  
HETATM   16  N   UNL     1     -11.307  14.503  65.489  1.00  0.00    -0.328 NA 
HETATM   17  C   UNL     1     -11.930  13.798  64.532  1.00  0.00    -0.427 A  
HETATM   18  C   UNL     1     -11.567  12.523  64.161  1.00  0.00    -0.457 A  
HETATM   19  N   UNL     1      -9.866  12.658  65.782  1.00  0.00    -0.255 NA 
BRANCH  15  20
HETATM   20  N   UNL     1      -9.585  14.630  67.049  1.00  0.00    -0.232 NA 
HETATM   21  H   UNL     1      -9.558  14.208  67.978  1.00  0.00     0.000 HD 
BRANCH  20  22
HETATM   22  C   UNL     1      -8.935  15.866  66.920  1.00  0.00    -0.231 A  
HETATM   23  C   UNL     1      -7.566  15.894  66.652  1.00  0.00    -0.150 A  
HETATM   24  C   UNL     1      -6.904  17.106  66.428  1.00  0.00    -0.284 A  
HETATM   25  C   UNL     1      -7.589  18.334  66.477  1.00  0.00    -0.271 A  
HETATM   26  C   UNL     1      -8.961  18.312  66.785  1.00  0.00    -0.284 A  
HETATM   27  C   UNL     1      -6.816  19.591  66.208  1.00  0.00    -0.229 C  
HETATM   28  C   UNL     1      -9.618  17.087  66.992  1.00  0.00    -0.257 A  
BRANCH  26  29
HETATM   29  S   UNL     1      -9.948  19.789  66.999  1.00  0.00    -0.442 S  
HETATM   30  O   UNL     1      -9.139  20.822  67.596  1.00  0.00    -0.234 OA 
HETATM   31  O   UNL     1     -11.226  19.409  67.559  1.00  0.00    -0.325 OA 
HETATM   32  N   UNL     1     -10.242  20.236  65.411  1.00  0.00    -0.337 N  
HETATM   33  H1  UNL     1     -10.805  21.078  65.533  1.00  0.00     0.000 HD 
HETATM   34  H2  UNL     1      -9.939  19.784  64.548  1.00  0.00     0.000 HD 
ENDBRANCH  26  29
ENDBRANCH  20  22
ENDBRANCH  15  20
ENDBRANCH   2  14
TORSDOF 5
ENDMDL
MODEL      165
REMARK 921   NORMALIZED FREE ENERGY PREDICTED BY IDOCK:   -5.91 KCAL/MOL
REMARK 922        TOTAL FREE ENERGY PREDICTED BY IDOCK:   -8.10 KCAL/MOL
REMARK 923 INTER-LIGAND FREE ENERGY PREDICTED BY IDOCK:   -7.43 KCAL/MOL
REMARK 924 INTRA-LIGAND FREE ENERGY PREDICTED BY IDOCK:   -0.67 KCAL/MOL
REMARK 927      BINDING AFFINITY PREDICTED BY RF-SCORE:    0.00 PKD
ROOT
HETATM    1  C   UNL     1      -7.833  13.486  68.528  1.00  0.00    -0.125 C  
HETATM    2  N   UNL     1      -8.943  14.034  67.747  1.00  0.00    -0.177 NA 
ENDROOT
BRANCH   2   3
HETATM    3  C   UNL     1      -8.903  15.428  67.452  1.00  0.00    -0.183 A  
HETATM    4  C   UNL     1      -9.843  17.712  68.065  1.00  0.00    -0.310 A  
HETATM    5  C   UNL     1      -9.242  20.739  67.354  1.00  0.00    -0.363 C  
HETATM    6  C   UNL     1      -7.995  15.954  66.496  1.00  0.00    -0.231 A  
HETATM    7  C   UNL     1      -8.014  17.355  66.363  1.00  0.00    -0.290 A  
HETATM    8  C   UNL     1      -8.911  18.162  67.142  1.00  0.00    -0.256 A  
HETATM    9  C   UNL     1      -8.661  19.477  66.830  1.00  0.00    -0.311 A  
HETATM   10  N   UNL     1      -7.281  18.153  65.570  1.00  0.00    -0.533 NA 
HETATM   11  N   UNL     1      -7.671  19.409  65.878  1.00  0.00    -0.411 NA 
HETATM   12  C   UNL     1      -7.030  20.518  65.208  1.00  0.00    -0.154 C  
HETATM   13  C   UNL     1      -9.799  16.304  68.177  1.00  0.00    -0.229 A  
ENDBRANCH   2   3
BRANCH   2  14
HETATM   14  C   UNL     1      -9.844  13.116  67.164  1.00  0.00    -0.235 A  
HETATM   15  C   UNL     1     -10.567  10.912  66.975  1.00  0.00    -0.257 A  
HETATM   16  N   UNL     1     -11.462  11.199  66.025  1.00  0.00    -0.055 NA 
HETATM   17  C   UNL     1     -11.560  12.493  65.681  1.00  0.00    -0.389 A  
HETATM   18  C   UNL     1     -10.784  13.491  66.225  1.00  0.00    -0.288 A  
HETATM   19  N   UNL     1      -9.757  11.824  67.532  1.00  0.00    -0.178 NA 
BRANCH  15  20
HETATM   20  N   UNL     1     -10.466   9.578  67.367  1.00  0.00    -0.262 NA 
HETATM   21  H   UNL     1     -11.148   9.263  68.057  1.00  0.00     0.000 HD 
BRANCH  20  22
HETATM   22  C   UNL     1      -9.545   8.616  66.931  1.00  0.00    -0.194 A  
HETATM   23  C   UNL     1      -8.183   8.921  66.935  1.00  0.00    -0.112 A  
HETATM   24  C   UNL     1      -7.231   7.956  66.592  1.00  0.00    -0.084 A  
HETATM   25  C   UNL     1      -7.610   6.653  66.221  1.00  0.00    -0.090 A  
HETATM   26  C   UNL     1      -8.983   6.353  66.179  1.00  0.00    -0.150 A  
HETATM   27  C   UNL     1      -6.531   5.666  65.885  1.00  0.00    -0.040 C  
HETATM   28  C   UNL     1      -9.929   7.327  66.541  1.00  0.00    -0.182 A  
BRANCH  26  29
HETATM   29  S   UNL     1      -9.633   4.783  65.618  1.00  0.00    -0.165 S  
HETATM   30  O   UNL     1      -9.338   3.767  66.596  1.00  0.00    -0.166 OA 
HETATM   31  O   UNL     1      -9.286   4.615  64.223  1.00  0.00    -0.147 OA 
HETATM   32  N   UNL     1     -11.285   5.061  65.663  1.00  0.00    -0.868 N  
HETATM   33  H1  UNL     1     -11.655   4.166  65.344  1.00  0.00     0.000 HD 
HETATM   34  H2  UNL     1     -11.788   5.904  65.938  1.00  0.00     0.000 HD 
ENDBRANCH  26  29
ENDBRANCH  20  22
ENDBRANCH  15  20
ENDBRANCH   2  14
TORSDOF 5
ENDMDL
MODEL      166
REMARK 921   NORMALIZED FREE ENERGY PREDICTED BY IDOCK:   -5.90 KCAL/MOL
REMARK 922        TOTAL FREE ENERGY PREDICTED BY IDOCK:   -8.09 KCAL/MOL
REMARK 923 INTER-LIGAND FREE ENERGY PREDICTED BY IDOCK:   -8.47 KCAL/MOL
REMARK 924 INTRA-LIGAND FREE ENERGY PREDICTED BY IDOCK:    0.38 KCAL/MOL
REMARK 927      BINDING AFFINITY PREDICTED BY RF-SCORE:    0.00 PKD
ROOT
HETATM    1  C   UNL     1     -11.832  12.690  66.952  1.00  0.00    -0.355 C  
HETATM    2  N   UNL     1     -11.783  12.275  68.354  1.00  0.00    -0.323 NA 
ENDROOT
BRANCH   2   3
HETATM    3  C   UNL     1     -11.354  10.941  68.621  1.00  0.00    -0.295 A  
HETATM    4  C   UNL     1     -10.950   9.211  70.443  1.00  0.00    -0.290 A  
HETATM    5  C   UNL     1     -10.258   6.125  70.604  1.00  0.00    -0.250 C  
HETATM    6  C   UNL     1     -11.028  10.046  67.568  1.00  0.00    -0.276 A  
HETATM    7  C   UNL     1     -10.693   8.742  67.977  1.00  0.00    -0.090 A  
HETATM    8  C   UNL     1     -10.677   8.381  69.367  1.00  0.00    -0.162 A  
HETATM    9  C   UNL     1     -10.367   7.044  69.444  1.00  0.00    -0.207 A  
HETATM   10  N   UNL     1     -10.356   7.671  67.240  1.00  0.00    -0.267 NA 
HETATM   11  N   UNL     1     -10.184   6.671  68.133  1.00  0.00    -0.158 NA 
HETATM   12  C   UNL     1      -9.844   5.355  67.641  1.00  0.00    -0.150 C  
HETATM   13  C   UNL     1     -11.284  10.512  70.002  1.00  0.00    -0.386 A  
ENDBRANCH   2   3
BRANCH   2  14
HETATM   14  C   UNL     1     -11.948  13.276  69.336  1.00  0.00    -0.301 A  
HETATM   15  C   UNL     1     -11.543  15.468  70.005  1.00  0.00    -0.341 A  
HETATM   16  N   UNL     1     -12.098  15.293  71.207  1.00  0.00    -0.315 NA 
HETATM   17  C   UNL     1     -12.622  14.079  71.441  1.00  0.00    -0.372 A  
HETATM   18  C   UNL     1     -12.584  13.040  70.540  1.00  0.00    -0.220 A  
HETATM   19  N   UNL     1     -11.443  14.497  69.085  1.00  0.00    -0.276 NA 
BRANCH  15  20
HETATM   20  N   UNL     1     -11.015  16.728  69.729  1.00  0.00    -0.392 NA 
HETATM   21  H   UNL     1     -11.564  17.523  70.056  1.00  0.00     0.000 HD 
BRANCH  20  22
HETATM   22  C   UNL     1      -9.824  17.040  69.060  1.00  0.00    -0.240 A  
HETATM   23  C   UNL     1      -8.765  16.131  69.087  1.00  0.00    -0.235 A  
HETATM   24  C   UNL     1      -7.597  16.370  68.356  1.00  0.00    -0.178 A  
HETATM   25  C   UNL     1      -7.442  17.535  67.582  1.00  0.00    -0.195 A  
HETATM   26  C   UNL     1      -8.491  18.471  67.584  1.00  0.00    -0.263 A  
HETATM   27  C   UNL     1      -6.168  17.713  66.812  1.00  0.00    -0.205 C  
HETATM   28  C   UNL     1      -9.667  18.212  68.309  1.00  0.00    -0.344 A  
BRANCH  26  29
HETATM   29  S   UNL     1      -8.404  20.050  66.748  1.00  0.00    -0.315 S  
HETATM   30  O   UNL     1      -9.603  20.803  67.021  1.00  0.00    -0.400 OA 
HETATM   31  O   UNL     1      -7.942  19.828  65.395  1.00  0.00    -0.319 OA 
HETATM   32  N   UNL     1      -7.144  20.799  67.561  1.00  0.00    -0.347 N  
HETATM   33  H1  UNL     1      -7.095  21.700  67.084  1.00  0.00     0.000 HD 
HETATM   34  H2  UNL     1      -6.575  20.446  68.330  1.00  0.00     0.000 HD 
ENDBRANCH  26  29
ENDBRANCH  20  22
ENDBRANCH  15  20
ENDBRANCH   2  14
TORSDOF 5
ENDMDL
MODEL      167
REMARK 921   NORMALIZED FREE ENERGY PREDICTED BY IDOCK:   -5.89 KCAL/MOL
REMARK 922        TOTAL FREE ENERGY PREDICTED BY IDOCK:   -8.07 KCAL/MOL
REMARK 923 INTER-LIGAND FREE ENERGY PREDICTED BY IDOCK:   -7.30 KCAL/MOL
REMARK 924 INTRA-LIGAND FREE ENERGY PREDICTED BY IDOCK:   -0.77 KCAL/MOL
REMARK 927      BINDING AFFINITY PREDICTED BY RF-SCORE:    0.00 PKD
ROOT
HETATM    1  C   UNL     1     -12.670   7.130  71.943  1.00  0.00    -0.277 C  
HETATM    2  N   UNL     1     -11.718   7.679  70.975  1.00  0.00    -0.287 NA 
ENDROOT
BRANCH   2   3
HETATM    3  C   UNL     1     -10.974   6.744  70.197  1.00  0.00    -0.292 A  
HETATM    4  C   UNL     1     -10.763   5.638  67.915  1.00  0.00    -0.241 A  
HETATM    5  C   UNL     1      -8.693   3.761  66.425  1.00  0.00    -0.118 C  
HETATM    6  C   UNL     1      -9.814   6.110  70.716  1.00  0.00    -0.220 A  
HETATM    7  C   UNL     1      -9.138   5.271  69.811  1.00  0.00    -0.116 A  
HETATM    8  C   UNL     1      -9.624   5.079  68.472  1.00  0.00    -0.200 A  
HETATM    9  C   UNL     1      -8.734   4.257  67.823  1.00  0.00    -0.106 A  
HETATM   10  N   UNL     1      -8.020   4.548  69.980  1.00  0.00    -0.063 NA 
HETATM   11  N   UNL     1      -7.790   3.969  68.781  1.00  0.00    -0.067 NA 
HETATM   12  C   UNL     1      -6.616   3.141  68.625  1.00  0.00    -0.040 C  
HETATM   13  C   UNL     1     -11.418   6.477  68.846  1.00  0.00    -0.150 A  
ENDBRANCH   2   3
BRANCH   2  14
HETATM   14  C   UNL     1     -11.767   9.068  70.730  1.00  0.00    -0.242 A  
HETATM   15  C   UNL     1     -10.799  10.927  69.719  1.00  0.00    -0.187 A  
HETATM   16  N   UNL     1     -11.674  11.781  70.259  1.00  0.00    -0.282 NA 
HETATM   17  C   UNL     1     -12.636  11.235  71.018  1.00  0.00    -0.394 A  
HETATM   18  C   UNL     1     -12.736   9.887  71.278  1.00  0.00    -0.482 A  
HETATM   19  N   UNL     1     -10.813   9.606  69.948  1.00  0.00    -0.243 NA 
BRANCH  15  20
HETATM   20  N   UNL     1      -9.805  11.470  68.907  1.00  0.00    -0.384 NA 
HETATM   21  H   UNL     1      -8.863  11.104  69.049  1.00  0.00     0.000 HD 
BRANCH  20  22
HETATM   22  C   UNL     1      -9.936  12.455  67.919  1.00  0.00    -0.204 A  
HETATM   23  C   UNL     1     -10.496  12.118  66.685  1.00  0.00    -0.248 A  
HETATM   24  C   UNL     1     -10.724  13.094  65.711  1.00  0.00    -0.292 A  
HETATM   25  C   UNL     1     -10.387  14.442  65.931  1.00  0.00    -0.327 A  
HETATM   26  C   UNL     1      -9.787  14.779  67.157  1.00  0.00    -0.232 A  
HETATM   27  C   UNL     1     -10.679  15.435  64.845  1.00  0.00    -0.416 C  
HETATM   28  C   UNL     1      -9.578  13.791  68.135  1.00  0.00    -0.216 A  
BRANCH  26  29
HETATM   29  S   UNL     1      -9.195  16.422  67.547  1.00  0.00    -0.198 S  
HETATM   30  O   UNL     1     -10.319  17.308  67.713  1.00  0.00    -0.326 OA 
HETATM   31  O   UNL     1      -8.105  16.741  66.651  1.00  0.00    -0.207 OA 
HETATM   32  N   UNL     1      -8.511  16.189  69.059  1.00  0.00    -0.244 N  
HETATM   33  H1  UNL     1      -8.174  17.126  69.281  1.00  0.00     0.000 HD 
HETATM   34  H2  UNL     1      -8.448  15.335  69.612  1.00  0.00     0.000 HD 
ENDBRANCH  26  29
ENDBRANCH  20  22
ENDBRANCH  15  20
ENDBRANCH   2  14
TORSDOF 5
ENDMDL
MODEL      168
REMARK 921   NORMALIZED FREE ENERGY PREDICTED BY IDOCK:   -5.89 KCAL/MOL
REMARK 922        TOTAL FREE ENERGY PREDICTED BY IDOCK:   -8.07 KCAL/MOL
REMARK 923 INTER-LIGAND FREE ENERGY PREDICTED BY IDOCK:   -6.84 KCAL/MOL
REMARK 924 INTRA-LIGAND FREE ENERGY PREDICTED BY IDOCK:   -1.23 KCAL/MOL
REMARK 927      BINDING AFFINITY PREDICTED BY RF-SCORE:    0.00 PKD
ROOT
HETATM    1  C   UNL     1      -6.971   6.921  63.920  1.00  0.00    -0.056 C  
HETATM    2  N   UNL     1      -8.023   6.963  64.937  1.00  0.00    -0.122 NA 
ENDROOT
BRANCH   2   3
HETATM    3  C   UNL     1      -8.616   8.232  65.204  1.00  0.00    -0.105 A  
HETATM    4  C   UNL     1      -9.153  10.523  64.234  1.00  0.00    -0.256 A  
HETATM    5  C   UNL     1     -10.832  13.070  65.084  1.00  0.00    -0.320 C  
HETATM    6  C   UNL     1      -9.269   8.497  66.436  1.00  0.00    -0.251 A  
HETATM    7  C   UNL     1      -9.874   9.764  66.531  1.00  0.00    -0.225 A  
HETATM    8  C   UNL     1      -9.801  10.704  65.446  1.00  0.00    -0.325 A  
HETATM    9  C   UNL     1     -10.521  11.815  65.814  1.00  0.00    -0.260 A  
HETATM   10  N   UNL     1     -10.571  10.310  67.540  1.00  0.00    -0.248 NA 
HETATM   11  N   UNL     1     -10.960  11.521  67.083  1.00  0.00    -0.270 NA 
HETATM   12  C   UNL     1     -11.773  12.355  67.938  1.00  0.00    -0.360 C  
HETATM   13  C   UNL     1      -8.559   9.242  64.169  1.00  0.00    -0.207 A  
ENDBRANCH   2   3
BRANCH   2  14
HETATM   14  C   UNL     1      -8.519   5.730  65.412  1.00  0.00    -0.151 A  
HETATM   15  C   UNL     1      -8.676   4.213  67.170  1.00  0.00    -0.110 A  
HETATM   16  N   UNL     1      -9.328   3.304  66.438  1.00  0.00    -0.153 NA 
HETATM   17  C   UNL     1      -9.607   3.658  65.174  1.00  0.00    -0.167 A  
HETATM   18  C   UNL     1      -9.236   4.859  64.614  1.00  0.00    -0.032 A  
HETATM   19  N   UNL     1      -8.257   5.392  66.688  1.00  0.00    -0.108 NA 
BRANCH  15  20
HETATM   20  N   UNL     1      -8.398   3.877  68.493  1.00  0.00    -0.081 NA 
HETATM   21  H   UNL     1      -7.534   3.358  68.650  1.00  0.00     0.000 HD 
BRANCH  20  22
HETATM   22  C   UNL     1      -9.156   4.164  69.637  1.00  0.00    -0.119 A  
HETATM   23  C   UNL     1      -9.162   3.257  70.699  1.00  0.00    -0.207 A  
HETATM   24  C   UNL     1      -9.834   3.553  71.889  1.00  0.00    -0.237 A  
HETATM   25  C   UNL     1     -10.535   4.762  72.054  1.00  0.00    -0.225 A  
HETATM   26  C   UNL     1     -10.563   5.659  70.972  1.00  0.00    -0.249 A  
HETATM   27  C   UNL     1     -11.216   5.015  73.366  1.00  0.00    -0.391 C  
HETATM   28  C   UNL     1      -9.870   5.359  69.787  1.00  0.00    -0.268 A  
BRANCH  26  29
HETATM   29  S   UNL     1     -11.502   7.182  70.979  1.00  0.00    -0.312 S  
HETATM   30  O   UNL     1     -10.855   8.140  71.840  1.00  0.00    -0.239 OA 
HETATM   31  O   UNL     1     -12.904   6.856  71.129  1.00  0.00    -0.354 OA 
HETATM   32  N   UNL     1     -11.307   7.712  69.401  1.00  0.00    -0.428 N  
HETATM   33  H1  UNL     1     -11.842   8.580  69.406  1.00  0.00     0.000 HD 
HETATM   34  H2  UNL     1     -10.788   7.280  68.637  1.00  0.00     0.000 HD 
ENDBRANCH  26  29
ENDBRANCH  20  22
ENDBRANCH  15  20
ENDBRANCH   2  14
TORSDOF 5
ENDMDL
MODEL      169
REMARK 921   NORMALIZED FREE ENERGY PREDICTED BY IDOCK:   -5.88 KCAL/MOL
REMARK 922        TOTAL FREE ENERGY PREDICTED BY IDOCK:   -8.06 KCAL/MOL
REMARK 923 INTER-LIGAND FREE ENERGY PREDICTED BY IDOCK:   -6.79 KCAL/MOL
REMARK 924 INTRA-LIGAND FREE ENERGY PREDICTED BY IDOCK:   -1.26 KCAL/MOL
REMARK 927      BINDING AFFINITY PREDICTED BY RF-SCORE:    0.00 PKD
ROOT
HETATM    1  C   UNL     1     -14.028   9.300  72.309  1.00  0.00    -0.369 C  
HETATM    2  N   UNL     1     -12.737   9.745  71.782  1.00  0.00    -0.400 NA 
ENDROOT
BRANCH   2   3
HETATM    3  C   UNL     1     -11.741   8.745  71.576  1.00  0.00    -0.309 A  
HETATM    4  C   UNL     1      -9.484   7.866  72.355  1.00  0.00    -0.252 A  
HETATM    5  C   UNL     1      -7.673   5.321  71.827  1.00  0.00    -0.109 C  
HETATM    6  C   UNL     1     -11.930   7.699  70.635  1.00  0.00    -0.122 A  
HETATM    7  C   UNL     1     -10.898   6.742  70.593  1.00  0.00    -0.250 A  
HETATM    8  C   UNL     1      -9.745   6.855  71.442  1.00  0.00    -0.177 A  
HETATM    9  C   UNL     1      -8.951   5.758  71.210  1.00  0.00    -0.140 A  
HETATM   10  N   UNL     1     -10.780   5.639  69.836  1.00  0.00    -0.331 NA 
HETATM   11  N   UNL     1      -9.625   5.063  70.234  1.00  0.00    -0.171 NA 
HETATM   12  C   UNL     1      -9.226   3.815  69.622  1.00  0.00    -0.152 C  
HETATM   13  C   UNL     1     -10.537   8.808  72.376  1.00  0.00    -0.214 A  
ENDBRANCH   2   3
BRANCH   2  14
HETATM   14  C   UNL     1     -12.648  11.074  71.314  1.00  0.00    -0.412 A  
HETATM   15  C   UNL     1     -11.793  12.556  69.737  1.00  0.00    -0.310 A  
HETATM   16  N   UNL     1     -12.295  13.631  70.351  1.00  0.00    -0.351 NA 
HETATM   17  C   UNL     1     -13.024  13.392  71.453  1.00  0.00    -0.328 A  
HETATM   18  C   UNL     1     -13.239  12.135  71.971  1.00  0.00    -0.496 A  
HETATM   19  N   UNL     1     -11.936  11.304  70.196  1.00  0.00    -0.340 NA 
BRANCH  15  20
HETATM   20  N   UNL     1     -11.054  12.779  68.576  1.00  0.00    -0.251 NA 
HETATM   21  H   UNL     1     -11.472  13.413  67.896  1.00  0.00     0.000 HD 
BRANCH  20  22
HETATM   22  C   UNL     1      -9.808  12.240  68.227  1.00  0.00    -0.217 A  
HETATM   23  C   UNL     1      -8.645  12.810  68.748  1.00  0.00     0.172 A  
HETATM   24  C   UNL     1      -7.392  12.243  68.492  1.00  0.00    -0.105 A  
HETATM   25  C   UNL     1      -7.258  11.093  67.694  1.00  0.00    -0.094 A  
HETATM   26  C   UNL     1      -8.424  10.539  67.135  1.00  0.00    -0.127 A  
HETATM   27  C   UNL     1      -5.884  10.533  67.479  1.00  0.00    -0.044 C  
HETATM   28  C   UNL     1      -9.678  11.108  67.413  1.00  0.00    -0.191 A  
BRANCH  26  29
HETATM   29  S   UNL     1      -8.413   9.150  66.008  1.00  0.00    -0.137 S  
HETATM   30  O   UNL     1      -8.249   7.929  66.755  1.00  0.00    -0.111 OA 
HETATM   31  O   UNL     1      -7.554   9.474  64.889  1.00  0.00    -0.104 OA 
HETATM   32  N   UNL     1      -9.982   9.174  65.420  1.00  0.00    -0.350 N  
HETATM   33  H1  UNL     1      -9.976   8.382  64.777  1.00  0.00     0.000 HD 
HETATM   34  H2  UNL     1     -10.744   9.813  65.646  1.00  0.00     0.000 HD 
ENDBRANCH  26  29
ENDBRANCH  20  22
ENDBRANCH  15  20
ENDBRANCH   2  14
TORSDOF 5
ENDMDL
MODEL      170
REMARK 921   NORMALIZED FREE ENERGY PREDICTED BY IDOCK:   -5.87 KCAL/MOL
REMARK 922        TOTAL FREE ENERGY PREDICTED BY IDOCK:   -8.05 KCAL/MOL
REMARK 923 INTER-LIGAND FREE ENERGY PREDICTED BY IDOCK:   -8.36 KCAL/MOL
REMARK 924 INTRA-LIGAND FREE ENERGY PREDICTED BY IDOCK:    0.31 KCAL/MOL
REMARK 927      BINDING AFFINITY PREDICTED BY RF-SCORE:    0.00 PKD
ROOT
HETATM    1  C   UNL     1     -11.734  12.612  69.435  1.00  0.00    -0.325 C  
HETATM    2  N   UNL     1     -11.158  11.939  68.270  1.00  0.00    -0.221 NA 
ENDROOT
BRANCH   2   3
HETATM    3  C   UNL     1     -10.876  10.548  68.400  1.00  0.00    -0.240 A  
HETATM    4  C   UNL     1     -10.470   8.651  70.047  1.00  0.00    -0.229 A  
HETATM    5  C   UNL     1     -10.173   5.500  69.936  1.00  0.00    -0.338 C  
HETATM    6  C   UNL     1     -10.808   9.700  67.262  1.00  0.00    -0.212 A  
HETATM    7  C   UNL     1     -10.598   8.338  67.546  1.00  0.00    -0.221 A  
HETATM    8  C   UNL     1     -10.449   7.876  68.899  1.00  0.00    -0.205 A  
HETATM    9  C   UNL     1     -10.310   6.509  68.856  1.00  0.00    -0.196 A  
HETATM   10  N   UNL     1     -10.501   7.291  66.711  1.00  0.00    -0.275 NA 
HETATM   11  N   UNL     1     -10.348   6.214  67.513  1.00  0.00    -0.179 NA 
HETATM   12  C   UNL     1     -10.249   4.907  66.905  1.00  0.00    -0.211 C  
HETATM   13  C   UNL     1     -10.686  10.012  69.731  1.00  0.00    -0.304 A  
ENDBRANCH   2   3
BRANCH   2  14
HETATM   14  C   UNL     1     -11.131  12.654  67.053  1.00  0.00    -0.281 A  
HETATM   15  C   UNL     1     -10.088  14.261  65.732  1.00  0.00    -0.335 A  
HETATM   16  N   UNL     1     -11.016  14.198  64.774  1.00  0.00    -0.391 NA 
HETATM   17  C   UNL     1     -11.997  13.301  64.964  1.00  0.00    -0.371 A  
HETATM   18  C   UNL     1     -12.097  12.499  66.078  1.00  0.00    -0.390 A  
HETATM   19  N   UNL     1     -10.131  13.533  66.858  1.00  0.00    -0.251 NA 
BRANCH  15  20
HETATM   20  N   UNL     1      -9.046  15.167  65.544  1.00  0.00    -0.214 NA 
HETATM   21  H   UNL     1      -8.530  15.079  64.669  1.00  0.00     0.000 HD 
BRANCH  20  22
HETATM   22  C   UNL     1      -8.616  16.184  66.408  1.00  0.00    -0.330 A  
HETATM   23  C   UNL     1      -8.277  15.867  67.725  1.00  0.00    -0.157 A  
HETATM   24  C   UNL     1      -7.760  16.840  68.586  1.00  0.00    -0.232 A  
HETATM   25  C   UNL     1      -7.577  18.169  68.164  1.00  0.00    -0.269 A  
HETATM   26  C   UNL     1      -7.954  18.501  66.851  1.00  0.00    -0.239 A  
HETATM   27  C   UNL     1      -7.000  19.152  69.139  1.00  0.00    -0.361 C  
HETATM   28  C   UNL     1      -8.456  17.511  65.989  1.00  0.00    -0.099 A  
BRANCH  26  29
HETATM   29  S   UNL     1      -7.892  20.166  66.198  1.00  0.00    -0.181 S  
HETATM   30  O   UNL     1      -7.002  20.203  65.066  1.00  0.00    -0.291 OA 
HETATM   31  O   UNL     1      -7.749  21.087  67.305  1.00  0.00    -0.313 OA 
HETATM   32  N   UNL     1      -9.452  20.364  65.618  1.00  0.00    -0.497 N  
HETATM   33  H1  UNL     1      -9.417  21.313  65.247  1.00  0.00     0.000 HD 
HETATM   34  H2  UNL     1     -10.232  19.707  65.634  1.00  0.00     0.000 HD 
ENDBRANCH  26  29
ENDBRANCH  20  22
ENDBRANCH  15  20
ENDBRANCH   2  14
TORSDOF 5
ENDMDL
MODEL      171
REMARK 921   NORMALIZED FREE ENERGY PREDICTED BY IDOCK:   -5.87 KCAL/MOL
REMARK 922        TOTAL FREE ENERGY PREDICTED BY IDOCK:   -8.05 KCAL/MOL
REMARK 923 INTER-LIGAND FREE ENERGY PREDICTED BY IDOCK:   -7.40 KCAL/MOL
REMARK 924 INTRA-LIGAND FREE ENERGY PREDICTED BY IDOCK:   -0.65 KCAL/MOL
REMARK 927      BINDING AFFINITY PREDICTED BY RF-SCORE:    0.00 PKD
ROOT
HETATM    1  C   UNL     1     -11.659  12.951  65.894  1.00  0.00    -0.377 C  
HETATM    2  N   UNL     1     -10.306  13.431  66.175  1.00  0.00    -0.289 NA 
ENDROOT
BRANCH   2   3
HETATM    3  C   UNL     1     -10.162  14.812  66.500  1.00  0.00    -0.276 A  
HETATM    4  C   UNL     1     -10.948  16.680  68.040  1.00  0.00    -0.311 A  
HETATM    5  C   UNL     1     -10.122  19.671  68.672  1.00  0.00    -0.547 C  
HETATM    6  C   UNL     1      -9.205  15.629  65.843  1.00  0.00    -0.330 A  
HETATM    7  C   UNL     1      -9.123  16.951  66.318  1.00  0.00    -0.267 A  
HETATM    8  C   UNL     1      -9.972  17.412  67.381  1.00  0.00    -0.305 A  
HETATM    9  C   UNL     1      -9.625  18.714  67.653  1.00  0.00    -0.300 A  
HETATM   10  N   UNL     1      -8.323  17.956  65.927  1.00  0.00    -0.526 NA 
HETATM   11  N   UNL     1      -8.627  18.986  66.746  1.00  0.00    -0.292 NA 
HETATM   12  C   UNL     1      -7.899  20.226  66.601  1.00  0.00    -0.259 C  
HETATM   13  C   UNL     1     -11.005  15.358  67.543  1.00  0.00    -0.315 A  
ENDBRANCH   2   3
BRANCH   2  14
HETATM   14  C   UNL     1      -9.289  12.463  66.320  1.00  0.00    -0.189 A  
HETATM   15  C   UNL     1      -8.585  10.273  65.965  1.00  0.00    -0.145 A  
HETATM   16  N   UNL     1      -7.439  10.444  66.629  1.00  0.00    -0.109 NA 
HETATM   17  C   UNL     1      -7.216  11.678  67.108  1.00  0.00    -0.145 A  
HETATM   18  C   UNL     1      -8.100  12.724  66.974  1.00  0.00    -0.072 A  
HETATM   19  N   UNL     1      -9.508  11.235  65.816  1.00  0.00    -0.221 NA 
BRANCH  15  20
HETATM   20  N   UNL     1      -8.827   9.006  65.436  1.00  0.00    -0.189 NA 
HETATM   21  H   UNL     1      -8.829   8.940  64.419  1.00  0.00     0.000 HD 
BRANCH  20  22
HETATM   22  C   UNL     1      -9.068   7.811  66.128  1.00  0.00    -0.153 A  
HETATM   23  C   UNL     1      -8.813   6.592  65.498  1.00  0.00    -0.009 A  
HETATM   24  C   UNL     1      -8.957   5.384  66.189  1.00  0.00    -0.142 A  
HETATM   25  C   UNL     1      -9.373   5.354  67.532  1.00  0.00    -0.119 A  
HETATM   26  C   UNL     1      -9.668   6.578  68.158  1.00  0.00    -0.126 A  
HETATM   27  C   UNL     1      -9.487   4.022  68.212  1.00  0.00    -0.216 C  
HETATM   28  C   UNL     1      -9.504   7.786  67.459  1.00  0.00    -0.170 A  
BRANCH  26  29
HETATM   29  S   UNL     1     -10.319   6.704  69.820  1.00  0.00    -0.205 S  
HETATM   30  O   UNL     1      -9.299   6.317  70.763  1.00  0.00    -0.157 OA 
HETATM   31  O   UNL     1     -11.637   6.108  69.843  1.00  0.00    -0.404 OA 
HETATM   32  N   UNL     1     -10.545   8.357  69.975  1.00  0.00    -0.232 N  
HETATM   33  H1  UNL     1     -10.916   8.429  70.922  1.00  0.00     0.000 HD 
HETATM   34  H2  UNL     1     -10.361   9.098  69.298  1.00  0.00     0.000 HD 
ENDBRANCH  26  29
ENDBRANCH  20  22
ENDBRANCH  15  20
ENDBRANCH   2  14
TORSDOF 5
ENDMDL
MODEL      172
REMARK 921   NORMALIZED FREE ENERGY PREDICTED BY IDOCK:   -5.86 KCAL/MOL
REMARK 922        TOTAL FREE ENERGY PREDICTED BY IDOCK:   -8.04 KCAL/MOL
REMARK 923 INTER-LIGAND FREE ENERGY PREDICTED BY IDOCK:   -7.48 KCAL/MOL
REMARK 924 INTRA-LIGAND FREE ENERGY PREDICTED BY IDOCK:   -0.56 KCAL/MOL
REMARK 927      BINDING AFFINITY PREDICTED BY RF-SCORE:    0.00 PKD
ROOT
HETATM    1  C   UNL     1      -8.399   9.395  69.658  1.00  0.00    -0.147 C  
HETATM    2  N   UNL     1      -9.496   8.682  70.313  1.00  0.00    -0.162 NA 
ENDROOT
BRANCH   2   3
HETATM    3  C   UNL     1      -9.240   7.343  70.733  1.00  0.00    -0.159 A  
HETATM    4  C   UNL     1      -8.122   5.895  72.502  1.00  0.00    -0.106 A  
HETATM    5  C   UNL     1      -8.042   2.827  73.282  1.00  0.00    -0.060 C  
HETATM    6  C   UNL     1      -9.794   6.234  70.040  1.00  0.00    -0.200 A  
HETATM    7  C   UNL     1      -9.519   4.978  70.611  1.00  0.00    -0.169 A  
HETATM    8  C   UNL     1      -8.719   4.861  71.798  1.00  0.00    -0.137 A  
HETATM    9  C   UNL     1      -8.673   3.529  72.136  1.00  0.00    -0.087 A  
HETATM   10  N   UNL     1      -9.901   3.753  70.215  1.00  0.00    -0.145 NA 
HETATM   11  N   UNL     1      -9.401   2.911  71.147  1.00  0.00    -0.129 NA 
HETATM   12  C   UNL     1      -9.676   1.498  71.022  1.00  0.00    -0.104 C  
HETATM   13  C   UNL     1      -8.418   7.143  71.907  1.00  0.00    -0.112 A  
ENDBRANCH   2   3
BRANCH   2  14
HETATM   14  C   UNL     1     -10.636   9.432  70.675  1.00  0.00    -0.290 A  
HETATM   15  C   UNL     1     -11.801  11.442  70.532  1.00  0.00    -0.297 A  
HETATM   16  N   UNL     1     -12.750  11.049  71.387  1.00  0.00    -0.423 NA 
HETATM   17  C   UNL     1     -12.639   9.795  71.854  1.00  0.00    -0.391 A  
HETATM   18  C   UNL     1     -11.610   8.943  71.524  1.00  0.00    -0.388 A  
HETATM   19  N   UNL     1     -10.754  10.680  70.184  1.00  0.00    -0.181 NA 
BRANCH  15  20
HETATM   20  N   UNL     1     -11.910  12.731  70.016  1.00  0.00    -0.479 NA 
HETATM   21  H   UNL     1     -12.385  13.411  70.609  1.00  0.00     0.000 HD 
BRANCH  20  22
HETATM   22  C   UNL     1     -11.449  13.212  68.782  1.00  0.00    -0.307 A  
HETATM   23  C   UNL     1     -11.661  12.453  67.630  1.00  0.00    -0.421 A  
HETATM   24  C   UNL     1     -11.294  12.943  66.372  1.00  0.00    -0.361 A  
HETATM   25  C   UNL     1     -10.690  14.205  66.225  1.00  0.00    -0.293 A  
HETATM   26  C   UNL     1     -10.440  14.954  67.388  1.00  0.00    -0.255 A  
HETATM   27  C   UNL     1     -10.342  14.669  64.842  1.00  0.00    -0.382 C  
HETATM   28  C   UNL     1     -10.828  14.459  68.644  1.00  0.00    -0.260 A  
BRANCH  26  29
HETATM   29  S   UNL     1      -9.577  16.522  67.383  1.00  0.00    -0.241 S  
HETATM   30  O   UNL     1     -10.499  17.574  67.036  1.00  0.00    -0.328 OA 
HETATM   31  O   UNL     1      -8.322  16.353  66.682  1.00  0.00    -0.210 OA 
HETATM   32  N   UNL     1      -9.191  16.705  69.003  1.00  0.00    -0.252 N  
HETATM   33  H1  UNL     1      -8.699  17.599  69.001  1.00  0.00     0.000 HD 
HETATM   34  H2  UNL     1      -9.395  16.085  69.787  1.00  0.00     0.000 HD 
ENDBRANCH  26  29
ENDBRANCH  20  22
ENDBRANCH  15  20
ENDBRANCH   2  14
TORSDOF 5
ENDMDL
MODEL      173
REMARK 921   NORMALIZED FREE ENERGY PREDICTED BY IDOCK:   -5.86 KCAL/MOL
REMARK 922        TOTAL FREE ENERGY PREDICTED BY IDOCK:   -8.03 KCAL/MOL
REMARK 923 INTER-LIGAND FREE ENERGY PREDICTED BY IDOCK:   -7.46 KCAL/MOL
REMARK 924 INTRA-LIGAND FREE ENERGY PREDICTED BY IDOCK:   -0.57 KCAL/MOL
REMARK 927      BINDING AFFINITY PREDICTED BY RF-SCORE:    0.00 PKD
ROOT
HETATM    1  C   UNL     1      -9.485  10.966  63.633  1.00  0.00    -0.285 C  
HETATM    2  N   UNL     1     -10.192  10.860  64.910  1.00  0.00    -0.300 NA 
ENDROOT
BRANCH   2   3
HETATM    3  C   UNL     1      -9.843   9.766  65.756  1.00  0.00    -0.290 A  
HETATM    4  C   UNL     1     -10.455   8.497  67.875  1.00  0.00    -0.262 A  
HETATM    5  C   UNL     1      -9.581   5.813  69.310  1.00  0.00    -0.176 C  
HETATM    6  C   UNL     1      -8.788   8.878  65.416  1.00  0.00    -0.234 A  
HETATM    7  C   UNL     1      -8.606   7.801  66.304  1.00  0.00    -0.150 A  
HETATM    8  C   UNL     1      -9.435   7.651  67.468  1.00  0.00    -0.168 A  
HETATM    9  C   UNL     1      -9.053   6.492  68.101  1.00  0.00    -0.114 A  
HETATM   10  N   UNL     1      -7.720   6.794  66.262  1.00  0.00    -0.096 NA 
HETATM   11  N   UNL     1      -8.017   6.020  67.329  1.00  0.00    -0.102 NA 
HETATM   12  C   UNL     1      -7.250   4.814  67.546  1.00  0.00    -0.070 C  
HETATM   13  C   UNL     1     -10.615   9.565  66.963  1.00  0.00    -0.271 A  
ENDBRANCH   2   3
BRANCH   2  14
HETATM   14  C   UNL     1     -10.993  11.954  65.303  1.00  0.00    -0.302 A  
HETATM   15  C   UNL     1     -11.377  13.671  66.827  1.00  0.00    -0.328 A  
HETATM   16  N   UNL     1     -12.524  14.040  66.249  1.00  0.00    -0.454 NA 
HETATM   17  C   UNL     1     -12.873  13.359  65.147  1.00  0.00    -0.316 A  
HETATM   18  C   UNL     1     -12.141  12.316  64.626  1.00  0.00    -0.449 A  
HETATM   19  N   UNL     1     -10.624  12.648  66.395  1.00  0.00    -0.248 NA 
BRANCH  15  20
HETATM   20  N   UNL     1     -10.981  14.381  67.959  1.00  0.00    -0.252 NA 
HETATM   21  H   UNL     1     -11.265  13.985  68.855  1.00  0.00     0.000 HD 
BRANCH  20  22
HETATM   22  C   UNL     1     -10.243  15.571  68.020  1.00  0.00    -0.229 A  
HETATM   23  C   UNL     1     -10.893  16.791  67.829  1.00  0.00    -0.285 A  
HETATM   24  C   UNL     1     -10.205  18.000  67.973  1.00  0.00    -0.390 A  
HETATM   25  C   UNL     1      -8.837  18.030  68.300  1.00  0.00    -0.291 A  
HETATM   26  C   UNL     1      -8.170  16.802  68.455  1.00  0.00    -0.224 A  
HETATM   27  C   UNL     1      -8.172  19.365  68.455  1.00  0.00    -0.382 C  
HETATM   28  C   UNL     1      -8.876  15.594  68.324  1.00  0.00    -0.180 A  
BRANCH  26  29
HETATM   29  S   UNL     1      -6.412  16.667  68.756  1.00  0.00    -0.169 S  
HETATM   30  O   UNL     1      -6.096  17.273  70.025  1.00  0.00    -0.235 OA 
HETATM   31  O   UNL     1      -5.709  17.035  67.545  1.00  0.00    -0.121 OA 
HETATM   32  N   UNL     1      -6.220  15.011  68.928  1.00  0.00    -0.088 N  
HETATM   33  H1  UNL     1      -5.218  14.934  69.100  1.00  0.00     0.000 HD 
HETATM   34  H2  UNL     1      -6.922  14.273  68.874  1.00  0.00     0.000 HD 
ENDBRANCH  26  29
ENDBRANCH  20  22
ENDBRANCH  15  20
ENDBRANCH   2  14
TORSDOF 5
ENDMDL
MODEL      174
REMARK 921   NORMALIZED FREE ENERGY PREDICTED BY IDOCK:   -5.85 KCAL/MOL
REMARK 922        TOTAL FREE ENERGY PREDICTED BY IDOCK:   -8.02 KCAL/MOL
REMARK 923 INTER-LIGAND FREE ENERGY PREDICTED BY IDOCK:   -7.05 KCAL/MOL
REMARK 924 INTRA-LIGAND FREE ENERGY PREDICTED BY IDOCK:   -0.97 KCAL/MOL
REMARK 927      BINDING AFFINITY PREDICTED BY RF-SCORE:    0.00 PKD
ROOT
HETATM    1  C   UNL     1     -11.902  15.404  69.194  1.00  0.00    -0.335 C  
HETATM    2  N   UNL     1     -11.122  15.366  67.956  1.00  0.00    -0.301 NA 
ENDROOT
BRANCH   2   3
HETATM    3  C   UNL     1     -10.032  16.278  67.848  1.00  0.00    -0.241 A  
HETATM    4  C   UNL     1      -7.806  16.989  68.858  1.00  0.00    -0.224 A  
HETATM    5  C   UNL     1      -5.434  18.948  68.106  1.00  0.00    -0.182 C  
HETATM    6  C   UNL     1      -9.951  17.209  66.779  1.00  0.00    -0.291 A  
HETATM    7  C   UNL     1      -8.783  17.994  66.759  1.00  0.00    -0.255 A  
HETATM    8  C   UNL     1      -7.774  17.850  67.771  1.00  0.00    -0.220 A  
HETATM    9  C   UNL     1      -6.746  18.705  67.455  1.00  0.00    -0.199 A  
HETATM   10  N   UNL     1      -8.399  18.940  65.887  1.00  0.00    -0.463 NA 
HETATM   11  N   UNL     1      -7.179  19.335  66.312  1.00  0.00    -0.238 NA 
HETATM   12  C   UNL     1      -6.471  20.339  65.550  1.00  0.00    -0.251 C  
HETATM   13  C   UNL     1      -8.988  16.214  68.849  1.00  0.00    -0.247 A  
ENDBRANCH   2   3
BRANCH   2  14
HETATM   14  C   UNL     1     -11.363  14.296  67.067  1.00  0.00    -0.341 A  
HETATM   15  C   UNL     1     -10.637  12.275  66.170  1.00  0.00    -0.249 A  
HETATM   16  N   UNL     1     -11.649  12.201  65.301  1.00  0.00    -0.342 NA 
HETATM   17  C   UNL     1     -12.551  13.192  65.363  1.00  0.00    -0.454 A  
HETATM   18  C   UNL     1     -12.463  14.256  66.231  1.00  0.00    -0.329 A  
HETATM   19  N   UNL     1     -10.468  13.292  67.027  1.00  0.00    -0.248 NA 
BRANCH  15  20
HETATM   20  N   UNL     1      -9.701  11.243  66.141  1.00  0.00    -0.212 NA 
HETATM   21  H   UNL     1      -9.733  10.634  65.323  1.00  0.00     0.000 HD 
BRANCH  20  22
HETATM   22  C   UNL     1      -8.721  10.935  67.095  1.00  0.00    -0.132 A  
HETATM   23  C   UNL     1      -7.499  11.610  67.063  1.00  0.00    -0.150 A  
HETATM   24  C   UNL     1      -6.535  11.393  68.052  1.00  0.00    -0.057 A  
HETATM   25  C   UNL     1      -6.754  10.482  69.101  1.00  0.00    -0.069 A  
HETATM   26  C   UNL     1      -7.967   9.772  69.114  1.00  0.00    -0.104 A  
HETATM   27  C   UNL     1      -5.680  10.316  70.135  1.00  0.00    -0.058 C  
HETATM   28  C   UNL     1      -8.936  10.011  68.124  1.00  0.00    -0.122 A  
BRANCH  26  29
HETATM   29  S   UNL     1      -8.351   8.498  70.310  1.00  0.00    -0.133 S  
HETATM   30  O   UNL     1      -8.557   9.101  71.603  1.00  0.00    -0.342 OA 
HETATM   31  O   UNL     1      -7.424   7.401  70.125  1.00  0.00    -0.083 OA 
HETATM   32  N   UNL     1      -9.840   7.955  69.766  1.00  0.00    -0.177 N  
HETATM   33  H1  UNL     1     -10.058   7.228  70.448  1.00  0.00     0.000 HD 
HETATM   34  H2  UNL     1     -10.385   8.268  68.963  1.00  0.00     0.000 HD 
ENDBRANCH  26  29
ENDBRANCH  20  22
ENDBRANCH  15  20
ENDBRANCH   2  14
TORSDOF 5
ENDMDL
MODEL      175
REMARK 921   NORMALIZED FREE ENERGY PREDICTED BY IDOCK:   -5.84 KCAL/MOL
REMARK 922        TOTAL FREE ENERGY PREDICTED BY IDOCK:   -8.02 KCAL/MOL
REMARK 923 INTER-LIGAND FREE ENERGY PREDICTED BY IDOCK:   -7.42 KCAL/MOL
REMARK 924 INTRA-LIGAND FREE ENERGY PREDICTED BY IDOCK:   -0.59 KCAL/MOL
REMARK 927      BINDING AFFINITY PREDICTED BY RF-SCORE:    0.00 PKD
ROOT
HETATM    1  C   UNL     1     -12.354  13.307  67.020  1.00  0.00    -0.132 C  
HETATM    2  N   UNL     1     -11.503  13.414  68.206  1.00  0.00    -0.293 NA 
ENDROOT
BRANCH   2   3
HETATM    3  C   UNL     1     -10.472  14.398  68.177  1.00  0.00    -0.237 A  
HETATM    4  C   UNL     1      -8.054  14.860  67.529  1.00  0.00    -0.200 A  
HETATM    5  C   UNL     1      -6.142  17.377  67.332  1.00  0.00    -0.162 C  
HETATM    6  C   UNL     1     -10.717  15.736  68.584  1.00  0.00    -0.263 A  
HETATM    7  C   UNL     1      -9.628  16.615  68.430  1.00  0.00    -0.233 A  
HETATM    8  C   UNL     1      -8.370  16.154  67.912  1.00  0.00    -0.165 A  
HETATM    9  C   UNL     1      -7.533  17.241  67.833  1.00  0.00    -0.182 A  
HETATM   10  N   UNL     1      -9.538  17.926  68.703  1.00  0.00    -0.327 NA 
HETATM   11  N   UNL     1      -8.290  18.279  68.324  1.00  0.00    -0.294 NA 
HETATM   12  C   UNL     1      -7.889  19.661  68.459  1.00  0.00    -0.323 C  
HETATM   13  C   UNL     1      -9.167  14.003  67.692  1.00  0.00    -0.194 A  
ENDBRANCH   2   3
BRANCH   2  14
HETATM   14  C   UNL     1     -11.899  12.700  69.358  1.00  0.00    -0.296 A  
HETATM   15  C   UNL     1     -12.280  10.638  70.366  1.00  0.00    -0.345 A  
HETATM   16  N   UNL     1     -12.751  11.180  71.492  1.00  0.00    -0.407 NA 
HETATM   17  C   UNL     1     -12.748  12.522  71.544  1.00  0.00    -0.220 A  
HETATM   18  C   UNL     1     -12.325  13.328  70.512  1.00  0.00    -0.389 A  
HETATM   19  N   UNL     1     -11.876  11.356  69.308  1.00  0.00    -0.325 NA 
BRANCH  15  20
HETATM   20  N   UNL     1     -12.249   9.246  70.299  1.00  0.00    -0.432 NA 
HETATM   21  H   UNL     1     -13.153   8.784  70.202  1.00  0.00     0.000 HD 
BRANCH  20  22
HETATM   22  C   UNL     1     -11.132   8.401  70.349  1.00  0.00    -0.231 A  
HETATM   23  C   UNL     1     -10.875   7.542  69.279  1.00  0.00    -0.131 A  
HETATM   24  C   UNL     1      -9.721   6.751  69.256  1.00  0.00    -0.153 A  
HETATM   25  C   UNL     1      -8.791   6.783  70.311  1.00  0.00    -0.152 A  
HETATM   26  C   UNL     1      -9.067   7.617  71.408  1.00  0.00    -0.133 A  
HETATM   27  C   UNL     1      -7.568   5.920  70.207  1.00  0.00    -0.094 C  
HETATM   28  C   UNL     1     -10.221   8.419  71.412  1.00  0.00    -0.284 A  
BRANCH  26  29
HETATM   29  S   UNL     1      -8.047   7.684  72.877  1.00  0.00    -0.126 S  
HETATM   30  O   UNL     1      -7.062   8.726  72.728  1.00  0.00    -0.319 OA 
HETATM   31  O   UNL     1      -7.672   6.334  73.237  1.00  0.00    -0.098 OA 
HETATM   32  N   UNL     1      -9.146   8.194  74.034  1.00  0.00    -0.281 N  
HETATM   33  H1  UNL     1      -8.565   8.233  74.871  1.00  0.00     0.000 HD 
HETATM   34  H2  UNL     1     -10.138   8.409  73.929  1.00  0.00     0.000 HD 
ENDBRANCH  26  29
ENDBRANCH  20  22
ENDBRANCH  15  20
ENDBRANCH   2  14
TORSDOF 5
ENDMDL
MODEL      176
REMARK 921   NORMALIZED FREE ENERGY PREDICTED BY IDOCK:   -5.80 KCAL/MOL
REMARK 922        TOTAL FREE ENERGY PREDICTED BY IDOCK:   -7.96 KCAL/MOL
REMARK 923 INTER-LIGAND FREE ENERGY PREDICTED BY IDOCK:   -7.73 KCAL/MOL
REMARK 924 INTRA-LIGAND FREE ENERGY PREDICTED BY IDOCK:   -0.23 KCAL/MOL
REMARK 927      BINDING AFFINITY PREDICTED BY RF-SCORE:    0.00 PKD
ROOT
HETATM    1  C   UNL     1     -11.620  12.914  65.793  1.00  0.00    -0.368 C  
HETATM    2  N   UNL     1     -10.265  13.230  66.247  1.00  0.00    -0.289 NA 
ENDROOT
BRANCH   2   3
HETATM    3  C   UNL     1      -9.943  14.608  66.418  1.00  0.00    -0.283 A  
HETATM    4  C   UNL     1     -10.304  16.957  65.508  1.00  0.00    -0.196 A  
HETATM    5  C   UNL     1      -9.631  19.922  66.396  1.00  0.00    -0.537 C  
HETATM    6  C   UNL     1      -9.157  15.052  67.514  1.00  0.00    -0.189 A  
HETATM    7  C   UNL     1      -8.983  16.446  67.597  1.00  0.00    -0.196 A  
HETATM    8  C   UNL     1      -9.558  17.325  66.617  1.00  0.00    -0.286 A  
HETATM    9  C   UNL     1      -9.261  18.614  66.993  1.00  0.00    -0.291 A  
HETATM   10  N   UNL     1      -8.317  17.176  68.506  1.00  0.00    -0.254 NA 
HETATM   11  N   UNL     1      -8.512  18.461  68.136  1.00  0.00    -0.277 NA 
HETATM   12  C   UNL     1      -7.941  19.510  68.949  1.00  0.00    -0.294 C  
HETATM   13  C   UNL     1     -10.464  15.554  65.454  1.00  0.00    -0.429 A  
ENDBRANCH   2   3
BRANCH   2  14
HETATM   14  C   UNL     1      -9.460  12.157  66.689  1.00  0.00    -0.223 A  
HETATM   15  C   UNL     1      -9.274   9.877  67.117  1.00  0.00    -0.138 A  
HETATM   16  N   UNL     1      -8.044   9.987  67.627  1.00  0.00    -0.109 NA 
HETATM   17  C   UNL     1      -7.514  11.220  67.620  1.00  0.00    -0.101 A  
HETATM   18  C   UNL     1      -8.172  12.336  67.155  1.00  0.00    -0.179 A  
HETATM   19  N   UNL     1      -9.989  10.920  66.670  1.00  0.00    -0.201 NA 
BRANCH  15  20
HETATM   20  N   UNL     1      -9.836   8.602  67.091  1.00  0.00    -0.187 NA 
HETATM   21  H   UNL     1     -10.062   8.233  66.167  1.00  0.00     0.000 HD 
BRANCH  20  22
HETATM   22  C   UNL     1     -10.129   7.762  68.175  1.00  0.00    -0.185 A  
HETATM   23  C   UNL     1      -9.774   6.414  68.112  1.00  0.00    -0.122 A  
HETATM   24  C   UNL     1      -9.970   5.569  69.209  1.00  0.00    -0.263 A  
HETATM   25  C   UNL     1     -10.541   6.042  70.405  1.00  0.00    -0.332 A  
HETATM   26  C   UNL     1     -10.936   7.391  70.457  1.00  0.00    -0.253 A  
HETATM   27  C   UNL     1     -10.703   5.081  71.545  1.00  0.00    -0.114 C  
HETATM   28  C   UNL     1     -10.719   8.234  69.354  1.00  0.00    -0.160 A  
BRANCH  26  29
HETATM   29  S   UNL     1     -11.781   8.116  71.858  1.00  0.00    -0.334 S  
HETATM   30  O   UNL     1     -10.869   8.211  72.970  1.00  0.00    -0.331 OA 
HETATM   31  O   UNL     1     -13.075   7.483  71.992  1.00  0.00    -0.259 OA 
HETATM   32  N   UNL     1     -12.071   9.674  71.313  1.00  0.00    -0.345 N  
HETATM   33  H1  UNL     1     -12.553  10.088  72.111  1.00  0.00     0.000 HD 
HETATM   34  H2  UNL     1     -11.830  10.098  70.417  1.00  0.00     0.000 HD 
ENDBRANCH  26  29
ENDBRANCH  20  22
ENDBRANCH  15  20
ENDBRANCH   2  14
TORSDOF 5
ENDMDL
MODEL      177
REMARK 921   NORMALIZED FREE ENERGY PREDICTED BY IDOCK:   -5.77 KCAL/MOL
REMARK 922        TOTAL FREE ENERGY PREDICTED BY IDOCK:   -7.92 KCAL/MOL
REMARK 923 INTER-LIGAND FREE ENERGY PREDICTED BY IDOCK:   -7.22 KCAL/MOL
REMARK 924 INTRA-LIGAND FREE ENERGY PREDICTED BY IDOCK:   -0.70 KCAL/MOL
REMARK 927      BINDING AFFINITY PREDICTED BY RF-SCORE:    0.00 PKD
ROOT
HETATM    1  C   UNL     1     -12.253  11.654  70.822  1.00  0.00    -0.344 C  
HETATM    2  N   UNL     1     -11.844  10.486  70.042  1.00  0.00    -0.294 NA 
ENDROOT
BRANCH   2   3
HETATM    3  C   UNL     1     -11.522  10.702  68.670  1.00  0.00    -0.263 A  
HETATM    4  C   UNL     1     -11.612  12.370  66.750  1.00  0.00    -0.444 A  
HETATM    5  C   UNL     1     -10.457  12.592  63.809  1.00  0.00    -0.451 C  
HETATM    6  C   UNL     1     -10.816   9.728  67.916  1.00  0.00    -0.298 A  
HETATM    7  C   UNL     1     -10.500  10.109  66.598  1.00  0.00    -0.185 A  
HETATM    8  C   UNL     1     -10.894  11.391  66.081  1.00  0.00    -0.310 A  
HETATM    9  C   UNL     1     -10.404  11.489  64.801  1.00  0.00    -0.289 A  
HETATM   10  N   UNL     1      -9.838   9.435  65.644  1.00  0.00    -0.286 NA 
HETATM   11  N   UNL     1      -9.778  10.282  64.593  1.00  0.00    -0.317 NA 
HETATM   12  C   UNL     1      -9.083   9.856  63.399  1.00  0.00    -0.261 C  
HETATM   13  C   UNL     1     -11.911  11.960  68.069  1.00  0.00    -0.323 A  
ENDBRANCH   2   3
BRANCH   2  14
HETATM   14  C   UNL     1     -11.589   9.289  70.747  1.00  0.00    -0.285 A  
HETATM   15  C   UNL     1     -10.919   7.062  70.674  1.00  0.00    -0.260 A  
HETATM   16  N   UNL     1     -11.157   6.860  71.973  1.00  0.00    -0.238 NA 
HETATM   17  C   UNL     1     -11.583   7.928  72.665  1.00  0.00    -0.377 A  
HETATM   18  C   UNL     1     -11.806   9.165  72.106  1.00  0.00    -0.333 A  
HETATM   19  N   UNL     1     -11.138   8.229  70.052  1.00  0.00    -0.200 NA 
BRANCH  15  20
HETATM   20  N   UNL     1     -10.451   5.973  69.940  1.00  0.00    -0.224 NA 
HETATM   21  H   UNL     1     -10.613   5.054  70.352  1.00  0.00     0.000 HD 
BRANCH  20  22
HETATM   22  C   UNL     1      -9.785   5.982  68.707  1.00  0.00    -0.131 A  
HETATM   23  C   UNL     1     -10.368   5.347  67.609  1.00  0.00    -0.235 A  
HETATM   24  C   UNL     1      -9.776   5.414  66.344  1.00  0.00    -0.183 A  
HETATM   25  C   UNL     1      -8.570   6.108  66.136  1.00  0.00    -0.141 A  
HETATM   26  C   UNL     1      -7.960   6.716  67.247  1.00  0.00    -0.117 A  
HETATM   27  C   UNL     1      -8.004   6.150  64.747  1.00  0.00    -0.124 C  
HETATM   28  C   UNL     1      -8.573   6.656  68.510  1.00  0.00    -0.124 A  
BRANCH  26  29
HETATM   29  S   UNL     1      -6.371   7.535  67.173  1.00  0.00    -0.054 S  
HETATM   30  O   UNL     1      -5.454   6.732  66.405  1.00  0.00    -0.017 OA 
HETATM   31  O   UNL     1      -6.036   8.008  68.499  1.00  0.00    -0.038 OA 
HETATM   32  N   UNL     1      -6.730   8.897  66.264  1.00  0.00    -0.073 N  
HETATM   33  H1  UNL     1      -5.824   9.364  66.222  1.00  0.00     0.000 HD 
HETATM   34  H2  UNL     1      -7.621   9.183  65.859  1.00  0.00     0.000 HD 
ENDBRANCH  26  29
ENDBRANCH  20  22
ENDBRANCH  15  20
ENDBRANCH   2  14
TORSDOF 5
ENDMDL
MODEL      178
REMARK 921   NORMALIZED FREE ENERGY PREDICTED BY IDOCK:   -5.73 KCAL/MOL
REMARK 922        TOTAL FREE ENERGY PREDICTED BY IDOCK:   -7.87 KCAL/MOL
REMARK 923 INTER-LIGAND FREE ENERGY PREDICTED BY IDOCK:   -7.39 KCAL/MOL
REMARK 924 INTRA-LIGAND FREE ENERGY PREDICTED BY IDOCK:   -0.48 KCAL/MOL
REMARK 927      BINDING AFFINITY PREDICTED BY RF-SCORE:    0.00 PKD
ROOT
HETATM    1  C   UNL     1     -12.772  10.868  71.310  1.00  0.00    -0.437 C  
HETATM    2  N   UNL     1     -11.942  10.104  70.378  1.00  0.00    -0.274 NA 
ENDROOT
BRANCH   2   3
HETATM    3  C   UNL     1     -11.667  10.702  69.113  1.00  0.00    -0.253 A  
HETATM    4  C   UNL     1     -10.752  10.295  66.774  1.00  0.00    -0.216 A  
HETATM    5  C   UNL     1     -10.591  11.875  64.034  1.00  0.00    -0.422 C  
HETATM    6  C   UNL     1     -12.028  12.048  68.840  1.00  0.00    -0.303 A  
HETATM    7  C   UNL     1     -11.764  12.481  67.527  1.00  0.00    -0.374 A  
HETATM    8  C   UNL     1     -11.158  11.604  66.564  1.00  0.00    -0.357 A  
HETATM    9  C   UNL     1     -11.077  12.288  65.375  1.00  0.00    -0.311 A  
HETATM   10  N   UNL     1     -11.995  13.672  66.953  1.00  0.00    -0.405 NA 
HETATM   11  N   UNL     1     -11.595  13.527  65.670  1.00  0.00    -0.317 NA 
HETATM   12  C   UNL     1     -11.751  14.643  64.765  1.00  0.00    -0.428 C  
HETATM   13  C   UNL     1     -11.031   9.889  68.099  1.00  0.00    -0.261 A  
ENDBRANCH   2   3
BRANCH   2  14
HETATM   14  C   UNL     1     -11.301   8.948  70.875  1.00  0.00    -0.283 A  
HETATM   15  C   UNL     1     -10.826   6.686  70.604  1.00  0.00    -0.253 A  
HETATM   16  N   UNL     1     -10.195   6.591  71.778  1.00  0.00    -0.188 NA 
HETATM   17  C   UNL     1     -10.092   7.729  72.483  1.00  0.00    -0.242 A  
HETATM   18  C   UNL     1     -10.617   8.934  72.075  1.00  0.00    -0.388 A  
HETATM   19  N   UNL     1     -11.387   7.817  70.151  1.00  0.00    -0.176 NA 
BRANCH  15  20
HETATM   20  N   UNL     1     -10.923   5.523  69.843  1.00  0.00    -0.246 NA 
HETATM   21  H   UNL     1     -11.597   4.830  70.169  1.00  0.00     0.000 HD 
BRANCH  20  22
HETATM   22  C   UNL     1     -10.210   5.184  68.684  1.00  0.00    -0.122 A  
HETATM   23  C   UNL     1     -10.511   5.827  67.482  1.00  0.00    -0.310 A  
HETATM   24  C   UNL     1      -9.760   5.578  66.329  1.00  0.00    -0.172 A  
HETATM   25  C   UNL     1      -8.689   4.666  66.335  1.00  0.00    -0.112 A  
HETATM   26  C   UNL     1      -8.409   3.987  67.534  1.00  0.00    -0.098 A  
HETATM   27  C   UNL     1      -7.919   4.466  65.063  1.00  0.00    -0.097 C  
HETATM   28  C   UNL     1      -9.160   4.258  68.690  1.00  0.00    -0.178 A  
BRANCH  26  29
HETATM   29  S   UNL     1      -7.159   2.715  67.677  1.00  0.00    -0.049 S  
HETATM   30  O   UNL     1      -5.871   3.269  67.341  1.00  0.00    -0.022 OA 
HETATM   31  O   UNL     1      -7.654   1.512  67.043  1.00  0.00    -0.058 OA 
HETATM   32  N   UNL     1      -7.162   2.416  69.326  1.00  0.00    -0.043 N  
HETATM   33  H1  UNL     1      -6.449   1.691  69.407  1.00  0.00     0.000 HD 
HETATM   34  H2  UNL     1      -7.729   2.847  70.056  1.00  0.00     0.000 HD 
ENDBRANCH  26  29
ENDBRANCH  20  22
ENDBRANCH  15  20
ENDBRANCH   2  14
TORSDOF 5
ENDMDL
MODEL      179
REMARK 921   NORMALIZED FREE ENERGY PREDICTED BY IDOCK:   -5.73 KCAL/MOL
REMARK 922        TOTAL FREE ENERGY PREDICTED BY IDOCK:   -7.87 KCAL/MOL
REMARK 923 INTER-LIGAND FREE ENERGY PREDICTED BY IDOCK:   -7.22 KCAL/MOL
REMARK 924 INTRA-LIGAND FREE ENERGY PREDICTED BY IDOCK:   -0.64 KCAL/MOL
REMARK 927      BINDING AFFINITY PREDICTED BY RF-SCORE:    0.00 PKD
ROOT
HETATM    1  C   UNL     1      -9.228  10.136  64.022  1.00  0.00    -0.272 C  
HETATM    2  N   UNL     1      -9.082   9.703  65.412  1.00  0.00    -0.199 NA 
ENDROOT
BRANCH   2   3
HETATM    3  C   UNL     1      -8.964   8.302  65.646  1.00  0.00    -0.109 A  
HETATM    4  C   UNL     1      -9.813   6.346  67.036  1.00  0.00    -0.194 A  
HETATM    5  C   UNL     1      -9.509   3.193  67.039  1.00  0.00    -0.128 C  
HETATM    6  C   UNL     1      -8.121   7.488  64.845  1.00  0.00    -0.121 A  
HETATM    7  C   UNL     1      -8.162   6.113  65.141  1.00  0.00    -0.141 A  
HETATM    8  C   UNL     1      -8.995   5.606  66.196  1.00  0.00    -0.153 A  
HETATM    9  C   UNL     1      -8.860   4.238  66.208  1.00  0.00    -0.116 A  
HETATM   10  N   UNL     1      -7.506   5.091  64.568  1.00  0.00    -0.067 NA 
HETATM   11  N   UNL     1      -7.951   3.986  65.207  1.00  0.00    -0.096 NA 
HETATM   12  C   UNL     1      -7.452   2.696  64.789  1.00  0.00    -0.071 C  
HETATM   13  C   UNL     1      -9.752   7.720  66.712  1.00  0.00    -0.296 A  
ENDBRANCH   2   3
BRANCH   2  14
HETATM   14  C   UNL     1      -8.849  10.701  66.383  1.00  0.00    -0.154 A  
HETATM   15  C   UNL     1      -9.691  11.986  68.132  1.00  0.00    -0.199 A  
HETATM   16  N   UNL     1      -8.572  12.707  68.252  1.00  0.00    -0.180 NA 
HETATM   17  C   UNL     1      -7.565  12.370  67.432  1.00  0.00    -0.160 A  
HETATM   18  C   UNL     1      -7.646  11.371  66.488  1.00  0.00    -0.080 A  
HETATM   19  N   UNL     1      -9.855  11.017  67.219  1.00  0.00    -0.176 NA 
BRANCH  15  20
HETATM   20  N   UNL     1     -10.742  12.301  68.991  1.00  0.00    -0.384 NA 
HETATM   21  H   UNL     1     -11.091  13.258  68.937  1.00  0.00     0.000 HD 
BRANCH  20  22
HETATM   22  C   UNL     1     -11.379  11.469  69.922  1.00  0.00    -0.186 A  
HETATM   23  C   UNL     1     -12.424  11.979  70.694  1.00  0.00    -0.335 A  
HETATM   24  C   UNL     1     -13.140  11.153  71.566  1.00  0.00    -0.489 A  
HETATM   25  C   UNL     1     -12.827   9.789  71.706  1.00  0.00    -0.530 A  
HETATM   26  C   UNL     1     -11.750   9.281  70.958  1.00  0.00    -0.311 A  
HETATM   27  C   UNL     1     -13.652   8.963  72.648  1.00  0.00    -0.395 C  
HETATM   28  C   UNL     1     -11.049  10.116  70.073  1.00  0.00    -0.368 A  
BRANCH  26  29
HETATM   29  S   UNL     1     -11.153   7.601  71.108  1.00  0.00    -0.256 S  
HETATM   30  O   UNL     1     -11.293   7.163  72.474  1.00  0.00    -0.271 OA 
HETATM   31  O   UNL     1      -9.892   7.498  70.406  1.00  0.00    -0.183 OA 
HETATM   32  N   UNL     1     -12.274   6.756  70.192  1.00  0.00    -0.605 N  
HETATM   33  H1  UNL     1     -11.933   5.798  70.277  1.00  0.00     0.000 HD 
HETATM   34  H2  UNL     1     -13.084   7.108  69.682  1.00  0.00     0.000 HD 
ENDBRANCH  26  29
ENDBRANCH  20  22
ENDBRANCH  15  20
ENDBRANCH   2  14
TORSDOF 5
ENDMDL
MODEL      180
REMARK 921   NORMALIZED FREE ENERGY PREDICTED BY IDOCK:   -5.66 KCAL/MOL
REMARK 922        TOTAL FREE ENERGY PREDICTED BY IDOCK:   -7.78 KCAL/MOL
REMARK 923 INTER-LIGAND FREE ENERGY PREDICTED BY IDOCK:   -7.20 KCAL/MOL
REMARK 924 INTRA-LIGAND FREE ENERGY PREDICTED BY IDOCK:   -0.58 KCAL/MOL
REMARK 927      BINDING AFFINITY PREDICTED BY RF-SCORE:    0.00 PKD
ROOT
HETATM    1  C   UNL     1     -10.206   8.469  66.482  1.00  0.00    -0.216 C  
HETATM    2  N   UNL     1      -9.494   9.746  66.422  1.00  0.00    -0.172 NA 
ENDROOT
BRANCH   2   3
HETATM    3  C   UNL     1      -8.552  10.013  67.460  1.00  0.00    -0.122 A  
HETATM    4  C   UNL     1      -6.951  11.740  68.423  1.00  0.00    -0.080 A  
HETATM    5  C   UNL     1      -5.192  12.076  71.035  1.00  0.00    -0.133 C  
HETATM    6  C   UNL     1      -8.316   9.075  68.500  1.00  0.00    -0.124 A  
HETATM    7  C   UNL     1      -7.418   9.504  69.495  1.00  0.00    -0.092 A  
HETATM    8  C   UNL     1      -6.791  10.794  69.424  1.00  0.00    -0.109 A  
HETATM    9  C   UNL     1      -6.019  10.942  70.551  1.00  0.00    -0.121 A  
HETATM   10  N   UNL     1      -6.999   8.872  70.603  1.00  0.00    -0.055 NA 
HETATM   11  N   UNL     1      -6.183   9.753  71.223  1.00  0.00    -0.263 NA 
HETATM   12  C   UNL     1      -5.588   9.377  72.486  1.00  0.00     0.013 C  
HETATM   13  C   UNL     1      -7.859  11.283  67.441  1.00  0.00    -0.128 A  
ENDBRANCH   2   3
BRANCH   2  14
HETATM   14  C   UNL     1      -9.625  10.511  65.243  1.00  0.00    -0.249 A  
HETATM   15  C   UNL     1     -10.204  12.542  64.263  1.00  0.00    -0.333 A  
HETATM   16  N   UNL     1     -10.033  12.086  63.019  1.00  0.00    -0.303 NA 
HETATM   17  C   UNL     1      -9.607  10.817  62.911  1.00  0.00    -0.338 A  
HETATM   18  C   UNL     1      -9.379   9.991  63.987  1.00  0.00    -0.324 A  
HETATM   19  N   UNL     1     -10.029  11.790  65.360  1.00  0.00    -0.247 NA 
BRANCH  15  20
HETATM   20  N   UNL     1     -10.621  13.864  64.400  1.00  0.00    -0.589 NA 
HETATM   21  H   UNL     1     -10.902  14.335  63.540  1.00  0.00     0.000 HD 
BRANCH  20  22
HETATM   22  C   UNL     1     -10.703  14.629  65.572  1.00  0.00    -0.349 A  
HETATM   23  C   UNL     1     -11.689  14.333  66.516  1.00  0.00    -0.409 A  
HETATM   24  C   UNL     1     -11.742  15.016  67.734  1.00  0.00    -0.294 A  
HETATM   25  C   UNL     1     -10.819  16.031  68.047  1.00  0.00    -0.335 A  
HETATM   26  C   UNL     1      -9.850  16.358  67.083  1.00  0.00    -0.249 A  
HETATM   27  C   UNL     1     -10.929  16.706  69.381  1.00  0.00    -0.235 C  
HETATM   28  C   UNL     1      -9.795  15.653  65.868  1.00  0.00    -0.382 A  
BRANCH  26  29
HETATM   29  S   UNL     1      -8.680  17.698  67.277  1.00  0.00    -0.240 S  
HETATM   30  O   UNL     1      -7.810  17.415  68.391  1.00  0.00    -0.236 OA 
HETATM   31  O   UNL     1      -9.396  18.951  67.175  1.00  0.00    -0.291 OA 
HETATM   32  N   UNL     1      -7.766  17.560  65.879  1.00  0.00    -0.190 N  
HETATM   33  H1  UNL     1      -7.099  18.324  65.990  1.00  0.00     0.000 HD 
HETATM   34  H2  UNL     1      -7.855  16.889  65.116  1.00  0.00     0.000 HD 
ENDBRANCH  26  29
ENDBRANCH  20  22
ENDBRANCH  15  20
ENDBRANCH   2  14
TORSDOF 5
ENDMDL
MODEL      181
REMARK 921   NORMALIZED FREE ENERGY PREDICTED BY IDOCK:   -5.66 KCAL/MOL
REMARK 922        TOTAL FREE ENERGY PREDICTED BY IDOCK:   -7.78 KCAL/MOL
REMARK 923 INTER-LIGAND FREE ENERGY PREDICTED BY IDOCK:   -7.97 KCAL/MOL
REMARK 924 INTRA-LIGAND FREE ENERGY PREDICTED BY IDOCK:    0.19 KCAL/MOL
REMARK 927      BINDING AFFINITY PREDICTED BY RF-SCORE:    0.00 PKD
ROOT
HETATM    1  C   UNL     1     -11.111   5.385  71.253  1.00  0.00     0.017 C  
HETATM    2  N   UNL     1     -11.238   6.635  70.504  1.00  0.00    -0.309 NA 
ENDROOT
BRANCH   2   3
HETATM    3  C   UNL     1     -10.595   6.699  69.233  1.00  0.00    -0.238 A  
HETATM    4  C   UNL     1      -9.866   8.241  67.345  1.00  0.00    -0.246 A  
HETATM    5  C   UNL     1      -8.109   8.028  64.718  1.00  0.00    -0.143 C  
HETATM    6  C   UNL     1     -10.014   5.546  68.642  1.00  0.00    -0.222 A  
HETATM    7  C   UNL     1      -9.347   5.772  67.424  1.00  0.00    -0.112 A  
HETATM    8  C   UNL     1      -9.293   7.084  66.840  1.00  0.00    -0.185 A  
HETATM    9  C   UNL     1      -8.539   6.996  65.694  1.00  0.00    -0.111 A  
HETATM   10  N   UNL     1      -8.691   4.910  66.631  1.00  0.00    -0.109 NA 
HETATM   11  N   UNL     1      -8.205   5.664  65.619  1.00  0.00    -0.120 NA 
HETATM   12  C   UNL     1      -7.407   5.023  64.599  1.00  0.00    -0.063 C  
HETATM   13  C   UNL     1     -10.525   7.982  68.568  1.00  0.00    -0.200 A  
ENDBRANCH   2   3
BRANCH   2  14
HETATM   14  C   UNL     1     -12.158   7.592  70.986  1.00  0.00    -0.277 A  
HETATM   15  C   UNL     1     -12.619   9.825  71.453  1.00  0.00    -0.386 A  
HETATM   16  N   UNL     1     -13.808   9.553  71.999  1.00  0.00    -0.335 NA 
HETATM   17  C   UNL     1     -14.178   8.263  71.989  1.00  0.00    -0.424 A  
HETATM   18  C   UNL     1     -13.398   7.245  71.487  1.00  0.00    -0.435 A  
HETATM   19  N   UNL     1     -11.791   8.886  70.970  1.00  0.00    -0.285 NA 
BRANCH  15  20
HETATM   20  N   UNL     1     -12.224  11.161  71.430  1.00  0.00    -0.212 NA 
HETATM   21  H   UNL     1     -12.116  11.611  72.339  1.00  0.00     0.000 HD 
BRANCH  20  22
HETATM   22  C   UNL     1     -11.959  11.966  70.313  1.00  0.00    -0.330 A  
HETATM   23  C   UNL     1     -12.022  11.407  69.036  1.00  0.00    -0.387 A  
HETATM   24  C   UNL     1     -11.851  12.201  67.897  1.00  0.00    -0.338 A  
HETATM   25  C   UNL     1     -11.597  13.581  67.997  1.00  0.00    -0.372 A  
HETATM   26  C   UNL     1     -11.494  14.140  69.284  1.00  0.00    -0.292 A  
HETATM   27  C   UNL     1     -11.443  14.370  66.731  1.00  0.00    -0.381 C  
HETATM   28  C   UNL     1     -11.685  13.335  70.420  1.00  0.00    -0.161 A  
BRANCH  26  29
HETATM   29  S   UNL     1     -11.063  15.850  69.583  1.00  0.00    -0.349 S  
HETATM   30  O   UNL     1     -11.566  16.252  70.873  1.00  0.00    -0.401 OA 
HETATM   31  O   UNL     1     -11.350  16.612  68.387  1.00  0.00    -0.321 OA 
HETATM   32  N   UNL     1      -9.393  15.766  69.700  1.00  0.00    -0.245 N  
HETATM   33  H1  UNL     1      -9.147  16.741  69.871  1.00  0.00     0.000 HD 
HETATM   34  H2  UNL     1      -8.783  14.953  69.620  1.00  0.00     0.000 HD 
ENDBRANCH  26  29
ENDBRANCH  20  22
ENDBRANCH  15  20
ENDBRANCH   2  14
TORSDOF 5
ENDMDL
MODEL      182
REMARK 921   NORMALIZED FREE ENERGY PREDICTED BY IDOCK:   -5.65 KCAL/MOL
REMARK 922        TOTAL FREE ENERGY PREDICTED BY IDOCK:   -7.77 KCAL/MOL
REMARK 923 INTER-LIGAND FREE ENERGY PREDICTED BY IDOCK:   -7.56 KCAL/MOL
REMARK 924 INTRA-LIGAND FREE ENERGY PREDICTED BY IDOCK:   -0.21 KCAL/MOL
REMARK 927      BINDING AFFINITY PREDICTED BY RF-SCORE:    0.00 PKD
ROOT
HETATM    1  C   UNL     1      -7.720  13.197  68.310  1.00  0.00    -0.141 C  
HETATM    2  N   UNL     1      -8.831  12.548  67.613  1.00  0.00    -0.169 NA 
ENDROOT
BRANCH   2   3
HETATM    3  C   UNL     1      -9.211  11.250  68.065  1.00  0.00    -0.160 A  
HETATM    4  C   UNL     1      -8.833   8.751  67.770  1.00  0.00    -0.137 A  
HETATM    5  C   UNL     1      -9.682   6.083  69.249  1.00  0.00    -0.174 C  
HETATM    6  C   UNL     1     -10.115  11.082  69.147  1.00  0.00    -0.167 A  
HETATM    7  C   UNL     1     -10.340   9.747  69.533  1.00  0.00    -0.230 A  
HETATM    8  C   UNL     1      -9.697   8.659  68.851  1.00  0.00    -0.171 A  
HETATM    9  C   UNL     1     -10.070   7.497  69.483  1.00  0.00    -0.189 A  
HETATM   10  N   UNL     1     -11.115   9.256  70.513  1.00  0.00    -0.252 NA 
HETATM   11  N   UNL     1     -10.924   7.919  70.475  1.00  0.00    -0.246 NA 
HETATM   12  C   UNL     1     -11.605   7.093  71.446  1.00  0.00    -0.283 C  
HETATM   13  C   UNL     1      -8.626  10.101  67.407  1.00  0.00    -0.122 A  
ENDBRANCH   2   3
BRANCH   2  14
HETATM   14  C   UNL     1      -9.576  13.331  66.705  1.00  0.00    -0.262 A  
HETATM   15  C   UNL     1     -10.535  15.392  66.202  1.00  0.00    -0.316 A  
HETATM   16  N   UNL     1     -11.109  14.946  65.081  1.00  0.00    -0.371 NA 
HETATM   17  C   UNL     1     -10.862  13.665  64.764  1.00  0.00    -0.394 A  
HETATM   18  C   UNL     1     -10.097  12.818  65.532  1.00  0.00    -0.278 A  
HETATM   19  N   UNL     1      -9.800  14.621  67.017  1.00  0.00    -0.239 NA 
BRANCH  15  20
HETATM   20  N   UNL     1     -10.757  16.726  66.539  1.00  0.00    -0.176 NA 
HETATM   21  H   UNL     1     -11.731  16.993  66.684  1.00  0.00     0.000 HD 
BRANCH  20  22
HETATM   22  C   UNL     1      -9.810  17.746  66.704  1.00  0.00    -0.322 A  
HETATM   23  C   UNL     1     -10.234  19.076  66.725  1.00  0.00    -0.465 A  
HETATM   24  C   UNL     1      -9.329  20.112  66.977  1.00  0.00    -0.523 A  
HETATM   25  C   UNL     1      -7.965  19.855  67.204  1.00  0.00    -0.337 A  
HETATM   26  C   UNL     1      -7.528  18.520  67.145  1.00  0.00    -0.222 A  
HETATM   27  C   UNL     1      -7.059  21.017  67.486  1.00  0.00    -0.359 C  
HETATM   28  C   UNL     1      -8.450  17.486  66.907  1.00  0.00    -0.261 A  
BRANCH  26  29
HETATM   29  S   UNL     1      -5.812  18.037  67.295  1.00  0.00    -0.135 S  
HETATM   30  O   UNL     1      -5.736  16.629  67.594  1.00  0.00    -0.120 OA 
HETATM   31  O   UNL     1      -5.128  19.021  68.106  1.00  0.00    -0.175 OA 
HETATM   32  N   UNL     1      -5.258  18.249  65.728  1.00  0.00    -0.164 N  
HETATM   33  H1  UNL     1      -4.280  17.974  65.814  1.00  0.00     0.000 HD 
HETATM   34  H2  UNL     1      -5.766  18.570  64.904  1.00  0.00     0.000 HD 
ENDBRANCH  26  29
ENDBRANCH  20  22
ENDBRANCH  15  20
ENDBRANCH   2  14
TORSDOF 5
ENDMDL
MODEL      183
REMARK 921   NORMALIZED FREE ENERGY PREDICTED BY IDOCK:   -5.65 KCAL/MOL
REMARK 922        TOTAL FREE ENERGY PREDICTED BY IDOCK:   -7.77 KCAL/MOL
REMARK 923 INTER-LIGAND FREE ENERGY PREDICTED BY IDOCK:   -6.84 KCAL/MOL
REMARK 924 INTRA-LIGAND FREE ENERGY PREDICTED BY IDOCK:   -0.92 KCAL/MOL
REMARK 927      BINDING AFFINITY PREDICTED BY RF-SCORE:    0.00 PKD
ROOT
HETATM    1  C   UNL     1     -14.284   8.789  72.329  1.00  0.00    -0.420 C  
HETATM    2  N   UNL     1     -12.960   9.199  71.859  1.00  0.00    -0.372 NA 
ENDROOT
BRANCH   2   3
HETATM    3  C   UNL     1     -11.970   8.180  71.740  1.00  0.00    -0.305 A  
HETATM    4  C   UNL     1     -11.255   6.116  70.434  1.00  0.00    -0.423 A  
HETATM    5  C   UNL     1      -8.715   4.231  70.276  1.00  0.00    -0.118 C  
HETATM    6  C   UNL     1     -10.810   8.178  72.560  1.00  0.00    -0.431 A  
HETATM    7  C   UNL     1      -9.884   7.156  72.280  1.00  0.00    -0.153 A  
HETATM    8  C   UNL     1     -10.133   6.192  71.245  1.00  0.00    -0.227 A  
HETATM    9  C   UNL     1      -9.038   5.365  71.178  1.00  0.00    -0.141 A  
HETATM   10  N   UNL     1      -8.700   6.890  72.854  1.00  0.00    -0.123 NA 
HETATM   11  N   UNL     1      -8.209   5.833  72.171  1.00  0.00    -0.111 NA 
HETATM   12  C   UNL     1      -6.906   5.320  72.531  1.00  0.00    -0.075 C  
HETATM   13  C   UNL     1     -12.164   7.155  70.737  1.00  0.00    -0.308 A  
ENDBRANCH   2   3
BRANCH   2  14
HETATM   14  C   UNL     1     -12.826  10.511  71.355  1.00  0.00    -0.447 A  
HETATM   15  C   UNL     1     -12.002  11.908  69.685  1.00  0.00    -0.298 A  
HETATM   16  N   UNL     1     -12.392  13.023  70.309  1.00  0.00    -0.284 NA 
HETATM   17  C   UNL     1     -13.051  12.850  71.465  1.00  0.00    -0.298 A  
HETATM   18  C   UNL     1     -13.303  11.619  72.028  1.00  0.00    -0.405 A  
HETATM   19  N   UNL     1     -12.186  10.676  70.183  1.00  0.00    -0.316 NA 
BRANCH  15  20
HETATM   20  N   UNL     1     -11.338  12.062  68.470  1.00  0.00    -0.247 NA 
HETATM   21  H   UNL     1     -11.928  12.239  67.658  1.00  0.00     0.000 HD 
BRANCH  20  22
HETATM   22  C   UNL     1      -9.959  12.004  68.223  1.00  0.00    -0.203 A  
HETATM   23  C   UNL     1      -9.429  12.693  67.131  1.00  0.00    -0.214 A  
HETATM   24  C   UNL     1      -8.049  12.730  66.908  1.00  0.00     0.006 A  
HETATM   25  C   UNL     1      -7.151  12.067  67.763  1.00  0.00    -0.108 A  
HETATM   26  C   UNL     1      -7.684  11.339  68.842  1.00  0.00    -0.125 A  
HETATM   27  C   UNL     1      -5.683  12.167  67.470  1.00  0.00    -0.117 C  
HETATM   28  C   UNL     1      -9.071  11.323  69.066  1.00  0.00     0.015 A  
BRANCH  26  29
HETATM   29  S   UNL     1      -6.688  10.349  69.951  1.00  0.00    -0.148 S  
HETATM   30  O   UNL     1      -7.544   9.697  70.909  1.00  0.00    -0.309 OA 
HETATM   31  O   UNL     1      -5.546  11.134  70.367  1.00  0.00    -0.096 OA 
HETATM   32  N   UNL     1      -6.098   9.168  68.919  1.00  0.00    -0.043 N  
HETATM   33  H1  UNL     1      -5.531   8.603  69.551  1.00  0.00     0.000 HD 
HETATM   34  H2  UNL     1      -6.263   9.046  67.920  1.00  0.00     0.000 HD 
ENDBRANCH  26  29
ENDBRANCH  20  22
ENDBRANCH  15  20
ENDBRANCH   2  14
TORSDOF 5
ENDMDL
MODEL      184
REMARK 921   NORMALIZED FREE ENERGY PREDICTED BY IDOCK:   -5.64 KCAL/MOL
REMARK 922        TOTAL FREE ENERGY PREDICTED BY IDOCK:   -7.75 KCAL/MOL
REMARK 923 INTER-LIGAND FREE ENERGY PREDICTED BY IDOCK:   -7.02 KCAL/MOL
REMARK 924 INTRA-LIGAND FREE ENERGY PREDICTED BY IDOCK:   -0.73 KCAL/MOL
REMARK 927      BINDING AFFINITY PREDICTED BY RF-SCORE:    0.00 PKD
ROOT
HETATM    1  C   UNL     1      -6.414   8.941  63.579  1.00  0.00    -0.089 C  
HETATM    2  N   UNL     1      -7.689   8.642  64.230  1.00  0.00    -0.120 NA 
ENDROOT
BRANCH   2   3
HETATM    3  C   UNL     1      -8.580   9.735  64.445  1.00  0.00    -0.188 A  
HETATM    4  C   UNL     1     -10.068  11.460  63.311  1.00  0.00    -0.424 A  
HETATM    5  C   UNL     1     -12.220  13.610  64.192  1.00  0.00    -0.450 C  
HETATM    6  C   UNL     1      -8.949  10.139  65.755  1.00  0.00    -0.187 A  
HETATM    7  C   UNL     1      -9.893  11.181  65.813  1.00  0.00    -0.235 A  
HETATM    8  C   UNL     1     -10.411  11.782  64.615  1.00  0.00    -0.336 A  
HETATM    9  C   UNL     1     -11.339  12.723  64.992  1.00  0.00    -0.309 A  
HETATM   10  N   UNL     1     -10.452  11.775  66.880  1.00  0.00    -0.216 NA 
HETATM   11  N   UNL     1     -11.320  12.674  66.367  1.00  0.00    -0.313 NA 
HETATM   12  C   UNL     1     -12.119  13.464  67.276  1.00  0.00    -0.304 C  
HETATM   13  C   UNL     1      -9.122  10.410  63.285  1.00  0.00    -0.279 A  
ENDBRANCH   2   3
BRANCH   2  14
HETATM   14  C   UNL     1      -8.034   7.283  64.394  1.00  0.00    -0.106 A  
HETATM   15  C   UNL     1      -8.832   5.605  65.796  1.00  0.00    -0.153 A  
HETATM   16  N   UNL     1      -8.642   4.642  64.891  1.00  0.00    -0.134 NA 
HETATM   17  C   UNL     1      -8.172   5.040  63.698  1.00  0.00    -0.117 A  
HETATM   18  C   UNL     1      -7.862   6.346  63.393  1.00  0.00    -0.107 A  
HETATM   19  N   UNL     1      -8.527   6.894  65.584  1.00  0.00    -0.146 NA 
BRANCH  15  20
HETATM   20  N   UNL     1      -9.343   5.219  67.034  1.00  0.00    -0.119 NA 
HETATM   21  H   UNL     1      -9.423   4.214  67.189  1.00  0.00     0.000 HD 
BRANCH  20  22
HETATM   22  C   UNL     1      -9.761   6.037  68.092  1.00  0.00    -0.127 A  
HETATM   23  C   UNL     1     -10.896   5.684  68.823  1.00  0.00    -0.210 A  
HETATM   24  C   UNL     1     -11.289   6.428  69.940  1.00  0.00    -0.500 A  
HETATM   25  C   UNL     1     -10.567   7.561  70.357  1.00  0.00    -0.236 A  
HETATM   26  C   UNL     1      -9.445   7.942  69.599  1.00  0.00    -0.160 A  
HETATM   27  C   UNL     1     -11.039   8.298  71.575  1.00  0.00    -0.315 C  
HETATM   28  C   UNL     1      -9.050   7.177  68.489  1.00  0.00    -0.132 A  
BRANCH  26  29
HETATM   29  S   UNL     1      -8.490   9.419  69.927  1.00  0.00    -0.197 S  
HETATM   30  O   UNL     1      -7.485   9.575  68.906  1.00  0.00    -0.072 OA 
HETATM   31  O   UNL     1      -8.151   9.443  71.334  1.00  0.00    -0.306 OA 
HETATM   32  N   UNL     1      -9.632  10.624  69.696  1.00  0.00    -0.431 N  
HETATM   33  H1  UNL     1      -9.087  11.465  69.883  1.00  0.00     0.000 HD 
HETATM   34  H2  UNL     1     -10.615  10.537  69.437  1.00  0.00     0.000 HD 
ENDBRANCH  26  29
ENDBRANCH  20  22
ENDBRANCH  15  20
ENDBRANCH   2  14
TORSDOF 5
ENDMDL
MODEL      185
REMARK 921   NORMALIZED FREE ENERGY PREDICTED BY IDOCK:   -5.62 KCAL/MOL
REMARK 922        TOTAL FREE ENERGY PREDICTED BY IDOCK:   -7.73 KCAL/MOL
REMARK 923 INTER-LIGAND FREE ENERGY PREDICTED BY IDOCK:   -7.06 KCAL/MOL
REMARK 924 INTRA-LIGAND FREE ENERGY PREDICTED BY IDOCK:   -0.66 KCAL/MOL
REMARK 927      BINDING AFFINITY PREDICTED BY RF-SCORE:    0.00 PKD
ROOT
HETATM    1  C   UNL     1     -11.412   9.253  71.755  1.00  0.00    -0.378 C  
HETATM    2  N   UNL     1     -10.791   8.156  71.012  1.00  0.00    -0.231 NA 
ENDROOT
BRANCH   2   3
HETATM    3  C   UNL     1     -10.547   6.946  71.725  1.00  0.00    -0.212 A  
HETATM    4  C   UNL     1     -11.634   4.995  72.947  1.00  0.00    -0.261 A  
HETATM    5  C   UNL     1     -10.718   2.226  74.179  1.00  0.00    -0.230 C  
HETATM    6  C   UNL     1      -9.233   6.428  71.873  1.00  0.00    -0.149 A  
HETATM    7  C   UNL     1      -9.151   5.189  72.534  1.00  0.00    -0.133 A  
HETATM    8  C   UNL     1     -10.330   4.531  73.027  1.00  0.00    -0.237 A  
HETATM    9  C   UNL     1      -9.937   3.332  73.572  1.00  0.00    -0.114 A  
HETATM   10  N   UNL     1      -8.076   4.436  72.817  1.00  0.00    -0.093 NA 
HETATM   11  N   UNL     1      -8.570   3.331  73.417  1.00  0.00    -0.078 NA 
HETATM   12  C   UNL     1      -7.650   2.290  73.818  1.00  0.00    -0.042 C  
HETATM   13  C   UNL     1     -11.684   6.239  72.276  1.00  0.00    -0.344 A  
ENDBRANCH   2   3
BRANCH   2  14
HETATM   14  C   UNL     1     -10.685   8.297  69.611  1.00  0.00    -0.194 A  
HETATM   15  C   UNL     1     -10.800   9.697  67.755  1.00  0.00    -0.217 A  
HETATM   16  N   UNL     1     -10.617   8.699  66.886  1.00  0.00    -0.260 NA 
HETATM   17  C   UNL     1     -10.425   7.482  67.420  1.00  0.00    -0.297 A  
HETATM   18  C   UNL     1     -10.439   7.227  68.772  1.00  0.00    -0.214 A  
HETATM   19  N   UNL     1     -10.854   9.523  69.084  1.00  0.00    -0.206 NA 
BRANCH  15  20
HETATM   20  N   UNL     1     -10.976  10.973  67.224  1.00  0.00    -0.284 NA 
HETATM   21  H   UNL     1     -11.690  11.061  66.501  1.00  0.00     0.000 HD 
BRANCH  20  22
HETATM   22  C   UNL     1     -10.296  12.152  67.560  1.00  0.00    -0.205 A  
HETATM   23  C   UNL     1      -8.984  12.333  67.122  1.00  0.00    -0.192 A  
HETATM   24  C   UNL     1      -8.307  13.534  67.362  1.00  0.00    -0.199 A  
HETATM   25  C   UNL     1      -8.918  14.591  68.061  1.00  0.00    -0.180 A  
HETATM   26  C   UNL     1     -10.226  14.397  68.538  1.00  0.00    -0.243 A  
HETATM   27  C   UNL     1      -8.136  15.855  68.264  1.00  0.00    -0.144 C  
HETATM   28  C   UNL     1     -10.901  13.193  68.276  1.00  0.00    -0.274 A  
BRANCH  26  29
HETATM   29  S   UNL     1     -11.098  15.595  69.541  1.00  0.00    -0.329 S  
HETATM   30  O   UNL     1     -11.071  16.878  68.885  1.00  0.00    -0.262 OA 
HETATM   31  O   UNL     1     -10.673  15.438  70.915  1.00  0.00    -0.301 OA 
HETATM   32  N   UNL     1     -12.672  15.025  69.465  1.00  0.00    -0.564 N  
HETATM   33  H1  UNL     1     -13.169  15.708  70.036  1.00  0.00     0.000 HD 
HETATM   34  H2  UNL     1     -13.037  14.208  68.975  1.00  0.00     0.000 HD 
ENDBRANCH  26  29
ENDBRANCH  20  22
ENDBRANCH  15  20
ENDBRANCH   2  14
TORSDOF 5
ENDMDL
MODEL      186
REMARK 921   NORMALIZED FREE ENERGY PREDICTED BY IDOCK:   -5.62 KCAL/MOL
REMARK 922        TOTAL FREE ENERGY PREDICTED BY IDOCK:   -7.73 KCAL/MOL
REMARK 923 INTER-LIGAND FREE ENERGY PREDICTED BY IDOCK:   -7.80 KCAL/MOL
REMARK 924 INTRA-LIGAND FREE ENERGY PREDICTED BY IDOCK:    0.08 KCAL/MOL
REMARK 927      BINDING AFFINITY PREDICTED BY RF-SCORE:    0.00 PKD
ROOT
HETATM    1  C   UNL     1     -13.493  13.517  72.165  1.00  0.00    -0.537 C  
HETATM    2  N   UNL     1     -12.795  12.839  71.072  1.00  0.00    -0.236 NA 
ENDROOT
BRANCH   2   3
HETATM    3  C   UNL     1     -12.182  13.664  70.084  1.00  0.00    -0.342 A  
HETATM    4  C   UNL     1     -11.372  13.771  67.673  1.00  0.00    -0.331 A  
HETATM    5  C   UNL     1     -10.300  15.984  65.678  1.00  0.00    -0.414 C  
HETATM    6  C   UNL     1     -11.870  15.024  70.348  1.00  0.00    -0.345 A  
HETATM    7  C   UNL     1     -11.338  15.736  69.256  1.00  0.00    -0.350 A  
HETATM    8  C   UNL     1     -11.123  15.098  67.987  1.00  0.00    -0.310 A  
HETATM    9  C   UNL     1     -10.648  16.052  67.120  1.00  0.00    -0.305 A  
HETATM   10  N   UNL     1     -10.958  17.021  69.172  1.00  0.00    -0.161 NA 
HETATM   11  N   UNL     1     -10.569  17.189  67.889  1.00  0.00    -0.370 NA 
HETATM   12  C   UNL     1     -10.130  18.499  67.464  1.00  0.00    -0.357 C  
HETATM   13  C   UNL     1     -11.908  13.083  68.786  1.00  0.00    -0.355 A  
ENDBRANCH   2   3
BRANCH   2  14
HETATM   14  C   UNL     1     -12.594  11.447  71.193  1.00  0.00    -0.386 A  
HETATM   15  C   UNL     1     -11.634   9.511  70.328  1.00  0.00    -0.169 A  
HETATM   16  N   UNL     1     -12.206   8.720  71.241  1.00  0.00    -0.297 NA 
HETATM   17  C   UNL     1     -12.954   9.337  72.168  1.00  0.00    -0.424 A  
HETATM   18  C   UNL     1     -13.173  10.696  72.197  1.00  0.00    -0.379 A  
HETATM   19  N   UNL     1     -11.822  10.838  70.274  1.00  0.00    -0.319 NA 
BRANCH  15  20
HETATM   20  N   UNL     1     -10.832   8.894  69.369  1.00  0.00    -0.376 NA 
HETATM   21  H   UNL     1     -11.322   8.333  68.672  1.00  0.00     0.000 HD 
BRANCH  20  22
HETATM   22  C   UNL     1      -9.437   8.948  69.243  1.00  0.00    -0.161 A  
HETATM   23  C   UNL     1      -8.861   8.863  67.975  1.00  0.00    -0.133 A  
HETATM   24  C   UNL     1      -7.480   9.003  67.804  1.00  0.00    -0.085 A  
HETATM   25  C   UNL     1      -6.625   9.220  68.900  1.00  0.00    -0.048 A  
HETATM   26  C   UNL     1      -7.198   9.267  70.183  1.00  0.00    -0.083 A  
HETATM   27  C   UNL     1      -5.157   9.379  68.636  1.00  0.00    -0.034 C  
HETATM   28  C   UNL     1      -8.589   9.142  70.340  1.00  0.00    -0.236 A  
BRANCH  26  29
HETATM   29  S   UNL     1      -6.239   9.420  71.686  1.00  0.00     0.090 S  
HETATM   30  O   UNL     1      -7.102   9.240  72.825  1.00  0.00    -0.124 OA 
HETATM   31  O   UNL     1      -5.377  10.576  71.564  1.00  0.00    -0.192 OA 
HETATM   32  N   UNL     1      -5.242   8.076  71.593  1.00  0.00    -0.034 N  
HETATM   33  H1  UNL     1      -4.695   8.163  72.450  1.00  0.00     0.000 HD 
HETATM   34  H2  UNL     1      -5.194   7.359  70.870  1.00  0.00     0.000 HD 
ENDBRANCH  26  29
ENDBRANCH  20  22
ENDBRANCH  15  20
ENDBRANCH   2  14
TORSDOF 5
ENDMDL
MODEL      187
REMARK 921   NORMALIZED FREE ENERGY PREDICTED BY IDOCK:   -5.59 KCAL/MOL
REMARK 922        TOTAL FREE ENERGY PREDICTED BY IDOCK:   -7.69 KCAL/MOL
REMARK 923 INTER-LIGAND FREE ENERGY PREDICTED BY IDOCK:   -7.12 KCAL/MOL
REMARK 924 INTRA-LIGAND FREE ENERGY PREDICTED BY IDOCK:   -0.57 KCAL/MOL
REMARK 927      BINDING AFFINITY PREDICTED BY RF-SCORE:    0.00 PKD
ROOT
HETATM    1  C   UNL     1      -7.084   7.816  64.178  1.00  0.00    -0.075 C  
HETATM    2  N   UNL     1      -8.156   7.672  65.163  1.00  0.00    -0.130 NA 
ENDROOT
BRANCH   2   3
HETATM    3  C   UNL     1      -8.946   8.828  65.436  1.00  0.00    -0.160 A  
HETATM    4  C   UNL     1     -10.514   9.929  67.111  1.00  0.00    -0.305 A  
HETATM    5  C   UNL     1     -11.873  12.761  67.506  1.00  0.00    -0.402 C  
HETATM    6  C   UNL     1      -8.945   9.945  64.560  1.00  0.00    -0.272 A  
HETATM    7  C   UNL     1      -9.711  11.043  64.993  1.00  0.00    -0.254 A  
HETATM    8  C   UNL     1     -10.442  10.996  66.229  1.00  0.00    -0.310 A  
HETATM    9  C   UNL     1     -11.043  12.220  66.401  1.00  0.00    -0.303 A  
HETATM   10  N   UNL     1      -9.904  12.238  64.413  1.00  0.00    -0.166 NA 
HETATM   11  N   UNL     1     -10.684  12.926  65.276  1.00  0.00    -0.289 NA 
HETATM   12  C   UNL     1     -11.046  14.286  64.950  1.00  0.00    -0.390 C  
HETATM   13  C   UNL     1      -9.733   8.844  66.650  1.00  0.00    -0.303 A  
ENDBRANCH   2   3
BRANCH   2  14
HETATM   14  C   UNL     1      -8.467   6.366  65.601  1.00  0.00    -0.146 A  
HETATM   15  C   UNL     1      -8.934   4.942  67.382  1.00  0.00    -0.107 A  
HETATM   16  N   UNL     1      -8.971   3.852  66.610  1.00  0.00    -0.126 NA 
HETATM   17  C   UNL     1      -8.788   4.057  65.296  1.00  0.00    -0.127 A  
HETATM   18  C   UNL     1      -8.543   5.290  64.738  1.00  0.00    -0.136 A  
HETATM   19  N   UNL     1      -8.674   6.173  66.917  1.00  0.00    -0.109 NA 
BRANCH  15  20
HETATM   20  N   UNL     1      -9.147   4.758  68.747  1.00  0.00    -0.107 NA 
HETATM   21  H   UNL     1      -8.808   3.879  69.137  1.00  0.00     0.000 HD 
BRANCH  20  22
HETATM   22  C   UNL     1      -9.768   5.630  69.652  1.00  0.00    -0.169 A  
HETATM   23  C   UNL     1     -11.053   6.102  69.376  1.00  0.00    -0.479 A  
HETATM   24  C   UNL     1     -11.736   6.900  70.298  1.00  0.00    -0.344 A  
HETATM   25  C   UNL     1     -11.153   7.265  71.525  1.00  0.00    -0.264 A  
HETATM   26  C   UNL     1      -9.844   6.824  71.789  1.00  0.00    -0.163 A  
HETATM   27  C   UNL     1     -11.955   8.108  72.471  1.00  0.00    -0.410 C  
HETATM   28  C   UNL     1      -9.174   6.009  70.862  1.00  0.00    -0.165 A  
BRANCH  26  29
HETATM   29  S   UNL     1      -8.920   7.297  73.247  1.00  0.00    -0.169 S  
HETATM   30  O   UNL     1      -9.628   6.860  74.424  1.00  0.00    -0.249 OA 
HETATM   31  O   UNL     1      -8.485   8.667  73.090  1.00  0.00    -0.398 OA 
HETATM   32  N   UNL     1      -7.547   6.346  73.104  1.00  0.00    -0.094 N  
HETATM   33  H1  UNL     1      -7.021   6.615  73.936  1.00  0.00     0.000 HD 
HETATM   34  H2  UNL     1      -7.302   5.674  72.377  1.00  0.00     0.000 HD 
ENDBRANCH  26  29
ENDBRANCH  20  22
ENDBRANCH  15  20
ENDBRANCH   2  14
TORSDOF 5
ENDMDL
MODEL      188
REMARK 921   NORMALIZED FREE ENERGY PREDICTED BY IDOCK:   -5.57 KCAL/MOL
REMARK 922        TOTAL FREE ENERGY PREDICTED BY IDOCK:   -7.66 KCAL/MOL
REMARK 923 INTER-LIGAND FREE ENERGY PREDICTED BY IDOCK:   -6.57 KCAL/MOL
REMARK 924 INTRA-LIGAND FREE ENERGY PREDICTED BY IDOCK:   -1.09 KCAL/MOL
REMARK 927      BINDING AFFINITY PREDICTED BY RF-SCORE:    0.00 PKD
ROOT
HETATM    1  C   UNL     1     -13.795   9.191  72.397  1.00  0.00    -0.457 C  
HETATM    2  N   UNL     1     -12.420   9.176  71.897  1.00  0.00    -0.362 NA 
ENDROOT
BRANCH   2   3
HETATM    3  C   UNL     1     -11.641   8.015  72.176  1.00  0.00    -0.342 A  
HETATM    4  C   UNL     1     -11.154   5.618  71.472  1.00  0.00    -0.235 A  
HETATM    5  C   UNL     1      -9.037   3.373  72.182  1.00  0.00    -0.149 C  
HETATM    6  C   UNL     1     -10.642   8.021  73.184  1.00  0.00    -0.226 A  
HETATM    7  C   UNL     1      -9.901   6.830  73.297  1.00  0.00    -0.190 A  
HETATM    8  C   UNL     1     -10.175   5.703  72.449  1.00  0.00    -0.232 A  
HETATM    9  C   UNL     1      -9.264   4.721  72.760  1.00  0.00    -0.129 A  
HETATM   10  N   UNL     1      -8.892   6.521  74.127  1.00  0.00    -0.145 NA 
HETATM   11  N   UNL     1      -8.519   5.270  73.777  1.00  0.00    -0.111 NA 
HETATM   12  C   UNL     1      -7.412   4.657  74.474  1.00  0.00    -0.084 C  
HETATM   13  C   UNL     1     -11.878   6.829  71.381  1.00  0.00    -0.385 A  
ENDBRANCH   2   3
BRANCH   2  14
HETATM   14  C   UNL     1     -12.042  10.199  71.000  1.00  0.00    -0.377 A  
HETATM   15  C   UNL     1     -10.508  10.982  69.435  1.00  0.00    -0.142 A  
HETATM   16  N   UNL     1     -11.125  12.159  69.294  1.00  0.00    -0.204 NA 
HETATM   17  C   UNL     1     -12.252  12.320  70.005  1.00  0.00    -0.196 A  
HETATM   18  C   UNL     1     -12.760  11.372  70.864  1.00  0.00    -0.397 A  
HETATM   19  N   UNL     1     -10.925  10.021  70.271  1.00  0.00    -0.295 NA 
BRANCH  15  20
HETATM   20  N   UNL     1      -9.350  10.782  68.686  1.00  0.00    -0.177 NA 
HETATM   21  H   UNL     1      -8.812  11.620  68.464  1.00  0.00     0.000 HD 
BRANCH  20  22
HETATM   22  C   UNL     1      -8.831   9.574  68.200  1.00  0.00    -0.124 A  
HETATM   23  C   UNL     1      -7.469   9.482  67.909  1.00  0.00    -0.083 A  
HETATM   24  C   UNL     1      -6.902   8.268  67.508  1.00  0.00    -0.070 A  
HETATM   25  C   UNL     1      -7.682   7.105  67.372  1.00  0.00    -0.110 A  
HETATM   26  C   UNL     1      -9.061   7.204  67.628  1.00  0.00    -0.127 A  
HETATM   27  C   UNL     1      -6.999   5.836  66.956  1.00  0.00    -0.065 C  
HETATM   28  C   UNL     1      -9.616   8.425  68.045  1.00  0.00    -0.168 A  
BRANCH  26  29
HETATM   29  S   UNL     1     -10.206   5.850  67.390  1.00  0.00    -0.222 S  
HETATM   30  O   UNL     1      -9.901   4.795  68.324  1.00  0.00    -0.150 OA 
HETATM   31  O   UNL     1     -10.325   5.593  65.971  1.00  0.00    -0.072 OA 
HETATM   32  N   UNL     1     -11.656   6.541  67.867  1.00  0.00    -0.544 N  
HETATM   33  H1  UNL     1     -12.309   5.769  67.732  1.00  0.00     0.000 HD 
HETATM   34  H2  UNL     1     -11.838   7.486  68.205  1.00  0.00     0.000 HD 
ENDBRANCH  26  29
ENDBRANCH  20  22
ENDBRANCH  15  20
ENDBRANCH   2  14
TORSDOF 5
ENDMDL
MODEL      189
REMARK 921   NORMALIZED FREE ENERGY PREDICTED BY IDOCK:   -5.55 KCAL/MOL
REMARK 922        TOTAL FREE ENERGY PREDICTED BY IDOCK:   -7.63 KCAL/MOL
REMARK 923 INTER-LIGAND FREE ENERGY PREDICTED BY IDOCK:   -7.22 KCAL/MOL
REMARK 924 INTRA-LIGAND FREE ENERGY PREDICTED BY IDOCK:   -0.42 KCAL/MOL
REMARK 927      BINDING AFFINITY PREDICTED BY RF-SCORE:    0.00 PKD
ROOT
HETATM    1  C   UNL     1      -9.741  15.244  66.331  1.00  0.00    -0.285 C  
HETATM    2  N   UNL     1      -9.421  14.376  67.466  1.00  0.00    -0.204 NA 
ENDROOT
BRANCH   2   3
HETATM    3  C   UNL     1     -10.323  14.395  68.570  1.00  0.00    -0.248 A  
HETATM    4  C   UNL     1     -12.107  13.080  69.821  1.00  0.00    -0.325 A  
HETATM    5  C   UNL     1     -13.723  13.354  72.531  1.00  0.00    -0.636 C  
HETATM    6  C   UNL     1     -10.343  15.477  69.489  1.00  0.00    -0.271 A  
HETATM    7  C   UNL     1     -11.230  15.324  70.571  1.00  0.00    -0.310 A  
HETATM    8  C   UNL     1     -12.053  14.153  70.696  1.00  0.00    -0.421 A  
HETATM    9  C   UNL     1     -12.764  14.271  71.867  1.00  0.00    -0.338 A  
HETATM   10  N   UNL     1     -11.473  16.146  71.604  1.00  0.00    -0.383 NA 
HETATM   11  N   UNL     1     -12.374  15.491  72.369  1.00  0.00    -0.367 NA 
HETATM   12  C   UNL     1     -12.820  16.108  73.598  1.00  0.00    -0.558 C  
HETATM   13  C   UNL     1     -11.205  13.261  68.748  1.00  0.00    -0.317 A  
ENDBRANCH   2   3
BRANCH   2  14
HETATM   14  C   UNL     1      -8.382  13.436  67.294  1.00  0.00    -0.176 A  
HETATM   15  C   UNL     1      -7.717  11.358  66.484  1.00  0.00    -0.093 A  
HETATM   16  N   UNL     1      -6.483  11.465  66.983  1.00  0.00    -0.108 NA 
HETATM   17  C   UNL     1      -6.202  12.615  67.615  1.00  0.00    -0.148 A  
HETATM   18  C   UNL     1      -7.109  13.635  67.790  1.00  0.00    -0.167 A  
HETATM   19  N   UNL     1      -8.664  12.295  66.637  1.00  0.00    -0.171 NA 
BRANCH  15  20
HETATM   20  N   UNL     1      -8.024  10.182  65.802  1.00  0.00    -0.134 NA 
HETATM   21  H   UNL     1      -7.747  10.150  64.820  1.00  0.00     0.000 HD 
BRANCH  20  22
HETATM   22  C   UNL     1      -8.665   9.037  66.294  1.00  0.00    -0.135 A  
HETATM   23  C   UNL     1      -9.937   9.154  66.858  1.00  0.00    -0.304 A  
HETATM   24  C   UNL     1     -10.642   8.021  67.277  1.00  0.00    -0.360 A  
HETATM   25  C   UNL     1     -10.093   6.731  67.158  1.00  0.00    -0.249 A  
HETATM   26  C   UNL     1      -8.796   6.614  66.627  1.00  0.00    -0.136 A  
HETATM   27  C   UNL     1     -10.917   5.563  67.613  1.00  0.00     0.106 C  
HETATM   28  C   UNL     1      -8.105   7.758  66.195  1.00  0.00    -0.113 A  
BRANCH  26  29
HETATM   29  S   UNL     1      -7.913   5.061  66.518  1.00  0.00    -0.108 S  
HETATM   30  O   UNL     1      -8.306   4.209  67.611  1.00  0.00    -0.097 OA 
HETATM   31  O   UNL     1      -6.521   5.344  66.240  1.00  0.00    -0.041 OA 
HETATM   32  N   UNL     1      -8.550   4.404  65.114  1.00  0.00    -0.122 N  
HETATM   33  H1  UNL     1      -8.047   3.519  65.051  1.00  0.00     0.000 HD 
HETATM   34  H2  UNL     1      -9.256   4.788  64.486  1.00  0.00     0.000 HD 
ENDBRANCH  26  29
ENDBRANCH  20  22
ENDBRANCH  15  20
ENDBRANCH   2  14
TORSDOF 5
ENDMDL
MODEL      190
REMARK 921   NORMALIZED FREE ENERGY PREDICTED BY IDOCK:   -5.54 KCAL/MOL
REMARK 922        TOTAL FREE ENERGY PREDICTED BY IDOCK:   -7.63 KCAL/MOL
REMARK 923 INTER-LIGAND FREE ENERGY PREDICTED BY IDOCK:   -7.02 KCAL/MOL
REMARK 924 INTRA-LIGAND FREE ENERGY PREDICTED BY IDOCK:   -0.61 KCAL/MOL
REMARK 927      BINDING AFFINITY PREDICTED BY RF-SCORE:    0.00 PKD
ROOT
HETATM    1  C   UNL     1     -11.194  10.483  68.062  1.00  0.00    -0.294 C  
HETATM    2  N   UNL     1     -10.264  10.082  67.006  1.00  0.00    -0.225 NA 
ENDROOT
BRANCH   2   3
HETATM    3  C   UNL     1      -9.548   8.864  67.201  1.00  0.00    -0.172 A  
HETATM    4  C   UNL     1      -7.296   7.850  67.814  1.00  0.00    -0.096 A  
HETATM    5  C   UNL     1      -6.144   4.973  68.468  1.00  0.00    -0.030 C  
HETATM    6  C   UNL     1     -10.197   7.604  67.112  1.00  0.00    -0.360 A  
HETATM    7  C   UNL     1      -9.384   6.493  67.403  1.00  0.00    -0.121 A  
HETATM    8  C   UNL     1      -7.998   6.656  67.743  1.00  0.00    -0.112 A  
HETATM    9  C   UNL     1      -7.490   5.409  68.019  1.00  0.00    -0.077 A  
HETATM   10  N   UNL     1      -9.691   5.186  67.422  1.00  0.00    -0.143 NA 
HETATM   11  N   UNL     1      -8.555   4.565  67.808  1.00  0.00    -0.102 NA 
HETATM   12  C   UNL     1      -8.569   3.127  67.963  1.00  0.00    -0.093 C  
HETATM   13  C   UNL     1      -8.139   8.946  67.521  1.00  0.00    -0.109 A  
ENDBRANCH   2   3
BRANCH   2  14
HETATM   14  C   UNL     1     -10.307  10.802  65.793  1.00  0.00    -0.230 A  
HETATM   15  C   UNL     1     -10.627  12.842  64.720  1.00  0.00    -0.342 A  
HETATM   16  N   UNL     1     -10.529  12.311  63.498  1.00  0.00    -0.438 NA 
HETATM   17  C   UNL     1     -10.272  10.995  63.449  1.00  0.00    -0.346 A  
HETATM   18  C   UNL     1     -10.142  10.196  64.562  1.00  0.00    -0.158 A  
HETATM   19  N   UNL     1     -10.541  12.126  65.851  1.00  0.00    -0.250 NA 
BRANCH  15  20
HETATM   20  N   UNL     1     -10.869  14.213  64.797  1.00  0.00    -0.429 NA 
HETATM   21  H   UNL     1     -11.236  14.649  63.951  1.00  0.00     0.000 HD 
BRANCH  20  22
HETATM   22  C   UNL     1     -10.672  15.067  65.890  1.00  0.00    -0.331 A  
HETATM   23  C   UNL     1      -9.890  16.212  65.732  1.00  0.00    -0.354 A  
HETATM   24  C   UNL     1      -9.746  17.132  66.776  1.00  0.00    -0.277 A  
HETATM   25  C   UNL     1     -10.370  16.931  68.020  1.00  0.00    -0.334 A  
HETATM   26  C   UNL     1     -11.127  15.759  68.196  1.00  0.00    -0.341 A  
HETATM   27  C   UNL     1     -10.185  17.971  69.085  1.00  0.00    -0.157 C  
HETATM   28  C   UNL     1     -11.278  14.851  67.134  1.00  0.00    -0.345 A  
BRANCH  26  29
HETATM   29  S   UNL     1     -11.887  15.300  69.749  1.00  0.00    -0.351 S  
HETATM   30  O   UNL     1     -13.065  16.102  69.961  1.00  0.00     0.198 OA 
HETATM   31  O   UNL     1     -10.850  15.196  70.753  1.00  0.00    -0.258 OA 
HETATM   32  N   UNL     1     -12.395  13.734  69.432  1.00  0.00    -0.340 N  
HETATM   33  H1  UNL     1     -12.828  13.473  70.317  1.00  0.00     0.000 HD 
HETATM   34  H2  UNL     1     -12.297  13.187  68.577  1.00  0.00     0.000 HD 
ENDBRANCH  26  29
ENDBRANCH  20  22
ENDBRANCH  15  20
ENDBRANCH   2  14
TORSDOF 5
ENDMDL
MODEL      191
REMARK 921   NORMALIZED FREE ENERGY PREDICTED BY IDOCK:   -5.54 KCAL/MOL
REMARK 922        TOTAL FREE ENERGY PREDICTED BY IDOCK:   -7.62 KCAL/MOL
REMARK 923 INTER-LIGAND FREE ENERGY PREDICTED BY IDOCK:   -7.14 KCAL/MOL
REMARK 924 INTRA-LIGAND FREE ENERGY PREDICTED BY IDOCK:   -0.48 KCAL/MOL
REMARK 927      BINDING AFFINITY PREDICTED BY RF-SCORE:    0.00 PKD
ROOT
HETATM    1  C   UNL     1      -7.061  13.186  68.651  1.00  0.00    -0.103 C  
HETATM    2  N   UNL     1      -8.308  13.596  68.004  1.00  0.00    -0.158 NA 
ENDROOT
BRANCH   2   3
HETATM    3  C   UNL     1      -8.445  14.978  67.678  1.00  0.00    -0.160 A  
HETATM    4  C   UNL     1      -9.727  17.118  68.182  1.00  0.00    -0.276 A  
HETATM    5  C   UNL     1      -9.512  20.187  67.431  1.00  0.00    -0.531 C  
HETATM    6  C   UNL     1      -7.566  15.609  66.759  1.00  0.00    -0.125 A  
HETATM    7  C   UNL     1      -7.772  16.991  66.591  1.00  0.00    -0.267 A  
HETATM    8  C   UNL     1      -8.816  17.678  67.300  1.00  0.00    -0.240 A  
HETATM    9  C   UNL     1      -8.734  19.010  66.970  1.00  0.00    -0.294 A  
HETATM   10  N   UNL     1      -7.113  17.871  65.819  1.00  0.00    -0.483 NA 
HETATM   11  N   UNL     1      -7.691  19.065  66.075  1.00  0.00    -0.400 NA 
HETATM   12  C   UNL     1      -7.173  20.241  65.414  1.00  0.00    -0.180 C  
HETATM   13  C   UNL     1      -9.494  15.731  68.332  1.00  0.00    -0.196 A  
ENDBRANCH   2   3
BRANCH   2  14
HETATM   14  C   UNL     1      -9.176  12.576  67.557  1.00  0.00    -0.188 A  
HETATM   15  C   UNL     1      -9.786  10.332  67.634  1.00  0.00    -0.164 A  
HETATM   16  N   UNL     1     -10.724  10.467  66.692  1.00  0.00    -0.196 NA 
HETATM   17  C   UNL     1     -10.902  11.709  66.215  1.00  0.00    -0.286 A  
HETATM   18  C   UNL     1     -10.164  12.799  66.618  1.00  0.00    -0.246 A  
HETATM   19  N   UNL     1      -9.009  11.339  68.058  1.00  0.00    -0.150 NA 
BRANCH  15  20
HETATM   20  N   UNL     1      -9.600   9.056  68.162  1.00  0.00    -0.146 NA 
HETATM   21  H   UNL     1      -9.292   8.340  67.504  1.00  0.00     0.000 HD 
BRANCH  20  22
HETATM   22  C   UNL     1      -9.785   8.631  69.486  1.00  0.00    -0.179 A  
HETATM   23  C   UNL     1      -8.706   8.660  70.371  1.00  0.00    -0.165 A  
HETATM   24  C   UNL     1      -8.875   8.329  71.719  1.00  0.00    -0.230 A  
HETATM   25  C   UNL     1     -10.130   7.945  72.227  1.00  0.00    -0.297 A  
HETATM   26  C   UNL     1     -11.211   7.878  71.330  1.00  0.00    -0.255 A  
HETATM   27  C   UNL     1     -10.238   7.623  73.687  1.00  0.00    -0.237 C  
HETATM   28  C   UNL     1     -11.031   8.228  69.981  1.00  0.00    -0.197 A  
BRANCH  26  29
HETATM   29  S   UNL     1     -12.839   7.298  71.791  1.00  0.00    -0.299 S  
HETATM   30  O   UNL     1     -12.714   6.097  72.578  1.00  0.00    -0.002 OA 
HETATM   31  O   UNL     1     -13.693   7.352  70.624  1.00  0.00     0.166 OA 
HETATM   32  N   UNL     1     -13.360   8.519  72.814  1.00  0.00    -0.659 N  
HETATM   33  H1  UNL     1     -14.288   8.188  73.077  1.00  0.00     0.000 HD 
HETATM   34  H2  UNL     1     -12.876   9.370  73.099  1.00  0.00     0.000 HD 
ENDBRANCH  26  29
ENDBRANCH  20  22
ENDBRANCH  15  20
ENDBRANCH   2  14
TORSDOF 5
ENDMDL
MODEL      192
REMARK 921   NORMALIZED FREE ENERGY PREDICTED BY IDOCK:   -5.53 KCAL/MOL
REMARK 922        TOTAL FREE ENERGY PREDICTED BY IDOCK:   -7.61 KCAL/MOL
REMARK 923 INTER-LIGAND FREE ENERGY PREDICTED BY IDOCK:   -7.36 KCAL/MOL
REMARK 924 INTRA-LIGAND FREE ENERGY PREDICTED BY IDOCK:   -0.25 KCAL/MOL
REMARK 927      BINDING AFFINITY PREDICTED BY RF-SCORE:    0.00 PKD
ROOT
HETATM    1  C   UNL     1     -11.551  11.195  70.108  1.00  0.00    -0.323 C  
HETATM    2  N   UNL     1     -10.775  10.739  68.954  1.00  0.00    -0.207 NA 
ENDROOT
BRANCH   2   3
HETATM    3  C   UNL     1     -10.300   9.395  68.982  1.00  0.00    -0.210 A  
HETATM    4  C   UNL     1      -8.927   7.648  67.743  1.00  0.00    -0.131 A  
HETATM    5  C   UNL     1      -7.803   4.742  68.314  1.00  0.00    -0.081 C  
HETATM    6  C   UNL     1     -10.547   8.548  70.095  1.00  0.00    -0.238 A  
HETATM    7  C   UNL     1      -9.955   7.274  70.017  1.00  0.00    -0.184 A  
HETATM    8  C   UNL     1      -9.177   6.886  68.874  1.00  0.00    -0.132 A  
HETATM    9  C   UNL     1      -8.695   5.621  69.112  1.00  0.00    -0.108 A  
HETATM   10  N   UNL     1      -9.983   6.259  70.896  1.00  0.00    -0.184 NA 
HETATM   11  N   UNL     1      -9.213   5.296  70.344  1.00  0.00    -0.144 NA 
HETATM   12  C   UNL     1      -9.011   4.066  71.075  1.00  0.00    -0.107 C  
HETATM   13  C   UNL     1      -9.532   8.921  67.851  1.00  0.00    -0.160 A  
ENDBRANCH   2   3
BRANCH   2  14
HETATM   14  C   UNL     1     -10.743  11.578  67.819  1.00  0.00    -0.207 A  
HETATM   15  C   UNL     1      -9.748  13.372  66.720  1.00  0.00    -0.262 A  
HETATM   16  N   UNL     1     -10.631  13.357  65.718  1.00  0.00    -0.278 NA 
HETATM   17  C   UNL     1     -11.562  12.391  65.769  1.00  0.00    -0.398 A  
HETATM   18  C   UNL     1     -11.658  11.471  66.789  1.00  0.00    -0.133 A  
HETATM   19  N   UNL     1      -9.792  12.529  67.762  1.00  0.00    -0.199 NA 
BRANCH  15  20
HETATM   20  N   UNL     1      -8.757  14.351  66.674  1.00  0.00    -0.439 NA 
HETATM   21  H   UNL     1      -7.818  14.025  66.446  1.00  0.00     0.000 HD 
BRANCH  20  22
HETATM   22  C   UNL     1      -8.889  15.727  66.904  1.00  0.00    -0.245 A  
HETATM   23  C   UNL     1      -9.981  16.198  67.635  1.00  0.00    -0.241 A  
HETATM   24  C   UNL     1     -10.095  17.554  67.958  1.00  0.00    -0.332 A  
HETATM   25  C   UNL     1      -9.127  18.489  67.551  1.00  0.00    -0.289 A  
HETATM   26  C   UNL     1      -8.046  18.024  66.781  1.00  0.00    -0.242 A  
HETATM   27  C   UNL     1      -9.309  19.923  67.951  1.00  0.00    -0.448 C  
HETATM   28  C   UNL     1      -7.933  16.657  66.476  1.00  0.00    -0.342 A  
BRANCH  26  29
HETATM   29  S   UNL     1      -6.794  19.099  66.088  1.00  0.00    -0.245 S  
HETATM   30  O   UNL     1      -6.110  18.412  65.023  1.00  0.00    -0.249 OA 
HETATM   31  O   UNL     1      -6.071  19.722  67.176  1.00  0.00    -0.184 OA 
HETATM   32  N   UNL     1      -7.727  20.305  65.391  1.00  0.00    -0.417 N  
HETATM   33  H1  UNL     1      -7.014  20.918  64.996  1.00  0.00     0.000 HD 
HETATM   34  H2  UNL     1      -8.742  20.400  65.368  1.00  0.00     0.000 HD 
ENDBRANCH  26  29
ENDBRANCH  20  22
ENDBRANCH  15  20
ENDBRANCH   2  14
TORSDOF 5
ENDMDL
MODEL      193
REMARK 921   NORMALIZED FREE ENERGY PREDICTED BY IDOCK:   -5.52 KCAL/MOL
REMARK 922        TOTAL FREE ENERGY PREDICTED BY IDOCK:   -7.60 KCAL/MOL
REMARK 923 INTER-LIGAND FREE ENERGY PREDICTED BY IDOCK:   -7.09 KCAL/MOL
REMARK 924 INTRA-LIGAND FREE ENERGY PREDICTED BY IDOCK:   -0.51 KCAL/MOL
REMARK 927      BINDING AFFINITY PREDICTED BY RF-SCORE:    0.00 PKD
ROOT
HETATM    1  C   UNL     1     -12.038  12.649  70.036  1.00  0.00    -0.269 C  
HETATM    2  N   UNL     1     -11.855  11.235  69.708  1.00  0.00    -0.332 NA 
ENDROOT
BRANCH   2   3
HETATM    3  C   UNL     1     -11.141  10.933  68.511  1.00  0.00    -0.256 A  
HETATM    4  C   UNL     1      -9.613   9.250  67.368  1.00  0.00    -0.190 A  
HETATM    5  C   UNL     1      -8.444   8.771  64.464  1.00  0.00    -0.158 C  
HETATM    6  C   UNL     1     -11.241  11.764  67.363  1.00  0.00    -0.357 A  
HETATM    7  C   UNL     1     -10.543  11.303  66.232  1.00  0.00    -0.263 A  
HETATM    8  C   UNL     1      -9.780  10.086  66.275  1.00  0.00    -0.272 A  
HETATM    9  C   UNL     1      -9.262   9.878  65.019  1.00  0.00    -0.240 A  
HETATM   10  N   UNL     1     -10.447  11.839  65.005  1.00  0.00    -0.272 NA 
HETATM   11  N   UNL     1      -9.696  10.966  64.298  1.00  0.00    -0.268 NA 
HETATM   12  C   UNL     1      -9.438  11.245  62.903  1.00  0.00    -0.361 C  
HETATM   13  C   UNL     1     -10.327   9.737  68.486  1.00  0.00    -0.228 A  
ENDBRANCH   2   3
BRANCH   2  14
HETATM   14  C   UNL     1     -12.199  10.288  70.697  1.00  0.00    -0.329 A  
HETATM   15  C   UNL     1     -11.492   8.637  72.177  1.00  0.00    -0.373 A  
HETATM   16  N   UNL     1     -12.735   8.327  72.558  1.00  0.00    -0.239 NA 
HETATM   17  C   UNL     1     -13.717   9.060  72.009  1.00  0.00    -0.461 A  
HETATM   18  C   UNL     1     -13.505  10.056  71.083  1.00  0.00    -0.299 A  
HETATM   19  N   UNL     1     -11.207   9.574  71.261  1.00  0.00    -0.358 NA 
BRANCH  15  20
HETATM   20  N   UNL     1     -10.454   7.906  72.753  1.00  0.00    -0.320 NA 
HETATM   21  H   UNL     1     -10.069   8.284  73.619  1.00  0.00     0.000 HD 
BRANCH  20  22
HETATM   22  C   UNL     1      -9.872   6.717  72.292  1.00  0.00    -0.155 A  
HETATM   23  C   UNL     1     -10.615   5.535  72.322  1.00  0.00    -0.276 A  
HETATM   24  C   UNL     1     -10.098   4.351  71.787  1.00  0.00    -0.238 A  
HETATM   25  C   UNL     1      -8.814   4.304  71.215  1.00  0.00    -0.150 A  
HETATM   26  C   UNL     1      -8.048   5.484  71.219  1.00  0.00    -0.113 A  
HETATM   27  C   UNL     1      -8.335   3.002  70.646  1.00  0.00    -0.085 C  
HETATM   28  C   UNL     1      -8.584   6.672  71.744  1.00  0.00    -0.126 A  
BRANCH  26  29
HETATM   29  S   UNL     1      -6.358   5.563  70.637  1.00  0.00    -0.032 S  
HETATM   30  O   UNL     1      -6.333   5.355  69.211  1.00  0.00    -0.031 OA 
HETATM   31  O   UNL     1      -5.528   4.785  71.531  1.00  0.00    -0.004 OA 
HETATM   32  N   UNL     1      -5.975   7.171  70.917  1.00  0.00    -0.035 N  
HETATM   33  H1  UNL     1      -5.012   7.216  70.585  1.00  0.00     0.000 HD 
HETATM   34  H2  UNL     1      -6.554   7.910  71.316  1.00  0.00     0.000 HD 
ENDBRANCH  26  29
ENDBRANCH  20  22
ENDBRANCH  15  20
ENDBRANCH   2  14
TORSDOF 5
ENDMDL
MODEL      194
REMARK 921   NORMALIZED FREE ENERGY PREDICTED BY IDOCK:   -5.51 KCAL/MOL
REMARK 922        TOTAL FREE ENERGY PREDICTED BY IDOCK:   -7.58 KCAL/MOL
REMARK 923 INTER-LIGAND FREE ENERGY PREDICTED BY IDOCK:   -6.20 KCAL/MOL
REMARK 924 INTRA-LIGAND FREE ENERGY PREDICTED BY IDOCK:   -1.38 KCAL/MOL
REMARK 927      BINDING AFFINITY PREDICTED BY RF-SCORE:    0.00 PKD
ROOT
HETATM    1  C   UNL     1     -12.875  12.227  63.731  1.00  0.00    -0.308 C  
HETATM    2  N   UNL     1     -11.751  12.558  64.608  1.00  0.00    -0.342 NA 
ENDROOT
BRANCH   2   3
HETATM    3  C   UNL     1     -10.980  11.471  65.114  1.00  0.00    -0.234 A  
HETATM    4  C   UNL     1      -9.201   9.742  64.547  1.00  0.00    -0.310 A  
HETATM    5  C   UNL     1      -7.456   7.607  66.105  1.00  0.00    -0.083 C  
HETATM    6  C   UNL     1     -11.061  11.079  66.476  1.00  0.00    -0.174 A  
HETATM    7  C   UNL     1     -10.188  10.040  66.850  1.00  0.00    -0.238 A  
HETATM    8  C   UNL     1      -9.305   9.432  65.894  1.00  0.00    -0.290 A  
HETATM    9  C   UNL     1      -8.551   8.497  66.563  1.00  0.00    -0.121 A  
HETATM   10  N   UNL     1     -10.009   9.458  68.046  1.00  0.00    -0.168 NA 
HETATM   11  N   UNL     1      -9.020   8.557  67.854  1.00  0.00    -0.137 NA 
HETATM   12  C   UNL     1      -8.564   7.778  68.983  1.00  0.00    -0.135 C  
HETATM   13  C   UNL     1     -10.086  10.788  64.202  1.00  0.00    -0.418 A  
ENDBRANCH   2   3
BRANCH   2  14
HETATM   14  C   UNL     1     -11.384  13.918  64.710  1.00  0.00    -0.363 A  
HETATM   15  C   UNL     1      -9.787  15.487  65.347  1.00  0.00    -0.256 A  
HETATM   16  N   UNL     1     -10.577  16.528  65.068  1.00  0.00    -0.698 NA 
HETATM   17  C   UNL     1     -11.783  16.231  64.559  1.00  0.00     0.030 A  
HETATM   18  C   UNL     1     -12.232  14.947  64.350  1.00  0.00    -0.399 A  
HETATM   19  N   UNL     1     -10.164  14.208  65.198  1.00  0.00    -0.391 NA 
BRANCH  15  20
HETATM   20  N   UNL     1      -8.520  15.771  65.853  1.00  0.00    -0.152 NA 
HETATM   21  H   UNL     1      -7.923  16.349  65.262  1.00  0.00     0.000 HD 
BRANCH  20  22
HETATM   22  C   UNL     1      -7.964  15.364  67.074  1.00  0.00    -0.224 A  
HETATM   23  C   UNL     1      -7.820  16.293  68.105  1.00  0.00    -0.156 A  
HETATM   24  C   UNL     1      -7.352  15.901  69.363  1.00  0.00    -0.217 A  
HETATM   25  C   UNL     1      -6.999  14.565  69.630  1.00  0.00    -0.122 A  
HETATM   26  C   UNL     1      -7.106  13.634  68.582  1.00  0.00    -0.105 A  
HETATM   27  C   UNL     1      -6.523  14.217  71.009  1.00  0.00     0.227 C  
HETATM   28  C   UNL     1      -7.593  14.037  67.327  1.00  0.00    -0.094 A  
BRANCH  26  29
HETATM   29  S   UNL     1      -6.589  11.927  68.724  1.00  0.00    -0.087 S  
HETATM   30  O   UNL     1      -7.563  11.195  69.493  1.00  0.00    -0.069 OA 
HETATM   31  O   UNL     1      -5.182  11.901  69.061  1.00  0.00    -0.051 OA 
HETATM   32  N   UNL     1      -6.704  11.402  67.136  1.00  0.00    -0.110 N  
HETATM   33  H1  UNL     1      -6.410  10.429  67.217  1.00  0.00     0.000 HD 
HETATM   34  H2  UNL     1      -6.993  11.920  66.306  1.00  0.00     0.000 HD 
ENDBRANCH  26  29
ENDBRANCH  20  22
ENDBRANCH  15  20
ENDBRANCH   2  14
TORSDOF 5
ENDMDL
MODEL      195
REMARK 921   NORMALIZED FREE ENERGY PREDICTED BY IDOCK:   -5.49 KCAL/MOL
REMARK 922        TOTAL FREE ENERGY PREDICTED BY IDOCK:   -7.55 KCAL/MOL
REMARK 923 INTER-LIGAND FREE ENERGY PREDICTED BY IDOCK:   -7.05 KCAL/MOL
REMARK 924 INTRA-LIGAND FREE ENERGY PREDICTED BY IDOCK:   -0.51 KCAL/MOL
REMARK 927      BINDING AFFINITY PREDICTED BY RF-SCORE:    0.00 PKD
ROOT
HETATM    1  C   UNL     1      -9.970   6.166  66.633  1.00  0.00    -0.158 C  
HETATM    2  N   UNL     1     -10.179   7.221  67.626  1.00  0.00    -0.183 NA 
ENDROOT
BRANCH   2   3
HETATM    3  C   UNL     1     -10.045   6.856  68.998  1.00  0.00    -0.170 A  
HETATM    4  C   UNL     1     -11.286   6.039  71.064  1.00  0.00    -0.332 A  
HETATM    5  C   UNL     1     -10.542   5.006  73.964  1.00  0.00    -0.348 C  
HETATM    6  C   UNL     1      -8.775   6.821  69.631  1.00  0.00    -0.137 A  
HETATM    7  C   UNL     1      -8.786   6.370  70.964  1.00  0.00    -0.135 A  
HETATM    8  C   UNL     1     -10.013   5.996  71.611  1.00  0.00    -0.211 A  
HETATM    9  C   UNL     1      -9.697   5.556  72.874  1.00  0.00    -0.154 A  
HETATM   10  N   UNL     1      -7.768   6.209  71.825  1.00  0.00    -0.100 NA 
HETATM   11  N   UNL     1      -8.332   5.708  72.946  1.00  0.00    -0.119 NA 
HETATM   12  C   UNL     1      -7.478   5.386  74.067  1.00  0.00    -0.090 C  
HETATM   13  C   UNL     1     -11.242   6.493  69.726  1.00  0.00    -0.456 A  
ENDBRANCH   2   3
BRANCH   2  14
HETATM   14  C   UNL     1     -10.276   8.548  67.155  1.00  0.00    -0.284 A  
HETATM   15  C   UNL     1     -10.927  10.744  67.567  1.00  0.00    -0.312 A  
HETATM   16  N   UNL     1     -10.629  11.153  66.331  1.00  0.00    -0.260 NA 
HETATM   17  C   UNL     1     -10.104  10.226  65.515  1.00  0.00    -0.281 A  
HETATM   18  C   UNL     1      -9.897   8.914  65.878  1.00  0.00    -0.200 A  
HETATM   19  N   UNL     1     -10.781   9.478  67.986  1.00  0.00    -0.234 NA 
BRANCH  15  20
HETATM   20  N   UNL     1     -11.451  11.697  68.439  1.00  0.00    -0.270 NA 
HETATM   21  H   UNL     1     -12.169  11.365  69.083  1.00  0.00     0.000 HD 
BRANCH  20  22
HETATM   22  C   UNL     1     -11.115  13.054  68.542  1.00  0.00    -0.266 A  
HETATM   23  C   UNL     1     -12.109  13.983  68.851  1.00  0.00    -0.351 A  
HETATM   24  C   UNL     1     -11.794  15.331  69.050  1.00  0.00    -0.342 A  
HETATM   25  C   UNL     1     -10.472  15.799  68.934  1.00  0.00    -0.223 A  
HETATM   26  C   UNL     1      -9.474  14.872  68.584  1.00  0.00    -0.208 A  
HETATM   27  C   UNL     1     -10.208  17.254  69.179  1.00  0.00    -0.283 C  
HETATM   28  C   UNL     1      -9.801  13.517  68.403  1.00  0.00    -0.225 A  
BRANCH  26  29
HETATM   29  S   UNL     1      -7.769  15.325  68.284  1.00  0.00    -0.117 S  
HETATM   30  O   UNL     1      -7.041  15.297  69.528  1.00  0.00    -0.173 OA 
HETATM   31  O   UNL     1      -7.748  16.485  67.420  1.00  0.00    -0.135 OA 
HETATM   32  N   UNL     1      -7.231  14.036  67.358  1.00  0.00    -0.288 N  
HETATM   33  H1  UNL     1      -6.259  14.295  67.187  1.00  0.00     0.000 HD 
HETATM   34  H2  UNL     1      -7.741  13.210  67.046  1.00  0.00     0.000 HD 
ENDBRANCH  26  29
ENDBRANCH  20  22
ENDBRANCH  15  20
ENDBRANCH   2  14
TORSDOF 5
ENDMDL
MODEL      196
REMARK 921   NORMALIZED FREE ENERGY PREDICTED BY IDOCK:   -5.46 KCAL/MOL
REMARK 922        TOTAL FREE ENERGY PREDICTED BY IDOCK:   -7.52 KCAL/MOL
REMARK 923 INTER-LIGAND FREE ENERGY PREDICTED BY IDOCK:   -7.28 KCAL/MOL
REMARK 924 INTRA-LIGAND FREE ENERGY PREDICTED BY IDOCK:   -0.24 KCAL/MOL
REMARK 927      BINDING AFFINITY PREDICTED BY RF-SCORE:    0.00 PKD
ROOT
HETATM    1  C   UNL     1     -12.616  13.248  65.403  1.00  0.00    -0.468 C  
HETATM    2  N   UNL     1     -11.153  13.269  65.418  1.00  0.00    -0.281 NA 
ENDROOT
BRANCH   2   3
HETATM    3  C   UNL     1     -10.527  14.304  66.173  1.00  0.00    -0.292 A  
HETATM    4  C   UNL     1      -8.307  15.193  67.045  1.00  0.00    -0.263 A  
HETATM    5  C   UNL     1      -7.258  17.809  68.488  1.00  0.00    -0.259 C  
HETATM    6  C   UNL     1     -11.274  15.399  66.684  1.00  0.00    -0.175 A  
HETATM    7  C   UNL     1     -10.513  16.383  67.343  1.00  0.00    -0.309 A  
HETATM    8  C   UNL     1      -9.090  16.248  67.487  1.00  0.00    -0.196 A  
HETATM    9  C   UNL     1      -8.630  17.377  68.122  1.00  0.00    -0.248 A  
HETATM   10  N   UNL     1     -10.907  17.531  67.917  1.00  0.00    -0.331 NA 
HETATM   11  N   UNL     1      -9.769  18.112  68.356  1.00  0.00    -0.337 NA 
HETATM   12  C   UNL     1      -9.854  19.404  69.000  1.00  0.00    -0.419 C  
HETATM   13  C   UNL     1      -9.098  14.224  66.385  1.00  0.00    -0.171 A  
ENDBRANCH   2   3
BRANCH   2  14
HETATM   14  C   UNL     1     -10.480  12.152  64.878  1.00  0.00    -0.288 A  
HETATM   15  C   UNL     1      -9.183  10.257  65.257  1.00  0.00    -0.199 A  
HETATM   16  N   UNL     1      -9.035   9.995  63.955  1.00  0.00    -0.220 NA 
HETATM   17  C   UNL     1      -9.670  10.825  63.113  1.00  0.00    -0.357 A  
HETATM   18  C   UNL     1     -10.412  11.910  63.519  1.00  0.00    -0.505 A  
HETATM   19  N   UNL     1      -9.866  11.310  65.729  1.00  0.00    -0.221 NA 
BRANCH  15  20
HETATM   20  N   UNL     1      -8.553   9.394  66.152  1.00  0.00    -0.132 NA 
HETATM   21  H   UNL     1      -7.541   9.316  66.059  1.00  0.00     0.000 HD 
BRANCH  20  22
HETATM   22  C   UNL     1      -9.137   8.618  67.163  1.00  0.00    -0.133 A  
HETATM   23  C   UNL     1     -10.077   9.200  68.015  1.00  0.00    -0.238 A  
HETATM   24  C   UNL     1     -10.745   8.433  68.976  1.00  0.00    -0.101 A  
HETATM   25  C   UNL     1     -10.484   7.059  69.127  1.00  0.00    -0.218 A  
HETATM   26  C   UNL     1      -9.509   6.478  68.296  1.00  0.00    -0.118 A  
HETATM   27  C   UNL     1     -11.253   6.299  70.167  1.00  0.00    -0.470 C  
HETATM   28  C   UNL     1      -8.857   7.255  67.323  1.00  0.00    -0.124 A  
BRANCH  26  29
HETATM   29  S   UNL     1      -8.980   4.775  68.439  1.00  0.00    -0.116 S  
HETATM   30  O   UNL     1     -10.071   3.904  68.083  1.00  0.00     0.068 OA 
HETATM   31  O   UNL     1      -8.264   4.621  69.687  1.00  0.00    -0.070 OA 
HETATM   32  N   UNL     1      -7.834   4.670  67.221  1.00  0.00    -0.090 N  
HETATM   33  H1  UNL     1      -7.532   3.699  67.302  1.00  0.00     0.000 HD 
HETATM   34  H2  UNL     1      -7.520   5.388  66.569  1.00  0.00     0.000 HD 
ENDBRANCH  26  29
ENDBRANCH  20  22
ENDBRANCH  15  20
ENDBRANCH   2  14
TORSDOF 5
ENDMDL
MODEL      197
REMARK 921   NORMALIZED FREE ENERGY PREDICTED BY IDOCK:   -5.46 KCAL/MOL
REMARK 922        TOTAL FREE ENERGY PREDICTED BY IDOCK:   -7.52 KCAL/MOL
REMARK 923 INTER-LIGAND FREE ENERGY PREDICTED BY IDOCK:   -6.70 KCAL/MOL
REMARK 924 INTRA-LIGAND FREE ENERGY PREDICTED BY IDOCK:   -0.83 KCAL/MOL
REMARK 927      BINDING AFFINITY PREDICTED BY RF-SCORE:    0.00 PKD
ROOT
HETATM    1  C   UNL     1      -7.859  10.424  69.855  1.00  0.00    -0.034 C  
HETATM    2  N   UNL     1      -9.265  10.055  69.686  1.00  0.00    -0.221 NA 
ENDROOT
BRANCH   2   3
HETATM    3  C   UNL     1     -10.000  10.749  68.680  1.00  0.00    -0.182 A  
HETATM    4  C   UNL     1     -11.644  12.640  68.237  1.00  0.00    -0.377 A  
HETATM    5  C   UNL     1     -12.849  14.128  65.714  1.00  0.00    -0.363 C  
HETATM    6  C   UNL     1      -9.845  10.435  67.304  1.00  0.00    -0.214 A  
HETATM    7  C   UNL     1     -10.576  11.251  66.421  1.00  0.00    -0.266 A  
HETATM    8  C   UNL     1     -11.421  12.304  66.911  1.00  0.00    -0.418 A  
HETATM    9  C   UNL     1     -11.955  12.948  65.820  1.00  0.00    -0.443 A  
HETATM   10  N   UNL     1     -10.636  11.227  65.080  1.00  0.00    -0.299 NA 
HETATM   11  N   UNL     1     -11.447  12.254  64.746  1.00  0.00    -0.321 NA 
HETATM   12  C   UNL     1     -11.688  12.520  63.346  1.00  0.00    -0.488 C  
HETATM   13  C   UNL     1     -10.896  11.806  69.099  1.00  0.00    -0.221 A  
ENDBRANCH   2   3
BRANCH   2  14
HETATM   14  C   UNL     1      -9.723   8.906  70.367  1.00  0.00    -0.191 A  
HETATM   15  C   UNL     1      -9.468   6.632  70.790  1.00  0.00    -0.168 A  
HETATM   16  N   UNL     1     -10.570   6.563  71.543  1.00  0.00    -0.225 NA 
HETATM   17  C   UNL     1     -11.226   7.718  71.731  1.00  0.00    -0.256 A  
HETATM   18  C   UNL     1     -10.842   8.918  71.176  1.00  0.00    -0.352 A  
HETATM   19  N   UNL     1      -9.046   7.757  70.193  1.00  0.00    -0.152 NA 
BRANCH  15  20
HETATM   20  N   UNL     1      -8.756   5.449  70.601  1.00  0.00    -0.126 NA 
HETATM   21  H   UNL     1      -8.276   5.081  71.422  1.00  0.00     0.000 HD 
BRANCH  20  22
HETATM   22  C   UNL     1      -8.616   4.701  69.424  1.00  0.00    -0.082 A  
HETATM   23  C   UNL     1      -7.934   3.484  69.463  1.00  0.00    -0.057 A  
HETATM   24  C   UNL     1      -7.854   2.671  68.328  1.00  0.00    -0.056 A  
HETATM   25  C   UNL     1      -8.442   3.054  67.109  1.00  0.00    -0.102 A  
HETATM   26  C   UNL     1      -9.095   4.298  67.056  1.00  0.00    -0.136 A  
HETATM   27  C   UNL     1      -8.329   2.121  65.941  1.00  0.00    -0.095 C  
HETATM   28  C   UNL     1      -9.184   5.099  68.207  1.00  0.00    -0.139 A  
BRANCH  26  29
HETATM   29  S   UNL     1      -9.792   4.981  65.556  1.00  0.00     0.027 S  
HETATM   30  O   UNL     1     -11.095   4.409  65.330  1.00  0.00    -0.203 OA 
HETATM   31  O   UNL     1      -8.772   4.971  64.530  1.00  0.00    -0.151 OA 
HETATM   32  N   UNL     1     -10.016   6.587  65.984  1.00  0.00    -0.387 N  
HETATM   33  H1  UNL     1     -10.413   6.976  65.129  1.00  0.00     0.000 HD 
HETATM   34  H2  UNL     1      -9.808   7.052  66.867  1.00  0.00     0.000 HD 
ENDBRANCH  26  29
ENDBRANCH  20  22
ENDBRANCH  15  20
ENDBRANCH   2  14
TORSDOF 5
ENDMDL
MODEL      198
REMARK 921   NORMALIZED FREE ENERGY PREDICTED BY IDOCK:   -5.42 KCAL/MOL
REMARK 922        TOTAL FREE ENERGY PREDICTED BY IDOCK:   -7.47 KCAL/MOL
REMARK 923 INTER-LIGAND FREE ENERGY PREDICTED BY IDOCK:   -6.99 KCAL/MOL
REMARK 924 INTRA-LIGAND FREE ENERGY PREDICTED BY IDOCK:   -0.48 KCAL/MOL
REMARK 927      BINDING AFFINITY PREDICTED BY RF-SCORE:    0.00 PKD
ROOT
HETATM    1  C   UNL     1      -6.260  13.488  69.633  1.00  0.00    -0.121 C  
HETATM    2  N   UNL     1      -7.071  13.691  68.432  1.00  0.00    -0.096 NA 
ENDROOT
BRANCH   2   3
HETATM    3  C   UNL     1      -7.331  15.038  68.044  1.00  0.00    -0.127 A  
HETATM    4  C   UNL     1      -6.290  17.185  67.158  1.00  0.00    -0.207 A  
HETATM    5  C   UNL     1      -7.303  19.988  66.087  1.00  0.00    -0.319 C  
HETATM    6  C   UNL     1      -8.651  15.560  68.028  1.00  0.00    -0.155 A  
HETATM    7  C   UNL     1      -8.764  16.879  67.551  1.00  0.00    -0.208 A  
HETATM    8  C   UNL     1      -7.606  17.621  67.136  1.00  0.00    -0.227 A  
HETATM    9  C   UNL     1      -8.039  18.842  66.679  1.00  0.00    -0.280 A  
HETATM   10  N   UNL     1      -9.856  17.646  67.398  1.00  0.00    -0.296 NA 
HETATM   11  N   UNL     1      -9.401  18.801  66.862  1.00  0.00    -0.291 NA 
HETATM   12  C   UNL     1     -10.355  19.837  66.540  1.00  0.00    -0.506 C  
HETATM   13  C   UNL     1      -6.209  15.858  67.638  1.00  0.00    -0.182 A  
ENDBRANCH   2   3
BRANCH   2  14
HETATM   14  C   UNL     1      -7.346  12.559  67.634  1.00  0.00    -0.134 A  
HETATM   15  C   UNL     1      -8.837  10.867  67.057  1.00  0.00    -0.140 A  
HETATM   16  N   UNL     1      -7.976  10.277  66.223  1.00  0.00    -0.119 NA 
HETATM   17  C   UNL     1      -6.789  10.887  66.076  1.00  0.00    -0.072 A  
HETATM   18  C   UNL     1      -6.426  12.032  66.748  1.00  0.00     0.030 A  
HETATM   19  N   UNL     1      -8.547  11.967  67.768  1.00  0.00    -0.149 NA 
BRANCH  15  20
HETATM   20  N   UNL     1     -10.085  10.266  67.206  1.00  0.00    -0.193 NA 
HETATM   21  H   UNL     1     -10.835  10.645  66.628  1.00  0.00     0.000 HD 
BRANCH  20  22
HETATM   22  C   UNL     1     -10.440   9.206  68.052  1.00  0.00    -0.224 A  
HETATM   23  C   UNL     1     -10.332   7.894  67.588  1.00  0.00    -0.307 A  
HETATM   24  C   UNL     1     -10.592   6.811  68.434  1.00  0.00    -0.270 A  
HETATM   25  C   UNL     1     -10.983   7.004  69.772  1.00  0.00    -0.283 A  
HETATM   26  C   UNL     1     -11.131   8.325  70.231  1.00  0.00    -0.219 A  
HETATM   27  C   UNL     1     -11.226   5.793  70.623  1.00  0.00    -0.196 C  
HETATM   28  C   UNL     1     -10.851   9.404  69.376  1.00  0.00    -0.208 A  
BRANCH  26  29
HETATM   29  S   UNL     1     -11.730   8.739  71.865  1.00  0.00    -0.375 S  
HETATM   30  O   UNL     1     -12.137  10.121  71.890  1.00  0.00    -0.286 OA 
HETATM   31  O   UNL     1     -10.807   8.203  72.842  1.00  0.00    -0.357 OA 
HETATM   32  N   UNL     1     -13.119   7.805  71.967  1.00  0.00    -0.476 N  
HETATM   33  H1  UNL     1     -13.461   8.041  72.898  1.00  0.00     0.000 HD 
HETATM   34  H2  UNL     1     -13.517   7.168  71.278  1.00  0.00     0.000 HD 
ENDBRANCH  26  29
ENDBRANCH  20  22
ENDBRANCH  15  20
ENDBRANCH   2  14
TORSDOF 5
ENDMDL
MODEL      199
REMARK 921   NORMALIZED FREE ENERGY PREDICTED BY IDOCK:   -5.42 KCAL/MOL
REMARK 922        TOTAL FREE ENERGY PREDICTED BY IDOCK:   -7.47 KCAL/MOL
REMARK 923 INTER-LIGAND FREE ENERGY PREDICTED BY IDOCK:   -7.56 KCAL/MOL
REMARK 924 INTRA-LIGAND FREE ENERGY PREDICTED BY IDOCK:    0.09 KCAL/MOL
REMARK 927      BINDING AFFINITY PREDICTED BY RF-SCORE:    0.00 PKD
ROOT
HETATM    1  C   UNL     1     -11.223   9.145  71.947  1.00  0.00    -0.329 C  
HETATM    2  N   UNL     1     -10.503   8.224  71.069  1.00  0.00    -0.199 NA 
ENDROOT
BRANCH   2   3
HETATM    3  C   UNL     1     -10.134   6.960  71.617  1.00  0.00    -0.190 A  
HETATM    4  C   UNL     1     -11.003   4.835  72.715  1.00  0.00    -0.268 A  
HETATM    5  C   UNL     1      -9.846   2.004  73.539  1.00  0.00    -0.134 C  
HETATM    6  C   UNL     1      -8.790   6.502  71.578  1.00  0.00    -0.139 A  
HETATM    7  C   UNL     1      -8.587   5.206  72.088  1.00  0.00    -0.126 A  
HETATM    8  C   UNL     1      -9.679   4.437  72.616  1.00  0.00    -0.197 A  
HETATM    9  C   UNL     1      -9.180   3.210  72.984  1.00  0.00    -0.090 A  
HETATM   10  N   UNL     1      -7.457   4.487  72.180  1.00  0.00    -0.078 NA 
HETATM   11  N   UNL     1      -7.838   3.300  72.699  1.00  0.00    -0.062 NA 
HETATM   12  C   UNL     1      -6.837   2.274  72.892  1.00  0.00    -0.023 C  
HETATM   13  C   UNL     1     -11.176   6.137  72.194  1.00  0.00    -0.335 A  
ENDBRANCH   2   3
BRANCH   2  14
HETATM   14  C   UNL     1     -10.422   8.558  69.700  1.00  0.00    -0.221 A  
HETATM   15  C   UNL     1     -11.114   9.947  67.965  1.00  0.00    -0.158 A  
HETATM   16  N   UNL     1     -10.448   9.257  67.034  1.00  0.00    -0.250 NA 
HETATM   17  C   UNL     1      -9.723   8.219  67.480  1.00  0.00    -0.165 A  
HETATM   18  C   UNL     1      -9.667   7.832  68.799  1.00  0.00    -0.157 A  
HETATM   19  N   UNL     1     -11.131   9.616  69.264  1.00  0.00    -0.170 NA 
BRANCH  15  20
HETATM   20  N   UNL     1     -11.854  11.045  67.529  1.00  0.00    -0.549 NA 
HETATM   21  H   UNL     1     -12.630  10.839  66.901  1.00  0.00     0.000 HD 
BRANCH  20  22
HETATM   22  C   UNL     1     -11.664  12.397  67.846  1.00  0.00    -0.360 A  
HETATM   23  C   UNL     1     -11.997  12.855  69.122  1.00  0.00    -0.308 A  
HETATM   24  C   UNL     1     -11.737  14.176  69.499  1.00  0.00    -0.364 A  
HETATM   25  C   UNL     1     -11.146  15.090  68.608  1.00  0.00    -0.272 A  
HETATM   26  C   UNL     1     -10.845  14.643  67.310  1.00  0.00    -0.305 A  
HETATM   27  C   UNL     1     -10.881  16.485  69.092  1.00  0.00    -0.334 C  
HETATM   28  C   UNL     1     -11.095  13.309  66.947  1.00  0.00    -0.310 A  
BRANCH  26  29
HETATM   29  S   UNL     1     -10.200  15.708  66.025  1.00  0.00    -0.361 S  
HETATM   30  O   UNL     1     -10.421  17.085  66.390  1.00  0.00    -0.309 OA 
HETATM   31  O   UNL     1     -10.621  15.187  64.743  1.00  0.00    -0.398 OA 
HETATM   32  N   UNL     1      -8.553  15.418  66.135  1.00  0.00    -0.402 N  
HETATM   33  H1  UNL     1      -8.185  16.025  65.403  1.00  0.00     0.000 HD 
HETATM   34  H2  UNL     1      -8.050  14.796  66.768  1.00  0.00     0.000 HD 
ENDBRANCH  26  29
ENDBRANCH  20  22
ENDBRANCH  15  20
ENDBRANCH   2  14
TORSDOF 5
ENDMDL
MODEL      200
REMARK 921   NORMALIZED FREE ENERGY PREDICTED BY IDOCK:   -5.40 KCAL/MOL
REMARK 922        TOTAL FREE ENERGY PREDICTED BY IDOCK:   -7.44 KCAL/MOL
REMARK 923 INTER-LIGAND FREE ENERGY PREDICTED BY IDOCK:   -7.30 KCAL/MOL
REMARK 924 INTRA-LIGAND FREE ENERGY PREDICTED BY IDOCK:   -0.14 KCAL/MOL
REMARK 927      BINDING AFFINITY PREDICTED BY RF-SCORE:    0.00 PKD
ROOT
HETATM    1  C   UNL     1      -9.623  12.094  65.485  1.00  0.00    -0.128 C  
HETATM    2  N   UNL     1      -9.949  12.876  66.678  1.00  0.00    -0.245 NA 
ENDROOT
BRANCH   2   3
HETATM    3  C   UNL     1      -9.718  14.282  66.615  1.00  0.00    -0.287 A  
HETATM    4  C   UNL     1     -10.304  16.434  65.389  1.00  0.00    -0.287 A  
HETATM    5  C   UNL     1      -9.795  19.536  65.768  1.00  0.00    -0.165 C  
HETATM    6  C   UNL     1      -8.900  14.939  67.572  1.00  0.00    -0.195 A  
HETATM    7  C   UNL     1      -8.824  16.337  67.430  1.00  0.00    -0.186 A  
HETATM    8  C   UNL     1      -9.521  17.016  66.373  1.00  0.00    -0.294 A  
HETATM    9  C   UNL     1      -9.295  18.363  66.527  1.00  0.00    -0.309 A  
HETATM   10  N   UNL     1      -8.158  17.240  68.169  1.00  0.00    -0.221 NA 
HETATM   11  N   UNL     1      -8.468  18.437  67.623  1.00  0.00    -0.253 NA 
HETATM   12  C   UNL     1      -7.926  19.634  68.225  1.00  0.00    -0.321 C  
HETATM   13  C   UNL     1     -10.364  15.032  65.559  1.00  0.00    -0.397 A  
ENDBRANCH   2   3
BRANCH   2  14
HETATM   14  C   UNL     1     -10.664  12.226  67.708  1.00  0.00    -0.217 A  
HETATM   15  C   UNL     1     -11.126  10.247  68.842  1.00  0.00    -0.231 A  
HETATM   16  N   UNL     1     -12.069  10.806  69.605  1.00  0.00    -0.308 NA 
HETATM   17  C   UNL     1     -12.268  12.121  69.424  1.00  0.00    -0.079 A  
HETATM   18  C   UNL     1     -11.589  12.880  68.499  1.00  0.00    -0.358 A  
HETATM   19  N   UNL     1     -10.441  10.913  67.900  1.00  0.00    -0.184 NA 
BRANCH  15  20
HETATM   20  N   UNL     1     -10.884   8.888  69.030  1.00  0.00    -0.416 NA 
HETATM   21  H   UNL     1     -11.037   8.291  68.217  1.00  0.00     0.000 HD 
BRANCH  20  22
HETATM   22  C   UNL     1     -10.457   8.237  70.196  1.00  0.00    -0.225 A  
HETATM   23  C   UNL     1     -10.331   8.966  71.379  1.00  0.00    -0.377 A  
HETATM   24  C   UNL     1      -9.994   8.332  72.579  1.00  0.00    -0.373 A  
HETATM   25  C   UNL     1      -9.758   6.946  72.634  1.00  0.00    -0.168 A  
HETATM   26  C   UNL     1      -9.846   6.215  71.436  1.00  0.00    -0.175 A  
HETATM   27  C   UNL     1      -9.420   6.334  73.961  1.00  0.00    -0.176 C  
HETATM   28  C   UNL     1     -10.201   6.861  70.240  1.00  0.00    -0.208 A  
BRANCH  26  29
HETATM   29  S   UNL     1      -9.463   4.471  71.315  1.00  0.00    -0.169 S  
HETATM   30  O   UNL     1      -8.159   4.228  71.879  1.00  0.00    -0.089 OA 
HETATM   31  O   UNL     1      -9.810   4.017  69.986  1.00  0.00    -0.210 OA 
HETATM   32  N   UNL     1     -10.594   3.800  72.354  1.00  0.00    -0.053 N  
HETATM   33  H1  UNL     1     -10.375   2.806  72.285  1.00  0.00     0.000 HD 
HETATM   34  H2  UNL     1     -11.312   4.264  72.909  1.00  0.00     0.000 HD 
ENDBRANCH  26  29
ENDBRANCH  20  22
ENDBRANCH  15  20
ENDBRANCH   2  14
TORSDOF 5
ENDMDL
MODEL      201
REMARK 921   NORMALIZED FREE ENERGY PREDICTED BY IDOCK:   -5.38 KCAL/MOL
REMARK 922        TOTAL FREE ENERGY PREDICTED BY IDOCK:   -7.41 KCAL/MOL
REMARK 923 INTER-LIGAND FREE ENERGY PREDICTED BY IDOCK:   -6.65 KCAL/MOL
REMARK 924 INTRA-LIGAND FREE ENERGY PREDICTED BY IDOCK:   -0.76 KCAL/MOL
REMARK 927      BINDING AFFINITY PREDICTED BY RF-SCORE:    0.00 PKD
ROOT
HETATM    1  C   UNL     1     -10.942  18.046  66.881  1.00  0.00     0.105 C  
HETATM    2  N   UNL     1     -10.163  17.107  67.689  1.00  0.00    -0.316 NA 
ENDROOT
BRANCH   2   3
HETATM    3  C   UNL     1     -10.863  16.388  68.702  1.00  0.00    -0.331 A  
HETATM    4  C   UNL     1     -12.253  14.315  69.200  1.00  0.00    -0.272 A  
HETATM    5  C   UNL     1     -13.413  12.855  71.759  1.00  0.00    -0.369 C  
HETATM    6  C   UNL     1     -10.851  16.820  70.055  1.00  0.00    -0.047 A  
HETATM    7  C   UNL     1     -11.521  15.972  70.957  1.00  0.00    -0.417 A  
HETATM    8  C   UNL     1     -12.174  14.775  70.505  1.00  0.00    -0.385 A  
HETATM    9  C   UNL     1     -12.688  14.141  71.611  1.00  0.00    -0.349 A  
HETATM   10  N   UNL     1     -11.679  16.085  72.286  1.00  0.00    -0.483 NA 
HETATM   11  N   UNL     1     -12.360  14.977  72.653  1.00  0.00    -0.348 NA 
HETATM   12  C   UNL     1     -12.660  14.781  74.054  1.00  0.00    -0.097 C  
HETATM   13  C   UNL     1     -11.570  15.185  68.319  1.00  0.00    -0.357 A  
ENDBRANCH   2   3
BRANCH   2  14
HETATM   14  C   UNL     1      -8.846  16.822  67.268  1.00  0.00    -0.204 A  
HETATM   15  C   UNL     1      -7.117  15.272  67.115  1.00  0.00    -0.055 A  
HETATM   16  N   UNL     1      -6.257  16.156  66.599  1.00  0.00    -0.168 NA 
HETATM   17  C   UNL     1      -6.742  17.389  66.384  1.00  0.00    -0.262 A  
HETATM   18  C   UNL     1      -8.027  17.773  66.690  1.00  0.00    -0.283 A  
HETATM   19  N   UNL     1      -8.375  15.577  67.464  1.00  0.00    -0.163 NA 
BRANCH  15  20
HETATM   20  N   UNL     1      -6.644  13.978  67.323  1.00  0.00    -0.417 NA 
HETATM   21  H   UNL     1      -5.630  13.863  67.297  1.00  0.00     0.000 HD 
BRANCH  20  22
HETATM   22  C   UNL     1      -7.385  12.813  67.565  1.00  0.00    -0.153 A  
HETATM   23  C   UNL     1      -8.549  12.578  66.831  1.00  0.00    -0.158 A  
HETATM   24  C   UNL     1      -9.264  11.385  66.983  1.00  0.00    -0.174 A  
HETATM   25  C   UNL     1      -8.845  10.391  67.886  1.00  0.00    -0.125 A  
HETATM   26  C   UNL     1      -7.695  10.641  68.655  1.00  0.00    -0.110 A  
HETATM   27  C   UNL     1      -9.653   9.130  67.980  1.00  0.00    -0.165 C  
HETATM   28  C   UNL     1      -6.976  11.836  68.481  1.00  0.00    -0.083 A  
BRANCH  26  29
HETATM   29  S   UNL     1      -7.098   9.532  69.926  1.00  0.00    -0.099 S  
HETATM   30  O   UNL     1      -6.850   8.234  69.350  1.00  0.00    -0.042 OA 
HETATM   31  O   UNL     1      -7.926   9.693  71.101  1.00  0.00    -0.275 OA 
HETATM   32  N   UNL     1      -5.611  10.208  70.299  1.00  0.00    -0.048 N  
HETATM   33  H1  UNL     1      -5.270   9.575  71.023  1.00  0.00     0.000 HD 
HETATM   34  H2  UNL     1      -5.163  11.035  69.905  1.00  0.00     0.000 HD 
ENDBRANCH  26  29
ENDBRANCH  20  22
ENDBRANCH  15  20
ENDBRANCH   2  14
TORSDOF 5
ENDMDL
MODEL      202
REMARK 921   NORMALIZED FREE ENERGY PREDICTED BY IDOCK:   -5.37 KCAL/MOL
REMARK 922        TOTAL FREE ENERGY PREDICTED BY IDOCK:   -7.40 KCAL/MOL
REMARK 923 INTER-LIGAND FREE ENERGY PREDICTED BY IDOCK:   -6.19 KCAL/MOL
REMARK 924 INTRA-LIGAND FREE ENERGY PREDICTED BY IDOCK:   -1.21 KCAL/MOL
REMARK 927      BINDING AFFINITY PREDICTED BY RF-SCORE:    0.00 PKD
ROOT
HETATM    1  C   UNL     1     -12.282  13.437  65.795  1.00  0.00    -0.458 C  
HETATM    2  N   UNL     1     -11.481  13.481  67.019  1.00  0.00    -0.324 NA 
ENDROOT
BRANCH   2   3
HETATM    3  C   UNL     1     -11.392  12.279  67.780  1.00  0.00    -0.301 A  
HETATM    4  C   UNL     1     -10.445   9.917  67.833  1.00  0.00    -0.282 A  
HETATM    5  C   UNL     1     -10.199   7.560  69.934  1.00  0.00    -0.210 C  
HETATM    6  C   UNL     1     -11.949  12.186  69.082  1.00  0.00    -0.311 A  
HETATM    7  C   UNL     1     -11.718  10.965  69.744  1.00  0.00    -0.338 A  
HETATM    8  C   UNL     1     -10.984   9.905  69.111  1.00  0.00    -0.233 A  
HETATM    9  C   UNL     1     -10.882   8.875  70.015  1.00  0.00    -0.227 A  
HETATM   10  N   UNL     1     -12.092  10.570  70.971  1.00  0.00    -0.369 NA 
HETATM   11  N   UNL     1     -11.568   9.332  71.116  1.00  0.00    -0.301 NA 
HETATM   12  C   UNL     1     -11.767   8.638  72.367  1.00  0.00    -0.323 C  
HETATM   13  C   UNL     1     -10.690  11.155  67.196  1.00  0.00    -0.305 A  
ENDBRANCH   2   3
BRANCH   2  14
HETATM   14  C   UNL     1     -10.689  14.629  67.237  1.00  0.00    -0.290 A  
HETATM   15  C   UNL     1      -8.605  15.513  67.778  1.00  0.00    -0.152 A  
HETATM   16  N   UNL     1      -9.050  16.773  67.795  1.00  0.00    -0.219 NA 
HETATM   17  C   UNL     1     -10.344  16.943  67.481  1.00  0.00    -0.318 A  
HETATM   18  C   UNL     1     -11.204  15.910  67.185  1.00  0.00    -0.060 A  
HETATM   19  N   UNL     1      -9.387  14.453  67.526  1.00  0.00    -0.193 NA 
BRANCH  15  20
HETATM   20  N   UNL     1      -7.258  15.314  68.076  1.00  0.00    -0.117 NA 
HETATM   21  H   UNL     1      -6.596  15.881  67.547  1.00  0.00     0.000 HD 
BRANCH  20  22
HETATM   22  C   UNL     1      -6.699  14.432  69.011  1.00  0.00    -0.107 A  
HETATM   23  C   UNL     1      -6.041  14.947  70.129  1.00  0.00    -0.157 A  
HETATM   24  C   UNL     1      -5.551  14.098  71.126  1.00  0.00    -0.209 A  
HETATM   25  C   UNL     1      -5.691  12.701  71.033  1.00  0.00    -0.000 A  
HETATM   26  C   UNL     1      -6.318  12.177  69.889  1.00  0.00    -0.074 A  
HETATM   27  C   UNL     1      -5.156  11.856  72.151  1.00  0.00     0.200 C  
HETATM   28  C   UNL     1      -6.822  13.042  68.902  1.00  0.00    -0.099 A  
BRANCH  26  29
HETATM   29  S   UNL     1      -6.471  10.424  69.564  1.00  0.00    -0.078 S  
HETATM   30  O   UNL     1      -7.399   9.843  70.501  1.00  0.00    -0.217 OA 
HETATM   31  O   UNL     1      -5.146   9.877  69.371  1.00  0.00    -0.036 OA 
HETATM   32  N   UNL     1      -7.208  10.419  68.058  1.00  0.00    -0.083 N  
HETATM   33  H1  UNL     1      -7.295   9.419  67.873  1.00  0.00     0.000 HD 
HETATM   34  H2  UNL     1      -7.494  11.208  67.479  1.00  0.00     0.000 HD 
ENDBRANCH  26  29
ENDBRANCH  20  22
ENDBRANCH  15  20
ENDBRANCH   2  14
TORSDOF 5
ENDMDL
MODEL      203
REMARK 921   NORMALIZED FREE ENERGY PREDICTED BY IDOCK:   -5.36 KCAL/MOL
REMARK 922        TOTAL FREE ENERGY PREDICTED BY IDOCK:   -7.38 KCAL/MOL
REMARK 923 INTER-LIGAND FREE ENERGY PREDICTED BY IDOCK:   -7.91 KCAL/MOL
REMARK 924 INTRA-LIGAND FREE ENERGY PREDICTED BY IDOCK:    0.53 KCAL/MOL
REMARK 927      BINDING AFFINITY PREDICTED BY RF-SCORE:    0.00 PKD
ROOT
HETATM    1  C   UNL     1     -11.448  12.365  65.721  1.00  0.00    -0.370 C  
HETATM    2  N   UNL     1     -11.127  11.590  66.920  1.00  0.00    -0.296 NA 
ENDROOT
BRANCH   2   3
HETATM    3  C   UNL     1     -10.349  10.409  66.740  1.00  0.00    -0.235 A  
HETATM    4  C   UNL     1      -9.665   8.189  67.779  1.00  0.00    -0.193 A  
HETATM    5  C   UNL     1      -8.092   5.591  66.883  1.00  0.00    -0.101 C  
HETATM    6  C   UNL     1      -9.639  10.170  65.533  1.00  0.00    -0.310 A  
HETATM    7  C   UNL     1      -8.977   8.930  65.467  1.00  0.00    -0.197 A  
HETATM    8  C   UNL     1      -9.022   8.005  66.565  1.00  0.00    -0.188 A  
HETATM    9  C   UNL     1      -8.332   6.878  66.185  1.00  0.00    -0.130 A  
HETATM   10  N   UNL     1      -8.242   8.401  64.476  1.00  0.00    -0.161 NA 
HETATM   11  N   UNL     1      -7.885   7.176  64.919  1.00  0.00    -0.121 NA 
HETATM   12  C   UNL     1      -7.103   6.325  64.050  1.00  0.00    -0.057 C  
HETATM   13  C   UNL     1     -10.322   9.440  67.815  1.00  0.00    -0.291 A  
ENDBRANCH   2   3
BRANCH   2  14
HETATM   14  C   UNL     1     -11.418  12.176  68.171  1.00  0.00    -0.317 A  
HETATM   15  C   UNL     1     -11.185  14.002  69.595  1.00  0.00    -0.164 A  
HETATM   16  N   UNL     1     -11.813  13.399  70.609  1.00  0.00    -0.185 NA 
HETATM   17  C   UNL     1     -12.282  12.166  70.359  1.00  0.00    -0.294 A  
HETATM   18  C   UNL     1     -12.122  11.513  69.158  1.00  0.00    -0.329 A  
HETATM   19  N   UNL     1     -10.966  13.421  68.407  1.00  0.00    -0.256 NA 
BRANCH  15  20
HETATM   20  N   UNL     1     -10.711  15.293  69.824  1.00  0.00    -0.268 NA 
HETATM   21  H   UNL     1     -10.996  15.724  70.703  1.00  0.00     0.000 HD 
BRANCH  20  22
HETATM   22  C   UNL     1      -9.892  16.073  68.996  1.00  0.00    -0.239 A  
HETATM   23  C   UNL     1      -8.512  15.867  69.007  1.00  0.00    -0.242 A  
HETATM   24  C   UNL     1      -7.675  16.565  68.130  1.00  0.00    -0.167 A  
HETATM   25  C   UNL     1      -8.190  17.505  67.219  1.00  0.00    -0.222 A  
HETATM   26  C   UNL     1      -9.576  17.744  67.233  1.00  0.00    -0.272 A  
HETATM   27  C   UNL     1      -7.233  18.200  66.298  1.00  0.00    -0.301 C  
HETATM   28  C   UNL     1     -10.408  17.024  68.107  1.00  0.00    -0.347 A  
BRANCH  26  29
HETATM   29  S   UNL     1     -10.371  18.988  66.221  1.00  0.00    -0.469 S  
HETATM   30  O   UNL     1     -11.296  19.742  67.029  1.00  0.00    -0.141 OA 
HETATM   31  O   UNL     1     -10.779  18.374  64.976  1.00  0.00    -0.551 OA 
HETATM   32  N   UNL     1      -9.087  19.999  65.851  1.00  0.00    -0.498 N  
HETATM   33  H1  UNL     1      -9.540  20.708  65.274  1.00  0.00     0.000 HD 
HETATM   34  H2  UNL     1      -8.109  19.925  66.128  1.00  0.00     0.000 HD 
ENDBRANCH  26  29
ENDBRANCH  20  22
ENDBRANCH  15  20
ENDBRANCH   2  14
TORSDOF 5
ENDMDL
MODEL      204
REMARK 921   NORMALIZED FREE ENERGY PREDICTED BY IDOCK:   -5.35 KCAL/MOL
REMARK 922        TOTAL FREE ENERGY PREDICTED BY IDOCK:   -7.37 KCAL/MOL
REMARK 923 INTER-LIGAND FREE ENERGY PREDICTED BY IDOCK:   -7.29 KCAL/MOL
REMARK 924 INTRA-LIGAND FREE ENERGY PREDICTED BY IDOCK:   -0.08 KCAL/MOL
REMARK 927      BINDING AFFINITY PREDICTED BY RF-SCORE:    0.00 PKD
ROOT
HETATM    1  C   UNL     1     -12.227  12.599  66.003  1.00  0.00    -0.260 C  
HETATM    2  N   UNL     1     -10.881  13.052  66.355  1.00  0.00    -0.276 NA 
ENDROOT
BRANCH   2   3
HETATM    3  C   UNL     1     -10.678  14.459  66.465  1.00  0.00    -0.306 A  
HETATM    4  C   UNL     1     -10.680  16.666  65.198  1.00  0.00    -0.205 A  
HETATM    5  C   UNL     1     -10.472  19.747  65.900  1.00  0.00    -0.587 C  
HETATM    6  C   UNL     1     -10.409  15.070  67.718  1.00  0.00    -0.245 A  
HETATM    7  C   UNL     1     -10.307  16.473  67.687  1.00  0.00    -0.291 A  
HETATM    8  C   UNL     1     -10.452  17.201  66.457  1.00  0.00    -0.255 A  
HETATM    9  C   UNL     1     -10.353  18.539  66.754  1.00  0.00    -0.401 A  
HETATM   10  N   UNL     1     -10.078  17.340  68.686  1.00  0.00    -0.321 NA 
HETATM   11  N   UNL     1     -10.127  18.561  68.111  1.00  0.00    -0.357 NA 
HETATM   12  C   UNL     1      -9.952  19.729  68.945  1.00  0.00    -0.397 C  
HETATM   13  C   UNL     1     -10.780  15.258  65.262  1.00  0.00    -0.433 A  
ENDBRANCH   2   3
BRANCH   2  14
HETATM   14  C   UNL     1      -9.953  12.072  66.771  1.00  0.00    -0.201 A  
HETATM   15  C   UNL     1      -9.584   9.918  67.570  1.00  0.00    -0.157 A  
HETATM   16  N   UNL     1      -8.268  10.104  67.710  1.00  0.00    -0.110 NA 
HETATM   17  C   UNL     1      -7.801  11.302  67.325  1.00  0.00    -0.141 A  
HETATM   18  C   UNL     1      -8.595  12.316  66.841  1.00  0.00    -0.182 A  
HETATM   19  N   UNL     1     -10.426  10.865  67.132  1.00  0.00    -0.224 NA 
BRANCH  15  20
HETATM   20  N   UNL     1     -10.089   8.672  67.939  1.00  0.00    -0.193 NA 
HETATM   21  H   UNL     1     -10.669   8.657  68.778  1.00  0.00     0.000 HD 
BRANCH  20  22
HETATM   22  C   UNL     1      -9.899   7.438  67.303  1.00  0.00    -0.175 A  
HETATM   23  C   UNL     1     -10.873   6.446  67.429  1.00  0.00    -0.457 A  
HETATM   24  C   UNL     1     -10.759   5.237  66.735  1.00  0.00    -0.241 A  
HETATM   25  C   UNL     1      -9.658   4.972  65.901  1.00  0.00    -0.176 A  
HETATM   26  C   UNL     1      -8.655   5.954  65.802  1.00  0.00    -0.154 A  
HETATM   27  C   UNL     1      -9.614   3.660  65.175  1.00  0.00    -0.167 C  
HETATM   28  C   UNL     1      -8.790   7.171  66.491  1.00  0.00    -0.154 A  
BRANCH  26  29
HETATM   29  S   UNL     1      -7.141   5.726  64.877  1.00  0.00    -0.062 S  
HETATM   30  O   UNL     1      -6.858   4.318  64.762  1.00  0.00    -0.047 OA 
HETATM   31  O   UNL     1      -6.154   6.659  65.377  1.00  0.00    -0.036 OA 
HETATM   32  N   UNL     1      -7.582   6.276  63.357  1.00  0.00    -0.080 N  
HETATM   33  H1  UNL     1      -6.719   6.146  62.830  1.00  0.00     0.000 HD 
HETATM   34  H2  UNL     1      -8.480   6.645  63.042  1.00  0.00     0.000 HD 
ENDBRANCH  26  29
ENDBRANCH  20  22
ENDBRANCH  15  20
ENDBRANCH   2  14
TORSDOF 5
ENDMDL
MODEL      205
REMARK 921   NORMALIZED FREE ENERGY PREDICTED BY IDOCK:   -5.33 KCAL/MOL
REMARK 922        TOTAL FREE ENERGY PREDICTED BY IDOCK:   -7.36 KCAL/MOL
REMARK 923 INTER-LIGAND FREE ENERGY PREDICTED BY IDOCK:   -6.70 KCAL/MOL
REMARK 924 INTRA-LIGAND FREE ENERGY PREDICTED BY IDOCK:   -0.65 KCAL/MOL
REMARK 927      BINDING AFFINITY PREDICTED BY RF-SCORE:    0.00 PKD
ROOT
HETATM    1  C   UNL     1      -6.949  13.026  68.773  1.00  0.00    -0.103 C  
HETATM    2  N   UNL     1      -8.290  13.310  68.262  1.00  0.00    -0.156 NA 
ENDROOT
BRANCH   2   3
HETATM    3  C   UNL     1      -8.610  14.675  68.001  1.00  0.00    -0.162 A  
HETATM    4  C   UNL     1     -10.007  16.665  68.753  1.00  0.00    -0.265 A  
HETATM    5  C   UNL     1     -10.209  19.751  68.073  1.00  0.00    -0.581 C  
HETATM    6  C   UNL     1      -7.943  15.408  66.984  1.00  0.00    -0.259 A  
HETATM    7  C   UNL     1      -8.307  16.764  66.891  1.00  0.00    -0.209 A  
HETATM    8  C   UNL     1      -9.296  17.329  67.766  1.00  0.00    -0.250 A  
HETATM    9  C   UNL     1      -9.395  18.667  67.468  1.00  0.00    -0.283 A  
HETATM   10  N   UNL     1      -7.859  17.718  66.059  1.00  0.00    -0.512 NA 
HETATM   11  N   UNL     1      -8.507  18.843  66.433  1.00  0.00    -0.312 NA 
HETATM   12  C   UNL     1      -8.211  20.076  65.740  1.00  0.00    -0.069 C  
HETATM   13  C   UNL     1      -9.619  15.307  68.824  1.00  0.00    -0.214 A  
ENDBRANCH   2   3
BRANCH   2  14
HETATM   14  C   UNL     1      -9.080  12.211  67.860  1.00  0.00    -0.185 A  
HETATM   15  C   UNL     1      -9.426   9.909  67.905  1.00  0.00    -0.133 A  
HETATM   16  N   UNL     1     -10.463   9.964  67.064  1.00  0.00    -0.240 NA 
HETATM   17  C   UNL     1     -10.824  11.190  66.655  1.00  0.00    -0.253 A  
HETATM   18  C   UNL     1     -10.175  12.345  67.029  1.00  0.00    -0.232 A  
HETATM   19  N   UNL     1      -8.727  10.986  68.293  1.00  0.00    -0.137 NA 
BRANCH  15  20
HETATM   20  N   UNL     1      -9.049   8.648  68.363  1.00  0.00    -0.138 NA 
HETATM   21  H   UNL     1      -8.287   8.199  67.855  1.00  0.00     0.000 HD 
BRANCH  20  22
HETATM   22  C   UNL     1      -9.585   7.920  69.434  1.00  0.00    -0.160 A  
HETATM   23  C   UNL     1     -10.788   8.333  70.010  1.00  0.00    -0.232 A  
HETATM   24  C   UNL     1     -11.396   7.580  71.019  1.00  0.00    -0.292 A  
HETATM   25  C   UNL     1     -10.814   6.391  71.497  1.00  0.00    -0.299 A  
HETATM   26  C   UNL     1      -9.583   5.993  70.947  1.00  0.00    -0.169 A  
HETATM   27  C   UNL     1     -11.535   5.628  72.568  1.00  0.00    -0.335 C  
HETATM   28  C   UNL     1      -8.990   6.750  69.922  1.00  0.00    -0.144 A  
BRANCH  26  29
HETATM   29  S   UNL     1      -8.659   4.574  71.524  1.00  0.00    -0.116 S  
HETATM   30  O   UNL     1      -9.324   3.366  71.104  1.00  0.00    -0.113 OA 
HETATM   31  O   UNL     1      -8.293   4.796  72.906  1.00  0.00    -0.100 OA 
HETATM   32  N   UNL     1      -7.244   4.703  70.635  1.00  0.00    -0.047 N  
HETATM   33  H1  UNL     1      -6.717   3.894  70.964  1.00  0.00     0.000 HD 
HETATM   34  H2  UNL     1      -6.979   5.406  69.946  1.00  0.00     0.000 HD 
ENDBRANCH  26  29
ENDBRANCH  20  22
ENDBRANCH  15  20
ENDBRANCH   2  14
TORSDOF 5
ENDMDL
MODEL      206
REMARK 921   NORMALIZED FREE ENERGY PREDICTED BY IDOCK:   -5.33 KCAL/MOL
REMARK 922        TOTAL FREE ENERGY PREDICTED BY IDOCK:   -7.35 KCAL/MOL
REMARK 923 INTER-LIGAND FREE ENERGY PREDICTED BY IDOCK:   -6.81 KCAL/MOL
REMARK 924 INTRA-LIGAND FREE ENERGY PREDICTED BY IDOCK:   -0.54 KCAL/MOL
REMARK 927      BINDING AFFINITY PREDICTED BY RF-SCORE:    0.00 PKD
ROOT
HETATM    1  C   UNL     1      -6.746   9.735  64.827  1.00  0.00    -0.114 C  
HETATM    2  N   UNL     1      -7.352   9.834  66.155  1.00  0.00    -0.098 NA 
ENDROOT
BRANCH   2   3
HETATM    3  C   UNL     1      -7.554   8.615  66.868  1.00  0.00    -0.084 A  
HETATM    4  C   UNL     1      -9.298   7.055  67.868  1.00  0.00    -0.123 A  
HETATM    5  C   UNL     1      -9.362   4.162  69.156  1.00  0.00    -0.235 C  
HETATM    6  C   UNL     1      -6.467   7.763  67.195  1.00  0.00    -0.055 A  
HETATM    7  C   UNL     1      -6.824   6.559  67.832  1.00  0.00    -0.074 A  
HETATM    8  C   UNL     1      -8.196   6.255  68.129  1.00  0.00    -0.115 A  
HETATM    9  C   UNL     1      -8.229   5.004  68.696  1.00  0.00    -0.085 A  
HETATM   10  N   UNL     1      -6.048   5.547  68.252  1.00  0.00    -0.024 NA 
HETATM   11  N   UNL     1      -6.907   4.628  68.746  1.00  0.00    -0.050 NA 
HETATM   12  C   UNL     1      -6.374   3.384  69.253  1.00  0.00    -0.029 C  
HETATM   13  C   UNL     1      -8.908   8.253  67.228  1.00  0.00    -0.137 A  
ENDBRANCH   2   3
BRANCH   2  14
HETATM   14  C   UNL     1      -7.484  11.123  66.716  1.00  0.00    -0.146 A  
HETATM   15  C   UNL     1      -8.899  12.831  67.421  1.00  0.00    -0.190 A  
HETATM   16  N   UNL     1      -7.893  13.664  67.700  1.00  0.00    -0.159 NA 
HETATM   17  C   UNL     1      -6.657  13.175  67.512  1.00  0.00    -0.152 A  
HETATM   18  C   UNL     1      -6.396  11.912  67.033  1.00  0.00    -0.141 A  
HETATM   19  N   UNL     1      -8.726  11.597  66.925  1.00  0.00    -0.179 NA 
BRANCH  15  20
HETATM   20  N   UNL     1     -10.192  13.308  67.632  1.00  0.00    -0.225 NA 
HETATM   21  H   UNL     1     -10.560  13.931  66.914  1.00  0.00     0.000 HD 
BRANCH  20  22
HETATM   22  C   UNL     1     -11.049  13.038  68.708  1.00  0.00    -0.270 A  
HETATM   23  C   UNL     1     -11.428  11.720  68.968  1.00  0.00    -0.358 A  
HETATM   24  C   UNL     1     -12.209  11.406  70.085  1.00  0.00    -0.401 A  
HETATM   25  C   UNL     1     -12.648  12.403  70.975  1.00  0.00    -0.349 A  
HETATM   26  C   UNL     1     -12.301  13.736  70.695  1.00  0.00    -0.375 A  
HETATM   27  C   UNL     1     -13.467  11.987  72.161  1.00  0.00    -0.338 C  
HETATM   28  C   UNL     1     -11.502  14.038  69.578  1.00  0.00    -0.331 A  
BRANCH  26  29
HETATM   29  S   UNL     1     -12.876  15.129  71.660  1.00  0.00    -0.403 S  
HETATM   30  O   UNL     1     -12.716  14.838  73.062  1.00  0.00    -0.413 OA 
HETATM   31  O   UNL     1     -14.143  15.571  71.118  1.00  0.00    -0.537 OA 
HETATM   32  N   UNL     1     -11.755  16.309  71.260  1.00  0.00    -0.624 N  
HETATM   33  H1  UNL     1     -12.082  17.102  71.811  1.00  0.00     0.000 HD 
HETATM   34  H2  UNL     1     -10.954  16.248  70.631  1.00  0.00     0.000 HD 
ENDBRANCH  26  29
ENDBRANCH  20  22
ENDBRANCH  15  20
ENDBRANCH   2  14
TORSDOF 5
ENDMDL
MODEL      207
REMARK 921   NORMALIZED FREE ENERGY PREDICTED BY IDOCK:   -5.32 KCAL/MOL
REMARK 922        TOTAL FREE ENERGY PREDICTED BY IDOCK:   -7.34 KCAL/MOL
REMARK 923 INTER-LIGAND FREE ENERGY PREDICTED BY IDOCK:   -6.14 KCAL/MOL
REMARK 924 INTRA-LIGAND FREE ENERGY PREDICTED BY IDOCK:   -1.20 KCAL/MOL
REMARK 927      BINDING AFFINITY PREDICTED BY RF-SCORE:    0.00 PKD
ROOT
HETATM    1  C   UNL     1      -9.970   3.739  64.817  1.00  0.00    -0.187 C  
HETATM    2  N   UNL     1      -9.414   4.298  66.049  1.00  0.00    -0.162 NA 
ENDROOT
BRANCH   2   3
HETATM    3  C   UNL     1      -9.520   5.709  66.226  1.00  0.00    -0.155 A  
HETATM    4  C   UNL     1     -10.994   7.590  67.101  1.00  0.00    -0.164 A  
HETATM    5  C   UNL     1     -10.726  10.704  67.616  1.00  0.00    -0.315 C  
HETATM    6  C   UNL     1      -8.450   6.578  65.886  1.00  0.00    -0.147 A  
HETATM    7  C   UNL     1      -8.668   7.936  66.186  1.00  0.00    -0.158 A  
HETATM    8  C   UNL     1      -9.900   8.378  66.776  1.00  0.00    -0.329 A  
HETATM    9  C   UNL     1      -9.794   9.731  66.994  1.00  0.00    -0.193 A  
HETATM   10  N   UNL     1      -7.862   8.995  66.006  1.00  0.00    -0.101 NA 
HETATM   11  N   UNL     1      -8.545  10.046  66.509  1.00  0.00    -0.125 NA 
HETATM   12  C   UNL     1      -7.920  11.349  66.497  1.00  0.00    -0.128 C  
HETATM   13  C   UNL     1     -10.745   6.234  66.791  1.00  0.00    -0.364 A  
ENDBRANCH   2   3
BRANCH   2  14
HETATM   14  C   UNL     1      -9.018   3.391  67.056  1.00  0.00    -0.156 A  
HETATM   15  C   UNL     1      -9.116   2.764  69.295  1.00  0.00    -0.129 A  
HETATM   16  N   UNL     1      -8.242   1.765  69.141  1.00  0.00    -0.047 NA 
HETATM   17  C   UNL     1      -7.789   1.568  67.892  1.00  0.00    -0.058 A  
HETATM   18  C   UNL     1      -8.151   2.343  66.814  1.00  0.00    -0.082 A  
HETATM   19  N   UNL     1      -9.495   3.579  68.300  1.00  0.00    -0.171 NA 
BRANCH  15  20
HETATM   20  N   UNL     1      -9.619   2.971  70.578  1.00  0.00    -0.153 NA 
HETATM   21  H   UNL     1     -10.076   2.170  71.013  1.00  0.00     0.000 HD 
BRANCH  20  22
HETATM   22  C   UNL     1      -9.576   4.144  71.345  1.00  0.00    -0.168 A  
HETATM   23  C   UNL     1      -8.683   4.230  72.414  1.00  0.00    -0.117 A  
HETATM   24  C   UNL     1      -8.551   5.416  73.144  1.00  0.00    -0.117 A  
HETATM   25  C   UNL     1      -9.319   6.554  72.838  1.00  0.00    -0.144 A  
HETATM   26  C   UNL     1     -10.249   6.457  71.787  1.00  0.00    -0.197 A  
HETATM   27  C   UNL     1      -9.109   7.795  73.653  1.00  0.00    -0.345 C  
HETATM   28  C   UNL     1     -10.360   5.266  71.050  1.00  0.00    -0.298 A  
BRANCH  26  29
HETATM   29  S   UNL     1     -11.380   7.772  71.348  1.00  0.00    -0.258 S  
HETATM   30  O   UNL     1     -10.687   8.753  70.551  1.00  0.00    -0.209 OA 
HETATM   31  O   UNL     1     -12.128   8.147  72.529  1.00  0.00    -0.365 OA 
HETATM   32  N   UNL     1     -12.456   6.976  70.340  1.00  0.00    -0.601 N  
HETATM   33  H1  UNL     1     -13.101   7.725  70.090  1.00  0.00     0.000 HD 
HETATM   34  H2  UNL     1     -12.464   5.997  70.053  1.00  0.00     0.000 HD 
ENDBRANCH  26  29
ENDBRANCH  20  22
ENDBRANCH  15  20
ENDBRANCH   2  14
TORSDOF 5
ENDMDL
MODEL      208
REMARK 921   NORMALIZED FREE ENERGY PREDICTED BY IDOCK:   -5.30 KCAL/MOL
REMARK 922        TOTAL FREE ENERGY PREDICTED BY IDOCK:   -7.32 KCAL/MOL
REMARK 923 INTER-LIGAND FREE ENERGY PREDICTED BY IDOCK:   -6.79 KCAL/MOL
REMARK 924 INTRA-LIGAND FREE ENERGY PREDICTED BY IDOCK:   -0.53 KCAL/MOL
REMARK 927      BINDING AFFINITY PREDICTED BY RF-SCORE:    0.00 PKD
ROOT
HETATM    1  C   UNL     1     -11.405  11.399  67.038  1.00  0.00    -0.236 C  
HETATM    2  N   UNL     1     -11.086  11.982  68.341  1.00  0.00    -0.226 NA 
ENDROOT
BRANCH   2   3
HETATM    3  C   UNL     1     -10.668  13.346  68.356  1.00  0.00    -0.256 A  
HETATM    4  C   UNL     1     -11.457  15.761  68.497  1.00  0.00    -0.381 A  
HETATM    5  C   UNL     1     -10.137  18.621  68.825  1.00  0.00    -0.398 C  
HETATM    6  C   UNL     1      -9.292  13.697  68.350  1.00  0.00    -0.181 A  
HETATM    7  C   UNL     1      -9.029  15.076  68.444  1.00  0.00    -0.179 A  
HETATM    8  C   UNL     1     -10.098  16.032  68.521  1.00  0.00    -0.233 A  
HETATM    9  C   UNL     1      -9.530  17.277  68.654  1.00  0.00    -0.278 A  
HETATM   10  N   UNL     1      -7.854  15.725  68.478  1.00  0.00    -0.133 NA 
HETATM   11  N   UNL     1      -8.178  17.029  68.620  1.00  0.00    -0.255 NA 
HETATM   12  C   UNL     1      -7.112  18.000  68.727  1.00  0.00    -0.276 C  
HETATM   13  C   UNL     1     -11.690  14.370  68.405  1.00  0.00    -0.367 A  
ENDBRANCH   2   3
BRANCH   2  14
HETATM   14  C   UNL     1     -11.421  11.233  69.490  1.00  0.00    -0.307 A  
HETATM   15  C   UNL     1     -10.896   9.474  70.920  1.00  0.00    -0.337 A  
HETATM   16  N   UNL     1     -12.010   9.619  71.643  1.00  0.00    -0.392 NA 
HETATM   17  C   UNL     1     -12.816  10.631  71.286  1.00  0.00    -0.434 A  
HETATM   18  C   UNL     1     -12.565  11.473  70.226  1.00  0.00    -0.193 A  
HETATM   19  N   UNL     1     -10.597  10.236  69.858  1.00  0.00    -0.273 NA 
BRANCH  15  20
HETATM   20  N   UNL     1     -10.032   8.445  71.289  1.00  0.00    -0.191 NA 
HETATM   21  H   UNL     1     -10.052   8.176  72.272  1.00  0.00     0.000 HD 
BRANCH  20  22
HETATM   22  C   UNL     1      -9.138   7.732  70.478  1.00  0.00    -0.154 A  
HETATM   23  C   UNL     1      -7.769   7.805  70.740  1.00  0.00    -0.084 A  
HETATM   24  C   UNL     1      -6.857   7.037  70.008  1.00  0.00    -0.057 A  
HETATM   25  C   UNL     1      -7.283   6.179  68.977  1.00  0.00    -0.083 A  
HETATM   26  C   UNL     1      -8.658   6.134  68.684  1.00  0.00    -0.113 A  
HETATM   27  C   UNL     1      -6.249   5.374  68.249  1.00  0.00    -0.034 C  
HETATM   28  C   UNL     1      -9.566   6.897  69.438  1.00  0.00    -0.147 A  
BRANCH  26  29
HETATM   29  S   UNL     1      -9.347   5.185  67.333  1.00  0.00    -0.125 S  
HETATM   30  O   UNL     1     -10.777   5.355  67.309  1.00  0.00    -0.216 OA 
HETATM   31  O   UNL     1      -8.740   3.872  67.338  1.00  0.00    -0.099 OA 
HETATM   32  N   UNL     1      -8.723   5.988  65.999  1.00  0.00    -0.149 N  
HETATM   33  H1  UNL     1      -9.116   5.447  65.229  1.00  0.00     0.000 HD 
HETATM   34  H2  UNL     1      -8.111   6.803  65.967  1.00  0.00     0.000 HD 
ENDBRANCH  26  29
ENDBRANCH  20  22
ENDBRANCH  15  20
ENDBRANCH   2  14
TORSDOF 5
ENDMDL
MODEL      209
REMARK 921   NORMALIZED FREE ENERGY PREDICTED BY IDOCK:   -5.29 KCAL/MOL
REMARK 922        TOTAL FREE ENERGY PREDICTED BY IDOCK:   -7.30 KCAL/MOL
REMARK 923 INTER-LIGAND FREE ENERGY PREDICTED BY IDOCK:   -6.93 KCAL/MOL
REMARK 924 INTRA-LIGAND FREE ENERGY PREDICTED BY IDOCK:   -0.37 KCAL/MOL
REMARK 927      BINDING AFFINITY PREDICTED BY RF-SCORE:    0.00 PKD
ROOT
HETATM    1  C   UNL     1      -7.139   9.441  66.194  1.00  0.00    -0.091 C  
HETATM    2  N   UNL     1      -7.981   8.279  66.483  1.00  0.00    -0.099 NA 
ENDROOT
BRANCH   2   3
HETATM    3  C   UNL     1      -7.733   7.095  65.728  1.00  0.00    -0.099 A  
HETATM    4  C   UNL     1      -6.005   5.824  64.359  1.00  0.00    -0.025 A  
HETATM    5  C   UNL     1      -5.733   2.954  63.049  1.00  0.00    -0.009 C  
HETATM    6  C   UNL     1      -8.707   6.067  65.628  1.00  0.00    -0.142 A  
HETATM    7  C   UNL     1      -8.297   4.925  64.914  1.00  0.00    -0.138 A  
HETATM    8  C   UNL     1      -6.988   4.847  64.328  1.00  0.00    -0.049 A  
HETATM    9  C   UNL     1      -6.868   3.606  63.749  1.00  0.00    -0.044 A  
HETATM   10  N   UNL     1      -8.964   3.789  64.654  1.00  0.00    -0.120 NA 
HETATM   11  N   UNL     1      -8.088   3.015  63.977  1.00  0.00    -0.082 NA 
HETATM   12  C   UNL     1      -8.501   1.688  63.578  1.00  0.00    -0.072 C  
HETATM   13  C   UNL     1      -6.445   6.955  65.083  1.00  0.00    -0.043 A  
ENDBRANCH   2   3
BRANCH   2  14
HETATM   14  C   UNL     1      -8.812   8.345  67.622  1.00  0.00    -0.136 A  
HETATM   15  C   UNL     1     -10.639   9.328  68.676  1.00  0.00    -0.187 A  
HETATM   16  N   UNL     1     -10.449   8.659  69.817  1.00  0.00    -0.217 NA 
HETATM   17  C   UNL     1      -9.430   7.785  69.821  1.00  0.00    -0.160 A  
HETATM   18  C   UNL     1      -8.589   7.581  68.752  1.00  0.00    -0.129 A  
HETATM   19  N   UNL     1      -9.846   9.205  67.602  1.00  0.00    -0.163 NA 
BRANCH  15  20
HETATM   20  N   UNL     1     -11.707  10.224  68.639  1.00  0.00    -0.629 NA 
HETATM   21  H   UNL     1     -12.621   9.820  68.436  1.00  0.00     0.000 HD 
BRANCH  20  22
HETATM   22  C   UNL     1     -11.682  11.610  68.846  1.00  0.00    -0.334 A  
HETATM   23  C   UNL     1     -11.118  12.437  67.874  1.00  0.00    -0.283 A  
HETATM   24  C   UNL     1     -11.156  13.829  68.007  1.00  0.00    -0.284 A  
HETATM   25  C   UNL     1     -11.750  14.442  69.126  1.00  0.00    -0.354 A  
HETATM   26  C   UNL     1     -12.284  13.610  70.126  1.00  0.00    -0.342 A  
HETATM   27  C   UNL     1     -11.770  15.940  69.189  1.00  0.00    -0.369 C  
HETATM   28  C   UNL     1     -12.254  12.213  69.973  1.00  0.00    -0.270 A  
BRANCH  26  29
HETATM   29  S   UNL     1     -12.968  14.228  71.659  1.00  0.00    -0.366 S  
HETATM   30  O   UNL     1     -11.982  15.034  72.333  1.00  0.00    -0.362 OA 
HETATM   31  O   UNL     1     -13.644  13.139  72.332  1.00  0.00    -0.574 OA 
HETATM   32  N   UNL     1     -14.169  15.259  71.108  1.00  0.00    -0.761 N  
HETATM   33  H1  UNL     1     -14.558  15.611  71.982  1.00  0.00     0.000 HD 
HETATM   34  H2  UNL     1     -14.439  15.477  70.149  1.00  0.00     0.000 HD 
ENDBRANCH  26  29
ENDBRANCH  20  22
ENDBRANCH  15  20
ENDBRANCH   2  14
TORSDOF 5
ENDMDL
MODEL      210
REMARK 921   NORMALIZED FREE ENERGY PREDICTED BY IDOCK:   -5.28 KCAL/MOL
REMARK 922        TOTAL FREE ENERGY PREDICTED BY IDOCK:   -7.29 KCAL/MOL
REMARK 923 INTER-LIGAND FREE ENERGY PREDICTED BY IDOCK:   -6.66 KCAL/MOL
REMARK 924 INTRA-LIGAND FREE ENERGY PREDICTED BY IDOCK:   -0.63 KCAL/MOL
REMARK 927      BINDING AFFINITY PREDICTED BY RF-SCORE:    0.00 PKD
ROOT
HETATM    1  C   UNL     1      -7.852   5.665  70.932  1.00  0.00    -0.105 C  
HETATM    2  N   UNL     1      -8.645   6.512  70.040  1.00  0.00    -0.138 NA 
ENDROOT
BRANCH   2   3
HETATM    3  C   UNL     1      -8.548   6.250  68.642  1.00  0.00    -0.121 A  
HETATM    4  C   UNL     1      -7.281   6.803  66.504  1.00  0.00    -0.073 A  
HETATM    5  C   UNL     1      -7.166   5.727  63.528  1.00  0.00    -0.057 C  
HETATM    6  C   UNL     1      -9.372   5.279  68.014  1.00  0.00    -0.135 A  
HETATM    7  C   UNL     1      -9.113   5.073  66.646  1.00  0.00    -0.119 A  
HETATM    8  C   UNL     1      -8.095   5.820  65.962  1.00  0.00    -0.110 A  
HETATM    9  C   UNL     1      -8.047   5.364  64.666  1.00  0.00    -0.125 A  
HETATM   10  N   UNL     1      -9.696   4.229  65.780  1.00  0.00    -0.190 NA 
HETATM   11  N   UNL     1      -9.034   4.408  64.615  1.00  0.00    -0.145 NA 
HETATM   12  C   UNL     1      -9.408   3.603  63.475  1.00  0.00    -0.119 C  
HETATM   13  C   UNL     1      -7.562   6.985  67.878  1.00  0.00    -0.111 A  
ENDBRANCH   2   3
BRANCH   2  14
HETATM   14  C   UNL     1      -9.601   7.365  70.632  1.00  0.00    -0.171 A  
HETATM   15  C   UNL     1     -10.496   9.507  70.802  1.00  0.00    -0.314 A  
HETATM   16  N   UNL     1     -11.339   9.168  71.782  1.00  0.00    -0.370 NA 
HETATM   17  C   UNL     1     -11.322   7.878  72.151  1.00  0.00    -0.313 A  
HETATM   18  C   UNL     1     -10.483   6.934  71.604  1.00  0.00    -0.224 A  
HETATM   19  N   UNL     1      -9.629   8.652  70.239  1.00  0.00    -0.166 NA 
BRANCH  15  20
HETATM   20  N   UNL     1     -10.513  10.837  70.385  1.00  0.00    -0.244 NA 
HETATM   21  H   UNL     1     -10.241  11.527  71.084  1.00  0.00     0.000 HD 
BRANCH  20  22
HETATM   22  C   UNL     1     -10.859  11.344  69.125  1.00  0.00    -0.213 A  
HETATM   23  C   UNL     1     -11.778  12.391  69.037  1.00  0.00    -0.372 A  
HETATM   24  C   UNL     1     -12.077  12.981  67.805  1.00  0.00    -0.244 A  
HETATM   25  C   UNL     1     -11.477  12.534  66.614  1.00  0.00    -0.417 A  
HETATM   26  C   UNL     1     -10.580  11.453  66.694  1.00  0.00    -0.258 A  
HETATM   27  C   UNL     1     -11.834  13.227  65.333  1.00  0.00    -0.392 C  
HETATM   28  C   UNL     1     -10.275  10.880  67.940  1.00  0.00    -0.205 A  
BRANCH  26  29
HETATM   29  S   UNL     1      -9.823  10.693  65.262  1.00  0.00    -0.298 S  
HETATM   30  O   UNL     1      -8.413  10.991  65.251  1.00  0.00    -0.120 OA 
HETATM   31  O   UNL     1     -10.660  10.950  64.110  1.00  0.00    -0.375 OA 
HETATM   32  N   UNL     1      -9.990   9.062  65.612  1.00  0.00    -0.413 N  
HETATM   33  H1  UNL     1      -9.558   8.629  64.796  1.00  0.00     0.000 HD 
HETATM   34  H2  UNL     1     -10.413   8.620  66.428  1.00  0.00     0.000 HD 
ENDBRANCH  26  29
ENDBRANCH  20  22
ENDBRANCH  15  20
ENDBRANCH   2  14
TORSDOF 5
ENDMDL
MODEL      211
REMARK 921   NORMALIZED FREE ENERGY PREDICTED BY IDOCK:   -5.28 KCAL/MOL
REMARK 922        TOTAL FREE ENERGY PREDICTED BY IDOCK:   -7.29 KCAL/MOL
REMARK 923 INTER-LIGAND FREE ENERGY PREDICTED BY IDOCK:   -6.76 KCAL/MOL
REMARK 924 INTRA-LIGAND FREE ENERGY PREDICTED BY IDOCK:   -0.53 KCAL/MOL
REMARK 927      BINDING AFFINITY PREDICTED BY RF-SCORE:    0.00 PKD
ROOT
HETATM    1  C   UNL     1      -8.004   9.639  69.887  1.00  0.00    -0.167 C  
HETATM    2  N   UNL     1      -9.419   9.930  69.656  1.00  0.00    -0.220 NA 
ENDROOT
BRANCH   2   3
HETATM    3  C   UNL     1      -9.752  10.603  68.444  1.00  0.00    -0.166 A  
HETATM    4  C   UNL     1     -10.123  10.322  65.941  1.00  0.00    -0.319 A  
HETATM    5  C   UNL     1     -11.203  12.083  63.541  1.00  0.00    -0.526 C  
HETATM    6  C   UNL     1     -10.102  11.980  68.436  1.00  0.00    -0.211 A  
HETATM    7  C   UNL     1     -10.480  12.492  67.181  1.00  0.00    -0.224 A  
HETATM    8  C   UNL     1     -10.485  11.659  66.010  1.00  0.00    -0.294 A  
HETATM    9  C   UNL     1     -10.944  12.421  64.963  1.00  0.00    -0.298 A  
HETATM   10  N   UNL     1     -10.876  13.729  66.842  1.00  0.00    -0.283 NA 
HETATM   11  N   UNL     1     -11.162  13.658  65.524  1.00  0.00    -0.292 NA 
HETATM   12  C   UNL     1     -11.657  14.841  64.857  1.00  0.00    -0.401 C  
HETATM   13  C   UNL     1      -9.751   9.837  67.216  1.00  0.00    -0.213 A  
ENDBRANCH   2   3
BRANCH   2  14
HETATM   14  C   UNL     1     -10.357   9.336  70.527  1.00  0.00    -0.254 A  
HETATM   15  C   UNL     1     -11.302   7.385  71.375  1.00  0.00    -0.256 A  
HETATM   16  N   UNL     1     -12.213   8.042  72.100  1.00  0.00    -0.327 NA 
HETATM   17  C   UNL     1     -12.147   9.382  72.052  1.00  0.00    -0.309 A  
HETATM   18  C   UNL     1     -11.236  10.079  71.293  1.00  0.00    -0.270 A  
HETATM   19  N   UNL     1     -10.401   7.993  70.589  1.00  0.00    -0.200 NA 
BRANCH  15  20
HETATM   20  N   UNL     1     -11.335   5.993  71.429  1.00  0.00    -0.270 NA 
HETATM   21  H   UNL     1     -12.071   5.543  70.885  1.00  0.00     0.000 HD 
BRANCH  20  22
HETATM   22  C   UNL     1     -10.483   5.134  72.136  1.00  0.00    -0.220 A  
HETATM   23  C   UNL     1     -10.891   4.631  73.373  1.00  0.00    -0.349 A  
HETATM   24  C   UNL     1     -10.105   3.702  74.063  1.00  0.00    -0.198 A  
HETATM   25  C   UNL     1      -8.877   3.253  73.545  1.00  0.00    -0.080 A  
HETATM   26  C   UNL     1      -8.445   3.786  72.318  1.00  0.00    -0.089 A  
HETATM   27  C   UNL     1      -8.100   2.242  74.334  1.00  0.00    -0.054 C  
HETATM   28  C   UNL     1      -9.251   4.707  71.626  1.00  0.00    -0.183 A  
BRANCH  26  29
HETATM   29  S   UNL     1      -6.859   3.407  71.582  1.00  0.00    -0.027 S  
HETATM   30  O   UNL     1      -6.661   4.236  70.420  1.00  0.00    -0.030 OA 
HETATM   31  O   UNL     1      -6.714   1.969  71.520  1.00  0.00    -0.022 OA 
HETATM   32  N   UNL     1      -5.797   3.938  72.765  1.00  0.00    -0.007 N  
HETATM   33  H1  UNL     1      -4.893   3.722  72.346  1.00  0.00     0.000 HD 
HETATM   34  H2  UNL     1      -6.002   4.365  73.669  1.00  0.00     0.000 HD 
ENDBRANCH  26  29
ENDBRANCH  20  22
ENDBRANCH  15  20
ENDBRANCH   2  14
TORSDOF 5
ENDMDL
MODEL      212
REMARK 921   NORMALIZED FREE ENERGY PREDICTED BY IDOCK:   -5.28 KCAL/MOL
REMARK 922        TOTAL FREE ENERGY PREDICTED BY IDOCK:   -7.28 KCAL/MOL
REMARK 923 INTER-LIGAND FREE ENERGY PREDICTED BY IDOCK:   -7.07 KCAL/MOL
REMARK 924 INTRA-LIGAND FREE ENERGY PREDICTED BY IDOCK:   -0.21 KCAL/MOL
REMARK 927      BINDING AFFINITY PREDICTED BY RF-SCORE:    0.00 PKD
ROOT
HETATM    1  C   UNL     1      -7.856   7.793  64.750  1.00  0.00    -0.129 C  
HETATM    2  N   UNL     1      -8.920   8.344  65.591  1.00  0.00    -0.166 NA 
ENDROOT
BRANCH   2   3
HETATM    3  C   UNL     1      -9.247   7.623  66.777  1.00  0.00    -0.160 A  
HETATM    4  C   UNL     1      -8.524   5.748  68.338  1.00  0.00    -0.110 A  
HETATM    5  C   UNL     1      -9.396   4.609  71.162  1.00  0.00    -0.207 C  
HETATM    6  C   UNL     1     -10.363   7.986  67.577  1.00  0.00    -0.330 A  
HETATM    7  C   UNL     1     -10.520   7.235  68.757  1.00  0.00    -0.200 A  
HETATM    8  C   UNL     1      -9.609   6.175  69.088  1.00  0.00    -0.154 A  
HETATM    9  C   UNL     1      -9.989   5.670  70.309  1.00  0.00    -0.207 A  
HETATM   10  N   UNL     1     -11.449   7.334  69.721  1.00  0.00    -0.068 NA 
HETATM   11  N   UNL     1     -11.102   6.407  70.640  1.00  0.00    -0.294 NA 
HETATM   12  C   UNL     1     -11.900   6.287  71.839  1.00  0.00    -0.305 C  
HETATM   13  C   UNL     1      -8.391   6.521  67.163  1.00  0.00    -0.113 A  
ENDBRANCH   2   3
BRANCH   2  14
HETATM   14  C   UNL     1      -9.383   9.642  65.288  1.00  0.00    -0.260 A  
HETATM   15  C   UNL     1      -9.811  11.807  66.029  1.00  0.00    -0.232 A  
HETATM   16  N   UNL     1     -10.358  12.185  64.871  1.00  0.00    -0.281 NA 
HETATM   17  C   UNL     1     -10.369  11.262  63.896  1.00  0.00    -0.381 A  
HETATM   18  C   UNL     1      -9.887   9.982  64.047  1.00  0.00    -0.029 A  
HETATM   19  N   UNL     1      -9.346  10.570  66.262  1.00  0.00    -0.166 NA 
BRANCH  15  20
HETATM   20  N   UNL     1      -9.766  12.757  67.048  1.00  0.00    -0.219 NA 
HETATM   21  H   UNL     1     -10.459  12.650  67.789  1.00  0.00     0.000 HD 
BRANCH  20  22
HETATM   22  C   UNL     1      -8.888  13.841  67.182  1.00  0.00    -0.231 A  
HETATM   23  C   UNL     1      -7.604  13.625  67.684  1.00  0.00    -0.186 A  
HETATM   24  C   UNL     1      -6.674  14.667  67.747  1.00  0.00    -0.194 A  
HETATM   25  C   UNL     1      -7.001  15.967  67.321  1.00  0.00    -0.240 A  
HETATM   26  C   UNL     1      -8.306  16.197  66.851  1.00  0.00    -0.236 A  
HETATM   27  C   UNL     1      -5.945  17.029  67.402  1.00  0.00    -0.171 C  
HETATM   28  C   UNL     1      -9.227  15.138  66.777  1.00  0.00    -0.277 A  
BRANCH  26  29
HETATM   29  S   UNL     1      -8.914  17.814  66.382  1.00  0.00    -0.189 S  
HETATM   30  O   UNL     1     -10.232  17.683  65.816  1.00  0.00    -0.560 OA 
HETATM   31  O   UNL     1      -7.857  18.517  65.688  1.00  0.00    -0.491 OA 
HETATM   32  N   UNL     1      -9.079  18.563  67.873  1.00  0.00    -0.285 N  
HETATM   33  H1  UNL     1      -9.426  19.484  67.605  1.00  0.00     0.000 HD 
HETATM   34  H2  UNL     1      -8.884  18.193  68.803  1.00  0.00     0.000 HD 
ENDBRANCH  26  29
ENDBRANCH  20  22
ENDBRANCH  15  20
ENDBRANCH   2  14
TORSDOF 5
ENDMDL
MODEL      213
REMARK 921   NORMALIZED FREE ENERGY PREDICTED BY IDOCK:   -5.24 KCAL/MOL
REMARK 922        TOTAL FREE ENERGY PREDICTED BY IDOCK:   -7.23 KCAL/MOL
REMARK 923 INTER-LIGAND FREE ENERGY PREDICTED BY IDOCK:   -7.42 KCAL/MOL
REMARK 924 INTRA-LIGAND FREE ENERGY PREDICTED BY IDOCK:    0.19 KCAL/MOL
REMARK 927      BINDING AFFINITY PREDICTED BY RF-SCORE:    0.00 PKD
ROOT
HETATM    1  C   UNL     1     -10.425  17.757  66.335  1.00  0.00    -0.297 C  
HETATM    2  N   UNL     1      -9.905  16.391  66.258  1.00  0.00    -0.295 NA 
ENDROOT
BRANCH   2   3
HETATM    3  C   UNL     1      -8.859  16.044  67.163  1.00  0.00    -0.204 A  
HETATM    4  C   UNL     1      -7.275  16.927  68.948  1.00  0.00    -0.231 A  
HETATM    5  C   UNL     1      -5.222  15.718  71.035  1.00  0.00    -0.118 C  
HETATM    6  C   UNL     1      -8.424  14.700  67.307  1.00  0.00    -0.234 A  
HETATM    7  C   UNL     1      -7.438  14.495  68.290  1.00  0.00    -0.120 A  
HETATM    8  C   UNL     1      -6.920  15.591  69.062  1.00  0.00    -0.141 A  
HETATM    9  C   UNL     1      -6.021  15.074  69.963  1.00  0.00    -0.142 A  
HETATM   10  N   UNL     1      -6.835  13.360  68.679  1.00  0.00    -0.092 NA 
HETATM   11  N   UNL     1      -6.011  13.727  69.685  1.00  0.00    -0.106 NA 
HETATM   12  C   UNL     1      -5.233  12.706  70.350  1.00  0.00    -0.118 C  
HETATM   13  C   UNL     1      -8.267  17.100  67.956  1.00  0.00    -0.216 A  
ENDBRANCH   2   3
BRANCH   2  14
HETATM   14  C   UNL     1     -10.616  15.468  65.461  1.00  0.00    -0.396 A  
HETATM   15  C   UNL     1     -10.752  13.317  64.582  1.00  0.00    -0.400 A  
HETATM   16  N   UNL     1     -11.836  13.594  63.851  1.00  0.00    -0.404 NA 
HETATM   17  C   UNL     1     -12.328  14.837  63.977  1.00  0.00    -0.092 A  
HETATM   18  C   UNL     1     -11.765  15.808  64.773  1.00  0.00    -0.081 A  
HETATM   19  N   UNL     1     -10.131  14.216  65.358  1.00  0.00    -0.344 NA 
BRANCH  15  20
HETATM   20  N   UNL     1     -10.239  12.025  64.486  1.00  0.00    -0.277 NA 
HETATM   21  H   UNL     1      -9.826  11.774  63.588  1.00  0.00     0.000 HD 
BRANCH  20  22
HETATM   22  C   UNL     1     -10.218  11.027  65.470  1.00  0.00    -0.268 A  
HETATM   23  C   UNL     1      -9.648   9.787  65.175  1.00  0.00    -0.356 A  
HETATM   24  C   UNL     1      -9.530   8.800  66.159  1.00  0.00    -0.315 A  
HETATM   25  C   UNL     1      -9.991   9.015  67.470  1.00  0.00    -0.262 A  
HETATM   26  C   UNL     1     -10.602  10.248  67.760  1.00  0.00    -0.250 A  
HETATM   27  C   UNL     1      -9.814   7.916  68.475  1.00  0.00    -0.186 C  
HETATM   28  C   UNL     1     -10.699  11.238  66.768  1.00  0.00    -0.323 A  
BRANCH  26  29
HETATM   29  S   UNL     1     -11.342  10.633  69.343  1.00  0.00    -0.302 S  
HETATM   30  O   UNL     1     -10.768   9.787  70.358  1.00  0.00    -0.264 OA 
HETATM   31  O   UNL     1     -12.774  10.740  69.166  1.00  0.00    -0.225 OA 
HETATM   32  N   UNL     1     -10.783  12.190  69.612  1.00  0.00    -0.362 N  
HETATM   33  H1  UNL     1     -11.205  12.410  70.515  1.00  0.00     0.000 HD 
HETATM   34  H2  UNL     1     -10.179  12.767  69.027  1.00  0.00     0.000 HD 
ENDBRANCH  26  29
ENDBRANCH  20  22
ENDBRANCH  15  20
ENDBRANCH   2  14
TORSDOF 5
ENDMDL
MODEL      214
REMARK 921   NORMALIZED FREE ENERGY PREDICTED BY IDOCK:   -5.22 KCAL/MOL
REMARK 922        TOTAL FREE ENERGY PREDICTED BY IDOCK:   -7.21 KCAL/MOL
REMARK 923 INTER-LIGAND FREE ENERGY PREDICTED BY IDOCK:   -7.93 KCAL/MOL
REMARK 924 INTRA-LIGAND FREE ENERGY PREDICTED BY IDOCK:    0.72 KCAL/MOL
REMARK 927      BINDING AFFINITY PREDICTED BY RF-SCORE:    0.00 PKD
ROOT
HETATM    1  C   UNL     1      -9.632  10.319  63.988  1.00  0.00    -0.304 C  
HETATM    2  N   UNL     1      -9.793  10.077  65.423  1.00  0.00    -0.301 NA 
ENDROOT
BRANCH   2   3
HETATM    3  C   UNL     1     -10.309  11.151  66.207  1.00  0.00    -0.249 A  
HETATM    4  C   UNL     1     -11.699  11.753  68.252  1.00  0.00    -0.377 A  
HETATM    5  C   UNL     1     -12.384  14.363  69.909  1.00  0.00    -0.365 C  
HETATM    6  C   UNL     1      -9.980  12.501  65.917  1.00  0.00    -0.269 A  
HETATM    7  C   UNL     1     -10.499  13.448  66.819  1.00  0.00    -0.275 A  
HETATM    8  C   UNL     1     -11.313  13.045  67.932  1.00  0.00    -0.327 A  
HETATM    9  C   UNL     1     -11.621  14.176  68.650  1.00  0.00    -0.317 A  
HETATM   10  N   UNL     1     -10.362  14.784  66.835  1.00  0.00    -0.264 NA 
HETATM   11  N   UNL     1     -11.023  15.191  67.941  1.00  0.00    -0.292 NA 
HETATM   12  C   UNL     1     -11.031  16.600  68.264  1.00  0.00    -0.341 C  
HETATM   13  C   UNL     1     -11.161  10.825  67.331  1.00  0.00    -0.363 A  
ENDBRANCH   2   3
BRANCH   2  14
HETATM   14  C   UNL     1      -9.638   8.751  65.881  1.00  0.00    -0.184 A  
HETATM   15  C   UNL     1     -10.316   7.082  67.356  1.00  0.00    -0.244 A  
HETATM   16  N   UNL     1      -9.374   6.225  66.950  1.00  0.00    -0.131 NA 
HETATM   17  C   UNL     1      -8.582   6.651  65.954  1.00  0.00    -0.148 A  
HETATM   18  C   UNL     1      -8.676   7.897  65.378  1.00  0.00    -0.078 A  
HETATM   19  N   UNL     1     -10.452   8.322  66.863  1.00  0.00    -0.320 NA 
BRANCH  15  20
HETATM   20  N   UNL     1     -11.167   6.653  68.372  1.00  0.00    -0.555 NA 
HETATM   21  H   UNL     1     -12.108   6.385  68.083  1.00  0.00     0.000 HD 
BRANCH  20  22
HETATM   22  C   UNL     1     -10.893   6.542  69.742  1.00  0.00    -0.295 A  
HETATM   23  C   UNL     1     -11.648   7.283  70.653  1.00  0.00    -0.322 A  
HETATM   24  C   UNL     1     -11.461   7.129  72.031  1.00  0.00    -0.310 A  
HETATM   25  C   UNL     1     -10.502   6.238  72.545  1.00  0.00    -0.228 A  
HETATM   26  C   UNL     1      -9.713   5.520  71.630  1.00  0.00    -0.161 A  
HETATM   27  C   UNL     1     -10.373   6.114  74.034  1.00  0.00    -0.311 C  
HETATM   28  C   UNL     1      -9.921   5.670  70.248  1.00  0.00    -0.269 A  
BRANCH  26  29
HETATM   29  S   UNL     1      -8.375   4.437  72.119  1.00  0.00    -0.109 S  
HETATM   30  O   UNL     1      -8.469   3.199  71.386  1.00  0.00    -0.063 OA 
HETATM   31  O   UNL     1      -8.273   4.457  73.562  1.00  0.00    -0.093 OA 
HETATM   32  N   UNL     1      -7.037   5.263  71.540  1.00  0.00    -0.064 N  
HETATM   33  H1  UNL     1      -6.274   4.645  71.818  1.00  0.00     0.000 HD 
HETATM   34  H2  UNL     1      -6.996   6.151  71.040  1.00  0.00     0.000 HD 
ENDBRANCH  26  29
ENDBRANCH  20  22
ENDBRANCH  15  20
ENDBRANCH   2  14
TORSDOF 5
ENDMDL
MODEL      215
REMARK 921   NORMALIZED FREE ENERGY PREDICTED BY IDOCK:   -5.13 KCAL/MOL
REMARK 922        TOTAL FREE ENERGY PREDICTED BY IDOCK:   -7.10 KCAL/MOL
REMARK 923 INTER-LIGAND FREE ENERGY PREDICTED BY IDOCK:   -7.00 KCAL/MOL
REMARK 924 INTRA-LIGAND FREE ENERGY PREDICTED BY IDOCK:   -0.10 KCAL/MOL
REMARK 927      BINDING AFFINITY PREDICTED BY RF-SCORE:    0.00 PKD
ROOT
HETATM    1  C   UNL     1      -8.465   9.504  70.480  1.00  0.00    -0.169 C  
HETATM    2  N   UNL     1      -9.527   8.643  71.004  1.00  0.00    -0.188 NA 
ENDROOT
BRANCH   2   3
HETATM    3  C   UNL     1      -9.143   7.353  71.473  1.00  0.00    -0.139 A  
HETATM    4  C   UNL     1      -8.126   6.064  73.418  1.00  0.00    -0.111 A  
HETATM    5  C   UNL     1      -7.709   3.031  74.230  1.00  0.00    -0.063 C  
HETATM    6  C   UNL     1      -9.399   6.183  70.709  1.00  0.00    -0.170 A  
HETATM    7  C   UNL     1      -9.035   4.974  71.330  1.00  0.00    -0.138 A  
HETATM    8  C   UNL     1      -8.434   4.961  72.635  1.00  0.00    -0.119 A  
HETATM    9  C   UNL     1      -8.242   3.647  72.989  1.00  0.00    -0.083 A  
HETATM   10  N   UNL     1      -9.155   3.712  70.889  1.00  0.00    -0.099 NA 
HETATM   11  N   UNL     1      -8.694   2.941  71.899  1.00  0.00    -0.072 NA 
HETATM   12  C   UNL     1      -8.725   1.505  71.744  1.00  0.00    -0.055 C  
HETATM   13  C   UNL     1      -8.506   7.261  72.769  1.00  0.00    -0.132 A  
ENDBRANCH   2   3
BRANCH   2  14
HETATM   14  C   UNL     1     -10.796   9.227  71.208  1.00  0.00    -0.347 A  
HETATM   15  C   UNL     1     -12.252  10.987  70.764  1.00  0.00    -0.380 A  
HETATM   16  N   UNL     1     -13.189  10.534  71.602  1.00  0.00    -0.405 NA 
HETATM   17  C   UNL     1     -12.916   9.372  72.216  1.00  0.00    -0.400 A  
HETATM   18  C   UNL     1     -11.743   8.673  72.049  1.00  0.00    -0.439 A  
HETATM   19  N   UNL     1     -11.073  10.378  70.570  1.00  0.00    -0.308 NA 
BRANCH  15  20
HETATM   20  N   UNL     1     -12.525  12.179  70.095  1.00  0.00    -0.103 NA 
HETATM   21  H   UNL     1     -13.400  12.641  70.344  1.00  0.00     0.000 HD 
BRANCH  20  22
HETATM   22  C   UNL     1     -11.748  12.823  69.123  1.00  0.00    -0.322 A  
HETATM   23  C   UNL     1     -11.255  14.104  69.378  1.00  0.00    -0.298 A  
HETATM   24  C   UNL     1     -10.403  14.739  68.469  1.00  0.00    -0.237 A  
HETATM   25  C   UNL     1     -10.025  14.119  67.264  1.00  0.00    -0.249 A  
HETATM   26  C   UNL     1     -10.551  12.845  66.985  1.00  0.00    -0.252 A  
HETATM   27  C   UNL     1      -9.094  14.855  66.347  1.00  0.00    -0.293 C  
HETATM   28  C   UNL     1     -11.393  12.210  67.915  1.00  0.00    -0.361 A  
BRANCH  26  29
HETATM   29  S   UNL     1     -10.262  11.973  65.450  1.00  0.00    -0.269 S  
HETATM   30  O   UNL     1     -11.404  11.150  65.145  1.00  0.00    -0.016 OA 
HETATM   31  O   UNL     1      -8.921  11.429  65.477  1.00  0.00    -0.183 OA 
HETATM   32  N   UNL     1     -10.239  13.231  64.342  1.00  0.00    -0.602 N  
HETATM   33  H1  UNL     1     -10.074  12.734  63.466  1.00  0.00     0.000 HD 
HETATM   34  H2  UNL     1     -10.358  14.231  64.501  1.00  0.00     0.000 HD 
ENDBRANCH  26  29
ENDBRANCH  20  22
ENDBRANCH  15  20
ENDBRANCH   2  14
TORSDOF 5
ENDMDL
MODEL      216
REMARK 921   NORMALIZED FREE ENERGY PREDICTED BY IDOCK:   -5.13 KCAL/MOL
REMARK 922        TOTAL FREE ENERGY PREDICTED BY IDOCK:   -7.10 KCAL/MOL
REMARK 923 INTER-LIGAND FREE ENERGY PREDICTED BY IDOCK:   -6.76 KCAL/MOL
REMARK 924 INTRA-LIGAND FREE ENERGY PREDICTED BY IDOCK:   -0.34 KCAL/MOL
REMARK 927      BINDING AFFINITY PREDICTED BY RF-SCORE:    0.00 PKD
ROOT
HETATM    1  C   UNL     1     -11.222  12.272  66.281  1.00  0.00    -0.323 C  
HETATM    2  N   UNL     1     -11.028  11.787  67.648  1.00  0.00    -0.219 NA 
ENDROOT
BRANCH   2   3
HETATM    3  C   UNL     1     -10.315  10.562  67.807  1.00  0.00    -0.212 A  
HETATM    4  C   UNL     1     -10.115   8.154  67.008  1.00  0.00    -0.350 A  
HETATM    5  C   UNL     1      -8.112   5.733  67.406  1.00  0.00    -0.102 C  
HETATM    6  C   UNL     1      -9.199  10.465  68.679  1.00  0.00    -0.164 A  
HETATM    7  C   UNL     1      -8.549   9.217  68.677  1.00  0.00    -0.128 A  
HETATM    8  C   UNL     1      -9.016   8.137  67.853  1.00  0.00    -0.133 A  
HETATM    9  C   UNL     1      -8.155   7.080  68.029  1.00  0.00    -0.119 A  
HETATM   10  N   UNL     1      -7.471   8.809  69.366  1.00  0.00    -0.078 NA 
HETATM   11  N   UNL     1      -7.246   7.543  68.951  1.00  0.00    -0.080 NA 
HETATM   12  C   UNL     1      -6.112   6.828  69.491  1.00  0.00    -0.029 C  
HETATM   13  C   UNL     1     -10.745   9.419  67.030  1.00  0.00    -0.207 A  
ENDBRANCH   2   3
BRANCH   2  14
HETATM   14  C   UNL     1     -11.359  12.664  68.703  1.00  0.00    -0.291 A  
HETATM   15  C   UNL     1     -10.855  14.603  69.888  1.00  0.00    -0.113 A  
HETATM   16  N   UNL     1     -11.822  14.404  70.789  1.00  0.00    -0.301 NA 
HETATM   17  C   UNL     1     -12.590  13.321  70.597  1.00  0.00    -0.231 A  
HETATM   18  C   UNL     1     -12.410  12.425  69.568  1.00  0.00     0.001 A  
HETATM   19  N   UNL     1     -10.600  13.762  68.876  1.00  0.00    -0.236 NA 
BRANCH  15  20
HETATM   20  N   UNL     1     -10.060  15.736  70.054  1.00  0.00    -0.242 NA 
HETATM   21  H   UNL     1     -10.015  16.115  70.999  1.00  0.00     0.000 HD 
BRANCH  20  22
HETATM   22  C   UNL     1      -9.315  16.420  69.083  1.00  0.00    -0.224 A  
HETATM   23  C   UNL     1      -8.134  15.853  68.602  1.00  0.00    -0.162 A  
HETATM   24  C   UNL     1      -7.414  16.465  67.570  1.00  0.00    -0.165 A  
HETATM   25  C   UNL     1      -7.845  17.673  66.992  1.00  0.00    -0.239 A  
HETATM   26  C   UNL     1      -9.013  18.266  67.502  1.00  0.00    -0.253 A  
HETATM   27  C   UNL     1      -7.030  18.258  65.878  1.00  0.00    -0.312 C  
HETATM   28  C   UNL     1      -9.737  17.634  68.527  1.00  0.00    -0.328 A  
BRANCH  26  29
HETATM   29  S   UNL     1      -9.630  19.855  66.957  1.00  0.00    -0.418 S  
HETATM   30  O   UNL     1     -10.583  20.353  67.916  1.00  0.00    -0.186 OA 
HETATM   31  O   UNL     1      -9.949  19.765  65.549  1.00  0.00    -0.346 OA 
HETATM   32  N   UNL     1      -8.257  20.811  67.069  1.00  0.00    -0.569 N  
HETATM   33  H1  UNL     1      -8.609  21.717  66.759  1.00  0.00     0.000 HD 
HETATM   34  H2  UNL     1      -7.317  20.554  67.369  1.00  0.00     0.000 HD 
ENDBRANCH  26  29
ENDBRANCH  20  22
ENDBRANCH  15  20
ENDBRANCH   2  14
TORSDOF 5
ENDMDL
MODEL      217
REMARK 921   NORMALIZED FREE ENERGY PREDICTED BY IDOCK:   -5.13 KCAL/MOL
REMARK 922        TOTAL FREE ENERGY PREDICTED BY IDOCK:   -7.09 KCAL/MOL
REMARK 923 INTER-LIGAND FREE ENERGY PREDICTED BY IDOCK:   -6.53 KCAL/MOL
REMARK 924 INTRA-LIGAND FREE ENERGY PREDICTED BY IDOCK:   -0.55 KCAL/MOL
REMARK 927      BINDING AFFINITY PREDICTED BY RF-SCORE:    0.00 PKD
ROOT
HETATM    1  C   UNL     1      -6.248  11.171  68.929  1.00  0.00    -0.047 C  
HETATM    2  N   UNL     1      -7.601  10.796  68.517  1.00  0.00    -0.097 NA 
ENDROOT
BRANCH   2   3
HETATM    3  C   UNL     1      -8.057   9.498  68.893  1.00  0.00    -0.096 A  
HETATM    4  C   UNL     1      -9.387   8.179  70.616  1.00  0.00    -0.165 A  
HETATM    5  C   UNL     1     -10.478   5.223  70.943  1.00  0.00    -0.285 C  
HETATM    6  C   UNL     1      -7.815   8.364  68.073  1.00  0.00    -0.111 A  
HETATM    7  C   UNL     1      -8.389   7.164  68.532  1.00  0.00    -0.125 A  
HETATM    8  C   UNL     1      -9.143   7.121  69.754  1.00  0.00    -0.141 A  
HETATM    9  C   UNL     1      -9.611   5.837  69.906  1.00  0.00    -0.159 A  
HETATM   10  N   UNL     1      -8.359   5.936  67.989  1.00  0.00    -0.111 NA 
HETATM   11  N   UNL     1      -9.107   5.170  68.814  1.00  0.00    -0.110 NA 
HETATM   12  C   UNL     1      -9.302   3.777  68.479  1.00  0.00    -0.166 C  
HETATM   13  C   UNL     1      -8.802   9.369  70.128  1.00  0.00    -0.249 A  
ENDBRANCH   2   3
BRANCH   2  14
HETATM   14  C   UNL     1      -8.423  11.810  67.979  1.00  0.00    -0.157 A  
HETATM   15  C   UNL     1      -9.339  13.937  68.214  1.00  0.00    -0.209 A  
HETATM   16  N   UNL     1     -10.080  13.831  67.107  1.00  0.00    -0.239 NA 
HETATM   17  C   UNL     1      -9.940  12.691  66.413  1.00  0.00    -0.255 A  
HETATM   18  C   UNL     1      -9.120  11.655  66.797  1.00  0.00    -0.186 A  
HETATM   19  N   UNL     1      -8.539  12.961  68.668  1.00  0.00    -0.023 NA 
BRANCH  15  20
HETATM   20  N   UNL     1      -9.449  15.122  68.938  1.00  0.00    -0.204 NA 
HETATM   21  H   UNL     1      -9.613  15.020  69.939  1.00  0.00     0.000 HD 
BRANCH  20  22
HETATM   22  C   UNL     1      -9.363  16.438  68.463  1.00  0.00    -0.225 A  
HETATM   23  C   UNL     1     -10.467  17.012  67.830  1.00  0.00    -0.354 A  
HETATM   24  C   UNL     1     -10.446  18.350  67.425  1.00  0.00    -0.443 A  
HETATM   25  C   UNL     1      -9.313  19.159  67.626  1.00  0.00    -0.357 A  
HETATM   26  C   UNL     1      -8.185  18.573  68.228  1.00  0.00    -0.314 A  
HETATM   27  C   UNL     1      -9.372  20.589  67.181  1.00  0.00    -0.513 C  
HETATM   28  C   UNL     1      -8.224  17.232  68.646  1.00  0.00    -0.262 A  
BRANCH  26  29
HETATM   29  S   UNL     1      -6.630  19.430  68.449  1.00  0.00    -0.267 S  
HETATM   30  O   UNL     1      -6.683  20.213  69.658  1.00  0.00    -0.299 OA 
HETATM   31  O   UNL     1      -6.245  20.016  67.183  1.00  0.00    -0.182 OA 
HETATM   32  N   UNL     1      -5.573  18.157  68.720  1.00  0.00    -0.182 N  
HETATM   33  H1  UNL     1      -4.687  18.646  68.846  1.00  0.00     0.000 HD 
HETATM   34  H2  UNL     1      -5.767  17.156  68.750  1.00  0.00     0.000 HD 
ENDBRANCH  26  29
ENDBRANCH  20  22
ENDBRANCH  15  20
ENDBRANCH   2  14
TORSDOF 5
ENDMDL
MODEL      218
REMARK 921   NORMALIZED FREE ENERGY PREDICTED BY IDOCK:   -5.10 KCAL/MOL
REMARK 922        TOTAL FREE ENERGY PREDICTED BY IDOCK:   -7.05 KCAL/MOL
REMARK 923 INTER-LIGAND FREE ENERGY PREDICTED BY IDOCK:   -6.29 KCAL/MOL
REMARK 924 INTRA-LIGAND FREE ENERGY PREDICTED BY IDOCK:   -0.76 KCAL/MOL
REMARK 927      BINDING AFFINITY PREDICTED BY RF-SCORE:    0.00 PKD
ROOT
HETATM    1  C   UNL     1     -12.034  15.505  64.129  1.00  0.00    -0.072 C  
HETATM    2  N   UNL     1     -11.010  15.299  65.154  1.00  0.00    -0.392 NA 
ENDROOT
BRANCH   2   3
HETATM    3  C   UNL     1     -10.735  13.952  65.533  1.00  0.00    -0.302 A  
HETATM    4  C   UNL     1     -11.377  12.062  67.113  1.00  0.00    -0.396 A  
HETATM    5  C   UNL     1     -10.711   8.984  67.445  1.00  0.00    -0.231 C  
HETATM    6  C   UNL     1      -9.788  13.165  64.826  1.00  0.00    -0.030 A  
HETATM    7  C   UNL     1      -9.676  11.832  65.263  1.00  0.00    -0.211 A  
HETATM    8  C   UNL     1     -10.464  11.341  66.360  1.00  0.00    -0.306 A  
HETATM    9  C   UNL     1     -10.171  10.007  66.515  1.00  0.00    -0.224 A  
HETATM   10  N   UNL     1      -8.896  10.840  64.804  1.00  0.00    -0.178 NA 
HETATM   11  N   UNL     1      -9.221   9.762  65.551  1.00  0.00    -0.197 NA 
HETATM   12  C   UNL     1      -8.569   8.503  65.272  1.00  0.00    -0.165 C  
HETATM   13  C   UNL     1     -11.470  13.394  66.649  1.00  0.00    -0.376 A  
ENDBRANCH   2   3
BRANCH   2  14
HETATM   14  C   UNL     1     -10.226  16.412  65.525  1.00  0.00    -0.269 A  
HETATM   15  C   UNL     1      -8.208  17.212  66.366  1.00  0.00    -0.292 A  
HETATM   16  N   UNL     1      -8.624  18.481  66.389  1.00  0.00    -0.366 NA 
HETATM   17  C   UNL     1      -9.864  18.702  65.924  1.00  0.00    -0.030 A  
HETATM   18  C   UNL     1     -10.702  17.708  65.472  1.00  0.00    -0.037 A  
HETATM   19  N   UNL     1      -8.975  16.187  65.967  1.00  0.00    -0.355 NA 
BRANCH  15  20
HETATM   20  N   UNL     1      -6.915  16.962  66.821  1.00  0.00    -0.213 NA 
HETATM   21  H   UNL     1      -6.162  17.393  66.284  1.00  0.00     0.000 HD 
BRANCH  20  22
HETATM   22  C   UNL     1      -6.518  16.192  67.923  1.00  0.00    -0.142 A  
HETATM   23  C   UNL     1      -6.156  16.832  69.110  1.00  0.00    -0.180 A  
HETATM   24  C   UNL     1      -5.842  16.094  70.255  1.00  0.00    -0.117 A  
HETATM   25  C   UNL     1      -5.866  14.687  70.249  1.00  0.00    -0.146 A  
HETATM   26  C   UNL     1      -6.192  14.039  69.044  1.00  0.00    -0.092 A  
HETATM   27  C   UNL     1      -5.535  13.965  71.521  1.00  0.00    -0.227 C  
HETATM   28  C   UNL     1      -6.522  14.792  67.905  1.00  0.00    -0.176 A  
BRANCH  26  29
HETATM   29  S   UNL     1      -6.155  12.262  68.840  1.00  0.00    -0.079 S  
HETATM   30  O   UNL     1      -5.152  11.701  69.709  1.00  0.00    -0.059 OA 
HETATM   31  O   UNL     1      -6.183  11.963  67.424  1.00  0.00    -0.093 OA 
HETATM   32  N   UNL     1      -7.652  11.816  69.447  1.00  0.00    -0.339 N  
HETATM   33  H1  UNL     1      -7.631  10.803  69.330  1.00  0.00     0.000 HD 
HETATM   34  H2  UNL     1      -8.391  12.404  69.832  1.00  0.00     0.000 HD 
ENDBRANCH  26  29
ENDBRANCH  20  22
ENDBRANCH  15  20
ENDBRANCH   2  14
TORSDOF 5
ENDMDL
MODEL      219
REMARK 921   NORMALIZED FREE ENERGY PREDICTED BY IDOCK:   -5.10 KCAL/MOL
REMARK 922        TOTAL FREE ENERGY PREDICTED BY IDOCK:   -7.05 KCAL/MOL
REMARK 923 INTER-LIGAND FREE ENERGY PREDICTED BY IDOCK:   -6.77 KCAL/MOL
REMARK 924 INTRA-LIGAND FREE ENERGY PREDICTED BY IDOCK:   -0.27 KCAL/MOL
REMARK 927      BINDING AFFINITY PREDICTED BY RF-SCORE:    0.00 PKD
ROOT
HETATM    1  C   UNL     1      -9.731  12.061  65.723  1.00  0.00    -0.235 C  
HETATM    2  N   UNL     1      -9.928  12.774  66.985  1.00  0.00    -0.228 NA 
ENDROOT
BRANCH   2   3
HETATM    3  C   UNL     1      -9.681  14.179  66.982  1.00  0.00    -0.258 A  
HETATM    4  C   UNL     1     -10.376  16.411  65.977  1.00  0.00    -0.365 A  
HETATM    5  C   UNL     1      -9.767  19.477  66.483  1.00  0.00    -0.478 C  
HETATM    6  C   UNL     1      -8.738  14.764  67.867  1.00  0.00    -0.167 A  
HETATM    7  C   UNL     1      -8.654  16.167  67.805  1.00  0.00    -0.167 A  
HETATM    8  C   UNL     1      -9.465  16.920  66.889  1.00  0.00    -0.261 A  
HETATM    9  C   UNL     1      -9.197  18.252  67.098  1.00  0.00    -0.264 A  
HETATM   10  N   UNL     1      -7.884  17.014  68.509  1.00  0.00    -0.240 NA 
HETATM   11  N   UNL     1      -8.238  18.246  68.083  1.00  0.00    -0.275 NA 
HETATM   12  C   UNL     1      -7.603  19.396  68.686  1.00  0.00    -0.363 C  
HETATM   13  C   UNL     1     -10.440  15.002  66.065  1.00  0.00    -0.326 A  
ENDBRANCH   2   3
BRANCH   2  14
HETATM   14  C   UNL     1     -10.551  12.072  68.039  1.00  0.00    -0.208 A  
HETATM   15  C   UNL     1     -10.627  10.156  69.359  1.00  0.00    -0.237 A  
HETATM   16  N   UNL     1     -11.733  10.541  70.002  1.00  0.00    -0.289 NA 
HETATM   17  C   UNL     1     -12.218  11.747  69.666  1.00  0.00    -0.185 A  
HETATM   18  C   UNL     1     -11.663  12.556  68.701  1.00  0.00    -0.368 A  
HETATM   19  N   UNL     1     -10.044  10.875  68.388  1.00  0.00    -0.176 NA 
BRANCH  15  20
HETATM   20  N   UNL     1     -10.090   8.919  69.709  1.00  0.00    -0.193 NA 
HETATM   21  H   UNL     1      -9.819   8.811  70.687  1.00  0.00     0.000 HD 
BRANCH  20  22
HETATM   22  C   UNL     1      -9.876   7.804  68.888  1.00  0.00    -0.166 A  
HETATM   23  C   UNL     1     -10.127   7.904  67.518  1.00  0.00    -0.276 A  
HETATM   24  C   UNL     1      -9.839   6.841  66.657  1.00  0.00    -0.214 A  
HETATM   25  C   UNL     1      -9.302   5.633  67.138  1.00  0.00    -0.115 A  
HETATM   26  C   UNL     1      -9.086   5.514  68.522  1.00  0.00    -0.114 A  
HETATM   27  C   UNL     1      -9.003   4.544  66.151  1.00  0.00    -0.120 C  
HETATM   28  C   UNL     1      -9.363   6.596  69.376  1.00  0.00    -0.147 A  
BRANCH  26  29
HETATM   29  S   UNL     1      -8.520   4.008  69.306  1.00  0.00    -0.078 S  
HETATM   30  O   UNL     1      -9.276   2.891  68.798  1.00  0.00    -0.140 OA 
HETATM   31  O   UNL     1      -8.389   4.251  70.726  1.00  0.00    -0.076 OA 
HETATM   32  N   UNL     1      -6.961   3.875  68.704  1.00  0.00    -0.047 N  
HETATM   33  H1  UNL     1      -6.638   3.016  69.150  1.00  0.00     0.000 HD 
HETATM   34  H2  UNL     1      -6.465   4.491  68.060  1.00  0.00     0.000 HD 
ENDBRANCH  26  29
ENDBRANCH  20  22
ENDBRANCH  15  20
ENDBRANCH   2  14
TORSDOF 5
ENDMDL
MODEL      220
REMARK 921   NORMALIZED FREE ENERGY PREDICTED BY IDOCK:   -5.09 KCAL/MOL
REMARK 922        TOTAL FREE ENERGY PREDICTED BY IDOCK:   -7.04 KCAL/MOL
REMARK 923 INTER-LIGAND FREE ENERGY PREDICTED BY IDOCK:   -6.38 KCAL/MOL
REMARK 924 INTRA-LIGAND FREE ENERGY PREDICTED BY IDOCK:   -0.66 KCAL/MOL
REMARK 927      BINDING AFFINITY PREDICTED BY RF-SCORE:    0.00 PKD
ROOT
HETATM    1  C   UNL     1      -9.876  10.173  66.680  1.00  0.00    -0.200 C  
HETATM    2  N   UNL     1      -8.886  10.331  67.746  1.00  0.00    -0.125 NA 
ENDROOT
BRANCH   2   3
HETATM    3  C   UNL     1      -9.081   9.563  68.931  1.00  0.00    -0.141 A  
HETATM    4  C   UNL     1     -10.287   9.461  71.170  1.00  0.00    -0.377 A  
HETATM    5  C   UNL     1     -10.713   7.343  73.486  1.00  0.00    -0.347 C  
HETATM    6  C   UNL     1      -8.485   8.284  69.088  1.00  0.00    -0.127 A  
HETATM    7  C   UNL     1      -8.825   7.609  70.275  1.00  0.00    -0.145 A  
HETATM    8  C   UNL     1      -9.701   8.207  71.244  1.00  0.00    -0.207 A  
HETATM    9  C   UNL     1      -9.881   7.295  72.256  1.00  0.00    -0.154 A  
HETATM   10  N   UNL     1      -8.449   6.396  70.711  1.00  0.00    -0.133 NA 
HETATM   11  N   UNL     1      -9.103   6.225  71.881  1.00  0.00    -0.143 NA 
HETATM   12  C   UNL     1      -8.933   4.980  72.595  1.00  0.00    -0.125 C  
HETATM   13  C   UNL     1      -9.929  10.112  69.968  1.00  0.00    -0.213 A  
ENDBRANCH   2   3
BRANCH   2  14
HETATM   14  C   UNL     1      -7.711  11.052  67.441  1.00  0.00    -0.114 A  
HETATM   15  C   UNL     1      -6.441  12.977  67.754  1.00  0.00    -0.148 A  
HETATM   16  N   UNL     1      -5.520  12.617  66.856  1.00  0.00    -0.278 NA 
HETATM   17  C   UNL     1      -5.700  11.419  66.278  1.00  0.00    -0.072 A  
HETATM   18  C   UNL     1      -6.770  10.594  66.540  1.00  0.00    -0.116 A  
HETATM   19  N   UNL     1      -7.524  12.241  68.043  1.00  0.00    -0.104 NA 
BRANCH  15  20
HETATM   20  N   UNL     1      -6.262  14.206  68.386  1.00  0.00    -0.093 NA 
HETATM   21  H   UNL     1      -5.342  14.367  68.796  1.00  0.00     0.000 HD 
BRANCH  20  22
HETATM   22  C   UNL     1      -7.187  15.250  68.529  1.00  0.00    -0.114 A  
HETATM   23  C   UNL     1      -6.792  16.558  68.246  1.00  0.00    -0.143 A  
HETATM   24  C   UNL     1      -7.713  17.610  68.291  1.00  0.00    -0.253 A  
HETATM   25  C   UNL     1      -9.059  17.391  68.635  1.00  0.00    -0.261 A  
HETATM   26  C   UNL     1      -9.451  16.080  68.960  1.00  0.00    -0.243 A  
HETATM   27  C   UNL     1      -9.991  18.566  68.645  1.00  0.00    -0.419 C  
HETATM   28  C   UNL     1      -8.521  15.029  68.894  1.00  0.00    -0.192 A  
BRANCH  26  29
HETATM   29  S   UNL     1     -11.093  15.655  69.528  1.00  0.00    -0.329 S  
HETATM   30  O   UNL     1     -12.000  15.646  68.408  1.00  0.00    -0.283 OA 
HETATM   31  O   UNL     1     -11.376  16.417  70.725  1.00  0.00    -0.373 OA 
HETATM   32  N   UNL     1     -10.884  14.066  70.018  1.00  0.00    -0.410 N  
HETATM   33  H1  UNL     1     -11.821  13.823  70.342  1.00  0.00     0.000 HD 
HETATM   34  H2  UNL     1     -10.041  13.492  69.998  1.00  0.00     0.000 HD 
ENDBRANCH  26  29
ENDBRANCH  20  22
ENDBRANCH  15  20
ENDBRANCH   2  14
TORSDOF 5
ENDMDL
MODEL      221
REMARK 921   NORMALIZED FREE ENERGY PREDICTED BY IDOCK:   -5.06 KCAL/MOL
REMARK 922        TOTAL FREE ENERGY PREDICTED BY IDOCK:   -7.00 KCAL/MOL
REMARK 923 INTER-LIGAND FREE ENERGY PREDICTED BY IDOCK:   -5.88 KCAL/MOL
REMARK 924 INTRA-LIGAND FREE ENERGY PREDICTED BY IDOCK:   -1.13 KCAL/MOL
REMARK 927      BINDING AFFINITY PREDICTED BY RF-SCORE:    0.00 PKD
ROOT
HETATM    1  C   UNL     1      -6.892   9.842  64.913  1.00  0.00    -0.127 C  
HETATM    2  N   UNL     1      -7.567   9.997  66.202  1.00  0.00    -0.104 NA 
ENDROOT
BRANCH   2   3
HETATM    3  C   UNL     1      -7.848   8.805  66.934  1.00  0.00    -0.101 A  
HETATM    4  C   UNL     1      -9.042   6.559  66.871  1.00  0.00    -0.144 A  
HETATM    5  C   UNL     1      -9.174   3.948  68.659  1.00  0.00    -0.211 C  
HETATM    6  C   UNL     1      -7.277   8.573  68.213  1.00  0.00    -0.086 A  
HETATM    7  C   UNL     1      -7.582   7.323  68.783  1.00  0.00    -0.104 A  
HETATM    8  C   UNL     1      -8.427   6.382  68.101  1.00  0.00    -0.115 A  
HETATM    9  C   UNL     1      -8.496   5.250  68.877  1.00  0.00    -0.091 A  
HETATM   10  N   UNL     1      -7.195   6.797  69.956  1.00  0.00    -0.074 NA 
HETATM   11  N   UNL     1      -7.735   5.559  69.981  1.00  0.00    -0.077 NA 
HETATM   12  C   UNL     1      -7.467   4.708  71.119  1.00  0.00    -0.068 C  
HETATM   13  C   UNL     1      -8.715   7.820  66.323  1.00  0.00    -0.174 A  
ENDBRANCH   2   3
BRANCH   2  14
HETATM   14  C   UNL     1      -7.689  11.304  66.720  1.00  0.00    -0.155 A  
HETATM   15  C   UNL     1      -9.088  13.006  67.471  1.00  0.00    -0.191 A  
HETATM   16  N   UNL     1      -8.086  13.874  67.633  1.00  0.00    -0.163 NA 
HETATM   17  C   UNL     1      -6.856  13.408  67.363  1.00  0.00    -0.066 A  
HETATM   18  C   UNL     1      -6.600  12.132  66.914  1.00  0.00    -0.006 A  
HETATM   19  N   UNL     1      -8.922  11.756  67.013  1.00  0.00    -0.180 NA 
BRANCH  15  20
HETATM   20  N   UNL     1     -10.372  13.459  67.770  1.00  0.00    -0.237 NA 
HETATM   21  H   UNL     1     -10.830  14.011  67.045  1.00  0.00     0.000 HD 
BRANCH  20  22
HETATM   22  C   UNL     1     -11.112  13.253  68.942  1.00  0.00    -0.261 A  
HETATM   23  C   UNL     1     -11.543  14.355  69.683  1.00  0.00    -0.343 A  
HETATM   24  C   UNL     1     -12.359  14.188  70.807  1.00  0.00    -0.439 A  
HETATM   25  C   UNL     1     -12.762  12.911  71.236  1.00  0.00    -0.371 A  
HETATM   26  C   UNL     1     -12.298  11.797  70.515  1.00  0.00    -0.299 A  
HETATM   27  C   UNL     1     -13.652  12.813  72.439  1.00  0.00    -0.507 C  
HETATM   28  C   UNL     1     -11.493  11.977  69.378  1.00  0.00    -0.361 A  
BRANCH  26  29
HETATM   29  S   UNL     1     -12.624  10.105  70.997  1.00  0.00    -0.401 S  
HETATM   30  O   UNL     1     -14.023   9.814  70.807  1.00  0.00    -0.031 OA 
HETATM   31  O   UNL     1     -11.963   9.852  72.259  1.00  0.00     0.051 OA 
HETATM   32  N   UNL     1     -11.771   9.247  69.837  1.00  0.00    -0.443 N  
HETATM   33  H1  UNL     1     -11.957   8.283  70.112  1.00  0.00     0.000 HD 
HETATM   34  H2  UNL     1     -11.212   9.599  69.060  1.00  0.00     0.000 HD 
ENDBRANCH  26  29
ENDBRANCH  20  22
ENDBRANCH  15  20
ENDBRANCH   2  14
TORSDOF 5
ENDMDL
MODEL      222
REMARK 921   NORMALIZED FREE ENERGY PREDICTED BY IDOCK:   -4.98 KCAL/MOL
REMARK 922        TOTAL FREE ENERGY PREDICTED BY IDOCK:   -6.90 KCAL/MOL
REMARK 923 INTER-LIGAND FREE ENERGY PREDICTED BY IDOCK:   -6.25 KCAL/MOL
REMARK 924 INTRA-LIGAND FREE ENERGY PREDICTED BY IDOCK:   -0.66 KCAL/MOL
REMARK 927      BINDING AFFINITY PREDICTED BY RF-SCORE:    0.00 PKD
ROOT
HETATM    1  C   UNL     1      -6.971   9.819  66.096  1.00  0.00    -0.095 C  
HETATM    2  N   UNL     1      -7.755   8.601  66.299  1.00  0.00    -0.096 NA 
ENDROOT
BRANCH   2   3
HETATM    3  C   UNL     1      -7.459   7.490  65.455  1.00  0.00    -0.082 A  
HETATM    4  C   UNL     1      -5.650   6.352  64.073  1.00  0.00    -0.022 A  
HETATM    5  C   UNL     1      -5.286   3.613  62.527  1.00  0.00    -0.005 C  
HETATM    6  C   UNL     1      -8.418   6.472  65.210  1.00  0.00    -0.091 A  
HETATM    7  C   UNL     1      -7.961   5.401  64.420  1.00  0.00    -0.117 A  
HETATM    8  C   UNL     1      -6.622   5.379  63.901  1.00  0.00    -0.033 A  
HETATM    9  C   UNL     1      -6.461   4.196  63.221  1.00  0.00    -0.026 A  
HETATM   10  N   UNL     1      -8.605   4.291  64.023  1.00  0.00    -0.110 NA 
HETATM   11  N   UNL     1      -7.688   3.583  63.328  1.00  0.00    -0.066 NA 
HETATM   12  C   UNL     1      -8.068   2.297  62.790  1.00  0.00    -0.068 C  
HETATM   13  C   UNL     1      -6.136   7.413  64.871  1.00  0.00    -0.038 A  
ENDBRANCH   2   3
BRANCH   2  14
HETATM   14  C   UNL     1      -8.580   8.540  67.443  1.00  0.00    -0.127 A  
HETATM   15  C   UNL     1     -10.464   9.328  68.560  1.00  0.00    -0.206 A  
HETATM   16  N   UNL     1     -10.217   8.609  69.659  1.00  0.00    -0.203 NA 
HETATM   17  C   UNL     1      -9.139   7.811  69.608  1.00  0.00    -0.146 A  
HETATM   18  C   UNL     1      -8.294   7.730  68.525  1.00  0.00    -0.129 A  
HETATM   19  N   UNL     1      -9.673   9.325  67.477  1.00  0.00    -0.152 NA 
BRANCH  15  20
HETATM   20  N   UNL     1     -11.592  10.146  68.580  1.00  0.00    -0.532 NA 
HETATM   21  H   UNL     1     -12.469   9.690  68.833  1.00  0.00     0.000 HD 
BRANCH  20  22
HETATM   22  C   UNL     1     -11.674  11.516  68.296  1.00  0.00    -0.301 A  
HETATM   23  C   UNL     1     -11.620  12.437  69.343  1.00  0.00    -0.371 A  
HETATM   24  C   UNL     1     -11.608  13.812  69.089  1.00  0.00    -0.363 A  
HETATM   25  C   UNL     1     -11.663  14.315  67.776  1.00  0.00    -0.408 A  
HETATM   26  C   UNL     1     -11.758  13.390  66.721  1.00  0.00    -0.385 A  
HETATM   27  C   UNL     1     -11.628  15.801  67.581  1.00  0.00    -0.029 C  
HETATM   28  C   UNL     1     -11.752  12.011  66.988  1.00  0.00    -0.341 A  
BRANCH  26  29
HETATM   29  S   UNL     1     -11.953  13.867  65.007  1.00  0.00    -0.414 S  
HETATM   30  O   UNL     1     -10.654  14.061  64.414  1.00  0.00    -0.382 OA 
HETATM   31  O   UNL     1     -12.980  14.883  64.928  1.00  0.00    -0.257 OA 
HETATM   32  N   UNL     1     -12.609  12.478  64.338  1.00  0.00    -0.649 N  
HETATM   33  H1  UNL     1     -12.720  12.750  63.361  1.00  0.00     0.000 HD 
HETATM   34  H2  UNL     1     -12.838  11.593  64.789  1.00  0.00     0.000 HD 
ENDBRANCH  26  29
ENDBRANCH  20  22
ENDBRANCH  15  20
ENDBRANCH   2  14
TORSDOF 5
ENDMDL
MODEL      223
REMARK 921   NORMALIZED FREE ENERGY PREDICTED BY IDOCK:   -4.98 KCAL/MOL
REMARK 922        TOTAL FREE ENERGY PREDICTED BY IDOCK:   -6.90 KCAL/MOL
REMARK 923 INTER-LIGAND FREE ENERGY PREDICTED BY IDOCK:   -6.72 KCAL/MOL
REMARK 924 INTRA-LIGAND FREE ENERGY PREDICTED BY IDOCK:   -0.18 KCAL/MOL
REMARK 927      BINDING AFFINITY PREDICTED BY RF-SCORE:    0.00 PKD
ROOT
HETATM    1  C   UNL     1      -9.811  10.091  67.003  1.00  0.00    -0.189 C  
HETATM    2  N   UNL     1      -9.202  10.167  68.331  1.00  0.00    -0.130 NA 
ENDROOT
BRANCH   2   3
HETATM    3  C   UNL     1      -9.482   9.100  69.235  1.00  0.00    -0.158 A  
HETATM    4  C   UNL     1     -10.872   8.385  71.243  1.00  0.00    -0.293 A  
HETATM    5  C   UNL     1     -11.451   5.707  72.833  1.00  0.00    -0.297 C  
HETATM    6  C   UNL     1      -8.875   7.825  69.081  1.00  0.00    -0.138 A  
HETATM    7  C   UNL     1      -9.302   6.848  70.000  1.00  0.00    -0.158 A  
HETATM    8  C   UNL     1     -10.269   7.157  71.017  1.00  0.00    -0.205 A  
HETATM    9  C   UNL     1     -10.517   6.000  71.716  1.00  0.00    -0.221 A  
HETATM   10  N   UNL     1      -8.940   5.560  70.114  1.00  0.00    -0.134 NA 
HETATM   11  N   UNL     1      -9.688   5.074  71.128  1.00  0.00    -0.169 NA 
HETATM   12  C   UNL     1      -9.555   3.678  71.480  1.00  0.00    -0.164 C  
HETATM   13  C   UNL     1     -10.426   9.343  70.305  1.00  0.00    -0.298 A  
ENDBRANCH   2   3
BRANCH   2  14
HETATM   14  C   UNL     1      -8.221  11.161  68.542  1.00  0.00    -0.149 A  
HETATM   15  C   UNL     1      -7.275  13.174  67.858  1.00  0.00    -0.133 A  
HETATM   16  N   UNL     1      -6.296  13.119  68.765  1.00  0.00    -0.084 NA 
HETATM   17  C   UNL     1      -6.325  12.067  69.599  1.00  0.00    -0.120 A  
HETATM   18  C   UNL     1      -7.269  11.067  69.538  1.00  0.00    -0.091 A  
HETATM   19  N   UNL     1      -8.212  12.225  67.718  1.00  0.00    -0.149 NA 
BRANCH  15  20
HETATM   20  N   UNL     1      -7.279  14.270  66.997  1.00  0.00    -0.339 NA 
HETATM   21  H   UNL     1      -7.312  14.055  66.001  1.00  0.00     0.000 HD 
BRANCH  20  22
HETATM   22  C   UNL     1      -7.242  15.631  67.329  1.00  0.00    -0.217 A  
HETATM   23  C   UNL     1      -6.072  16.175  67.863  1.00  0.00    -0.146 A  
HETATM   24  C   UNL     1      -5.971  17.545  68.122  1.00  0.00    -0.157 A  
HETATM   25  C   UNL     1      -7.043  18.420  67.867  1.00  0.00    -0.229 A  
HETATM   26  C   UNL     1      -8.237  17.870  67.366  1.00  0.00    -0.219 A  
HETATM   27  C   UNL     1      -6.854  19.880  68.153  1.00  0.00    -0.328 C  
HETATM   28  C   UNL     1      -8.320  16.493  67.095  1.00  0.00    -0.206 A  
BRANCH  26  29
HETATM   29  S   UNL     1      -9.726  18.825  67.100  1.00  0.00    -0.314 S  
HETATM   30  O   UNL     1     -10.139  19.424  68.344  1.00  0.00    -0.399 OA 
HETATM   31  O   UNL     1     -10.638  18.038  66.298  1.00  0.00    -0.347 OA 
HETATM   32  N   UNL     1      -9.170  20.057  66.109  1.00  0.00    -0.540 N  
HETATM   33  H1  UNL     1     -10.019  20.601  65.957  1.00  0.00     0.000 HD 
HETATM   34  H2  UNL     1      -8.228  20.219  65.752  1.00  0.00     0.000 HD 
ENDBRANCH  26  29
ENDBRANCH  20  22
ENDBRANCH  15  20
ENDBRANCH   2  14
TORSDOF 5
ENDMDL
MODEL      224
REMARK 921   NORMALIZED FREE ENERGY PREDICTED BY IDOCK:   -4.98 KCAL/MOL
REMARK 922        TOTAL FREE ENERGY PREDICTED BY IDOCK:   -6.89 KCAL/MOL
REMARK 923 INTER-LIGAND FREE ENERGY PREDICTED BY IDOCK:   -6.18 KCAL/MOL
REMARK 924 INTRA-LIGAND FREE ENERGY PREDICTED BY IDOCK:   -0.71 KCAL/MOL
REMARK 927      BINDING AFFINITY PREDICTED BY RF-SCORE:    0.00 PKD
ROOT
HETATM    1  C   UNL     1      -5.578  14.399  70.939  1.00  0.00    -0.178 C  
HETATM    2  N   UNL     1      -6.522  14.265  69.829  1.00  0.00    -0.140 NA 
ENDROOT
BRANCH   2   3
HETATM    3  C   UNL     1      -7.098  15.466  69.319  1.00  0.00    -0.179 A  
HETATM    4  C   UNL     1      -9.279  16.689  68.844  1.00  0.00    -0.244 A  
HETATM    5  C   UNL     1     -10.166  19.596  67.956  1.00  0.00    -0.579 C  
HETATM    6  C   UNL     1      -6.287  16.559  68.913  1.00  0.00    -0.157 A  
HETATM    7  C   UNL     1      -6.994  17.705  68.503  1.00  0.00    -0.231 A  
HETATM    8  C   UNL     1      -8.430  17.728  68.494  1.00  0.00    -0.296 A  
HETATM    9  C   UNL     1      -8.821  18.985  68.099  1.00  0.00    -0.316 A  
HETATM   10  N   UNL     1      -6.532  18.893  68.081  1.00  0.00    -0.214 NA 
HETATM   11  N   UNL     1      -7.636  19.642  67.864  1.00  0.00    -0.289 NA 
HETATM   12  C   UNL     1      -7.471  21.010  67.428  1.00  0.00    -0.207 C  
HETATM   13  C   UNL     1      -8.541  15.554  69.252  1.00  0.00    -0.263 A  
ENDBRANCH   2   3
BRANCH   2  14
HETATM   14  C   UNL     1      -6.622  13.001  69.208  1.00  0.00    -0.089 A  
HETATM   15  C   UNL     1      -6.593  10.685  69.434  1.00  0.00    -0.075 A  
HETATM   16  N   UNL     1      -6.689  10.471  68.118  1.00  0.00    -0.064 NA 
HETATM   17  C   UNL     1      -6.793  11.568  67.351  1.00  0.00    -0.104 A  
HETATM   18  C   UNL     1      -6.775  12.853  67.843  1.00  0.00    -0.123 A  
HETATM   19  N   UNL     1      -6.542  11.906  69.986  1.00  0.00    -0.022 NA 
BRANCH  15  20
HETATM   20  N   UNL     1      -6.509   9.561  70.253  1.00  0.00    -0.061 NA 
HETATM   21  H   UNL     1      -5.688   9.508  70.856  1.00  0.00     0.000 HD 
BRANCH  20  22
HETATM   22  C   UNL     1      -7.411   8.492  70.352  1.00  0.00    -0.069 A  
HETATM   23  C   UNL     1      -7.036   7.233  69.880  1.00  0.00    -0.057 A  
HETATM   24  C   UNL     1      -7.875   6.127  70.044  1.00  0.00    -0.106 A  
HETATM   25  C   UNL     1      -9.127   6.244  70.675  1.00  0.00    -0.153 A  
HETATM   26  C   UNL     1      -9.525   7.518  71.117  1.00  0.00    -0.158 A  
HETATM   27  C   UNL     1      -9.964   5.009  70.831  1.00  0.00    -0.286 C  
HETATM   28  C   UNL     1      -8.666   8.619  70.961  1.00  0.00    -0.227 A  
BRANCH  26  29
HETATM   29  S   UNL     1     -11.130   7.857  71.832  1.00  0.00    -0.285 S  
HETATM   30  O   UNL     1     -11.107   7.526  73.235  1.00  0.00    -0.378 OA 
HETATM   31  O   UNL     1     -12.147   7.333  70.947  1.00  0.00    -0.320 OA 
HETATM   32  N   UNL     1     -11.213   9.526  71.711  1.00  0.00    -0.310 N  
HETATM   33  H1  UNL     1     -12.128   9.719  72.119  1.00  0.00     0.000 HD 
HETATM   34  H2  UNL     1     -10.528  10.179  71.329  1.00  0.00     0.000 HD 
ENDBRANCH  26  29
ENDBRANCH  20  22
ENDBRANCH  15  20
ENDBRANCH   2  14
TORSDOF 5
ENDMDL
MODEL      225
REMARK 921   NORMALIZED FREE ENERGY PREDICTED BY IDOCK:   -4.93 KCAL/MOL
REMARK 922        TOTAL FREE ENERGY PREDICTED BY IDOCK:   -6.84 KCAL/MOL
REMARK 923 INTER-LIGAND FREE ENERGY PREDICTED BY IDOCK:   -6.83 KCAL/MOL
REMARK 924 INTRA-LIGAND FREE ENERGY PREDICTED BY IDOCK:   -0.01 KCAL/MOL
REMARK 927      BINDING AFFINITY PREDICTED BY RF-SCORE:    0.00 PKD
ROOT
HETATM    1  C   UNL     1     -11.760  14.765  65.851  1.00  0.00    -0.248 C  
HETATM    2  N   UNL     1     -10.492  14.081  66.105  1.00  0.00    -0.290 NA 
ENDROOT
BRANCH   2   3
HETATM    3  C   UNL     1      -9.576  14.722  66.991  1.00  0.00    -0.241 A  
HETATM    4  C   UNL     1      -7.676  14.353  68.644  1.00  0.00    -0.138 A  
HETATM    5  C   UNL     1      -5.605  16.140  70.240  1.00  0.00    -0.172 C  
HETATM    6  C   UNL     1      -9.510  16.137  67.087  1.00  0.00    -0.231 A  
HETATM    7  C   UNL     1      -8.508  16.630  67.943  1.00  0.00    -0.194 A  
HETATM    8  C   UNL     1      -7.644  15.739  68.665  1.00  0.00    -0.150 A  
HETATM    9  C   UNL     1      -6.748  16.509  69.368  1.00  0.00    -0.213 A  
HETATM   10  N   UNL     1      -8.178  17.898  68.239  1.00  0.00    -0.282 NA 
HETATM   11  N   UNL     1      -7.120  17.800  69.073  1.00  0.00    -0.253 NA 
HETATM   12  C   UNL     1      -6.499  19.015  69.550  1.00  0.00    -0.266 C  
HETATM   13  C   UNL     1      -8.690  13.888  67.774  1.00  0.00    -0.187 A  
ENDBRANCH   2   3
BRANCH   2  14
HETATM   14  C   UNL     1     -10.363  12.755  65.640  1.00  0.00    -0.279 A  
HETATM   15  C   UNL     1      -9.294  10.695  65.823  1.00  0.00    -0.186 A  
HETATM   16  N   UNL     1      -9.926  10.179  64.766  1.00  0.00    -0.321 NA 
HETATM   17  C   UNL     1     -10.825  10.977  64.170  1.00  0.00    -0.180 A  
HETATM   18  C   UNL     1     -11.090  12.267  64.571  1.00  0.00    -0.368 A  
HETATM   19  N   UNL     1      -9.477  11.951  66.257  1.00  0.00    -0.224 NA 
BRANCH  15  20
HETATM   20  N   UNL     1      -8.373   9.875  66.473  1.00  0.00    -0.124 NA 
HETATM   21  H   UNL     1      -7.579   9.565  65.913  1.00  0.00     0.000 HD 
BRANCH  20  22
HETATM   22  C   UNL     1      -8.401   9.423  67.800  1.00  0.00    -0.115 A  
HETATM   23  C   UNL     1      -7.362   9.772  68.664  1.00  0.00    -0.074 A  
HETATM   24  C   UNL     1      -7.403   9.414  70.015  1.00  0.00    -0.101 A  
HETATM   25  C   UNL     1      -8.481   8.682  70.547  1.00  0.00    -0.160 A  
HETATM   26  C   UNL     1      -9.510   8.295  69.670  1.00  0.00    -0.163 A  
HETATM   27  C   UNL     1      -8.463   8.351  72.009  1.00  0.00    -0.245 C  
HETATM   28  C   UNL     1      -9.466   8.675  68.318  1.00  0.00    -0.150 A  
BRANCH  26  29
HETATM   29  S   UNL     1     -10.888   7.265  70.162  1.00  0.00    -0.259 S  
HETATM   30  O   UNL     1     -11.906   8.086  70.768  1.00  0.00    -0.261 OA 
HETATM   31  O   UNL     1     -10.368   6.090  70.826  1.00  0.00    -0.204 OA 
HETATM   32  N   UNL     1     -11.475   6.749  68.680  1.00  0.00    -0.553 N  
HETATM   33  H1  UNL     1     -12.261   6.162  68.960  1.00  0.00     0.000 HD 
HETATM   34  H2  UNL     1     -11.135   6.965  67.743  1.00  0.00     0.000 HD 
ENDBRANCH  26  29
ENDBRANCH  20  22
ENDBRANCH  15  20
ENDBRANCH   2  14
TORSDOF 5
ENDMDL
MODEL      226
REMARK 921   NORMALIZED FREE ENERGY PREDICTED BY IDOCK:   -4.82 KCAL/MOL
REMARK 922        TOTAL FREE ENERGY PREDICTED BY IDOCK:   -6.69 KCAL/MOL
REMARK 923 INTER-LIGAND FREE ENERGY PREDICTED BY IDOCK:   -5.80 KCAL/MOL
REMARK 924 INTRA-LIGAND FREE ENERGY PREDICTED BY IDOCK:   -0.88 KCAL/MOL
REMARK 927      BINDING AFFINITY PREDICTED BY RF-SCORE:    0.00 PKD
ROOT
HETATM    1  C   UNL     1      -6.926  10.734  69.840  1.00  0.00    -0.123 C  
HETATM    2  N   UNL     1      -8.249  10.221  69.482  1.00  0.00    -0.166 NA 
ENDROOT
BRANCH   2   3
HETATM    3  C   UNL     1      -8.843  10.735  68.292  1.00  0.00    -0.139 A  
HETATM    4  C   UNL     1      -8.586  10.964  65.770  1.00  0.00    -0.176 A  
HETATM    5  C   UNL     1     -10.355  11.949  63.335  1.00  0.00    -0.481 C  
HETATM    6  C   UNL     1     -10.119  11.358  68.313  1.00  0.00    -0.204 A  
HETATM    7  C   UNL     1     -10.612  11.749  67.054  1.00  0.00    -0.232 A  
HETATM    8  C   UNL     1      -9.848  11.533  65.857  1.00  0.00    -0.262 A  
HETATM    9  C   UNL     1     -10.607  11.968  64.798  1.00  0.00    -0.297 A  
HETATM   10  N   UNL     1     -11.774  12.340  66.733  1.00  0.00    -0.530 NA 
HETATM   11  N   UNL     1     -11.755  12.444  65.386  1.00  0.00    -0.389 NA 
HETATM   12  C   UNL     1     -12.902  13.017  64.719  1.00  0.00    -0.265 C  
HETATM   13  C   UNL     1      -8.119  10.581  67.048  1.00  0.00    -0.118 A  
ENDBRANCH   2   3
BRANCH   2  14
HETATM   14  C   UNL     1      -8.736   9.112  70.207  1.00  0.00    -0.200 A  
HETATM   15  C   UNL     1      -8.691   6.811  70.557  1.00  0.00    -0.147 A  
HETATM   16  N   UNL     1      -9.673   6.846  71.463  1.00  0.00    -0.163 NA 
HETATM   17  C   UNL     1     -10.154   8.062  71.762  1.00  0.00    -0.191 A  
HETATM   18  C   UNL     1      -9.717   9.227  71.173  1.00  0.00    -0.327 A  
HETATM   19  N   UNL     1      -8.231   7.898  69.920  1.00  0.00    -0.119 NA 
BRANCH  15  20
HETATM   20  N   UNL     1      -8.158   5.561  70.249  1.00  0.00    -0.100 NA 
HETATM   21  H   UNL     1      -7.576   5.135  70.969  1.00  0.00     0.000 HD 
BRANCH  20  22
HETATM   22  C   UNL     1      -8.322   4.816  69.073  1.00  0.00    -0.081 A  
HETATM   23  C   UNL     1      -9.138   3.684  69.087  1.00  0.00    -0.200 A  
HETATM   24  C   UNL     1      -9.395   2.970  67.912  1.00  0.00    -0.255 A  
HETATM   25  C   UNL     1      -8.832   3.357  66.683  1.00  0.00    -0.143 A  
HETATM   26  C   UNL     1      -7.977   4.474  66.672  1.00  0.00    -0.102 A  
HETATM   27  C   UNL     1      -9.167   2.552  65.462  1.00  0.00    -0.081 C  
HETATM   28  C   UNL     1      -7.740   5.193  67.856  1.00  0.00    -0.087 A  
BRANCH  26  29
HETATM   29  S   UNL     1      -7.093   5.024  65.217  1.00  0.00    -0.064 S  
HETATM   30  O   UNL     1      -8.027   5.238  64.141  1.00  0.00    -0.098 OA 
HETATM   31  O   UNL     1      -5.923   4.189  65.049  1.00  0.00    -0.021 OA 
HETATM   32  N   UNL     1      -6.534   6.527  65.704  1.00  0.00    -0.041 N  
HETATM   33  H1  UNL     1      -6.030   6.840  64.874  1.00  0.00     0.000 HD 
HETATM   34  H2  UNL     1      -6.664   7.003  66.596  1.00  0.00     0.000 HD 
ENDBRANCH  26  29
ENDBRANCH  20  22
ENDBRANCH  15  20
ENDBRANCH   2  14
TORSDOF 5
ENDMDL
MODEL      227
REMARK 921   NORMALIZED FREE ENERGY PREDICTED BY IDOCK:   -4.80 KCAL/MOL
REMARK 922        TOTAL FREE ENERGY PREDICTED BY IDOCK:   -6.67 KCAL/MOL
REMARK 923 INTER-LIGAND FREE ENERGY PREDICTED BY IDOCK:   -5.66 KCAL/MOL
REMARK 924 INTRA-LIGAND FREE ENERGY PREDICTED BY IDOCK:   -1.01 KCAL/MOL
REMARK 927      BINDING AFFINITY PREDICTED BY RF-SCORE:    0.00 PKD
ROOT
HETATM    1  C   UNL     1     -12.616  13.658  66.263  1.00  0.00    -0.291 C  
HETATM    2  N   UNL     1     -11.174  13.448  66.399  1.00  0.00    -0.299 NA 
ENDROOT
BRANCH   2   3
HETATM    3  C   UNL     1     -10.617  12.320  65.727  1.00  0.00    -0.254 A  
HETATM    4  C   UNL     1      -9.703  11.459  63.513  1.00  0.00    -0.362 A  
HETATM    5  C   UNL     1      -8.210   8.871  62.465  1.00  0.00    -0.178 C  
HETATM    6  C   UNL     1     -10.335  11.113  66.420  1.00  0.00    -0.300 A  
HETATM    7  C   UNL     1      -9.718  10.112  65.647  1.00  0.00    -0.259 A  
HETATM    8  C   UNL     1      -9.424  10.323  64.257  1.00  0.00    -0.365 A  
HETATM    9  C   UNL     1      -8.784   9.199  63.794  1.00  0.00    -0.125 A  
HETATM   10  N   UNL     1      -9.314   8.882  66.000  1.00  0.00    -0.227 NA 
HETATM   11  N   UNL     1      -8.747   8.366  64.888  1.00  0.00    -0.084 NA 
HETATM   12  C   UNL     1      -8.172   7.041  64.954  1.00  0.00    -0.074 C  
HETATM   13  C   UNL     1     -10.320  12.446  64.316  1.00  0.00    -0.388 A  
ENDBRANCH   2   3
BRANCH   2  14
HETATM   14  C   UNL     1     -10.418  14.483  66.990  1.00  0.00    -0.268 A  
HETATM   15  C   UNL     1      -8.386  15.174  67.891  1.00  0.00    -0.149 A  
HETATM   16  N   UNL     1      -8.857  16.372  68.250  1.00  0.00    -0.196 NA 
HETATM   17  C   UNL     1     -10.134  16.624  67.922  1.00  0.00    -0.270 A  
HETATM   18  C   UNL     1     -10.955  15.722  67.285  1.00  0.00    -0.259 A  
HETATM   19  N   UNL     1      -9.131  14.233  67.294  1.00  0.00    -0.205 NA 
BRANCH  15  20
HETATM   20  N   UNL     1      -7.055  14.900  68.199  1.00  0.00    -0.108 NA 
HETATM   21  H   UNL     1      -6.373  15.588  67.881  1.00  0.00     0.000 HD 
BRANCH  20  22
HETATM   22  C   UNL     1      -6.536  13.796  68.890  1.00  0.00    -0.100 A  
HETATM   23  C   UNL     1      -6.005  13.977  70.168  1.00  0.00    -0.151 A  
HETATM   24  C   UNL     1      -5.561  12.885  70.921  1.00  0.00    -0.170 A  
HETATM   25  C   UNL     1      -5.621  11.574  70.415  1.00  0.00    -0.144 A  
HETATM   26  C   UNL     1      -6.119  11.393  69.112  1.00  0.00    -0.055 A  
HETATM   27  C   UNL     1      -5.143  10.452  71.288  1.00  0.00    -0.085 C  
HETATM   28  C   UNL     1      -6.577  12.496  68.372  1.00  0.00    -0.070 A  
BRANCH  26  29
HETATM   29  S   UNL     1      -6.153   9.808  68.282  1.00  0.00    -0.050 S  
HETATM   30  O   UNL     1      -5.244   8.904  68.939  1.00  0.00    -0.036 OA 
HETATM   31  O   UNL     1      -6.095  10.037  66.854  1.00  0.00    -0.054 OA 
HETATM   32  N   UNL     1      -7.710   9.283  68.612  1.00  0.00    -0.084 N  
HETATM   33  H1  UNL     1      -7.730   8.379  68.139  1.00  0.00     0.000 HD 
HETATM   34  H2  UNL     1      -8.446   9.746  69.146  1.00  0.00     0.000 HD 
ENDBRANCH  26  29
ENDBRANCH  20  22
ENDBRANCH  15  20
ENDBRANCH   2  14
TORSDOF 5
ENDMDL
MODEL      228
REMARK 921   NORMALIZED FREE ENERGY PREDICTED BY IDOCK:   -4.75 KCAL/MOL
REMARK 922        TOTAL FREE ENERGY PREDICTED BY IDOCK:   -6.60 KCAL/MOL
REMARK 923 INTER-LIGAND FREE ENERGY PREDICTED BY IDOCK:   -5.87 KCAL/MOL
REMARK 924 INTRA-LIGAND FREE ENERGY PREDICTED BY IDOCK:   -0.73 KCAL/MOL
REMARK 927      BINDING AFFINITY PREDICTED BY RF-SCORE:    0.00 PKD
ROOT
HETATM    1  C   UNL     1      -9.650   4.432  66.449  1.00  0.00    -0.196 C  
HETATM    2  N   UNL     1      -8.975   5.299  67.415  1.00  0.00    -0.109 NA 
ENDROOT
BRANCH   2   3
HETATM    3  C   UNL     1      -9.260   5.077  68.795  1.00  0.00    -0.122 A  
HETATM    4  C   UNL     1      -9.991   6.175  70.972  1.00  0.00    -0.221 A  
HETATM    5  C   UNL     1     -10.841   5.238  73.875  1.00  0.00    -0.269 C  
HETATM    6  C   UNL     1      -9.227   3.772  69.354  1.00  0.00    -0.226 A  
HETATM    7  C   UNL     1      -9.603   3.695  70.708  1.00  0.00    -0.179 A  
HETATM    8  C   UNL     1      -9.971   4.872  71.445  1.00  0.00    -0.266 A  
HETATM    9  C   UNL     1     -10.332   4.472  72.710  1.00  0.00    -0.187 A  
HETATM   10  N   UNL     1      -9.690   2.625  71.515  1.00  0.00    -0.151 NA 
HETATM   11  N   UNL     1     -10.142   3.110  72.693  1.00  0.00    -0.151 NA 
HETATM   12  C   UNL     1     -10.379   2.185  73.778  1.00  0.00    -0.117 C  
HETATM   13  C   UNL     1      -9.612   6.220  69.611  1.00  0.00    -0.163 A  
ENDBRANCH   2   3
BRANCH   2  14
HETATM   14  C   UNL     1      -7.942   6.131  66.933  1.00  0.00    -0.105 A  
HETATM   15  C   UNL     1      -7.328   7.969  65.644  1.00  0.00    -0.079 A  
HETATM   16  N   UNL     1      -6.020   7.770  65.831  1.00  0.00    -0.038 NA 
HETATM   17  C   UNL     1      -5.691   6.741  66.628  1.00  0.00    -0.018 A  
HETATM   18  C   UNL     1      -6.609   5.898  67.211  1.00  0.00    -0.056 A  
HETATM   19  N   UNL     1      -8.281   7.175  66.155  1.00  0.00    -0.121 NA 
BRANCH  15  20
HETATM   20  N   UNL     1      -7.695   9.047  64.841  1.00  0.00    -0.107 NA 
HETATM   21  H   UNL     1      -7.214   9.120  63.945  1.00  0.00     0.000 HD 
BRANCH  20  22
HETATM   22  C   UNL     1      -8.643  10.045  65.110  1.00  0.00    -0.158 A  
HETATM   23  C   UNL     1      -9.772  10.153  64.297  1.00  0.00    -0.326 A  
HETATM   24  C   UNL     1     -10.780  11.077  64.590  1.00  0.00    -0.318 A  
HETATM   25  C   UNL     1     -10.687  11.935  65.701  1.00  0.00    -0.325 A  
HETATM   26  C   UNL     1      -9.532  11.856  66.499  1.00  0.00    -0.217 A  
HETATM   27  C   UNL     1     -11.816  12.887  65.962  1.00  0.00    -0.485 C  
HETATM   28  C   UNL     1      -8.534  10.912  66.204  1.00  0.00    -0.171 A  
BRANCH  26  29
HETATM   29  S   UNL     1      -9.208  12.952  67.875  1.00  0.00    -0.215 S  
HETATM   30  O   UNL     1      -9.642  14.285  67.538  1.00  0.00    -0.209 OA 
HETATM   31  O   UNL     1      -7.871  12.693  68.364  1.00  0.00    -0.136 OA 
HETATM   32  N   UNL     1     -10.258  12.361  69.039  1.00  0.00    -0.427 N  
HETATM   33  H1  UNL     1     -10.074  12.986  69.824  1.00  0.00     0.000 HD 
HETATM   34  H2  UNL     1     -10.912  11.580  68.979  1.00  0.00     0.000 HD 
ENDBRANCH  26  29
ENDBRANCH  20  22
ENDBRANCH  15  20
ENDBRANCH   2  14
TORSDOF 5
ENDMDL
MODEL      229
REMARK 921   NORMALIZED FREE ENERGY PREDICTED BY IDOCK:   -4.70 KCAL/MOL
REMARK 922        TOTAL FREE ENERGY PREDICTED BY IDOCK:   -6.53 KCAL/MOL
REMARK 923 INTER-LIGAND FREE ENERGY PREDICTED BY IDOCK:   -6.07 KCAL/MOL
REMARK 924 INTRA-LIGAND FREE ENERGY PREDICTED BY IDOCK:   -0.46 KCAL/MOL
REMARK 927      BINDING AFFINITY PREDICTED BY RF-SCORE:    0.00 PKD
ROOT
HETATM    1  C   UNL     1      -7.290  11.585  69.026  1.00  0.00    -0.094 C  
HETATM    2  N   UNL     1      -8.556  11.005  68.578  1.00  0.00    -0.152 NA 
ENDROOT
BRANCH   2   3
HETATM    3  C   UNL     1      -9.217  11.651  67.493  1.00  0.00    -0.172 A  
HETATM    4  C   UNL     1     -10.628  11.291  65.405  1.00  0.00    -0.312 A  
HETATM    5  C   UNL     1     -12.228  13.086  63.344  1.00  0.00    -0.552 C  
HETATM    6  C   UNL     1      -9.262  13.067  67.393  1.00  0.00    -0.208 A  
HETATM    7  C   UNL     1     -10.013  13.564  66.311  1.00  0.00    -0.298 A  
HETATM    8  C   UNL     1     -10.659  12.677  65.386  1.00  0.00    -0.307 A  
HETATM    9  C   UNL     1     -11.348  13.451  64.482  1.00  0.00    -0.366 A  
HETATM   10  N   UNL     1     -10.260  14.834  65.950  1.00  0.00    -0.295 NA 
HETATM   11  N   UNL     1     -11.070  14.740  64.872  1.00  0.00    -0.396 NA 
HETATM   12  C   UNL     1     -11.552  15.957  64.260  1.00  0.00    -0.178 C  
HETATM   13  C   UNL     1      -9.870  10.821  66.502  1.00  0.00    -0.246 A  
ENDBRANCH   2   3
BRANCH   2  14
HETATM   14  C   UNL     1      -8.914   9.742  69.098  1.00  0.00    -0.161 A  
HETATM   15  C   UNL     1      -8.548   7.443  69.121  1.00  0.00    -0.136 A  
HETATM   16  N   UNL     1      -9.574   7.204  69.943  1.00  0.00    -0.163 NA 
HETATM   17  C   UNL     1     -10.247   8.282  70.372  1.00  0.00    -0.201 A  
HETATM   18  C   UNL     1      -9.954   9.572  69.991  1.00  0.00    -0.274 A  
HETATM   19  N   UNL     1      -8.218   8.667  68.683  1.00  0.00    -0.120 NA 
BRANCH  15  20
HETATM   20  N   UNL     1      -7.818   6.340  68.682  1.00  0.00    -0.100 NA 
HETATM   21  H   UNL     1      -7.335   5.808  69.405  1.00  0.00     0.000 HD 
BRANCH  20  22
HETATM   22  C   UNL     1      -7.664   5.871  67.370  1.00  0.00    -0.097 A  
HETATM   23  C   UNL     1      -6.447   6.058  66.714  1.00  0.00    -0.050 A  
HETATM   24  C   UNL     1      -6.229   5.524  65.440  1.00  0.00    -0.034 A  
HETATM   25  C   UNL     1      -7.229   4.794  64.771  1.00  0.00    -0.063 A  
HETATM   26  C   UNL     1      -8.470   4.637  65.413  1.00  0.00    -0.126 A  
HETATM   27  C   UNL     1      -6.915   4.236  63.415  1.00  0.00    -0.044 C  
HETATM   28  C   UNL     1      -8.671   5.164  66.700  1.00  0.00    -0.109 A  
BRANCH  26  29
HETATM   29  S   UNL     1      -9.879   3.838  64.652  1.00  0.00    -0.190 S  
HETATM   30  O   UNL     1      -9.714   3.839  63.220  1.00  0.00    -0.135 OA 
HETATM   31  O   UNL     1     -11.083   4.341  65.276  1.00  0.00    -0.141 OA 
HETATM   32  N   UNL     1      -9.700   2.256  65.177  1.00  0.00    -0.352 N  
HETATM   33  H1  UNL     1     -10.503   1.801  64.743  1.00  0.00     0.000 HD 
HETATM   34  H2  UNL     1      -8.977   1.855  65.774  1.00  0.00     0.000 HD 
ENDBRANCH  26  29
ENDBRANCH  20  22
ENDBRANCH  15  20
ENDBRANCH   2  14
TORSDOF 5
ENDMDL
MODEL      230
REMARK 921   NORMALIZED FREE ENERGY PREDICTED BY IDOCK:   -4.69 KCAL/MOL
REMARK 922        TOTAL FREE ENERGY PREDICTED BY IDOCK:   -6.52 KCAL/MOL
REMARK 923 INTER-LIGAND FREE ENERGY PREDICTED BY IDOCK:   -6.01 KCAL/MOL
REMARK 924 INTRA-LIGAND FREE ENERGY PREDICTED BY IDOCK:   -0.51 KCAL/MOL
REMARK 927      BINDING AFFINITY PREDICTED BY RF-SCORE:    0.00 PKD
ROOT
HETATM    1  C   UNL     1      -6.391  12.864  69.275  1.00  0.00    -0.108 C  
HETATM    2  N   UNL     1      -7.448  11.985  68.775  1.00  0.00    -0.109 NA 
ENDROOT
BRANCH   2   3
HETATM    3  C   UNL     1      -8.375  12.547  67.848  1.00  0.00    -0.167 A  
HETATM    4  C   UNL     1      -9.273  14.713  66.859  1.00  0.00    -0.267 A  
HETATM    5  C   UNL     1     -11.200  15.564  64.494  1.00  0.00    -0.327 C  
HETATM    6  C   UNL     1      -9.170  11.723  67.008  1.00  0.00    -0.187 A  
HETATM    7  C   UNL     1      -9.983  12.416  66.091  1.00  0.00    -0.253 A  
HETATM    8  C   UNL     1      -9.996  13.852  66.048  1.00  0.00    -0.325 A  
HETATM    9  C   UNL     1     -10.838  14.227  65.029  1.00  0.00    -0.403 A  
HETATM   10  N   UNL     1     -10.828  11.940  65.163  1.00  0.00    -0.292 NA 
HETATM   11  N   UNL     1     -11.310  13.034  64.533  1.00  0.00    -0.324 NA 
HETATM   12  C   UNL     1     -12.235  12.852  63.437  1.00  0.00    -0.490 C  
HETATM   13  C   UNL     1      -8.466  13.989  67.766  1.00  0.00    -0.184 A  
ENDBRANCH   2   3
BRANCH   2  14
HETATM   14  C   UNL     1      -7.344  10.608  69.069  1.00  0.00    -0.108 A  
HETATM   15  C   UNL     1      -6.756   8.475  68.345  1.00  0.00    -0.064 A  
HETATM   16  N   UNL     1      -7.186   7.886  69.464  1.00  0.00    -0.079 NA 
HETATM   17  C   UNL     1      -7.666   8.705  70.413  1.00  0.00    -0.081 A  
HETATM   18  C   UNL     1      -7.758  10.071  70.272  1.00  0.00    -0.093 A  
HETATM   19  N   UNL     1      -6.838   9.795  68.123  1.00  0.00    -0.068 NA 
BRANCH  15  20
HETATM   20  N   UNL     1      -6.230   7.647  67.356  1.00  0.00    -0.051 NA 
HETATM   21  H   UNL     1      -5.231   7.450  67.423  1.00  0.00     0.000 HD 
BRANCH  20  22
HETATM   22  C   UNL     1      -6.900   7.050  66.279  1.00  0.00    -0.061 A  
HETATM   23  C   UNL     1      -6.624   7.478  64.979  1.00  0.00    -0.044 A  
HETATM   24  C   UNL     1      -7.208   6.844  63.877  1.00  0.00    -0.066 A  
HETATM   25  C   UNL     1      -8.099   5.767  64.039  1.00  0.00    -0.116 A  
HETATM   26  C   UNL     1      -8.409   5.360  65.349  1.00  0.00    -0.139 A  
HETATM   27  C   UNL     1      -8.671   5.127  62.809  1.00  0.00    -0.077 C  
HETATM   28  C   UNL     1      -7.804   5.994  66.447  1.00  0.00    -0.104 A  
BRANCH  26  29
HETATM   29  S   UNL     1      -9.609   4.088  65.727  1.00  0.00    -0.191 S  
HETATM   30  O   UNL     1      -9.676   3.902  67.154  1.00  0.00    -0.209 OA 
HETATM   31  O   UNL     1      -9.396   2.974  64.828  1.00  0.00    -0.142 OA 
HETATM   32  N   UNL     1     -11.041   4.814  65.247  1.00  0.00    -0.885 N  
HETATM   33  H1  UNL     1     -11.725   4.089  65.463  1.00  0.00     0.000 HD 
HETATM   34  H2  UNL     1     -11.190   5.740  64.845  1.00  0.00     0.000 HD 
ENDBRANCH  26  29
ENDBRANCH  20  22
ENDBRANCH  15  20
ENDBRANCH   2  14
TORSDOF 5
ENDMDL
MODEL      231
REMARK 921   NORMALIZED FREE ENERGY PREDICTED BY IDOCK:   -4.65 KCAL/MOL
REMARK 922        TOTAL FREE ENERGY PREDICTED BY IDOCK:   -6.47 KCAL/MOL
REMARK 923 INTER-LIGAND FREE ENERGY PREDICTED BY IDOCK:   -5.62 KCAL/MOL
REMARK 924 INTRA-LIGAND FREE ENERGY PREDICTED BY IDOCK:   -0.85 KCAL/MOL
REMARK 927      BINDING AFFINITY PREDICTED BY RF-SCORE:    0.00 PKD
ROOT
HETATM    1  C   UNL     1      -6.395  13.782  70.128  1.00  0.00    -0.060 C  
HETATM    2  N   UNL     1      -7.048  13.884  68.823  1.00  0.00    -0.106 NA 
ENDROOT
BRANCH   2   3
HETATM    3  C   UNL     1      -7.233  15.194  68.291  1.00  0.00    -0.110 A  
HETATM    4  C   UNL     1      -8.677  16.637  66.771  1.00  0.00    -0.256 A  
HETATM    5  C   UNL     1      -8.955  19.711  66.063  1.00  0.00    -0.279 C  
HETATM    6  C   UNL     1      -6.410  16.278  68.695  1.00  0.00    -0.124 A  
HETATM    7  C   UNL     1      -6.756  17.526  68.145  1.00  0.00    -0.191 A  
HETATM    8  C   UNL     1      -7.858  17.655  67.232  1.00  0.00    -0.222 A  
HETATM    9  C   UNL     1      -7.977  18.987  66.914  1.00  0.00    -0.259 A  
HETATM   10  N   UNL     1      -6.197  18.732  68.333  1.00  0.00    -0.214 NA 
HETATM   11  N   UNL     1      -6.950  19.586  67.606  1.00  0.00    -0.230 NA 
HETATM   12  C   UNL     1      -6.621  20.993  67.629  1.00  0.00    -0.358 C  
HETATM   13  C   UNL     1      -8.307  15.398  67.341  1.00  0.00    -0.204 A  
ENDBRANCH   2   3
BRANCH   2  14
HETATM   14  C   UNL     1      -7.242  12.688  68.097  1.00  0.00    -0.109 A  
HETATM   15  C   UNL     1      -8.554  10.804  67.717  1.00  0.00    -0.127 A  
HETATM   16  N   UNL     1      -7.695  10.279  66.839  1.00  0.00    -0.103 NA 
HETATM   17  C   UNL     1      -6.606  11.017  66.569  1.00  0.00    -0.132 A  
HETATM   18  C   UNL     1      -6.336  12.230  67.160  1.00  0.00    -0.117 A  
HETATM   19  N   UNL     1      -8.348  11.965  68.355  1.00  0.00    -0.164 NA 
BRANCH  15  20
HETATM   20  N   UNL     1      -9.704  10.067  67.993  1.00  0.00    -0.138 NA 
HETATM   21  H   UNL     1     -10.590  10.539  67.817  1.00  0.00     0.000 HD 
BRANCH  20  22
HETATM   22  C   UNL     1      -9.796   8.757  68.484  1.00  0.00    -0.168 A  
HETATM   23  C   UNL     1     -10.173   7.727  67.621  1.00  0.00    -0.282 A  
HETATM   24  C   UNL     1     -10.188   6.398  68.055  1.00  0.00    -0.195 A  
HETATM   25  C   UNL     1      -9.837   6.053  69.373  1.00  0.00    -0.203 A  
HETATM   26  C   UNL     1      -9.494   7.092  70.256  1.00  0.00    -0.162 A  
HETATM   27  C   UNL     1      -9.859   4.604  69.759  1.00  0.00    -0.296 C  
HETATM   28  C   UNL     1      -9.467   8.422  69.804  1.00  0.00    -0.162 A  
BRANCH  26  29
HETATM   29  S   UNL     1      -9.137   6.834  71.990  1.00  0.00    -0.136 S  
HETATM   30  O   UNL     1      -7.904   6.099  72.120  1.00  0.00    -0.100 OA 
HETATM   31  O   UNL     1     -10.350   6.400  72.649  1.00  0.00    -0.187 OA 
HETATM   32  N   UNL     1      -8.847   8.399  72.516  1.00  0.00    -0.226 N  
HETATM   33  H1  UNL     1      -8.643   8.252  73.505  1.00  0.00     0.000 HD 
HETATM   34  H2  UNL     1      -8.869   9.270  71.986  1.00  0.00     0.000 HD 
ENDBRANCH  26  29
ENDBRANCH  20  22
ENDBRANCH  15  20
ENDBRANCH   2  14
TORSDOF 5
ENDMDL
MODEL      232
REMARK 921   NORMALIZED FREE ENERGY PREDICTED BY IDOCK:   -4.64 KCAL/MOL
REMARK 922        TOTAL FREE ENERGY PREDICTED BY IDOCK:   -6.46 KCAL/MOL
REMARK 923 INTER-LIGAND FREE ENERGY PREDICTED BY IDOCK:   -5.78 KCAL/MOL
REMARK 924 INTRA-LIGAND FREE ENERGY PREDICTED BY IDOCK:   -0.69 KCAL/MOL
REMARK 927      BINDING AFFINITY PREDICTED BY RF-SCORE:    0.00 PKD
ROOT
HETATM    1  C   UNL     1      -5.563  11.942  67.947  1.00  0.00    -0.055 C  
HETATM    2  N   UNL     1      -6.915  12.457  68.168  1.00  0.00    -0.078 NA 
ENDROOT
BRANCH   2   3
HETATM    3  C   UNL     1      -7.055  13.868  68.319  1.00  0.00    -0.108 A  
HETATM    4  C   UNL     1      -6.029  15.963  69.338  1.00  0.00    -0.137 A  
HETATM    5  C   UNL     1      -6.495  19.091  69.178  1.00  0.00    -0.315 C  
HETATM    6  C   UNL     1      -8.097  14.581  67.669  1.00  0.00    -0.190 A  
HETATM    7  C   UNL     1      -8.066  15.976  67.848  1.00  0.00    -0.141 A  
HETATM    8  C   UNL     1      -7.051  16.600  68.650  1.00  0.00    -0.183 A  
HETATM    9  C   UNL     1      -7.254  17.958  68.592  1.00  0.00    -0.272 A  
HETATM   10  N   UNL     1      -8.886  16.922  67.362  1.00  0.00    -0.203 NA 
HETATM   11  N   UNL     1      -8.373  18.092  67.804  1.00  0.00    -0.245 NA 
HETATM   12  C   UNL     1      -9.021  19.324  67.414  1.00  0.00    -0.296 C  
HETATM   13  C   UNL     1      -6.085  14.565  69.137  1.00  0.00    -0.096 A  
ENDBRANCH   2   3
BRANCH   2  14
HETATM   14  C   UNL     1      -7.990  11.558  67.995  1.00  0.00    -0.130 A  
HETATM   15  C   UNL     1      -9.820  10.469  68.935  1.00  0.00    -0.201 A  
HETATM   16  N   UNL     1     -10.060   9.747  67.837  1.00  0.00    -0.164 NA 
HETATM   17  C   UNL     1      -9.255   9.984  66.789  1.00  0.00    -0.148 A  
HETATM   18  C   UNL     1      -8.214  10.884  66.811  1.00  0.00    -0.140 A  
HETATM   19  N   UNL     1      -8.808  11.343  69.042  1.00  0.00     0.008 NA 
BRANCH  15  20
HETATM   20  N   UNL     1     -10.659  10.258  70.027  1.00  0.00    -0.340 NA 
HETATM   21  H   UNL     1     -11.232  11.053  70.310  1.00  0.00     0.000 HD 
BRANCH  20  22
HETATM   22  C   UNL     1     -10.815   9.089  70.786  1.00  0.00    -0.251 A  
HETATM   23  C   UNL     1     -12.100   8.651  71.112  1.00  0.00    -0.297 A  
HETATM   24  C   UNL     1     -12.294   7.444  71.790  1.00  0.00    -0.365 A  
HETATM   25  C   UNL     1     -11.208   6.637  72.177  1.00  0.00    -0.299 A  
HETATM   26  C   UNL     1      -9.911   7.095  71.885  1.00  0.00    -0.167 A  
HETATM   27  C   UNL     1     -11.497   5.347  72.885  1.00  0.00    -0.340 C  
HETATM   28  C   UNL     1      -9.729   8.302  71.189  1.00  0.00    -0.209 A  
BRANCH  26  29
HETATM   29  S   UNL     1      -8.425   6.248  72.410  1.00  0.00    -0.113 S  
HETATM   30  O   UNL     1      -8.562   4.837  72.150  1.00  0.00    -0.117 OA 
HETATM   31  O   UNL     1      -8.052   6.744  73.716  1.00  0.00    -0.105 OA 
HETATM   32  N   UNL     1      -7.290   6.849  71.333  1.00  0.00    -0.080 N  
HETATM   33  H1  UNL     1      -6.443   6.366  71.632  1.00  0.00     0.000 HD 
HETATM   34  H2  UNL     1      -7.414   7.523  70.577  1.00  0.00     0.000 HD 
ENDBRANCH  26  29
ENDBRANCH  20  22
ENDBRANCH  15  20
ENDBRANCH   2  14
TORSDOF 5
ENDMDL
MODEL      233
REMARK 921   NORMALIZED FREE ENERGY PREDICTED BY IDOCK:   -4.60 KCAL/MOL
REMARK 922        TOTAL FREE ENERGY PREDICTED BY IDOCK:   -6.41 KCAL/MOL
REMARK 923 INTER-LIGAND FREE ENERGY PREDICTED BY IDOCK:   -6.01 KCAL/MOL
REMARK 924 INTRA-LIGAND FREE ENERGY PREDICTED BY IDOCK:   -0.40 KCAL/MOL
REMARK 927      BINDING AFFINITY PREDICTED BY RF-SCORE:    0.00 PKD
ROOT
HETATM    1  C   UNL     1      -8.624   9.671  63.867  1.00  0.00    -0.206 C  
HETATM    2  N   UNL     1      -8.830   9.211  65.241  1.00  0.00    -0.191 NA 
ENDROOT
BRANCH   2   3
HETATM    3  C   UNL     1      -9.478  10.112  66.136  1.00  0.00    -0.188 A  
HETATM    4  C   UNL     1     -10.443  12.453  66.395  1.00  0.00    -0.267 A  
HETATM    5  C   UNL     1     -12.151  14.037  68.540  1.00  0.00    -0.329 C  
HETATM    6  C   UNL     1      -9.873   9.703  67.437  1.00  0.00    -0.218 A  
HETATM    7  C   UNL     1     -10.570  10.674  68.181  1.00  0.00    -0.202 A  
HETATM    8  C   UNL     1     -10.830  11.979  67.639  1.00  0.00    -0.273 A  
HETATM    9  C   UNL     1     -11.563  12.674  68.571  1.00  0.00    -0.323 A  
HETATM   10  N   UNL     1     -11.085  10.601  69.418  1.00  0.00    -0.241 NA 
HETATM   11  N   UNL     1     -11.685  11.794  69.620  1.00  0.00    -0.321 NA 
HETATM   12  C   UNL     1     -12.375  12.020  70.870  1.00  0.00    -0.285 C  
HETATM   13  C   UNL     1      -9.750  11.456  65.671  1.00  0.00    -0.263 A  
ENDBRANCH   2   3
BRANCH   2  14
HETATM   14  C   UNL     1      -8.577   7.850  65.516  1.00  0.00    -0.116 A  
HETATM   15  C   UNL     1      -9.046   5.982  66.823  1.00  0.00    -0.131 A  
HETATM   16  N   UNL     1      -8.108   5.232  66.237  1.00  0.00    -0.108 NA 
HETATM   17  C   UNL     1      -7.427   5.817  65.239  1.00  0.00    -0.078 A  
HETATM   18  C   UNL     1      -7.627   7.116  64.832  1.00  0.00    -0.103 A  
HETATM   19  N   UNL     1      -9.280   7.262  66.501  1.00  0.00    -0.154 NA 
BRANCH  15  20
HETATM   20  N   UNL     1      -9.783   5.387  67.845  1.00  0.00    -0.130 NA 
HETATM   21  H   UNL     1     -10.684   4.994  67.575  1.00  0.00     0.000 HD 
BRANCH  20  22
HETATM   22  C   UNL     1      -9.441   5.262  69.199  1.00  0.00    -0.134 A  
HETATM   23  C   UNL     1      -8.752   4.127  69.629  1.00  0.00    -0.121 A  
HETATM   24  C   UNL     1      -8.317   4.012  70.953  1.00  0.00    -0.087 A  
HETATM   25  C   UNL     1      -8.569   5.023  71.898  1.00  0.00    -0.131 A  
HETATM   26  C   UNL     1      -9.297   6.150  71.478  1.00  0.00    -0.148 A  
HETATM   27  C   UNL     1      -8.056   4.836  73.295  1.00  0.00    -0.100 C  
HETATM   28  C   UNL     1      -9.714   6.263  70.140  1.00  0.00    -0.187 A  
BRANCH  26  29
HETATM   29  S   UNL     1      -9.799   7.467  72.580  1.00  0.00    -0.211 S  
HETATM   30  O   UNL     1      -8.707   7.794  73.463  1.00  0.00    -0.188 OA 
HETATM   31  O   UNL     1     -11.119   7.162  73.089  1.00  0.00    -0.307 OA 
HETATM   32  N   UNL     1      -9.988   8.750  71.518  1.00  0.00    -0.271 N  
HETATM   33  H1  UNL     1     -10.273   9.500  72.147  1.00  0.00     0.000 HD 
HETATM   34  H2  UNL     1      -9.852   8.773  70.507  1.00  0.00     0.000 HD 
ENDBRANCH  26  29
ENDBRANCH  20  22
ENDBRANCH  15  20
ENDBRANCH   2  14
TORSDOF 5
ENDMDL
MODEL      234
REMARK 921   NORMALIZED FREE ENERGY PREDICTED BY IDOCK:   -4.57 KCAL/MOL
REMARK 922        TOTAL FREE ENERGY PREDICTED BY IDOCK:   -6.37 KCAL/MOL
REMARK 923 INTER-LIGAND FREE ENERGY PREDICTED BY IDOCK:   -5.57 KCAL/MOL
REMARK 924 INTRA-LIGAND FREE ENERGY PREDICTED BY IDOCK:   -0.80 KCAL/MOL
REMARK 927      BINDING AFFINITY PREDICTED BY RF-SCORE:    0.00 PKD
ROOT
HETATM    1  C   UNL     1      -6.443  11.286  69.537  1.00  0.00    -0.119 C  
HETATM    2  N   UNL     1      -7.166  11.141  68.273  1.00  0.00    -0.079 NA 
ENDROOT
BRANCH   2   3
HETATM    3  C   UNL     1      -7.172   9.846  67.675  1.00  0.00    -0.089 A  
HETATM    4  C   UNL     1      -6.119   8.377  65.883  1.00  0.00    -0.048 A  
HETATM    5  C   UNL     1      -6.195   5.326  65.039  1.00  0.00    -0.033 C  
HETATM    6  C   UNL     1      -7.993   8.803  68.180  1.00  0.00    -0.106 A  
HETATM    7  C   UNL     1      -7.839   7.560  67.539  1.00  0.00    -0.116 A  
HETATM    8  C   UNL     1      -6.922   7.397  66.446  1.00  0.00    -0.069 A  
HETATM    9  C   UNL     1      -6.958   6.076  66.069  1.00  0.00    -0.062 A  
HETATM   10  N   UNL     1      -8.447   6.388  67.781  1.00  0.00    -0.117 NA 
HETATM   11  N   UNL     1      -7.894   5.518  66.908  1.00  0.00    -0.100 NA 
HETATM   12  C   UNL     1      -8.319   4.137  66.942  1.00  0.00    -0.100 C  
HETATM   13  C   UNL     1      -6.293   9.612  66.549  1.00  0.00    -0.066 A  
ENDBRANCH   2   3
BRANCH   2  14
HETATM   14  C   UNL     1      -7.977  12.219  67.859  1.00  0.00    -0.152 A  
HETATM   15  C   UNL     1      -8.699  14.401  68.231  1.00  0.00    -0.180 A  
HETATM   16  N   UNL     1      -9.586  14.366  67.233  1.00  0.00    -0.222 NA 
HETATM   17  C   UNL     1      -9.623  13.231  66.518  1.00  0.00    -0.264 A  
HETATM   18  C   UNL     1      -8.836  12.133  66.780  1.00  0.00    -0.198 A  
HETATM   19  N   UNL     1      -7.918  13.363  68.565  1.00  0.00    -0.132 NA 
BRANCH  15  20
HETATM   20  N   UNL     1      -8.625  15.579  68.971  1.00  0.00    -0.215 NA 
HETATM   21  H   UNL     1      -8.364  15.474  69.952  1.00  0.00     0.000 HD 
BRANCH  20  22
HETATM   22  C   UNL     1      -8.865  16.890  68.538  1.00  0.00    -0.251 A  
HETATM   23  C   UNL     1     -10.049  17.529  68.912  1.00  0.00    -0.346 A  
HETATM   24  C   UNL     1     -10.279  18.866  68.573  1.00  0.00    -0.407 A  
HETATM   25  C   UNL     1      -9.338  19.608  67.836  1.00  0.00    -0.424 A  
HETATM   26  C   UNL     1      -8.162  18.956  67.425  1.00  0.00    -0.270 A  
HETATM   27  C   UNL     1      -9.648  21.042  67.527  1.00  0.00    -0.243 C  
HETATM   28  C   UNL     1      -7.934  17.617  67.786  1.00  0.00    -0.218 A  
BRANCH  26  29
HETATM   29  S   UNL     1      -6.922  19.722  66.388  1.00  0.00    -0.240 S  
HETATM   30  O   UNL     1      -6.260  20.768  67.126  1.00  0.00    -0.216 OA 
HETATM   31  O   UNL     1      -7.501  19.965  65.084  1.00  0.00    -0.329 OA 
HETATM   32  N   UNL     1      -5.822  18.473  66.191  1.00  0.00    -0.157 N  
HETATM   33  H1  UNL     1      -5.115  18.910  65.599  1.00  0.00     0.000 HD 
HETATM   34  H2  UNL     1      -5.851  17.525  66.564  1.00  0.00     0.000 HD 
ENDBRANCH  26  29
ENDBRANCH  20  22
ENDBRANCH  15  20
ENDBRANCH   2  14
TORSDOF 5
ENDMDL
MODEL      235
REMARK 921   NORMALIZED FREE ENERGY PREDICTED BY IDOCK:   -4.55 KCAL/MOL
REMARK 922        TOTAL FREE ENERGY PREDICTED BY IDOCK:   -6.34 KCAL/MOL
REMARK 923 INTER-LIGAND FREE ENERGY PREDICTED BY IDOCK:   -5.49 KCAL/MOL
REMARK 924 INTRA-LIGAND FREE ENERGY PREDICTED BY IDOCK:   -0.86 KCAL/MOL
REMARK 927      BINDING AFFINITY PREDICTED BY RF-SCORE:    0.00 PKD
ROOT
HETATM    1  C   UNL     1      -5.978   9.920  65.039  1.00  0.00    -0.097 C  
HETATM    2  N   UNL     1      -7.218   9.674  65.776  1.00  0.00    -0.096 NA 
ENDROOT
BRANCH   2   3
HETATM    3  C   UNL     1      -8.090  10.786  65.967  1.00  0.00    -0.158 A  
HETATM    4  C   UNL     1      -8.712  12.698  67.527  1.00  0.00    -0.184 A  
HETATM    5  C   UNL     1     -10.585  15.250  67.442  1.00  0.00    -0.282 C  
HETATM    6  C   UNL     1      -9.022  11.173  64.968  1.00  0.00    -0.081 A  
HETATM    7  C   UNL     1      -9.763  12.332  65.262  1.00  0.00    -0.113 A  
HETATM    8  C   UNL     1      -9.577  13.039  66.499  1.00  0.00    -0.260 A  
HETATM    9  C   UNL     1     -10.395  14.143  66.472  1.00  0.00    -0.284 A  
HETATM   10  N   UNL     1     -10.699  12.961  64.533  1.00  0.00    -0.349 NA 
HETATM   11  N   UNL     1     -11.047  14.042  65.265  1.00  0.00    -0.312 NA 
HETATM   12  C   UNL     1     -12.027  14.958  64.726  1.00  0.00    -0.361 C  
HETATM   13  C   UNL     1      -7.981  11.532  67.203  1.00  0.00    -0.160 A  
ENDBRANCH   2   3
BRANCH   2  14
HETATM   14  C   UNL     1      -7.559   8.331  66.046  1.00  0.00    -0.078 A  
HETATM   15  C   UNL     1      -7.404   6.508  67.485  1.00  0.00    -0.095 A  
HETATM   16  N   UNL     1      -8.055   5.689  66.653  1.00  0.00    -0.105 NA 
HETATM   17  C   UNL     1      -8.495   6.241  65.511  1.00  0.00    -0.144 A  
HETATM   18  C   UNL     1      -8.284   7.555  65.163  1.00  0.00    -0.122 A  
HETATM   19  N   UNL     1      -7.136   7.791  67.204  1.00  0.00    -0.083 NA 
BRANCH  15  20
HETATM   20  N   UNL     1      -6.960   5.964  68.688  1.00  0.00    -0.069 NA 
HETATM   21  H   UNL     1      -6.255   5.230  68.613  1.00  0.00     0.000 HD 
BRANCH  20  22
HETATM   22  C   UNL     1      -7.360   6.297  69.990  1.00  0.00    -0.082 A  
HETATM   23  C   UNL     1      -6.413   6.311  71.015  1.00  0.00    -0.049 A  
HETATM   24  C   UNL     1      -6.759   6.725  72.305  1.00  0.00    -0.059 A  
HETATM   25  C   UNL     1      -8.070   7.129  72.618  1.00  0.00    -0.118 A  
HETATM   26  C   UNL     1      -9.035   7.080  71.597  1.00  0.00    -0.134 A  
HETATM   27  C   UNL     1      -8.360   7.578  74.019  1.00  0.00    -0.239 C  
HETATM   28  C   UNL     1      -8.671   6.677  70.300  1.00  0.00    -0.147 A  
BRANCH  26  29
HETATM   29  S   UNL     1     -10.766   7.449  71.859  1.00  0.00    -0.220 S  
HETATM   30  O   UNL     1     -10.887   8.691  72.580  1.00  0.00    -0.306 OA 
HETATM   31  O   UNL     1     -11.429   6.244  72.309  1.00  0.00    -0.279 OA 
HETATM   32  N   UNL     1     -11.298   7.723  70.293  1.00  0.00    -0.422 N  
HETATM   33  H1  UNL     1     -12.285   7.933  70.443  1.00  0.00     0.000 HD 
HETATM   34  H2  UNL     1     -10.773   7.688  69.420  1.00  0.00     0.000 HD 
ENDBRANCH  26  29
ENDBRANCH  20  22
ENDBRANCH  15  20
ENDBRANCH   2  14
TORSDOF 5
ENDMDL
MODEL      236
REMARK 921   NORMALIZED FREE ENERGY PREDICTED BY IDOCK:   -4.54 KCAL/MOL
REMARK 922        TOTAL FREE ENERGY PREDICTED BY IDOCK:   -6.33 KCAL/MOL
REMARK 923 INTER-LIGAND FREE ENERGY PREDICTED BY IDOCK:   -6.01 KCAL/MOL
REMARK 924 INTRA-LIGAND FREE ENERGY PREDICTED BY IDOCK:   -0.32 KCAL/MOL
REMARK 927      BINDING AFFINITY PREDICTED BY RF-SCORE:    0.00 PKD
ROOT
HETATM    1  C   UNL     1      -5.629  14.776  70.685  1.00  0.00    -0.147 C  
HETATM    2  N   UNL     1      -6.402  14.588  69.457  1.00  0.00    -0.118 NA 
ENDROOT
BRANCH   2   3
HETATM    3  C   UNL     1      -6.805  15.764  68.758  1.00  0.00    -0.122 A  
HETATM    4  C   UNL     1      -6.001  17.720  67.342  1.00  0.00    -0.163 A  
HETATM    5  C   UNL     1      -7.310  20.053  65.646  1.00  0.00    -0.311 C  
HETATM    6  C   UNL     1      -8.173  16.128  68.653  1.00  0.00    -0.202 A  
HETATM    7  C   UNL     1      -8.428  17.270  67.871  1.00  0.00    -0.218 A  
HETATM    8  C   UNL     1      -7.356  18.000  67.252  1.00  0.00    -0.212 A  
HETATM    9  C   UNL     1      -7.918  19.020  66.522  1.00  0.00    -0.282 A  
HETATM   10  N   UNL     1      -9.595  17.859  67.566  1.00  0.00    -0.265 NA 
HETATM   11  N   UNL     1      -9.268  18.885  66.750  1.00  0.00    -0.308 NA 
HETATM   12  C   UNL     1     -10.327  19.707  66.211  1.00  0.00    -0.518 C  
HETATM   13  C   UNL     1      -5.778  16.568  68.131  1.00  0.00    -0.121 A  
ENDBRANCH   2   3
BRANCH   2  14
HETATM   14  C   UNL     1      -6.501  13.276  68.945  1.00  0.00    -0.100 A  
HETATM   15  C   UNL     1      -6.838  11.013  69.370  1.00  0.00    -0.119 A  
HETATM   16  N   UNL     1      -6.612  10.655  68.102  1.00  0.00    -0.062 NA 
HETATM   17  C   UNL     1      -6.367  11.657  67.244  1.00  0.00    -0.118 A  
HETATM   18  C   UNL     1      -6.309  12.983  67.608  1.00  0.00    -0.162 A  
HETATM   19  N   UNL     1      -6.773  12.279  69.807  1.00  0.00     0.035 NA 
BRANCH  15  20
HETATM   20  N   UNL     1      -7.121   9.991  70.274  1.00  0.00    -0.150 NA 
HETATM   21  H   UNL     1      -6.466   9.888  71.050  1.00  0.00     0.000 HD 
BRANCH  20  22
HETATM   22  C   UNL     1      -8.191   9.087  70.252  1.00  0.00    -0.143 A  
HETATM   23  C   UNL     1      -9.104   9.081  71.308  1.00  0.00    -0.302 A  
HETATM   24  C   UNL     1     -10.233   8.255  71.276  1.00  0.00    -0.253 A  
HETATM   25  C   UNL     1     -10.480   7.395  70.190  1.00  0.00    -0.228 A  
HETATM   26  C   UNL     1      -9.542   7.370  69.143  1.00  0.00    -0.156 A  
HETATM   27  C   UNL     1     -11.720   6.553  70.218  1.00  0.00    -0.430 C  
HETATM   28  C   UNL     1      -8.421   8.217  69.179  1.00  0.00    -0.135 A  
BRANCH  26  29
HETATM   29  S   UNL     1      -9.649   6.253  67.750  1.00  0.00    -0.119 S  
HETATM   30  O   UNL     1      -8.499   6.435  66.900  1.00  0.00    -0.109 OA 
HETATM   31  O   UNL     1     -10.996   6.304  67.223  1.00  0.00    -0.338 OA 
HETATM   32  N   UNL     1      -9.491   4.760  68.496  1.00  0.00    -0.137 N  
HETATM   33  H1  UNL     1      -9.552   4.123  67.701  1.00  0.00     0.000 HD 
HETATM   34  H2  UNL     1      -9.366   4.545  69.485  1.00  0.00     0.000 HD 
ENDBRANCH  26  29
ENDBRANCH  20  22
ENDBRANCH  15  20
ENDBRANCH   2  14
TORSDOF 5
ENDMDL
MODEL      237
REMARK 921   NORMALIZED FREE ENERGY PREDICTED BY IDOCK:   -4.53 KCAL/MOL
REMARK 922        TOTAL FREE ENERGY PREDICTED BY IDOCK:   -6.32 KCAL/MOL
REMARK 923 INTER-LIGAND FREE ENERGY PREDICTED BY IDOCK:   -5.61 KCAL/MOL
REMARK 924 INTRA-LIGAND FREE ENERGY PREDICTED BY IDOCK:   -0.71 KCAL/MOL
REMARK 927      BINDING AFFINITY PREDICTED BY RF-SCORE:    0.00 PKD
ROOT
HETATM    1  C   UNL     1      -9.120   3.633  66.219  1.00  0.00    -0.154 C  
HETATM    2  N   UNL     1      -8.505   4.806  66.840  1.00  0.00    -0.106 NA 
ENDROOT
BRANCH   2   3
HETATM    3  C   UNL     1      -8.646   6.050  66.157  1.00  0.00    -0.142 A  
HETATM    4  C   UNL     1      -9.773   8.332  66.203  1.00  0.00    -0.189 A  
HETATM    5  C   UNL     1      -9.579  11.052  64.593  1.00  0.00    -0.297 C  
HETATM    6  C   UNL     1      -7.895   6.340  64.988  1.00  0.00    -0.111 A  
HETATM    7  C   UNL     1      -8.081   7.634  64.465  1.00  0.00    -0.098 A  
HETATM    8  C   UNL     1      -8.987   8.561  65.085  1.00  0.00    -0.059 A  
HETATM    9  C   UNL     1      -8.914   9.741  64.384  1.00  0.00    -0.245 A  
HETATM   10  N   UNL     1      -7.518   8.217  63.395  1.00  0.00    -0.112 NA 
HETATM   11  N   UNL     1      -8.014   9.474  63.378  1.00  0.00    -0.133 NA 
HETATM   12  C   UNL     1      -7.565  10.382  62.348  1.00  0.00    -0.143 C  
HETATM   13  C   UNL     1      -9.563   7.028  66.706  1.00  0.00    -0.221 A  
ENDBRANCH   2   3
BRANCH   2  14
HETATM   14  C   UNL     1      -8.016   4.665  68.157  1.00  0.00    -0.084 A  
HETATM   15  C   UNL     1      -8.091   5.367  70.375  1.00  0.00    -0.101 A  
HETATM   16  N   UNL     1      -7.081   4.576  70.747  1.00  0.00    -0.040 NA 
HETATM   17  C   UNL     1      -6.568   3.787  69.789  1.00  0.00    -0.033 A  
HETATM   18  C   UNL     1      -7.003   3.785  68.484  1.00  0.00    -0.050 A  
HETATM   19  N   UNL     1      -8.551   5.441  69.117  1.00  0.00    -0.102 NA 
BRANCH  15  20
HETATM   20  N   UNL     1      -8.657   6.176  71.358  1.00  0.00    -0.128 NA 
HETATM   21  H   UNL     1      -8.073   6.360  72.175  1.00  0.00     0.000 HD 
BRANCH  20  22
HETATM   22  C   UNL     1      -9.926   6.769  71.367  1.00  0.00    -0.179 A  
HETATM   23  C   UNL     1     -11.002   6.078  71.927  1.00  0.00    -0.316 A  
HETATM   24  C   UNL     1     -12.261   6.676  72.033  1.00  0.00    -0.337 A  
HETATM   25  C   UNL     1     -12.493   7.983  71.569  1.00  0.00    -0.334 A  
HETATM   26  C   UNL     1     -11.422   8.668  70.968  1.00  0.00    -0.278 A  
HETATM   27  C   UNL     1     -13.866   8.564  71.734  1.00  0.00    -0.462 C  
HETATM   28  C   UNL     1     -10.157   8.063  70.882  1.00  0.00    -0.211 A  
BRANCH  26  29
HETATM   29  S   UNL     1     -11.581  10.288  70.225  1.00  0.00    -0.333 S  
HETATM   30  O   UNL     1     -12.190  11.190  71.170  1.00  0.00    -0.338 OA 
HETATM   31  O   UNL     1     -12.103  10.129  68.885  1.00  0.00     0.028 OA 
HETATM   32  N   UNL     1      -9.977  10.745  70.056  1.00  0.00    -0.304 N  
HETATM   33  H1  UNL     1     -10.068  11.669  69.632  1.00  0.00     0.000 HD 
HETATM   34  H2  UNL     1      -9.132  10.234  70.309  1.00  0.00     0.000 HD 
ENDBRANCH  26  29
ENDBRANCH  20  22
ENDBRANCH  15  20
ENDBRANCH   2  14
TORSDOF 5
ENDMDL
MODEL      238
REMARK 921   NORMALIZED FREE ENERGY PREDICTED BY IDOCK:   -4.52 KCAL/MOL
REMARK 922        TOTAL FREE ENERGY PREDICTED BY IDOCK:   -6.30 KCAL/MOL
REMARK 923 INTER-LIGAND FREE ENERGY PREDICTED BY IDOCK:   -5.61 KCAL/MOL
REMARK 924 INTRA-LIGAND FREE ENERGY PREDICTED BY IDOCK:   -0.69 KCAL/MOL
REMARK 927      BINDING AFFINITY PREDICTED BY RF-SCORE:    0.00 PKD
ROOT
HETATM    1  C   UNL     1     -10.564   9.948  69.642  1.00  0.00    -0.250 C  
HETATM    2  N   UNL     1      -9.472   9.565  68.747  1.00  0.00    -0.145 NA 
ENDROOT
BRANCH   2   3
HETATM    3  C   UNL     1      -9.428   8.204  68.324  1.00  0.00    -0.141 A  
HETATM    4  C   UNL     1     -10.436   6.483  66.743  1.00  0.00    -0.300 A  
HETATM    5  C   UNL     1      -9.823   3.506  65.852  1.00  0.00     0.032 C  
HETATM    6  C   UNL     1      -8.463   7.301  68.842  1.00  0.00    -0.126 A  
HETATM    7  C   UNL     1      -8.489   6.011  68.279  1.00  0.00    -0.112 A  
HETATM    8  C   UNL     1      -9.448   5.663  67.267  1.00  0.00    -0.115 A  
HETATM    9  C   UNL     1      -9.193   4.369  66.883  1.00  0.00    -0.140 A  
HETATM   10  N   UNL     1      -7.713   4.946  68.534  1.00  0.00    -0.077 NA 
HETATM   11  N   UNL     1      -8.138   3.989  67.680  1.00  0.00    -0.090 NA 
HETATM   12  C   UNL     1      -7.466   2.710  67.683  1.00  0.00    -0.057 C  
HETATM   13  C   UNL     1     -10.382   7.769  67.326  1.00  0.00    -0.371 A  
ENDBRANCH   2   3
BRANCH   2  14
HETATM   14  C   UNL     1      -8.684  10.601  68.200  1.00  0.00    -0.130 A  
HETATM   15  C   UNL     1      -7.618  12.645  68.517  1.00  0.00    -0.121 A  
HETATM   16  N   UNL     1      -7.245  12.744  67.238  1.00  0.00    -0.124 NA 
HETATM   17  C   UNL     1      -7.577  11.711  66.447  1.00  0.00     0.085 A  
HETATM   18  C   UNL     1      -8.285  10.613  66.877  1.00  0.00    -0.123 A  
HETATM   19  N   UNL     1      -8.334  11.621  69.004  1.00  0.00     0.054 NA 
BRANCH  15  20
HETATM   20  N   UNL     1      -7.263  13.694  69.362  1.00  0.00    -0.317 NA 
HETATM   21  H   UNL     1      -6.851  13.427  70.256  1.00  0.00     0.000 HD 
BRANCH  20  22
HETATM   22  C   UNL     1      -7.401  15.071  69.139  1.00  0.00    -0.164 A  
HETATM   23  C   UNL     1      -6.441  15.947  69.648  1.00  0.00    -0.186 A  
HETATM   24  C   UNL     1      -6.499  17.316  69.368  1.00  0.00    -0.235 A  
HETATM   25  C   UNL     1      -7.529  17.859  68.578  1.00  0.00    -0.270 A  
HETATM   26  C   UNL     1      -8.520  16.985  68.097  1.00  0.00    -0.227 A  
HETATM   27  C   UNL     1      -7.515  19.334  68.306  1.00  0.00    -0.335 C  
HETATM   28  C   UNL     1      -8.441  15.609  68.371  1.00  0.00    -0.164 A  
BRANCH  26  29
HETATM   29  S   UNL     1      -9.955  17.532  67.178  1.00  0.00    -0.327 S  
HETATM   30  O   UNL     1      -9.551  17.935  65.855  1.00  0.00    -0.525 OA 
HETATM   31  O   UNL     1     -10.739  18.402  68.028  1.00  0.00    -0.357 OA 
HETATM   32  N   UNL     1     -10.827  16.109  67.027  1.00  0.00    -0.252 N  
HETATM   33  H1  UNL     1     -11.645  16.421  66.503  1.00  0.00     0.000 HD 
HETATM   34  H2  UNL     1     -10.599  15.176  67.369  1.00  0.00     0.000 HD 
ENDBRANCH  26  29
ENDBRANCH  20  22
ENDBRANCH  15  20
ENDBRANCH   2  14
TORSDOF 5
ENDMDL
MODEL      239
REMARK 921   NORMALIZED FREE ENERGY PREDICTED BY IDOCK:   -4.51 KCAL/MOL
REMARK 922        TOTAL FREE ENERGY PREDICTED BY IDOCK:   -6.29 KCAL/MOL
REMARK 923 INTER-LIGAND FREE ENERGY PREDICTED BY IDOCK:   -5.98 KCAL/MOL
REMARK 924 INTRA-LIGAND FREE ENERGY PREDICTED BY IDOCK:   -0.31 KCAL/MOL
REMARK 927      BINDING AFFINITY PREDICTED BY RF-SCORE:    0.00 PKD
ROOT
HETATM    1  C   UNL     1      -9.421  12.345  67.158  1.00  0.00    -0.198 C  
HETATM    2  N   UNL     1      -9.490  10.886  67.244  1.00  0.00    -0.159 NA 
ENDROOT
BRANCH   2   3
HETATM    3  C   UNL     1     -10.142  10.334  68.385  1.00  0.00    -0.159 A  
HETATM    4  C   UNL     1     -11.786  10.801  70.271  1.00  0.00    -0.442 A  
HETATM    5  C   UNL     1     -13.273   9.142  72.521  1.00  0.00    -0.464 C  
HETATM    6  C   UNL     1      -9.972   8.971  68.745  1.00  0.00    -0.194 A  
HETATM    7  C   UNL     1     -10.735   8.546  69.848  1.00  0.00    -0.224 A  
HETATM    8  C   UNL     1     -11.600   9.455  70.547  1.00  0.00    -0.291 A  
HETATM    9  C   UNL     1     -12.242   8.742  71.532  1.00  0.00    -0.327 A  
HETATM   10  N   UNL     1     -10.814   7.335  70.423  1.00  0.00    -0.240 NA 
HETATM   11  N   UNL     1     -11.727   7.473  71.409  1.00  0.00    -0.274 NA 
HETATM   12  C   UNL     1     -12.068   6.315  72.205  1.00  0.00    -0.252 C  
HETATM   13  C   UNL     1     -11.009  11.197  69.158  1.00  0.00    -0.295 A  
ENDBRANCH   2   3
BRANCH   2  14
HETATM   14  C   UNL     1      -9.109  10.148  66.102  1.00  0.00    -0.155 A  
HETATM   15  C   UNL     1      -8.507   8.091  65.194  1.00  0.00    -0.100 A  
HETATM   16  N   UNL     1      -8.254   8.604  63.987  1.00  0.00    -0.162 NA 
HETATM   17  C   UNL     1      -8.480   9.919  63.847  1.00  0.00    -0.181 A  
HETATM   18  C   UNL     1      -8.916  10.735  64.867  1.00  0.00    -0.201 A  
HETATM   19  N   UNL     1      -8.907   8.825  66.243  1.00  0.00    -0.148 NA 
BRANCH  15  20
HETATM   20  N   UNL     1      -8.303   6.722  65.355  1.00  0.00    -0.170 NA 
HETATM   21  H   UNL     1      -7.948   6.225  64.539  1.00  0.00     0.000 HD 
BRANCH  20  22
HETATM   22  C   UNL     1      -8.525   5.942  66.499  1.00  0.00    -0.113 A  
HETATM   23  C   UNL     1      -9.319   4.798  66.404  1.00  0.00    -0.146 A  
HETATM   24  C   UNL     1      -9.487   3.950  67.503  1.00  0.00    -0.236 A  
HETATM   25  C   UNL     1      -8.877   4.224  68.741  1.00  0.00    -0.138 A  
HETATM   26  C   UNL     1      -8.108   5.396  68.850  1.00  0.00    -0.094 A  
HETATM   27  C   UNL     1      -9.089   3.257  69.868  1.00  0.00    -0.199 C  
HETATM   28  C   UNL     1      -7.933   6.232  67.735  1.00  0.00    -0.114 A  
BRANCH  26  29
HETATM   29  S   UNL     1      -7.364   5.947  70.382  1.00  0.00    -0.090 S  
HETATM   30  O   UNL     1      -7.249   7.383  70.368  1.00  0.00    -0.066 OA 
HETATM   31  O   UNL     1      -6.227   5.099  70.670  1.00  0.00    -0.021 OA 
HETATM   32  N   UNL     1      -8.546   5.547  71.500  1.00  0.00    -0.130 N  
HETATM   33  H1  UNL     1      -8.122   5.861  72.373  1.00  0.00     0.000 HD 
HETATM   34  H2  UNL     1      -9.453   5.105  71.348  1.00  0.00     0.000 HD 
ENDBRANCH  26  29
ENDBRANCH  20  22
ENDBRANCH  15  20
ENDBRANCH   2  14
TORSDOF 5
ENDMDL
MODEL      240
REMARK 921   NORMALIZED FREE ENERGY PREDICTED BY IDOCK:   -4.50 KCAL/MOL
REMARK 922        TOTAL FREE ENERGY PREDICTED BY IDOCK:   -6.27 KCAL/MOL
REMARK 923 INTER-LIGAND FREE ENERGY PREDICTED BY IDOCK:   -5.73 KCAL/MOL
REMARK 924 INTRA-LIGAND FREE ENERGY PREDICTED BY IDOCK:   -0.55 KCAL/MOL
REMARK 927      BINDING AFFINITY PREDICTED BY RF-SCORE:    0.00 PKD
ROOT
HETATM    1  C   UNL     1      -9.730  10.147  69.666  1.00  0.00    -0.221 C  
HETATM    2  N   UNL     1      -8.839   9.660  68.611  1.00  0.00    -0.127 NA 
ENDROOT
BRANCH   2   3
HETATM    3  C   UNL     1      -9.121   8.372  68.068  1.00  0.00    -0.137 A  
HETATM    4  C   UNL     1      -9.789   7.102  65.965  1.00  0.00     0.260 A  
HETATM    5  C   UNL     1     -10.021   4.079  65.053  1.00  0.00    -0.207 C  
HETATM    6  C   UNL     1      -8.974   7.194  68.846  1.00  0.00    -0.129 A  
HETATM    7  C   UNL     1      -9.214   5.991  68.157  1.00  0.00    -0.116 A  
HETATM    8  C   UNL     1      -9.595   5.992  66.772  1.00  0.00    -0.171 A  
HETATM    9  C   UNL     1      -9.707   4.681  66.373  1.00  0.00    -0.202 A  
HETATM   10  N   UNL     1      -9.147   4.723  68.594  1.00  0.00    -0.107 NA 
HETATM   11  N   UNL     1      -9.426   3.963  67.512  1.00  0.00    -0.191 NA 
HETATM   12  C   UNL     1      -9.398   2.525  67.649  1.00  0.00    -0.154 C  
HETATM   13  C   UNL     1      -9.539   8.294  66.684  1.00  0.00    -0.299 A  
ENDBRANCH   2   3
BRANCH   2  14
HETATM   14  C   UNL     1      -7.916  10.577  68.064  1.00  0.00    -0.106 A  
HETATM   15  C   UNL     1      -7.139  12.769  67.960  1.00  0.00    -0.111 A  
HETATM   16  N   UNL     1      -6.251  12.497  66.999  1.00  0.00    -0.227 NA 
HETATM   17  C   UNL     1      -6.185  11.216  66.605  1.00  0.00    -0.136 A  
HETATM   18  C   UNL     1      -6.985  10.216  67.110  1.00  0.00    -0.087 A  
HETATM   19  N   UNL     1      -7.971  11.855  68.481  1.00  0.00    -0.148 NA 
BRANCH  15  20
HETATM   20  N   UNL     1      -7.207  14.088  68.403  1.00  0.00    -0.098 NA 
HETATM   21  H   UNL     1      -6.672  14.305  69.244  1.00  0.00     0.000 HD 
BRANCH  20  22
HETATM   22  C   UNL     1      -7.921  15.155  67.839  1.00  0.00    -0.135 A  
HETATM   23  C   UNL     1      -8.851  14.899  66.830  1.00  0.00    -0.284 A  
HETATM   24  C   UNL     1      -9.643  15.926  66.308  1.00  0.00    -0.345 A  
HETATM   25  C   UNL     1      -9.524  17.250  66.770  1.00  0.00    -0.274 A  
HETATM   26  C   UNL     1      -8.561  17.518  67.759  1.00  0.00    -0.230 A  
HETATM   27  C   UNL     1     -10.421  18.294  66.175  1.00  0.00    -0.403 C  
HETATM   28  C   UNL     1      -7.782  16.474  68.287  1.00  0.00    -0.176 A  
BRANCH  26  29
HETATM   29  S   UNL     1      -8.205  19.162  68.367  1.00  0.00    -0.358 S  
HETATM   30  O   UNL     1      -9.306  19.622  69.175  1.00  0.00    -0.326 OA 
HETATM   31  O   UNL     1      -7.686  19.954  67.273  1.00  0.00    -0.255 OA 
HETATM   32  N   UNL     1      -6.913  18.874  69.396  1.00  0.00    -0.230 N  
HETATM   33  H1  UNL     1      -6.711  19.812  69.743  1.00  0.00     0.000 HD 
HETATM   34  H2  UNL     1      -6.451  17.992  69.616  1.00  0.00     0.000 HD 
ENDBRANCH  26  29
ENDBRANCH  20  22
ENDBRANCH  15  20
ENDBRANCH   2  14
TORSDOF 5
ENDMDL
MODEL      241
REMARK 921   NORMALIZED FREE ENERGY PREDICTED BY IDOCK:   -4.48 KCAL/MOL
REMARK 922        TOTAL FREE ENERGY PREDICTED BY IDOCK:   -6.25 KCAL/MOL
REMARK 923 INTER-LIGAND FREE ENERGY PREDICTED BY IDOCK:   -6.64 KCAL/MOL
REMARK 924 INTRA-LIGAND FREE ENERGY PREDICTED BY IDOCK:    0.39 KCAL/MOL
REMARK 927      BINDING AFFINITY PREDICTED BY RF-SCORE:    0.00 PKD
ROOT
HETATM    1  C   UNL     1     -12.407  13.267  70.559  1.00  0.00    -0.316 C  
HETATM    2  N   UNL     1     -11.982  12.056  69.857  1.00  0.00    -0.328 NA 
ENDROOT
BRANCH   2   3
HETATM    3  C   UNL     1     -12.215  10.810  70.511  1.00  0.00    -0.366 A  
HETATM    4  C   UNL     1     -13.942   9.004  70.991  1.00  0.00     0.016 A  
HETATM    5  C   UNL     1     -13.982   6.113  72.284  1.00  0.00     0.569 C  
HETATM    6  C   UNL     1     -11.168  10.117  71.173  1.00  0.00    -0.244 A  
HETATM    7  C   UNL     1     -11.526   8.866  71.708  1.00  0.00    -0.353 A  
HETATM    8  C   UNL     1     -12.868   8.365  71.591  1.00  0.00    -0.355 A  
HETATM    9  C   UNL     1     -12.893   7.114  72.160  1.00  0.00    -0.062 A  
HETATM   10  N   UNL     1     -10.778   7.968  72.370  1.00  0.00    -0.294 NA 
HETATM   11  N   UNL     1     -11.607   6.930  72.612  1.00  0.00    -0.195 NA 
HETATM   12  C   UNL     1     -11.082   5.767  73.290  1.00  0.00    -0.208 C  
HETATM   13  C   UNL     1     -13.551  10.254  70.462  1.00  0.00     0.356 A  
ENDBRANCH   2   3
BRANCH   2  14
HETATM   14  C   UNL     1     -11.582  12.191  68.510  1.00  0.00    -0.315 A  
HETATM   15  C   UNL     1     -11.052  13.610  66.743  1.00  0.00    -0.307 A  
HETATM   16  N   UNL     1     -10.911  12.609  65.870  1.00  0.00    -0.265 NA 
HETATM   17  C   UNL     1     -11.075  11.371  66.364  1.00  0.00    -0.240 A  
HETATM   18  C   UNL     1     -11.401  11.106  67.674  1.00  0.00    -0.356 A  
HETATM   19  N   UNL     1     -11.395  13.433  68.027  1.00  0.00    -0.270 NA 
BRANCH  15  20
HETATM   20  N   UNL     1     -10.861  14.903  66.258  1.00  0.00    -0.325 NA 
HETATM   21  H   UNL     1     -10.880  15.006  65.244  1.00  0.00     0.000 HD 
BRANCH  20  22
HETATM   22  C   UNL     1     -10.647  16.079  66.990  1.00  0.00    -0.302 A  
HETATM   23  C   UNL     1     -10.616  16.022  68.384  1.00  0.00    -0.270 A  
HETATM   24  C   UNL     1     -10.315  17.159  69.141  1.00  0.00    -0.297 A  
HETATM   25  C   UNL     1     -10.047  18.397  68.529  1.00  0.00    -0.413 A  
HETATM   26  C   UNL     1     -10.116  18.467  67.127  1.00  0.00    -0.353 A  
HETATM   27  C   UNL     1      -9.715  19.567  69.407  1.00  0.00    -0.212 C  
HETATM   28  C   UNL     1     -10.403  17.314  66.376  1.00  0.00    -0.316 A  
BRANCH  26  29
HETATM   29  S   UNL     1      -9.917  19.987  66.205  1.00  0.00    -0.411 S  
HETATM   30  O   UNL     1     -10.186  21.109  67.069  1.00  0.00     0.222 OA 
HETATM   31  O   UNL     1     -10.579  19.839  64.927  1.00  0.00     0.075 OA 
HETATM   32  N   UNL     1      -8.271  19.981  65.887  1.00  0.00    -0.504 N  
HETATM   33  H1  UNL     1      -8.157  20.848  65.361  1.00  0.00     0.000 HD 
HETATM   34  H2  UNL     1      -7.568  19.291  66.149  1.00  0.00     0.000 HD 
ENDBRANCH  26  29
ENDBRANCH  20  22
ENDBRANCH  15  20
ENDBRANCH   2  14
TORSDOF 5
ENDMDL
MODEL      242
REMARK 921   NORMALIZED FREE ENERGY PREDICTED BY IDOCK:   -4.46 KCAL/MOL
REMARK 922        TOTAL FREE ENERGY PREDICTED BY IDOCK:   -6.23 KCAL/MOL
REMARK 923 INTER-LIGAND FREE ENERGY PREDICTED BY IDOCK:   -5.83 KCAL/MOL
REMARK 924 INTRA-LIGAND FREE ENERGY PREDICTED BY IDOCK:   -0.40 KCAL/MOL
REMARK 927      BINDING AFFINITY PREDICTED BY RF-SCORE:    0.00 PKD
ROOT
HETATM    1  C   UNL     1      -7.929   6.080  63.706  1.00  0.00    -0.112 C  
HETATM    2  N   UNL     1      -8.382   6.193  65.092  1.00  0.00    -0.143 NA 
ENDROOT
BRANCH   2   3
HETATM    3  C   UNL     1      -8.824   7.477  65.528  1.00  0.00     0.024 A  
HETATM    4  C   UNL     1      -8.897   9.956  64.957  1.00  0.00    -0.220 A  
HETATM    5  C   UNL     1     -10.307  12.559  66.084  1.00  0.00    -0.274 C  
HETATM    6  C   UNL     1      -9.599   7.629  66.708  1.00  0.00    -0.269 A  
HETATM    7  C   UNL     1     -10.028   8.943  66.974  1.00  0.00    -0.233 A  
HETATM    8  C   UNL     1      -9.675  10.029  66.102  1.00  0.00    -0.286 A  
HETATM    9  C   UNL     1     -10.277  11.164  66.592  1.00  0.00    -0.232 A  
HETATM   10  N   UNL     1     -10.775   9.415  67.984  1.00  0.00    -0.220 NA 
HETATM   11  N   UNL     1     -10.924  10.732  67.726  1.00  0.00    -0.275 NA 
HETATM   12  C   UNL     1     -11.724  11.529  68.628  1.00  0.00    -0.326 C  
HETATM   13  C   UNL     1      -8.484   8.626  64.716  1.00  0.00    -0.168 A  
ENDBRANCH   2   3
BRANCH   2  14
HETATM   14  C   UNL     1      -8.556   4.995  65.820  1.00  0.00    -0.131 A  
HETATM   15  C   UNL     1      -8.568   3.928  67.888  1.00  0.00    -0.097 A  
HETATM   16  N   UNL     1      -8.759   2.718  67.357  1.00  0.00    -0.109 NA 
HETATM   17  C   UNL     1      -8.890   2.676  66.021  1.00  0.00    -0.136 A  
HETATM   18  C   UNL     1      -8.807   3.783  65.208  1.00  0.00    -0.120 A  
HETATM   19  N   UNL     1      -8.449   5.048  67.160  1.00  0.00    -0.106 NA 
BRANCH  15  20
HETATM   20  N   UNL     1      -8.455   3.999  69.275  1.00  0.00    -0.075 NA 
HETATM   21  H   UNL     1      -7.943   3.238  69.721  1.00  0.00     0.000 HD 
BRANCH  20  22
HETATM   22  C   UNL     1      -8.958   4.985  70.136  1.00  0.00    -0.111 A  
HETATM   23  C   UNL     1     -10.324   5.273  70.124  1.00  0.00    -0.354 A  
HETATM   24  C   UNL     1     -10.872   6.186  71.030  1.00  0.00    -0.338 A  
HETATM   25  C   UNL     1     -10.069   6.853  71.973  1.00  0.00    -0.201 A  
HETATM   26  C   UNL     1      -8.687   6.595  71.962  1.00  0.00    -0.127 A  
HETATM   27  C   UNL     1     -10.732   7.804  72.925  1.00  0.00    -0.446 C  
HETATM   28  C   UNL     1      -8.151   5.663  71.057  1.00  0.00    -0.119 A  
BRANCH  26  29
HETATM   29  S   UNL     1      -7.517   7.445  73.016  1.00  0.00    -0.077 S  
HETATM   30  O   UNL     1      -7.826   8.853  73.035  1.00  0.00    -0.378 OA 
HETATM   31  O   UNL     1      -6.188   6.965  72.706  1.00  0.00    -0.052 OA 
HETATM   32  N   UNL     1      -7.903   6.826  74.525  1.00  0.00    -0.118 N  
HETATM   33  H1  UNL     1      -7.236   7.311  75.125  1.00  0.00     0.000 HD 
HETATM   34  H2  UNL     1      -8.617   6.143  74.776  1.00  0.00     0.000 HD 
ENDBRANCH  26  29
ENDBRANCH  20  22
ENDBRANCH  15  20
ENDBRANCH   2  14
TORSDOF 5
ENDMDL
MODEL      243
REMARK 921   NORMALIZED FREE ENERGY PREDICTED BY IDOCK:   -4.42 KCAL/MOL
REMARK 922        TOTAL FREE ENERGY PREDICTED BY IDOCK:   -6.18 KCAL/MOL
REMARK 923 INTER-LIGAND FREE ENERGY PREDICTED BY IDOCK:   -5.25 KCAL/MOL
REMARK 924 INTRA-LIGAND FREE ENERGY PREDICTED BY IDOCK:   -0.93 KCAL/MOL
REMARK 927      BINDING AFFINITY PREDICTED BY RF-SCORE:    0.00 PKD
ROOT
HETATM    1  C   UNL     1      -7.597  11.771  66.957  1.00  0.00    -0.147 C  
HETATM    2  N   UNL     1      -8.238  10.457  66.904  1.00  0.00    -0.123 NA 
ENDROOT
BRANCH   2   3
HETATM    3  C   UNL     1      -9.058  10.091  68.012  1.00  0.00    -0.131 A  
HETATM    4  C   UNL     1      -9.217   8.630  70.090  1.00  0.00    -0.165 A  
HETATM    5  C   UNL     1     -11.162   8.322  72.570  1.00  0.00    -0.446 C  
HETATM    6  C   UNL     1     -10.304  10.730  68.251  1.00  0.00    -0.195 A  
HETATM    7  C   UNL     1     -10.968  10.320  69.422  1.00  0.00    -0.247 A  
HETATM    8  C   UNL     1     -10.407   9.315  70.281  1.00  0.00    -0.272 A  
HETATM    9  C   UNL     1     -11.252   9.170  71.355  1.00  0.00    -0.349 A  
HETATM   10  N   UNL     1     -12.139  10.733  69.934  1.00  0.00    -0.329 NA 
HETATM   11  N   UNL     1     -12.277  10.048  71.091  1.00  0.00    -0.349 NA 
HETATM   12  C   UNL     1     -13.441  10.300  71.910  1.00  0.00    -0.302 C  
HETATM   13  C   UNL     1      -8.572   9.064  68.909  1.00  0.00    -0.131 A  
ENDBRANCH   2   3
BRANCH   2  14
HETATM   14  C   UNL     1      -8.179   9.752  65.683  1.00  0.00    -0.130 A  
HETATM   15  C   UNL     1      -8.268   7.703  64.582  1.00  0.00    -0.063 A  
HETATM   16  N   UNL     1      -7.978   8.235  63.391  1.00  0.00    -0.156 NA 
HETATM   17  C   UNL     1      -7.829   9.569  63.364  1.00  0.00    -0.132 A  
HETATM   18  C   UNL     1      -7.929  10.375  64.475  1.00  0.00    -0.093 A  
HETATM   19  N   UNL     1      -8.354   8.418  65.713  1.00  0.00    -0.137 NA 
BRANCH  15  20
HETATM   20  N   UNL     1      -8.452   6.323  64.630  1.00  0.00    -0.335 NA 
HETATM   21  H   UNL     1      -8.538   5.853  63.729  1.00  0.00     0.000 HD 
BRANCH  20  22
HETATM   22  C   UNL     1      -8.533   5.499  65.761  1.00  0.00    -0.134 A  
HETATM   23  C   UNL     1      -9.610   4.621  65.892  1.00  0.00    -0.190 A  
HETATM   24  C   UNL     1      -9.676   3.722  66.962  1.00  0.00    -0.149 A  
HETATM   25  C   UNL     1      -8.671   3.680  67.946  1.00  0.00    -0.127 A  
HETATM   26  C   UNL     1      -7.605   4.590  67.837  1.00  0.00    -0.077 A  
HETATM   27  C   UNL     1      -8.802   2.676  69.053  1.00  0.00    -0.151 C  
HETATM   28  C   UNL     1      -7.541   5.476  66.749  1.00  0.00    -0.088 A  
BRANCH  26  29
HETATM   29  S   UNL     1      -6.311   4.742  69.064  1.00  0.00    -0.033 S  
HETATM   30  O   UNL     1      -5.577   3.504  69.141  1.00  0.00    -0.016 OA 
HETATM   31  O   UNL     1      -6.869   5.366  70.244  1.00  0.00    -0.045 OA 
HETATM   32  N   UNL     1      -5.304   5.881  68.359  1.00  0.00    -0.004 N  
HETATM   33  H1  UNL     1      -4.566   5.968  69.058  1.00  0.00     0.000 HD 
HETATM   34  H2  UNL     1      -5.403   6.362  67.465  1.00  0.00     0.000 HD 
ENDBRANCH  26  29
ENDBRANCH  20  22
ENDBRANCH  15  20
ENDBRANCH   2  14
TORSDOF 5
ENDMDL
MODEL      244
REMARK 921   NORMALIZED FREE ENERGY PREDICTED BY IDOCK:   -4.36 KCAL/MOL
REMARK 922        TOTAL FREE ENERGY PREDICTED BY IDOCK:   -6.09 KCAL/MOL
REMARK 923 INTER-LIGAND FREE ENERGY PREDICTED BY IDOCK:   -5.52 KCAL/MOL
REMARK 924 INTRA-LIGAND FREE ENERGY PREDICTED BY IDOCK:   -0.57 KCAL/MOL
REMARK 927      BINDING AFFINITY PREDICTED BY RF-SCORE:    0.00 PKD
ROOT
HETATM    1  C   UNL     1      -9.787   9.336  65.739  1.00  0.00    -0.231 C  
HETATM    2  N   UNL     1      -8.676   8.603  66.348  1.00  0.00    -0.124 NA 
ENDROOT
BRANCH   2   3
HETATM    3  C   UNL     1      -8.701   7.181  66.241  1.00  0.00    -0.146 A  
HETATM    4  C   UNL     1      -8.147   5.197  64.745  1.00  0.00    -0.117 A  
HETATM    5  C   UNL     1      -8.063   2.043  65.007  1.00  0.00    -0.079 C  
HETATM    6  C   UNL     1      -9.125   6.366  67.324  1.00  0.00    -0.117 A  
HETATM    7  C   UNL     1      -9.025   4.980  67.101  1.00  0.00    -0.112 A  
HETATM    8  C   UNL     1      -8.542   4.462  65.852  1.00  0.00    -0.114 A  
HETATM    9  C   UNL     1      -8.513   3.092  65.956  1.00  0.00    -0.111 A  
HETATM   10  N   UNL     1      -9.326   3.956  67.916  1.00  0.00    -0.165 NA 
HETATM   11  N   UNL     1      -8.996   2.845  67.220  1.00  0.00    -0.147 NA 
HETATM   12  C   UNL     1      -9.170   1.556  67.849  1.00  0.00    -0.161 C  
HETATM   13  C   UNL     1      -8.255   6.584  65.000  1.00  0.00    -0.115 A  
ENDBRANCH   2   3
BRANCH   2  14
HETATM   14  C   UNL     1      -7.568   9.354  66.796  1.00  0.00    -0.097 A  
HETATM   15  C   UNL     1      -6.590  11.446  67.082  1.00  0.00    -0.118 A  
HETATM   16  N   UNL     1      -5.436  10.939  67.526  1.00  0.00    -0.043 NA 
HETATM   17  C   UNL     1      -5.386   9.602  67.638  1.00  0.00    -0.036 A  
HETATM   18  C   UNL     1      -6.423   8.765  67.297  1.00  0.00    -0.058 A  
HETATM   19  N   UNL     1      -7.634  10.695  66.704  1.00  0.00    -0.122 NA 
BRANCH  15  20
HETATM   20  N   UNL     1      -6.674  12.834  66.982  1.00  0.00    -0.440 NA 
HETATM   21  H   UNL     1      -5.911  13.292  66.484  1.00  0.00     0.000 HD 
BRANCH  20  22
HETATM   22  C   UNL     1      -7.675  13.679  67.481  1.00  0.00    -0.173 A  
HETATM   23  C   UNL     1      -7.322  14.922  68.008  1.00  0.00    -0.138 A  
HETATM   24  C   UNL     1      -8.302  15.825  68.431  1.00  0.00    -0.164 A  
HETATM   25  C   UNL     1      -9.671  15.511  68.354  1.00  0.00    -0.203 A  
HETATM   26  C   UNL     1     -10.028  14.244  67.860  1.00  0.00    -0.230 A  
HETATM   27  C   UNL     1     -10.663  16.539  68.810  1.00  0.00    -0.339 C  
HETATM   28  C   UNL     1      -9.035  13.351  67.422  1.00  0.00    -0.215 A  
BRANCH  26  29
HETATM   29  S   UNL     1     -11.714  13.647  67.805  1.00  0.00    -0.373 S  
HETATM   30  O   UNL     1     -12.425  14.317  66.745  1.00  0.00    -0.376 OA 
HETATM   31  O   UNL     1     -12.231  13.608  69.156  1.00  0.00    -0.326 OA 
HETATM   32  N   UNL     1     -11.498  12.053  67.336  1.00  0.00    -0.328 N  
HETATM   33  H1  UNL     1     -12.459  11.713  67.304  1.00  0.00     0.000 HD 
HETATM   34  H2  UNL     1     -10.632  11.554  67.134  1.00  0.00     0.000 HD 
ENDBRANCH  26  29
ENDBRANCH  20  22
ENDBRANCH  15  20
ENDBRANCH   2  14
TORSDOF 5
ENDMDL
MODEL      245
REMARK 921   NORMALIZED FREE ENERGY PREDICTED BY IDOCK:   -4.32 KCAL/MOL
REMARK 922        TOTAL FREE ENERGY PREDICTED BY IDOCK:   -6.04 KCAL/MOL
REMARK 923 INTER-LIGAND FREE ENERGY PREDICTED BY IDOCK:   -5.31 KCAL/MOL
REMARK 924 INTRA-LIGAND FREE ENERGY PREDICTED BY IDOCK:   -0.74 KCAL/MOL
REMARK 927      BINDING AFFINITY PREDICTED BY RF-SCORE:    0.00 PKD
ROOT
HETATM    1  C   UNL     1      -5.558  14.536  71.060  1.00  0.00    -0.168 C  
HETATM    2  N   UNL     1      -6.319  14.280  69.836  1.00  0.00    -0.144 NA 
ENDROOT
BRANCH   2   3
HETATM    3  C   UNL     1      -7.039  15.377  69.279  1.00  0.00    -0.179 A  
HETATM    4  C   UNL     1      -9.350  16.255  68.672  1.00  0.00    -0.219 A  
HETATM    5  C   UNL     1     -10.613  18.990  67.695  1.00  0.00    -0.526 C  
HETATM    6  C   UNL     1      -6.380  16.576  68.898  1.00  0.00    -0.157 A  
HETATM    7  C   UNL     1      -7.227  17.600  68.435  1.00  0.00    -0.236 A  
HETATM    8  C   UNL     1      -8.648  17.407  68.351  1.00  0.00    -0.270 A  
HETATM    9  C   UNL     1      -9.201  18.588  67.918  1.00  0.00    -0.290 A  
HETATM   10  N   UNL     1      -6.926  18.841  68.019  1.00  0.00    -0.235 NA 
HETATM   11  N   UNL     1      -8.116  19.414  67.734  1.00  0.00    -0.284 NA 
HETATM   12  C   UNL     1      -8.134  20.788  67.287  1.00  0.00    -0.179 C  
HETATM   13  C   UNL     1      -8.474  15.247  69.136  1.00  0.00    -0.234 A  
ENDBRANCH   2   3
BRANCH   2  14
HETATM   14  C   UNL     1      -6.107  13.045  69.184  1.00  0.00    -0.095 A  
HETATM   15  C   UNL     1      -6.438  10.742  69.169  1.00  0.00    -0.059 A  
HETATM   16  N   UNL     1      -5.682  10.556  68.083  1.00  0.00    -0.043 NA 
HETATM   17  C   UNL     1      -5.170  11.665  67.527  1.00  0.00    -0.067 A  
HETATM   18  C   UNL     1      -5.358  12.932  68.029  1.00  0.00    -0.099 A  
HETATM   19  N   UNL     1      -6.645  11.941  69.733  1.00  0.00    -0.076 NA 
BRANCH  15  20
HETATM   20  N   UNL     1      -7.002   9.607  69.749  1.00  0.00    -0.068 NA 
HETATM   21  H   UNL     1      -6.682   9.381  70.691  1.00  0.00     0.000 HD 
BRANCH  20  22
HETATM   22  C   UNL     1      -7.954   8.736  69.201  1.00  0.00    -0.109 A  
HETATM   23  C   UNL     1      -9.286   8.835  69.606  1.00  0.00    -0.150 A  
HETATM   24  C   UNL     1     -10.275   8.043  69.014  1.00  0.00    -0.217 A  
HETATM   25  C   UNL     1      -9.964   7.115  68.004  1.00  0.00    -0.184 A  
HETATM   26  C   UNL     1      -8.617   6.986  67.621  1.00  0.00    -0.122 A  
HETATM   27  C   UNL     1     -11.082   6.315  67.404  1.00  0.00    -0.384 C  
HETATM   28  C   UNL     1      -7.634   7.798  68.211  1.00  0.00    -0.109 A  
BRANCH  26  29
HETATM   29  S   UNL     1      -8.042   5.774  66.437  1.00  0.00    -0.108 S  
HETATM   30  O   UNL     1      -8.457   6.163  65.113  1.00  0.00    -0.149 OA 
HETATM   31  O   UNL     1      -8.319   4.454  66.960  1.00  0.00    -0.101 OA 
HETATM   32  N   UNL     1      -6.380   5.975  66.522  1.00  0.00    -0.043 N  
HETATM   33  H1  UNL     1      -6.052   5.285  65.847  1.00  0.00     0.000 HD 
HETATM   34  H2  UNL     1      -5.839   6.620  67.098  1.00  0.00     0.000 HD 
ENDBRANCH  26  29
ENDBRANCH  20  22
ENDBRANCH  15  20
ENDBRANCH   2  14
TORSDOF 5
ENDMDL
MODEL      246
REMARK 921   NORMALIZED FREE ENERGY PREDICTED BY IDOCK:   -4.22 KCAL/MOL
REMARK 922        TOTAL FREE ENERGY PREDICTED BY IDOCK:   -5.92 KCAL/MOL
REMARK 923 INTER-LIGAND FREE ENERGY PREDICTED BY IDOCK:   -5.45 KCAL/MOL
REMARK 924 INTRA-LIGAND FREE ENERGY PREDICTED BY IDOCK:   -0.47 KCAL/MOL
REMARK 927      BINDING AFFINITY PREDICTED BY RF-SCORE:    0.00 PKD
ROOT
HETATM    1  C   UNL     1      -6.762  11.823  68.981  1.00  0.00    -0.102 C  
HETATM    2  N   UNL     1      -8.165  11.674  68.595  1.00  0.00    -0.140 NA 
ENDROOT
BRANCH   2   3
HETATM    3  C   UNL     1      -8.789  12.795  67.973  1.00  0.00    -0.195 A  
HETATM    4  C   UNL     1      -9.034  15.328  68.015  1.00  0.00    -0.171 A  
HETATM    5  C   UNL     1     -10.329  17.567  66.188  1.00  0.00    -0.330 C  
HETATM    6  C   UNL     1      -9.595  12.642  66.814  1.00  0.00    -0.241 A  
HETATM    7  C   UNL     1     -10.084  13.842  66.265  1.00  0.00    -0.300 A  
HETATM    8  C   UNL     1      -9.783  15.111  66.869  1.00  0.00    -0.248 A  
HETATM    9  C   UNL     1     -10.351  16.086  66.085  1.00  0.00    -0.328 A  
HETATM   10  N   UNL     1     -10.850  14.041  65.181  1.00  0.00    -0.346 NA 
HETATM   11  N   UNL     1     -10.980  15.383  65.085  1.00  0.00    -0.399 NA 
HETATM   12  C   UNL     1     -11.734  15.928  63.978  1.00  0.00     0.141 C  
HETATM   13  C   UNL     1      -8.556  14.106  68.541  1.00  0.00    -0.163 A  
ENDBRANCH   2   3
BRANCH   2  14
HETATM   14  C   UNL     1      -8.725  10.379  68.663  1.00  0.00    -0.138 A  
HETATM   15  C   UNL     1      -9.458   8.485  67.526  1.00  0.00    -0.149 A  
HETATM   16  N   UNL     1      -9.909   7.891  68.635  1.00  0.00    -0.166 NA 
HETATM   17  C   UNL     1      -9.714   8.562  69.781  1.00  0.00    -0.179 A  
HETATM   18  C   UNL     1      -9.120   9.801  69.854  1.00  0.00    -0.257 A  
HETATM   19  N   UNL     1      -8.895   9.702  67.513  1.00  0.00    -0.125 NA 
BRANCH  15  20
HETATM   20  N   UNL     1      -9.627   7.797  66.327  1.00  0.00    -0.396 NA 
HETATM   21  H   UNL     1     -10.492   7.987  65.821  1.00  0.00     0.000 HD 
BRANCH  20  22
HETATM   22  C   UNL     1      -8.757   6.875  65.728  1.00  0.00    -0.106 A  
HETATM   23  C   UNL     1      -7.660   7.340  65.001  1.00  0.00    -0.107 A  
HETATM   24  C   UNL     1      -6.724   6.449  64.467  1.00  0.00    -0.038 A  
HETATM   25  C   UNL     1      -6.860   5.059  64.631  1.00  0.00    -0.049 A  
HETATM   26  C   UNL     1      -7.984   4.585  65.329  1.00  0.00    -0.098 A  
HETATM   27  C   UNL     1      -5.805   4.167  64.045  1.00  0.00    -0.014 C  
HETATM   28  C   UNL     1      -8.909   5.490  65.875  1.00  0.00    -0.150 A  
BRANCH  26  29
HETATM   29  S   UNL     1      -8.363   2.847  65.523  1.00  0.00    -0.098 S  
HETATM   30  O   UNL     1      -7.234   2.175  66.116  1.00  0.00    -0.057 OA 
HETATM   31  O   UNL     1      -8.972   2.370  64.301  1.00  0.00    -0.098 OA 
HETATM   32  N   UNL     1      -9.582   2.889  66.673  1.00  0.00    -0.404 N  
HETATM   33  H1  UNL     1      -9.797   1.898  66.784  1.00  0.00     0.000 HD 
HETATM   34  H2  UNL     1      -9.999   3.694  67.139  1.00  0.00     0.000 HD 
ENDBRANCH  26  29
ENDBRANCH  20  22
ENDBRANCH  15  20
ENDBRANCH   2  14
TORSDOF 5
ENDMDL
MODEL      247
REMARK 921   NORMALIZED FREE ENERGY PREDICTED BY IDOCK:   -4.21 KCAL/MOL
REMARK 922        TOTAL FREE ENERGY PREDICTED BY IDOCK:   -5.91 KCAL/MOL
REMARK 923 INTER-LIGAND FREE ENERGY PREDICTED BY IDOCK:   -5.48 KCAL/MOL
REMARK 924 INTRA-LIGAND FREE ENERGY PREDICTED BY IDOCK:   -0.43 KCAL/MOL
REMARK 927      BINDING AFFINITY PREDICTED BY RF-SCORE:    0.00 PKD
ROOT
HETATM    1  C   UNL     1      -5.957   9.545  65.722  1.00  0.00    -0.055 C  
HETATM    2  N   UNL     1      -7.235   9.002  66.182  1.00  0.00    -0.089 NA 
ENDROOT
BRANCH   2   3
HETATM    3  C   UNL     1      -7.390   7.585  66.142  1.00  0.00    -0.082 A  
HETATM    4  C   UNL     1      -6.843   5.398  67.323  1.00  0.00    -0.060 A  
HETATM    5  C   UNL     1      -7.670   2.351  67.070  1.00  0.00    -0.070 C  
HETATM    6  C   UNL     1      -8.179   6.957  65.142  1.00  0.00    -0.115 A  
HETATM    7  C   UNL     1      -8.304   5.561  65.271  1.00  0.00    -0.144 A  
HETATM    8  C   UNL     1      -7.653   4.853  66.338  1.00  0.00    -0.087 A  
HETATM    9  C   UNL     1      -8.000   3.528  66.228  1.00  0.00    -0.089 A  
HETATM   10  N   UNL     1      -8.981   4.686  64.511  1.00  0.00    -0.153 NA 
HETATM   11  N   UNL     1      -8.801   3.488  65.110  1.00  0.00    -0.118 NA 
HETATM   12  C   UNL     1      -9.446   2.325  64.543  1.00  0.00    -0.123 C  
HETATM   13  C   UNL     1      -6.740   6.799  67.169  1.00  0.00    -0.059 A  
ENDBRANCH   2   3
BRANCH   2  14
HETATM   14  C   UNL     1      -8.124   9.888  66.830  1.00  0.00    -0.113 A  
HETATM   15  C   UNL     1      -9.308  11.890  66.766  1.00  0.00    -0.201 A  
HETATM   16  N   UNL     1      -9.762  11.759  68.016  1.00  0.00    -0.180 NA 
HETATM   17  C   UNL     1      -9.407  10.633  68.655  1.00  0.00    -0.177 A  
HETATM   18  C   UNL     1      -8.600   9.662  68.107  1.00  0.00    -0.119 A  
HETATM   19  N   UNL     1      -8.496  11.002  66.174  1.00  0.00    -0.168 NA 
BRANCH  15  20
HETATM   20  N   UNL     1      -9.684  13.040  66.074  1.00  0.00    -0.378 NA 
HETATM   21  H   UNL     1      -9.971  12.903  65.105  1.00  0.00     0.000 HD 
BRANCH  20  22
HETATM   22  C   UNL     1      -9.718  14.361  66.542  1.00  0.00    -0.290 A  
HETATM   23  C   UNL     1     -10.939  14.923  66.916  1.00  0.00    -0.327 A  
HETATM   24  C   UNL     1     -10.998  16.206  67.471  1.00  0.00    -0.238 A  
HETATM   25  C   UNL     1      -9.835  16.976  67.659  1.00  0.00    -0.257 A  
HETATM   26  C   UNL     1      -8.608  16.428  67.246  1.00  0.00    -0.181 A  
HETATM   27  C   UNL     1      -9.976  18.335  68.277  1.00  0.00    -0.382 C  
HETATM   28  C   UNL     1      -8.561  15.131  66.706  1.00  0.00    -0.297 A  
BRANCH  26  29
HETATM   29  S   UNL     1      -7.059  17.321  67.309  1.00  0.00    -0.176 S  
HETATM   30  O   UNL     1      -6.067  16.612  66.541  1.00  0.00    -0.303 OA 
HETATM   31  O   UNL     1      -6.814  17.719  68.678  1.00  0.00    -0.222 OA 
HETATM   32  N   UNL     1      -7.438  18.722  66.470  1.00  0.00    -0.231 N  
HETATM   33  H1  UNL     1      -6.555  19.231  66.506  1.00  0.00     0.000 HD 
HETATM   34  H2  UNL     1      -8.321  18.994  66.038  1.00  0.00     0.000 HD 
ENDBRANCH  26  29
ENDBRANCH  20  22
ENDBRANCH  15  20
ENDBRANCH   2  14
TORSDOF 5
ENDMDL
MODEL      248
REMARK 921   NORMALIZED FREE ENERGY PREDICTED BY IDOCK:   -4.14 KCAL/MOL
REMARK 922        TOTAL FREE ENERGY PREDICTED BY IDOCK:   -5.81 KCAL/MOL
REMARK 923 INTER-LIGAND FREE ENERGY PREDICTED BY IDOCK:   -5.49 KCAL/MOL
REMARK 924 INTRA-LIGAND FREE ENERGY PREDICTED BY IDOCK:   -0.32 KCAL/MOL
REMARK 927      BINDING AFFINITY PREDICTED BY RF-SCORE:    0.00 PKD
ROOT
HETATM    1  C   UNL     1     -10.913  10.338  69.921  1.00  0.00    -0.303 C  
HETATM    2  N   UNL     1      -9.560   9.831  69.694  1.00  0.00    -0.207 NA 
ENDROOT
BRANCH   2   3
HETATM    3  C   UNL     1      -9.248   8.550  70.236  1.00  0.00    -0.158 A  
HETATM    4  C   UNL     1      -8.766   7.257  72.374  1.00  0.00    -0.138 A  
HETATM    5  C   UNL     1      -8.410   4.227  73.227  1.00  0.00    -0.090 C  
HETATM    6  C   UNL     1      -9.191   7.394  69.412  1.00  0.00    -0.145 A  
HETATM    7  C   UNL     1      -8.947   6.188  70.095  1.00  0.00    -0.148 A  
HETATM    8  C   UNL     1      -8.758   6.166  71.519  1.00  0.00    -0.135 A  
HETATM    9  C   UNL     1      -8.593   4.854  71.893  1.00  0.00    -0.127 A  
HETATM   10  N   UNL     1      -8.850   4.936  69.618  1.00  0.00    -0.085 NA 
HETATM   11  N   UNL     1      -8.657   4.160  70.707  1.00  0.00    -0.074 NA 
HETATM   12  C   UNL     1      -8.548   2.730  70.528  1.00  0.00    -0.060 C  
HETATM   13  C   UNL     1      -9.015   8.451  71.661  1.00  0.00    -0.261 A  
ENDBRANCH   2   3
BRANCH   2  14
HETATM   14  C   UNL     1      -8.746  10.536  68.781  1.00  0.00    -0.154 A  
HETATM   15  C   UNL     1      -7.500  12.447  68.317  1.00  0.00    -0.124 A  
HETATM   16  N   UNL     1      -7.235  12.071  67.062  1.00  0.00    -0.129 NA 
HETATM   17  C   UNL     1      -7.715  10.873  66.694  1.00  0.00    -0.146 A  
HETATM   18  C   UNL     1      -8.466  10.062  67.514  1.00  0.00    -0.118 A  
HETATM   19  N   UNL     1      -8.247  11.725  69.166  1.00  0.00     0.182 NA 
BRANCH  15  20
HETATM   20  N   UNL     1      -6.990  13.676  68.730  1.00  0.00    -0.102 NA 
HETATM   21  H   UNL     1      -6.448  13.666  69.595  1.00  0.00     0.000 HD 
BRANCH  20  22
HETATM   22  C   UNL     1      -7.127  14.924  68.108  1.00  0.00    -0.119 A  
HETATM   23  C   UNL     1      -5.995  15.711  67.892  1.00  0.00    -0.163 A  
HETATM   24  C   UNL     1      -6.083  16.919  67.195  1.00  0.00    -0.208 A  
HETATM   25  C   UNL     1      -7.313  17.390  66.699  1.00  0.00    -0.282 A  
HETATM   26  C   UNL     1      -8.462  16.619  66.948  1.00  0.00    -0.215 A  
HETATM   27  C   UNL     1      -7.326  18.686  65.944  1.00  0.00    -0.248 C  
HETATM   28  C   UNL     1      -8.358  15.398  67.636  1.00  0.00    -0.174 A  
BRANCH  26  29
HETATM   29  S   UNL     1     -10.113  17.134  66.487  1.00  0.00    -0.318 S  
HETATM   30  O   UNL     1     -10.493  16.478  65.261  1.00  0.00    -0.590 OA 
HETATM   31  O   UNL     1     -10.205  18.570  66.638  1.00  0.00    -0.354 OA 
HETATM   32  N   UNL     1     -11.035  16.469  67.719  1.00  0.00    -0.298 N  
HETATM   33  H1  UNL     1     -11.976  16.762  67.456  1.00  0.00     0.000 HD 
HETATM   34  H2  UNL     1     -10.733  15.917  68.521  1.00  0.00     0.000 HD 
ENDBRANCH  26  29
ENDBRANCH  20  22
ENDBRANCH  15  20
ENDBRANCH   2  14
TORSDOF 5
ENDMDL
MODEL      249
REMARK 921   NORMALIZED FREE ENERGY PREDICTED BY IDOCK:   -4.11 KCAL/MOL
REMARK 922        TOTAL FREE ENERGY PREDICTED BY IDOCK:   -5.77 KCAL/MOL
REMARK 923 INTER-LIGAND FREE ENERGY PREDICTED BY IDOCK:   -5.34 KCAL/MOL
REMARK 924 INTRA-LIGAND FREE ENERGY PREDICTED BY IDOCK:   -0.43 KCAL/MOL
REMARK 927      BINDING AFFINITY PREDICTED BY RF-SCORE:    0.00 PKD
ROOT
HETATM    1  C   UNL     1      -5.776  11.745  70.247  1.00  0.00    -0.155 C  
HETATM    2  N   UNL     1      -6.985  11.626  69.431  1.00  0.00    -0.089 NA 
ENDROOT
BRANCH   2   3
HETATM    3  C   UNL     1      -7.346  12.757  68.640  1.00  0.00    -0.099 A  
HETATM    4  C   UNL     1      -9.275  13.973  67.510  1.00  0.00    -0.197 A  
HETATM    5  C   UNL     1      -9.734  16.743  66.043  1.00  0.00    -0.287 C  
HETATM    6  C   UNL     1      -6.390  13.743  68.282  1.00  0.00    -0.108 A  
HETATM    7  C   UNL     1      -6.905  14.839  67.565  1.00  0.00    -0.155 A  
HETATM    8  C   UNL     1      -8.298  14.914  67.222  1.00  0.00    -0.233 A  
HETATM    9  C   UNL     1      -8.501  16.110  66.576  1.00  0.00    -0.311 A  
HETATM   10  N   UNL     1      -6.277  15.930  67.097  1.00  0.00    -0.323 NA 
HETATM   11  N   UNL     1      -7.249  16.678  66.530  1.00  0.00    -0.239 NA 
HETATM   12  C   UNL     1      -6.894  17.956  65.957  1.00  0.00    -0.301 C  
HETATM   13  C   UNL     1      -8.729  12.887  68.232  1.00  0.00    -0.168 A  
ENDBRANCH   2   3
BRANCH   2  14
HETATM   14  C   UNL     1      -7.571  10.347  69.318  1.00  0.00    -0.132 A  
HETATM   15  C   UNL     1      -8.493   8.716  67.938  1.00  0.00    -0.129 A  
HETATM   16  N   UNL     1      -8.823   7.919  68.959  1.00  0.00    -0.145 NA 
HETATM   17  C   UNL     1      -8.470   8.352  70.179  1.00  0.00    -0.126 A  
HETATM   18  C   UNL     1      -7.835   9.550  70.415  1.00  0.00    -0.190 A  
HETATM   19  N   UNL     1      -7.900   9.909  68.089  1.00  0.00    -0.086 NA 
BRANCH  15  20
HETATM   20  N   UNL     1      -8.828   8.276  66.659  1.00  0.00    -0.137 NA 
HETATM   21  H   UNL     1      -9.482   8.862  66.142  1.00  0.00     0.000 HD 
BRANCH  20  22
HETATM   22  C   UNL     1      -8.377   7.127  65.993  1.00  0.00    -0.134 A  
HETATM   23  C   UNL     1      -7.006   6.924  65.829  1.00  0.00    -0.064 A  
HETATM   24  C   UNL     1      -6.520   5.747  65.250  1.00  0.00    -0.042 A  
HETATM   25  C   UNL     1      -7.390   4.737  64.802  1.00  0.00    -0.071 A  
HETATM   26  C   UNL     1      -8.774   4.956  64.930  1.00  0.00    -0.150 A  
HETATM   27  C   UNL     1      -6.794   3.496  64.209  1.00  0.00    -0.044 C  
HETATM   28  C   UNL     1      -9.250   6.135  65.529  1.00  0.00     0.127 A  
BRANCH  26  29
HETATM   29  S   UNL     1     -10.012   3.825  64.306  1.00  0.00    -0.206 S  
HETATM   30  O   UNL     1      -9.754   2.503  64.819  1.00  0.00    -0.100 OA 
HETATM   31  O   UNL     1     -10.183   4.068  62.890  1.00  0.00    -0.170 OA 
HETATM   32  N   UNL     1     -11.401   4.392  65.054  1.00  0.00    -0.877 N  
HETATM   33  H1  UNL     1     -12.106   3.747  64.699  1.00  0.00     0.000 HD 
HETATM   34  H2  UNL     1     -11.511   5.176  65.696  1.00  0.00     0.000 HD 
ENDBRANCH  26  29
ENDBRANCH  20  22
ENDBRANCH  15  20
ENDBRANCH   2  14
TORSDOF 5
ENDMDL
MODEL      250
REMARK 921   NORMALIZED FREE ENERGY PREDICTED BY IDOCK:   -4.10 KCAL/MOL
REMARK 922        TOTAL FREE ENERGY PREDICTED BY IDOCK:   -5.76 KCAL/MOL
REMARK 923 INTER-LIGAND FREE ENERGY PREDICTED BY IDOCK:   -4.84 KCAL/MOL
REMARK 924 INTRA-LIGAND FREE ENERGY PREDICTED BY IDOCK:   -0.92 KCAL/MOL
REMARK 927      BINDING AFFINITY PREDICTED BY RF-SCORE:    0.00 PKD
ROOT
HETATM    1  C   UNL     1      -9.127   2.634  66.948  1.00  0.00    -0.139 C  
HETATM    2  N   UNL     1      -8.836   3.730  67.873  1.00  0.00    -0.105 NA 
ENDROOT
BRANCH   2   3
HETATM    3  C   UNL     1      -8.646   5.024  67.305  1.00  0.00    -0.104 A  
HETATM    4  C   UNL     1      -9.751   6.900  65.986  1.00  0.00     0.162 A  
HETATM    5  C   UNL     1      -9.059   9.877  65.157  1.00  0.00    -0.257 C  
HETATM    6  C   UNL     1      -7.434   5.741  67.490  1.00  0.00    -0.078 A  
HETATM    7  C   UNL     1      -7.417   7.035  66.938  1.00  0.00    -0.086 A  
HETATM    8  C   UNL     1      -8.554   7.556  66.231  1.00  0.00    -0.153 A  
HETATM    9  C   UNL     1      -8.256   8.845  65.860  1.00  0.00    -0.119 A  
HETATM   10  N   UNL     1      -6.445   7.961  66.950  1.00  0.00    -0.054 NA 
HETATM   11  N   UNL     1      -6.973   9.033  66.320  1.00  0.00    -0.078 NA 
HETATM   12  C   UNL     1      -6.172  10.230  66.199  1.00  0.00    -0.089 C  
HETATM   13  C   UNL     1      -9.739   5.605  66.554  1.00  0.00    -0.181 A  
ENDBRANCH   2   3
BRANCH   2  14
HETATM   14  C   UNL     1      -8.982   3.473  69.253  1.00  0.00    -0.119 A  
HETATM   15  C   UNL     1      -9.787   4.185  71.318  1.00  0.00    -0.179 A  
HETATM   16  N   UNL     1      -9.247   3.156  71.978  1.00  0.00    -0.106 NA 
HETATM   17  C   UNL     1      -8.596   2.253  71.227  1.00  0.00    -0.062 A  
HETATM   18  C   UNL     1      -8.443   2.357  69.864  1.00  0.00    -0.088 A  
HETATM   19  N   UNL     1      -9.657   4.370  69.996  1.00  0.00    -0.185 NA 
BRANCH  15  20
HETATM   20  N   UNL     1     -10.489   5.122  72.073  1.00  0.00    -0.216 NA 
HETATM   21  H   UNL     1     -10.560   4.928  73.072  1.00  0.00     0.000 HD 
BRANCH  20  22
HETATM   22  C   UNL     1     -11.110   6.299  71.633  1.00  0.00    -0.274 A  
HETATM   23  C   UNL     1     -12.400   6.600  72.076  1.00  0.00    -0.316 A  
HETATM   24  C   UNL     1     -13.014   7.807  71.728  1.00  0.00    -0.351 A  
HETATM   25  C   UNL     1     -12.363   8.752  70.913  1.00  0.00    -0.102 A  
HETATM   26  C   UNL     1     -11.080   8.435  70.433  1.00  0.00    -0.231 A  
HETATM   27  C   UNL     1     -13.079  10.032  70.598  1.00  0.00    -0.220 C  
HETATM   28  C   UNL     1     -10.467   7.225  70.803  1.00  0.00    -0.224 A  
BRANCH  26  29
HETATM   29  S   UNL     1     -10.169   9.473  69.296  1.00  0.00    -0.214 S  
HETATM   30  O   UNL     1     -10.852   9.505  68.027  1.00  0.00    -0.233 OA 
HETATM   31  O   UNL     1      -8.765   9.138  69.393  1.00  0.00    -0.131 OA 
HETATM   32  N   UNL     1     -10.344  10.985  69.998  1.00  0.00    -0.311 N  
HETATM   33  H1  UNL     1      -9.824  11.577  69.350  1.00  0.00     0.000 HD 
HETATM   34  H2  UNL     1     -10.839  11.244  70.851  1.00  0.00     0.000 HD 
ENDBRANCH  26  29
ENDBRANCH  20  22
ENDBRANCH  15  20
ENDBRANCH   2  14
TORSDOF 5
ENDMDL
MODEL      251
REMARK 921   NORMALIZED FREE ENERGY PREDICTED BY IDOCK:   -4.07 KCAL/MOL
REMARK 922        TOTAL FREE ENERGY PREDICTED BY IDOCK:   -5.72 KCAL/MOL
REMARK 923 INTER-LIGAND FREE ENERGY PREDICTED BY IDOCK:   -5.22 KCAL/MOL
REMARK 924 INTRA-LIGAND FREE ENERGY PREDICTED BY IDOCK:   -0.51 KCAL/MOL
REMARK 927      BINDING AFFINITY PREDICTED BY RF-SCORE:    0.00 PKD
ROOT
HETATM    1  C   UNL     1     -10.461   7.368  66.983  1.00  0.00    -0.333 C  
HETATM    2  N   UNL     1      -9.305   7.355  67.879  1.00  0.00    -0.134 NA 
ENDROOT
BRANCH   2   3
HETATM    3  C   UNL     1      -9.288   6.362  68.902  1.00  0.00    -0.130 A  
HETATM    4  C   UNL     1      -8.962   3.886  69.394  1.00  0.00    -0.171 A  
HETATM    5  C   UNL     1      -8.688   2.042  71.954  1.00  0.00    -0.093 C  
HETATM    6  C   UNL     1      -9.447   6.709  70.270  1.00  0.00    -0.166 A  
HETATM    7  C   UNL     1      -9.334   5.636  71.174  1.00  0.00    -0.153 A  
HETATM    8  C   UNL     1      -9.092   4.298  70.711  1.00  0.00    -0.173 A  
HETATM    9  C   UNL     1      -8.982   3.491  71.818  1.00  0.00    -0.105 A  
HETATM   10  N   UNL     1      -9.418   5.630  72.514  1.00  0.00    -0.145 NA 
HETATM   11  N   UNL     1      -9.188   4.348  72.874  1.00  0.00    -0.119 NA 
HETATM   12  C   UNL     1      -9.174   4.016  74.281  1.00  0.00    -0.102 C  
HETATM   13  C   UNL     1      -9.077   4.985  68.511  1.00  0.00    -0.136 A  
ENDBRANCH   2   3
BRANCH   2  14
HETATM   14  C   UNL     1      -8.204   8.169  67.533  1.00  0.00    -0.123 A  
HETATM   15  C   UNL     1      -7.440  10.187  66.662  1.00  0.00    -0.106 A  
HETATM   16  N   UNL     1      -6.156   9.820  66.712  1.00  0.00    -0.062 NA 
HETATM   17  C   UNL     1      -5.913   8.605  67.229  1.00  0.00    -0.051 A  
HETATM   18  C   UNL     1      -6.895   7.745  67.663  1.00  0.00    -0.069 A  
HETATM   19  N   UNL     1      -8.454   9.395  67.039  1.00  0.00    -0.127 NA 
BRANCH  15  20
HETATM   20  N   UNL     1      -7.715  11.454  66.152  1.00  0.00    -0.374 NA 
HETATM   21  H   UNL     1      -6.907  11.999  65.850  1.00  0.00     0.000 HD 
BRANCH  20  22
HETATM   22  C   UNL     1      -8.963  12.075  66.002  1.00  0.00    -0.021 A  
HETATM   23  C   UNL     1      -9.785  11.710  64.934  1.00  0.00    -0.232 A  
HETATM   24  C   UNL     1     -11.071  12.244  64.805  1.00  0.00    -0.356 A  
HETATM   25  C   UNL     1     -11.576  13.171  65.735  1.00  0.00    -0.383 A  
HETATM   26  C   UNL     1     -10.736  13.570  66.789  1.00  0.00    -0.278 A  
HETATM   27  C   UNL     1     -12.972  13.685  65.540  1.00  0.00    -0.325 C  
HETATM   28  C   UNL     1      -9.452  13.015  66.917  1.00  0.00    -0.242 A  
BRANCH  26  29
HETATM   29  S   UNL     1     -11.184  14.824  67.985  1.00  0.00    -0.312 S  
HETATM   30  O   UNL     1     -10.061  15.080  68.852  1.00  0.00    -0.220 OA 
HETATM   31  O   UNL     1     -12.493  14.507  68.514  1.00  0.00    -0.072 OA 
HETATM   32  N   UNL     1     -11.383  16.172  67.009  1.00  0.00     0.099 N  
HETATM   33  H1  UNL     1     -11.637  16.887  67.691  1.00  0.00     0.000 HD 
HETATM   34  H2  UNL     1     -11.277  16.255  65.998  1.00  0.00     0.000 HD 
ENDBRANCH  26  29
ENDBRANCH  20  22
ENDBRANCH  15  20
ENDBRANCH   2  14
TORSDOF 5
ENDMDL
MODEL      252
REMARK 921   NORMALIZED FREE ENERGY PREDICTED BY IDOCK:   -4.06 KCAL/MOL
REMARK 922        TOTAL FREE ENERGY PREDICTED BY IDOCK:   -5.70 KCAL/MOL
REMARK 923 INTER-LIGAND FREE ENERGY PREDICTED BY IDOCK:   -4.93 KCAL/MOL
REMARK 924 INTRA-LIGAND FREE ENERGY PREDICTED BY IDOCK:   -0.78 KCAL/MOL
REMARK 927      BINDING AFFINITY PREDICTED BY RF-SCORE:    0.00 PKD
ROOT
HETATM    1  C   UNL     1     -13.007  12.008  63.329  1.00  0.00    -0.040 C  
HETATM    2  N   UNL     1     -11.818  12.255  64.145  1.00  0.00    -0.391 NA 
ENDROOT
BRANCH   2   3
HETATM    3  C   UNL     1     -10.732  11.342  64.004  1.00  0.00    -0.387 A  
HETATM    4  C   UNL     1      -8.932  10.480  62.425  1.00  0.00    -0.308 A  
HETATM    5  C   UNL     1      -6.404   8.579  62.600  1.00  0.00    -0.088 C  
HETATM    6  C   UNL     1     -10.295  10.541  65.091  1.00  0.00    -0.310 A  
HETATM    7  C   UNL     1      -9.166   9.743  64.827  1.00  0.00    -0.261 A  
HETATM    8  C   UNL     1      -8.537   9.750  63.536  1.00  0.00    -0.204 A  
HETATM    9  C   UNL     1      -7.445   8.919  63.603  1.00  0.00    -0.105 A  
HETATM   10  N   UNL     1      -8.506   8.896  65.634  1.00  0.00    -0.147 NA 
HETATM   11  N   UNL     1      -7.477   8.433  64.890  1.00  0.00    -0.087 NA 
HETATM   12  C   UNL     1      -6.543   7.513  65.496  1.00  0.00    -0.045 C  
HETATM   13  C   UNL     1     -10.065  11.272  62.721  1.00  0.00    -0.138 A  
ENDBRANCH   2   3
BRANCH   2  14
HETATM   14  C   UNL     1     -11.748  13.484  64.837  1.00  0.00    -0.357 A  
HETATM   15  C   UNL     1     -10.449  15.291  65.521  1.00  0.00    -0.374 A  
HETATM   16  N   UNL     1     -11.436  15.835  66.240  1.00  0.00     0.152 NA 
HETATM   17  C   UNL     1     -12.612  15.189  66.207  1.00  0.00     0.933 A  
HETATM   18  C   UNL     1     -12.826  14.019  65.516  1.00  0.00    -0.453 A  
HETATM   19  N   UNL     1     -10.572  14.139  64.845  1.00  0.00    -0.411 NA 
BRANCH  15  20
HETATM   20  N   UNL     1      -9.226  15.957  65.520  1.00  0.00    -0.289 NA 
HETATM   21  H   UNL     1      -9.061  16.586  64.733  1.00  0.00     0.000 HD 
BRANCH  20  22
HETATM   22  C   UNL     1      -8.192  15.872  66.463  1.00  0.00    -0.272 A  
HETATM   23  C   UNL     1      -7.486  17.025  66.810  1.00  0.00    -0.266 A  
HETATM   24  C   UNL     1      -6.510  16.993  67.812  1.00  0.00    -0.157 A  
HETATM   25  C   UNL     1      -6.198  15.802  68.492  1.00  0.00    -0.105 A  
HETATM   26  C   UNL     1      -6.880  14.631  68.118  1.00  0.00    -0.124 A  
HETATM   27  C   UNL     1      -5.153  15.851  69.567  1.00  0.00    -0.107 C  
HETATM   28  C   UNL     1      -7.870  14.679  67.121  1.00  0.00    -0.155 A  
BRANCH  26  29
HETATM   29  S   UNL     1      -6.519  13.018  68.803  1.00  0.00    -0.091 S  
HETATM   30  O   UNL     1      -7.574  12.102  68.451  1.00  0.00    -0.116 OA 
HETATM   31  O   UNL     1      -6.088  13.188  70.174  1.00  0.00    -0.144 OA 
HETATM   32  N   UNL     1      -5.157  12.574  67.932  1.00  0.00    -0.078 N  
HETATM   33  H1  UNL     1      -4.951  11.655  68.323  1.00  0.00     0.000 HD 
HETATM   34  H2  UNL     1      -4.663  13.089  67.203  1.00  0.00     0.000 HD 
ENDBRANCH  26  29
ENDBRANCH  20  22
ENDBRANCH  15  20
ENDBRANCH   2  14
TORSDOF 5
ENDMDL
MODEL      253
REMARK 921   NORMALIZED FREE ENERGY PREDICTED BY IDOCK:   -4.02 KCAL/MOL
REMARK 922        TOTAL FREE ENERGY PREDICTED BY IDOCK:   -5.66 KCAL/MOL
REMARK 923 INTER-LIGAND FREE ENERGY PREDICTED BY IDOCK:   -4.96 KCAL/MOL
REMARK 924 INTRA-LIGAND FREE ENERGY PREDICTED BY IDOCK:   -0.69 KCAL/MOL
REMARK 927      BINDING AFFINITY PREDICTED BY RF-SCORE:    0.00 PKD
ROOT
HETATM    1  C   UNL     1      -8.332  10.222  65.400  1.00  0.00    -0.162 C  
HETATM    2  N   UNL     1      -7.767   9.795  66.680  1.00  0.00    -0.101 NA 
ENDROOT
BRANCH   2   3
HETATM    3  C   UNL     1      -7.914   8.420  67.027  1.00  0.00    -0.100 A  
HETATM    4  C   UNL     1      -9.253   6.753  68.407  1.00  0.00    -0.123 A  
HETATM    5  C   UNL     1      -9.474   3.605  68.676  1.00  0.00    -0.208 C  
HETATM    6  C   UNL     1      -7.114   7.416  66.419  1.00  0.00    -0.074 A  
HETATM    7  C   UNL     1      -7.420   6.097  66.801  1.00  0.00    -0.087 A  
HETATM    8  C   UNL     1      -8.461   5.823  67.753  1.00  0.00    -0.103 A  
HETATM    9  C   UNL     1      -8.555   4.457  67.881  1.00  0.00    -0.102 A  
HETATM   10  N   UNL     1      -6.870   4.938  66.405  1.00  0.00    -0.060 NA 
HETATM   11  N   UNL     1      -7.572   3.978  67.046  1.00  0.00    -0.083 NA 
HETATM   12  C   UNL     1      -7.239   2.594  66.798  1.00  0.00    -0.053 C  
HETATM   13  C   UNL     1      -8.924   8.066  68.001  1.00  0.00    -0.130 A  
ENDBRANCH   2   3
BRANCH   2  14
HETATM   14  C   UNL     1      -6.939  10.711  67.365  1.00  0.00    -0.082 A  
HETATM   15  C   UNL     1      -6.250  12.916  67.648  1.00  0.00    -0.157 A  
HETATM   16  N   UNL     1      -5.308  12.595  68.540  1.00  0.00    -0.056 NA 
HETATM   17  C   UNL     1      -5.227  11.296  68.867  1.00  0.00    -0.040 A  
HETATM   18  C   UNL     1      -6.022  10.315  68.319  1.00  0.00    -0.041 A  
HETATM   19  N   UNL     1      -7.043  12.015  67.050  1.00  0.00    -0.124 NA 
BRANCH  15  20
HETATM   20  N   UNL     1      -6.370  14.263  67.312  1.00  0.00    -0.361 NA 
HETATM   21  H   UNL     1      -5.566  14.678  66.842  1.00  0.00     0.000 HD 
BRANCH  20  22
HETATM   22  C   UNL     1      -7.456  15.119  67.539  1.00  0.00    -0.198 A  
HETATM   23  C   UNL     1      -7.284  16.496  67.395  1.00  0.00    -0.178 A  
HETATM   24  C   UNL     1      -8.368  17.371  67.526  1.00  0.00    -0.212 A  
HETATM   25  C   UNL     1      -9.660  16.898  67.820  1.00  0.00    -0.249 A  
HETATM   26  C   UNL     1      -9.828  15.515  68.004  1.00  0.00    -0.212 A  
HETATM   27  C   UNL     1     -10.775  17.896  67.927  1.00  0.00    -0.328 C  
HETATM   28  C   UNL     1      -8.736  14.644  67.853  1.00  0.00    -0.169 A  
BRANCH  26  29
HETATM   29  S   UNL     1     -11.379  14.768  68.494  1.00  0.00    -0.306 S  
HETATM   30  O   UNL     1     -12.266  14.718  67.359  1.00  0.00    -0.224 OA 
HETATM   31  O   UNL     1     -11.791  15.350  69.753  1.00  0.00    -0.304 OA 
HETATM   32  N   UNL     1     -10.908  13.195  68.834  1.00  0.00    -0.333 N  
HETATM   33  H1  UNL     1     -11.792  12.769  69.113  1.00  0.00     0.000 HD 
HETATM   34  H2  UNL     1      -9.981  12.775  68.776  1.00  0.00     0.000 HD 
ENDBRANCH  26  29
ENDBRANCH  20  22
ENDBRANCH  15  20
ENDBRANCH   2  14
TORSDOF 5
ENDMDL
MODEL      254
REMARK 921   NORMALIZED FREE ENERGY PREDICTED BY IDOCK:   -4.02 KCAL/MOL
REMARK 922        TOTAL FREE ENERGY PREDICTED BY IDOCK:   -5.65 KCAL/MOL
REMARK 923 INTER-LIGAND FREE ENERGY PREDICTED BY IDOCK:   -5.19 KCAL/MOL
REMARK 924 INTRA-LIGAND FREE ENERGY PREDICTED BY IDOCK:   -0.47 KCAL/MOL
REMARK 927      BINDING AFFINITY PREDICTED BY RF-SCORE:    0.00 PKD
ROOT
HETATM    1  C   UNL     1     -10.131   4.501  65.188  1.00  0.00    -0.127 C  
HETATM    2  N   UNL     1      -9.718   4.720  66.575  1.00  0.00    -0.173 NA 
ENDROOT
BRANCH   2   3
HETATM    3  C   UNL     1      -9.942   6.018  67.121  1.00  0.00    -0.156 A  
HETATM    4  C   UNL     1     -10.213   8.488  66.571  1.00  0.00    -0.286 A  
HETATM    5  C   UNL     1     -11.042  11.132  68.103  1.00  0.00    -0.324 C  
HETATM    6  C   UNL     1     -10.186   6.204  68.507  1.00  0.00    -0.221 A  
HETATM    7  C   UNL     1     -10.465   7.528  68.891  1.00  0.00    -0.203 A  
HETATM    8  C   UNL     1     -10.476   8.594  67.928  1.00  0.00    -0.269 A  
HETATM    9  C   UNL     1     -10.826   9.747  68.589  1.00  0.00    -0.188 A  
HETATM   10  N   UNL     1     -10.749   8.030  70.104  1.00  0.00    -0.242 NA 
HETATM   11  N   UNL     1     -10.977   9.345  69.896  1.00  0.00    -0.237 NA 
HETATM   12  C   UNL     1     -11.349  10.170  71.023  1.00  0.00    -0.307 C  
HETATM   13  C   UNL     1      -9.939   7.147  66.215  1.00  0.00     0.032 A  
ENDBRANCH   2   3
BRANCH   2  14
HETATM   14  C   UNL     1      -9.340   3.587  67.328  1.00  0.00    -0.205 A  
HETATM   15  C   UNL     1      -9.188   2.567  69.415  1.00  0.00    -0.125 A  
HETATM   16  N   UNL     1      -8.552   1.494  68.937  1.00  0.00    -0.054 NA 
HETATM   17  C   UNL     1      -8.352   1.471  67.610  1.00  0.00    -0.068 A  
HETATM   18  C   UNL     1      -8.733   2.484  66.760  1.00  0.00    -0.133 A  
HETATM   19  N   UNL     1      -9.566   3.605  68.655  1.00  0.00    -0.137 NA 
BRANCH  15  20
HETATM   20  N   UNL     1      -9.429   2.600  70.787  1.00  0.00    -0.149 NA 
HETATM   21  H   UNL     1      -9.488   1.695  71.252  1.00  0.00     0.000 HD 
BRANCH  20  22
HETATM   22  C   UNL     1      -9.601   3.723  71.609  1.00  0.00    -0.157 A  
HETATM   23  C   UNL     1     -10.628   3.728  72.554  1.00  0.00    -0.107 A  
HETATM   24  C   UNL     1     -10.772   4.793  73.450  1.00  0.00    -0.322 A  
HETATM   25  C   UNL     1      -9.900   5.897  73.422  1.00  0.00    -0.167 A  
HETATM   26  C   UNL     1      -8.889   5.912  72.445  1.00  0.00    -0.134 A  
HETATM   27  C   UNL     1     -10.106   6.992  74.426  1.00  0.00    -0.089 C  
HETATM   28  C   UNL     1      -8.744   4.829  71.561  1.00  0.00    -0.135 A  
BRANCH  26  29
HETATM   29  S   UNL     1      -7.775   7.291  72.202  1.00  0.00    -0.090 S  
HETATM   30  O   UNL     1      -6.553   7.053  72.929  1.00  0.00    -0.064 OA 
HETATM   31  O   UNL     1      -8.523   8.519  72.360  1.00  0.00    -0.263 OA 
HETATM   32  N   UNL     1      -7.420   7.161  70.569  1.00  0.00    -0.086 N  
HETATM   33  H1  UNL     1      -6.785   7.947  70.430  1.00  0.00     0.000 HD 
HETATM   34  H2  UNL     1      -7.754   6.476  69.891  1.00  0.00     0.000 HD 
ENDBRANCH  26  29
ENDBRANCH  20  22
ENDBRANCH  15  20
ENDBRANCH   2  14
TORSDOF 5
ENDMDL
MODEL      255
REMARK 921   NORMALIZED FREE ENERGY PREDICTED BY IDOCK:   -3.99 KCAL/MOL
REMARK 922        TOTAL FREE ENERGY PREDICTED BY IDOCK:   -5.61 KCAL/MOL
REMARK 923 INTER-LIGAND FREE ENERGY PREDICTED BY IDOCK:   -6.67 KCAL/MOL
REMARK 924 INTRA-LIGAND FREE ENERGY PREDICTED BY IDOCK:    1.06 KCAL/MOL
REMARK 927      BINDING AFFINITY PREDICTED BY RF-SCORE:    0.00 PKD
ROOT
HETATM    1  C   UNL     1     -12.056  13.975  68.871  1.00  0.00    -0.316 C  
HETATM    2  N   UNL     1     -11.628  12.811  68.094  1.00  0.00    -0.314 NA 
ENDROOT
BRANCH   2   3
HETATM    3  C   UNL     1     -11.489  11.578  68.796  1.00  0.00    -0.287 A  
HETATM    4  C   UNL     1     -10.276   9.341  68.854  1.00  0.00    -0.217 A  
HETATM    5  C   UNL     1     -10.013   6.892  70.844  1.00  0.00    -0.200 C  
HETATM    6  C   UNL     1     -12.191  11.335  70.006  1.00  0.00    -0.389 A  
HETATM    7  C   UNL     1     -11.899  10.107  70.628  1.00  0.00    -0.342 A  
HETATM    8  C   UNL     1     -10.967   9.182  70.045  1.00  0.00    -0.240 A  
HETATM    9  C   UNL     1     -10.856   8.112  70.900  1.00  0.00    -0.230 A  
HETATM   10  N   UNL     1     -12.374   9.590  71.773  1.00  0.00    -0.382 NA 
HETATM   11  N   UNL     1     -11.727   8.413  71.922  1.00  0.00    -0.310 NA 
HETATM   12  C   UNL     1     -11.996   7.618  73.098  1.00  0.00     0.464 C  
HETATM   13  C   UNL     1     -10.588  10.583  68.255  1.00  0.00    -0.240 A  
ENDBRANCH   2   3
BRANCH   2  14
HETATM   14  C   UNL     1     -11.599  12.941  66.688  1.00  0.00    -0.372 A  
HETATM   15  C   UNL     1     -10.918  12.070  64.640  1.00  0.00    -0.317 A  
HETATM   16  N   UNL     1     -11.371  13.120  63.948  1.00  0.00    -0.397 NA 
HETATM   17  C   UNL     1     -11.987  14.074  64.663  1.00  0.00    -0.430 A  
HETATM   18  C   UNL     1     -12.138  14.031  66.031  1.00  0.00    -0.461 A  
HETATM   19  N   UNL     1     -11.002  11.969  65.975  1.00  0.00    -0.293 NA 
BRANCH  15  20
HETATM   20  N   UNL     1     -10.296  11.055  63.916  1.00  0.00    -0.365 NA 
HETATM   21  H   UNL     1     -10.677  10.872  62.987  1.00  0.00     0.000 HD 
BRANCH  20  22
HETATM   22  C   UNL     1      -9.213  10.253  64.302  1.00  0.00    -0.257 A  
HETATM   23  C   UNL     1      -8.923   9.098  63.575  1.00  0.00     0.022 A  
HETATM   24  C   UNL     1      -7.798   8.325  63.877  1.00  0.00    -0.147 A  
HETATM   25  C   UNL     1      -6.930   8.673  64.929  1.00  0.00    -0.073 A  
HETATM   26  C   UNL     1      -7.242   9.815  65.689  1.00  0.00    -0.106 A  
HETATM   27  C   UNL     1      -5.734   7.805  65.182  1.00  0.00    -0.037 C  
HETATM   28  C   UNL     1      -8.366  10.593  65.364  1.00  0.00    -0.142 A  
BRANCH  26  29
HETATM   29  S   UNL     1      -6.309  10.326  67.127  1.00  0.00    -0.068 S  
HETATM   30  O   UNL     1      -7.132  10.196  68.302  1.00  0.00    -0.074 OA 
HETATM   31  O   UNL     1      -5.625  11.563  66.814  1.00  0.00    -0.113 OA 
HETATM   32  N   UNL     1      -5.127   9.141  67.207  1.00  0.00    -0.036 N  
HETATM   33  H1  UNL     1      -4.595   9.432  68.027  1.00  0.00     0.000 HD 
HETATM   34  H2  UNL     1      -4.978   8.338  66.596  1.00  0.00     0.000 HD 
ENDBRANCH  26  29
ENDBRANCH  20  22
ENDBRANCH  15  20
ENDBRANCH   2  14
TORSDOF 5
ENDMDL
MODEL      256
REMARK 921   NORMALIZED FREE ENERGY PREDICTED BY IDOCK:   -3.96 KCAL/MOL
REMARK 922        TOTAL FREE ENERGY PREDICTED BY IDOCK:   -5.58 KCAL/MOL
REMARK 923 INTER-LIGAND FREE ENERGY PREDICTED BY IDOCK:   -5.52 KCAL/MOL
REMARK 924 INTRA-LIGAND FREE ENERGY PREDICTED BY IDOCK:   -0.06 KCAL/MOL
REMARK 927      BINDING AFFINITY PREDICTED BY RF-SCORE:    0.00 PKD
ROOT
HETATM    1  C   UNL     1      -6.062  13.551  69.616  1.00  0.00    -0.121 C  
HETATM    2  N   UNL     1      -6.980  12.662  68.904  1.00  0.00    -0.097 NA 
ENDROOT
BRANCH   2   3
HETATM    3  C   UNL     1      -8.013  13.277  68.137  1.00  0.00    -0.150 A  
HETATM    4  C   UNL     1      -8.610  15.269  66.670  1.00  0.00    -0.305 A  
HETATM    5  C   UNL     1     -11.023  16.150  64.818  1.00  0.00    -0.330 C  
HETATM    6  C   UNL     1      -9.273  12.647  67.957  1.00  0.00    -0.208 A  
HETATM    7  C   UNL     1     -10.167  13.333  67.114  1.00  0.00    -0.246 A  
HETATM    8  C   UNL     1      -9.805  14.585  66.510  1.00  0.00    -0.297 A  
HETATM    9  C   UNL     1     -10.853  14.978  65.712  1.00  0.00    -0.350 A  
HETATM   10  N   UNL     1     -11.412  13.005  66.734  1.00  0.00    -0.327 NA 
HETATM   11  N   UNL     1     -11.792  13.988  65.888  1.00  0.00    -0.367 NA 
HETATM   12  C   UNL     1     -13.095  13.904  65.268  1.00  0.00    -0.158 C  
HETATM   13  C   UNL     1      -7.733  14.555  67.519  1.00  0.00    -0.208 A  
ENDBRANCH   2   3
BRANCH   2  14
HETATM   14  C   UNL     1      -6.649  11.291  68.850  1.00  0.00    -0.068 A  
HETATM   15  C   UNL     1      -7.386   9.085  68.763  1.00  0.00    -0.076 A  
HETATM   16  N   UNL     1      -6.153   8.580  68.852  1.00  0.00    -0.043 NA 
HETATM   17  C   UNL     1      -5.154   9.476  68.899  1.00  0.00    -0.037 A  
HETATM   18  C   UNL     1      -5.344  10.839  68.891  1.00  0.00    -0.041 A  
HETATM   19  N   UNL     1      -7.654  10.399  68.778  1.00  0.00    -0.090 NA 
BRANCH  15  20
HETATM   20  N   UNL     1      -8.438   8.174  68.688  1.00  0.00    -0.126 NA 
HETATM   21  H   UNL     1      -8.797   7.983  67.752  1.00  0.00     0.000 HD 
BRANCH  20  22
HETATM   22  C   UNL     1      -9.066   7.487  69.737  1.00  0.00    -0.140 A  
HETATM   23  C   UNL     1     -10.259   7.984  70.263  1.00  0.00    -0.200 A  
HETATM   24  C   UNL     1     -10.958   7.277  71.247  1.00  0.00    -0.264 A  
HETATM   25  C   UNL     1     -10.478   6.053  71.749  1.00  0.00    -0.268 A  
HETATM   26  C   UNL     1      -9.256   5.570  71.249  1.00  0.00    -0.146 A  
HETATM   27  C   UNL     1     -11.292   5.344  72.790  1.00  0.00    -0.358 C  
HETATM   28  C   UNL     1      -8.572   6.281  70.248  1.00  0.00    -0.138 A  
BRANCH  26  29
HETATM   29  S   UNL     1      -8.455   4.093  71.864  1.00  0.00    -0.106 S  
HETATM   30  O   UNL     1      -8.515   4.080  73.304  1.00  0.00    -0.088 OA 
HETATM   31  O   UNL     1      -7.205   3.921  71.157  1.00  0.00    -0.032 OA 
HETATM   32  N   UNL     1      -9.481   2.890  71.308  1.00  0.00    -0.140 N  
HETATM   33  H1  UNL     1      -9.025   2.048  71.658  1.00  0.00     0.000 HD 
HETATM   34  H2  UNL     1     -10.338   2.977  70.761  1.00  0.00     0.000 HD 
ENDBRANCH  26  29
ENDBRANCH  20  22
ENDBRANCH  15  20
ENDBRANCH   2  14
TORSDOF 5
ENDMDL
MODEL      257
REMARK 921   NORMALIZED FREE ENERGY PREDICTED BY IDOCK:   -3.86 KCAL/MOL
REMARK 922        TOTAL FREE ENERGY PREDICTED BY IDOCK:   -5.45 KCAL/MOL
REMARK 923 INTER-LIGAND FREE ENERGY PREDICTED BY IDOCK:   -5.06 KCAL/MOL
REMARK 924 INTRA-LIGAND FREE ENERGY PREDICTED BY IDOCK:   -0.39 KCAL/MOL
REMARK 927      BINDING AFFINITY PREDICTED BY RF-SCORE:    0.00 PKD
ROOT
HETATM    1  C   UNL     1      -6.210   9.127  64.638  1.00  0.00    -0.070 C  
HETATM    2  N   UNL     1      -7.137   8.240  65.341  1.00  0.00    -0.066 NA 
ENDROOT
BRANCH   2   3
HETATM    3  C   UNL     1      -7.355   6.950  64.774  1.00  0.00    -0.088 A  
HETATM    4  C   UNL     1      -6.325   5.091  63.374  1.00  0.00    -0.026 A  
HETATM    5  C   UNL     1      -7.054   2.118  62.561  1.00  0.00    -0.031 C  
HETATM    6  C   UNL     1      -8.552   6.227  65.023  1.00  0.00     0.010 A  
HETATM    7  C   UNL     1      -8.597   4.938  64.461  1.00  0.00    -0.146 A  
HETATM    8  C   UNL     1      -7.502   4.428  63.683  1.00  0.00    -0.055 A  
HETATM    9  C   UNL     1      -7.817   3.141  63.319  1.00  0.00    -0.069 A  
HETATM   10  N   UNL     1      -9.563   4.007  64.523  1.00  0.00    -0.164 NA 
HETATM   11  N   UNL     1      -9.070   2.943  63.852  1.00  0.00    -0.101 NA 
HETATM   12  C   UNL     1      -9.872   1.744  63.768  1.00  0.00    -0.130 C  
HETATM   13  C   UNL     1      -6.307   6.380  63.953  1.00  0.00    -0.030 A  
ENDBRANCH   2   3
BRANCH   2  14
HETATM   14  C   UNL     1      -7.569   8.635  66.625  1.00  0.00    -0.089 A  
HETATM   15  C   UNL     1      -9.262   9.528  67.949  1.00  0.00    -0.125 A  
HETATM   16  N   UNL     1      -8.507   9.547  69.050  1.00  0.00    -0.123 NA 
HETATM   17  C   UNL     1      -7.266   9.053  68.920  1.00  0.00    -0.073 A  
HETATM   18  C   UNL     1      -6.750   8.576  67.737  1.00  0.00    -0.066 A  
HETATM   19  N   UNL     1      -8.823   9.106  66.754  1.00  0.00    -0.126 NA 
BRANCH  15  20
HETATM   20  N   UNL     1     -10.564  10.013  68.066  1.00  0.00    -0.219 NA 
HETATM   21  H   UNL     1     -11.282   9.490  67.565  1.00  0.00     0.000 HD 
BRANCH  20  22
HETATM   22  C   UNL     1     -11.010  11.130  68.786  1.00  0.00    -0.219 A  
HETATM   23  C   UNL     1     -11.735  10.940  69.964  1.00  0.00    -0.427 A  
HETATM   24  C   UNL     1     -12.118  12.029  70.753  1.00  0.00    -0.297 A  
HETATM   25  C   UNL     1     -11.799  13.349  70.385  1.00  0.00    -0.283 A  
HETATM   26  C   UNL     1     -11.104  13.546  69.179  1.00  0.00    -0.225 A  
HETATM   27  C   UNL     1     -12.228  14.463  71.292  1.00  0.00    -0.429 C  
HETATM   28  C   UNL     1     -10.710  12.443  68.403  1.00  0.00    -0.254 A  
BRANCH  26  29
HETATM   29  S   UNL     1     -10.726  15.163  68.512  1.00  0.00    -0.248 S  
HETATM   30  O   UNL     1      -9.336  15.463  68.746  1.00  0.00    -0.188 OA 
HETATM   31  O   UNL     1     -11.775  16.078  68.906  1.00  0.00    -0.381 OA 
HETATM   32  N   UNL     1     -10.915  14.907  66.867  1.00  0.00    -0.321 N  
HETATM   33  H1  UNL     1     -10.700  15.829  66.486  1.00  0.00     0.000 HD 
HETATM   34  H2  UNL     1     -11.177  14.053  66.374  1.00  0.00     0.000 HD 
ENDBRANCH  26  29
ENDBRANCH  20  22
ENDBRANCH  15  20
ENDBRANCH   2  14
TORSDOF 5
ENDMDL
MODEL      258
REMARK 921   NORMALIZED FREE ENERGY PREDICTED BY IDOCK:   -3.83 KCAL/MOL
REMARK 922        TOTAL FREE ENERGY PREDICTED BY IDOCK:   -5.41 KCAL/MOL
REMARK 923 INTER-LIGAND FREE ENERGY PREDICTED BY IDOCK:   -5.25 KCAL/MOL
REMARK 924 INTRA-LIGAND FREE ENERGY PREDICTED BY IDOCK:   -0.16 KCAL/MOL
REMARK 927      BINDING AFFINITY PREDICTED BY RF-SCORE:    0.00 PKD
ROOT
HETATM    1  C   UNL     1     -11.843  16.251  67.217  1.00  0.00     0.832 C  
HETATM    2  N   UNL     1     -10.789  15.240  67.132  1.00  0.00    -0.318 NA 
ENDROOT
BRANCH   2   3
HETATM    3  C   UNL     1      -9.592  15.487  67.867  1.00  0.00    -0.206 A  
HETATM    4  C   UNL     1      -7.916  17.266  68.575  1.00  0.00    -0.261 A  
HETATM    5  C   UNL     1      -5.453  17.481  70.555  1.00  0.00    -0.232 C  
HETATM    6  C   UNL     1      -8.962  14.460  68.618  1.00  0.00    -0.172 A  
HETATM    7  C   UNL     1      -7.833  14.867  69.353  1.00  0.00    -0.139 A  
HETATM    8  C   UNL     1      -7.370  16.226  69.311  1.00  0.00    -0.221 A  
HETATM    9  C   UNL     1      -6.295  16.323  70.162  1.00  0.00     0.044 A  
HETATM   10  N   UNL     1      -7.033  14.154  70.163  1.00  0.00     0.114 NA 
HETATM   11  N   UNL     1      -6.139  15.044  70.645  1.00  0.00    -0.085 NA 
HETATM   12  C   UNL     1      -5.146  14.586  71.590  1.00  0.00    -0.158 C  
HETATM   13  C   UNL     1      -9.048  16.828  67.850  1.00  0.00    -0.224 A  
ENDBRANCH   2   3
BRANCH   2  14
HETATM   14  C   UNL     1     -11.114  14.011  66.518  1.00  0.00    -0.314 A  
HETATM   15  C   UNL     1     -10.728  11.721  66.364  1.00  0.00    -0.266 A  
HETATM   16  N   UNL     1     -11.566  11.564  65.335  1.00  0.00    -0.098 NA 
HETATM   17  C   UNL     1     -12.215  12.668  64.932  1.00  0.00    -0.471 A  
HETATM   18  C   UNL     1     -12.034  13.912  65.493  1.00  0.00    -0.397 A  
HETATM   19  N   UNL     1     -10.479  12.904  66.944  1.00  0.00    -0.245 NA 
BRANCH  15  20
HETATM   20  N   UNL     1     -10.062  10.583  66.816  1.00  0.00    -0.211 NA 
HETATM   21  H   UNL     1      -9.643   9.996  66.096  1.00  0.00     0.000 HD 
BRANCH  20  22
HETATM   22  C   UNL     1      -9.897  10.145  68.137  1.00  0.00    -0.144 A  
HETATM   23  C   UNL     1     -11.020   9.792  68.887  1.00  0.00    -0.183 A  
HETATM   24  C   UNL     1     -10.884   9.266  70.176  1.00  0.00    -0.275 A  
HETATM   25  C   UNL     1      -9.619   9.088  70.766  1.00  0.00    -0.308 A  
HETATM   26  C   UNL     1      -8.488   9.479  70.028  1.00  0.00    -0.195 A  
HETATM   27  C   UNL     1      -9.554   8.501  72.144  1.00  0.00    -0.382 C  
HETATM   28  C   UNL     1      -8.636   9.991  68.727  1.00  0.00    -0.131 A  
BRANCH  26  29
HETATM   29  S   UNL     1      -6.822   9.426  70.677  1.00  0.00    -0.110 S  
HETATM   30  O   UNL     1      -6.019   8.548  69.863  1.00  0.00    -0.028 OA 
HETATM   31  O   UNL     1      -6.894   9.272  72.114  1.00  0.00    -0.308 OA 
HETATM   32  N   UNL     1      -6.295  10.992  70.396  1.00  0.00    -0.158 N  
HETATM   33  H1  UNL     1      -5.345  10.962  70.765  1.00  0.00     0.000 HD 
HETATM   34  H2  UNL     1      -6.794  11.772  69.967  1.00  0.00     0.000 HD 
ENDBRANCH  26  29
ENDBRANCH  20  22
ENDBRANCH  15  20
ENDBRANCH   2  14
TORSDOF 5
ENDMDL
MODEL      259
REMARK 921   NORMALIZED FREE ENERGY PREDICTED BY IDOCK:   -3.79 KCAL/MOL
REMARK 922        TOTAL FREE ENERGY PREDICTED BY IDOCK:   -5.36 KCAL/MOL
REMARK 923 INTER-LIGAND FREE ENERGY PREDICTED BY IDOCK:   -5.31 KCAL/MOL
REMARK 924 INTRA-LIGAND FREE ENERGY PREDICTED BY IDOCK:   -0.06 KCAL/MOL
REMARK 927      BINDING AFFINITY PREDICTED BY RF-SCORE:    0.00 PKD
ROOT
HETATM    1  C   UNL     1      -6.731  10.723  67.074  1.00  0.00    -0.090 C  
HETATM    2  N   UNL     1      -8.194  10.777  67.064  1.00  0.00    -0.123 NA 
ENDROOT
BRANCH   2   3
HETATM    3  C   UNL     1      -8.795  11.969  66.563  1.00  0.00    -0.172 A  
HETATM    4  C   UNL     1     -10.445  12.915  64.872  1.00  0.00    -0.351 A  
HETATM    5  C   UNL     1     -11.794  15.713  64.256  1.00  0.00    -0.151 C  
HETATM    6  C   UNL     1      -8.530  13.234  67.152  1.00  0.00    -0.182 A  
HETATM    7  C   UNL     1      -9.251  14.310  66.603  1.00  0.00    -0.255 A  
HETATM    8  C   UNL     1     -10.167  14.111  65.514  1.00  0.00    -0.371 A  
HETATM    9  C   UNL     1     -10.748  15.325  65.236  1.00  0.00    -0.415 A  
HETATM   10  N   UNL     1      -9.242  15.610  66.938  1.00  0.00    -0.223 NA 
HETATM   11  N   UNL     1     -10.152  16.189  66.124  1.00  0.00    -0.317 NA 
HETATM   12  C   UNL     1     -10.405  17.605  66.265  1.00  0.00    -0.342 C  
HETATM   13  C   UNL     1      -9.709  11.853  65.447  1.00  0.00    -0.228 A  
ENDBRANCH   2   3
BRANCH   2  14
HETATM   14  C   UNL     1      -8.891   9.581  67.339  1.00  0.00    -0.128 A  
HETATM   15  C   UNL     1      -8.842   7.426  68.217  1.00  0.00    -0.128 A  
HETATM   16  N   UNL     1     -10.094   7.153  67.840  1.00  0.00    -0.164 NA 
HETATM   17  C   UNL     1     -10.756   8.151  67.233  1.00  0.00    -0.193 A  
HETATM   18  C   UNL     1     -10.207   9.385  66.968  1.00  0.00    -0.322 A  
HETATM   19  N   UNL     1      -8.229   8.594  67.970  1.00  0.00    -0.115 NA 
BRANCH  15  20
HETATM   20  N   UNL     1      -8.143   6.413  68.871  1.00  0.00    -0.110 NA 
HETATM   21  H   UNL     1      -7.755   5.682  68.275  1.00  0.00     0.000 HD 
BRANCH  20  22
HETATM   22  C   UNL     1      -7.907   6.272  70.246  1.00  0.00    -0.103 A  
HETATM   23  C   UNL     1      -7.463   7.373  70.981  1.00  0.00    -0.074 A  
HETATM   24  C   UNL     1      -7.304   7.291  72.368  1.00  0.00    -0.075 A  
HETATM   25  C   UNL     1      -7.571   6.100  73.067  1.00  0.00    -0.097 A  
HETATM   26  C   UNL     1      -7.981   4.979  72.325  1.00  0.00    -0.108 A  
HETATM   27  C   UNL     1      -7.395   6.095  74.557  1.00  0.00    -0.093 C  
HETATM   28  C   UNL     1      -8.153   5.078  70.934  1.00  0.00    -0.096 A  
BRANCH  26  29
HETATM   29  S   UNL     1      -8.248   3.363  73.046  1.00  0.00    -0.082 S  
HETATM   30  O   UNL     1      -9.538   3.334  73.688  1.00  0.00    -0.104 OA 
HETATM   31  O   UNL     1      -7.045   2.969  73.746  1.00  0.00    -0.035 OA 
HETATM   32  N   UNL     1      -8.343   2.392  71.684  1.00  0.00    -0.058 N  
HETATM   33  H1  UNL     1      -8.495   1.471  72.095  1.00  0.00     0.000 HD 
HETATM   34  H2  UNL     1      -8.267   2.653  70.701  1.00  0.00     0.000 HD 
ENDBRANCH  26  29
ENDBRANCH  20  22
ENDBRANCH  15  20
ENDBRANCH   2  14
TORSDOF 5
ENDMDL
MODEL      260
REMARK 921   NORMALIZED FREE ENERGY PREDICTED BY IDOCK:   -3.74 KCAL/MOL
REMARK 922        TOTAL FREE ENERGY PREDICTED BY IDOCK:   -5.30 KCAL/MOL
REMARK 923 INTER-LIGAND FREE ENERGY PREDICTED BY IDOCK:   -5.34 KCAL/MOL
REMARK 924 INTRA-LIGAND FREE ENERGY PREDICTED BY IDOCK:    0.04 KCAL/MOL
REMARK 927      BINDING AFFINITY PREDICTED BY RF-SCORE:    0.00 PKD
ROOT
HETATM    1  C   UNL     1     -12.393  16.384  67.848  1.00  0.00     1.608 C  
HETATM    2  N   UNL     1     -11.325  15.507  67.367  1.00  0.00    -0.261 NA 
ENDROOT
BRANCH   2   3
HETATM    3  C   UNL     1     -10.017  15.731  67.888  1.00  0.00    -0.227 A  
HETATM    4  C   UNL     1      -8.129  17.423  68.112  1.00  0.00    -0.232 A  
HETATM    5  C   UNL     1      -5.388  17.651  69.682  1.00  0.00    -0.198 C  
HETATM    6  C   UNL     1      -9.357  14.750  68.674  1.00  0.00    -0.198 A  
HETATM    7  C   UNL     1      -8.105  15.138  69.184  1.00  0.00    -0.214 A  
HETATM    8  C   UNL     1      -7.555  16.434  68.896  1.00  0.00    -0.220 A  
HETATM    9  C   UNL     1      -6.361  16.535  69.568  1.00  0.00    -0.214 A  
HETATM   10  N   UNL     1      -7.246  14.459  69.962  1.00  0.00     0.084 NA 
HETATM   11  N   UNL     1      -6.227  15.316  70.191  1.00  0.00    -0.151 NA 
HETATM   12  C   UNL     1      -5.139  14.888  71.041  1.00  0.00    -0.137 C  
HETATM   13  C   UNL     1      -9.385  17.005  67.617  1.00  0.00    -0.241 A  
ENDBRANCH   2   3
BRANCH   2  14
HETATM   14  C   UNL     1     -11.702  14.380  66.604  1.00  0.00    -0.394 A  
HETATM   15  C   UNL     1     -11.277  12.171  66.006  1.00  0.00    -0.336 A  
HETATM   16  N   UNL     1     -12.255  12.141  65.095  1.00  0.00    -0.451 NA 
HETATM   17  C   UNL     1     -12.988  13.260  64.984  1.00  0.00    -0.157 A  
HETATM   18  C   UNL     1     -12.762  14.402  65.718  1.00  0.00    -0.267 A  
HETATM   19  N   UNL     1     -10.978  13.254  66.739  1.00  0.00    -0.284 NA 
BRANCH  15  20
HETATM   20  N   UNL     1     -10.519  11.012  66.157  1.00  0.00    -0.251 NA 
HETATM   21  H   UNL     1     -10.158  10.599  65.297  1.00  0.00     0.000 HD 
BRANCH  20  22
HETATM   22  C   UNL     1     -10.189  10.342  67.344  1.00  0.00    -0.218 A  
HETATM   23  C   UNL     1      -9.016   9.587  67.400  1.00  0.00    -0.141 A  
HETATM   24  C   UNL     1      -8.612   8.980  68.594  1.00  0.00    -0.129 A  
HETATM   25  C   UNL     1      -9.375   9.095  69.770  1.00  0.00    -0.190 A  
HETATM   26  C   UNL     1     -10.577   9.822  69.706  1.00  0.00    -0.257 A  
HETATM   27  C   UNL     1      -8.868   8.431  71.015  1.00  0.00    -0.193 C  
HETATM   28  C   UNL     1     -10.964  10.442  68.505  1.00  0.00    -0.302 A  
BRANCH  26  29
HETATM   29  S   UNL     1     -11.716   9.965  71.078  1.00  0.00    -0.406 S  
HETATM   30  O   UNL     1     -12.126  11.340  71.218  1.00  0.00    -0.234 OA 
HETATM   31  O   UNL     1     -11.185   9.215  72.196  1.00  0.00    -0.326 OA 
HETATM   32  N   UNL     1     -13.039   9.102  70.517  1.00  0.00    -0.202 N  
HETATM   33  H1  UNL     1     -13.688   9.184  71.299  1.00  0.00     0.000 HD 
HETATM   34  H2  UNL     1     -13.162   8.620  69.626  1.00  0.00     0.000 HD 
ENDBRANCH  26  29
ENDBRANCH  20  22
ENDBRANCH  15  20
ENDBRANCH   2  14
TORSDOF 5
ENDMDL
MODEL      261
REMARK 921   NORMALIZED FREE ENERGY PREDICTED BY IDOCK:   -3.72 KCAL/MOL
REMARK 922        TOTAL FREE ENERGY PREDICTED BY IDOCK:   -5.28 KCAL/MOL
REMARK 923 INTER-LIGAND FREE ENERGY PREDICTED BY IDOCK:   -4.04 KCAL/MOL
REMARK 924 INTRA-LIGAND FREE ENERGY PREDICTED BY IDOCK:   -1.24 KCAL/MOL
REMARK 927      BINDING AFFINITY PREDICTED BY RF-SCORE:    0.00 PKD
ROOT
HETATM    1  C   UNL     1     -10.122  15.589  70.202  1.00  0.00    -0.144 C  
HETATM    2  N   UNL     1      -9.412  15.048  69.043  1.00  0.00    -0.210 NA 
ENDROOT
BRANCH   2   3
HETATM    3  C   UNL     1     -10.189  14.764  67.881  1.00  0.00    -0.229 A  
HETATM    4  C   UNL     1     -10.982  15.664  65.637  1.00  0.00    -0.276 A  
HETATM    5  C   UNL     1     -12.512  14.552  63.097  1.00  0.00     1.360 C  
HETATM    6  C   UNL     1     -10.803  13.497  67.697  1.00  0.00    -0.273 A  
HETATM    7  C   UNL     1     -11.474  13.334  66.471  1.00  0.00    -0.337 A  
HETATM    8  C   UNL     1     -11.529  14.397  65.506  1.00  0.00    -0.340 A  
HETATM    9  C   UNL     1     -12.200  13.923  64.405  1.00  0.00    -0.413 A  
HETATM   10  N   UNL     1     -12.135  12.269  65.989  1.00  0.00    -0.630 NA 
HETATM   11  N   UNL     1     -12.542  12.637  64.754  1.00  0.00    -0.630 NA 
HETATM   12  C   UNL     1     -13.263  11.679  63.947  1.00  0.00     0.479 C  
HETATM   13  C   UNL     1     -10.314  15.797  66.876  1.00  0.00    -0.295 A  
ENDBRANCH   2   3
BRANCH   2  14
HETATM   14  C   UNL     1      -8.001  15.057  69.082  1.00  0.00    -0.195 A  
HETATM   15  C   UNL     1      -6.014  13.869  68.839  1.00  0.00    -0.084 A  
HETATM   16  N   UNL     1      -5.254  14.898  69.226  1.00  0.00    -0.090 NA 
HETATM   17  C   UNL     1      -5.905  16.038  69.503  1.00  0.00    -0.140 A  
HETATM   18  C   UNL     1      -7.273  16.176  69.439  1.00  0.00    -0.204 A  
HETATM   19  N   UNL     1      -7.353  13.917  68.778  1.00  0.00    -0.119 NA 
BRANCH  15  20
HETATM   20  N   UNL     1      -5.357  12.682  68.521  1.00  0.00    -0.056 NA 
HETATM   21  H   UNL     1      -4.341  12.738  68.456  1.00  0.00     0.000 HD 
BRANCH  20  22
HETATM   22  C   UNL     1      -5.918  11.420  68.279  1.00  0.00    -0.045 A  
HETATM   23  C   UNL     1      -6.115  10.542  69.346  1.00  0.00    -0.045 A  
HETATM   24  C   UNL     1      -6.753   9.313  69.154  1.00  0.00    -0.050 A  
HETATM   25  C   UNL     1      -7.206   8.913  67.884  1.00  0.00    -0.083 A  
HETATM   26  C   UNL     1      -6.975   9.778  66.800  1.00  0.00    -0.085 A  
HETATM   27  C   UNL     1      -7.898   7.588  67.760  1.00  0.00    -0.117 C  
HETATM   28  C   UNL     1      -6.347  11.018  67.008  1.00  0.00    -0.088 A  
BRANCH  26  29
HETATM   29  S   UNL     1      -7.384   9.368  65.107  1.00  0.00    -0.108 S  
HETATM   30  O   UNL     1      -8.812   9.446  64.927  1.00  0.00    -0.182 OA 
HETATM   31  O   UNL     1      -6.636   8.189  64.727  1.00  0.00    -0.058 OA 
HETATM   32  N   UNL     1      -6.702  10.650  64.270  1.00  0.00    -0.353 N  
HETATM   33  H1  UNL     1      -6.935  10.417  63.305  1.00  0.00     0.000 HD 
HETATM   34  H2  UNL     1      -6.188  11.454  64.631  1.00  0.00     0.000 HD 
ENDBRANCH  26  29
ENDBRANCH  20  22
ENDBRANCH  15  20
ENDBRANCH   2  14
TORSDOF 5
ENDMDL
MODEL      262
REMARK 921   NORMALIZED FREE ENERGY PREDICTED BY IDOCK:   -3.65 KCAL/MOL
REMARK 922        TOTAL FREE ENERGY PREDICTED BY IDOCK:   -5.18 KCAL/MOL
REMARK 923 INTER-LIGAND FREE ENERGY PREDICTED BY IDOCK:   -4.50 KCAL/MOL
REMARK 924 INTRA-LIGAND FREE ENERGY PREDICTED BY IDOCK:   -0.68 KCAL/MOL
REMARK 927      BINDING AFFINITY PREDICTED BY RF-SCORE:    0.00 PKD
ROOT
HETATM    1  C   UNL     1     -10.303  16.048  69.933  1.00  0.00    -0.249 C  
HETATM    2  N   UNL     1      -9.592  15.228  68.951  1.00  0.00    -0.209 NA 
ENDROOT
BRANCH   2   3
HETATM    3  C   UNL     1     -10.298  14.883  67.761  1.00  0.00    -0.244 A  
HETATM    4  C   UNL     1     -10.939  15.660  65.424  1.00  0.00    -0.342 A  
HETATM    5  C   UNL     1     -12.321  14.416  62.860  1.00  0.00     1.761 C  
HETATM    6  C   UNL     1     -10.914  13.613  67.610  1.00  0.00    -0.283 A  
HETATM    7  C   UNL     1     -11.509  13.385  66.356  1.00  0.00    -0.329 A  
HETATM    8  C   UNL     1     -11.491  14.391  65.331  1.00  0.00    -0.344 A  
HETATM    9  C   UNL     1     -12.098  13.860  64.218  1.00  0.00    -0.440 A  
HETATM   10  N   UNL     1     -12.151  12.299  65.894  1.00  0.00    -0.620 NA 
HETATM   11  N   UNL     1     -12.476  12.599  64.618  1.00  0.00    -0.553 NA 
HETATM   12  C   UNL     1     -13.156  11.602  63.823  1.00  0.00     0.235 C  
HETATM   13  C   UNL     1     -10.348  15.858  66.692  1.00  0.00    -0.302 A  
ENDBRANCH   2   3
BRANCH   2  14
HETATM   14  C   UNL     1      -8.209  15.028  69.150  1.00  0.00    -0.188 A  
HETATM   15  C   UNL     1      -6.421  13.539  69.218  1.00  0.00    -0.111 A  
HETATM   16  N   UNL     1      -5.550  14.472  69.615  1.00  0.00    -0.093 NA 
HETATM   17  C   UNL     1      -6.038  15.717  69.737  1.00  0.00    -0.160 A  
HETATM   18  C   UNL     1      -7.353  16.052  69.508  1.00  0.00    -0.146 A  
HETATM   19  N   UNL     1      -7.722  13.782  69.002  1.00  0.00    -0.012 NA 
BRANCH  15  20
HETATM   20  N   UNL     1      -5.932  12.244  69.060  1.00  0.00    -0.065 NA 
HETATM   21  H   UNL     1      -4.965  12.094  69.350  1.00  0.00     0.000 HD 
BRANCH  20  22
HETATM   22  C   UNL     1      -6.601  11.122  68.552  1.00  0.00    -0.060 A  
HETATM   23  C   UNL     1      -6.032  10.404  67.499  1.00  0.00    -0.052 A  
HETATM   24  C   UNL     1      -6.627   9.229  67.028  1.00  0.00    -0.068 A  
HETATM   25  C   UNL     1      -7.821   8.738  67.588  1.00  0.00    -0.102 A  
HETATM   26  C   UNL     1      -8.417   9.479  68.623  1.00  0.00    -0.119 A  
HETATM   27  C   UNL     1      -8.389   7.462  67.043  1.00  0.00    -0.121 C  
HETATM   28  C   UNL     1      -7.801  10.650  69.098  1.00  0.00    -0.142 A  
BRANCH  26  29
HETATM   29  S   UNL     1      -9.991   9.054  69.360  1.00  0.00    -0.198 S  
HETATM   30  O   UNL     1     -10.409  10.115  70.242  1.00  0.00    -0.267 OA 
HETATM   31  O   UNL     1      -9.932   7.678  69.805  1.00  0.00    -0.180 OA 
HETATM   32  N   UNL     1     -11.009   9.076  68.029  1.00  0.00    -0.492 N  
HETATM   33  H1  UNL     1     -11.906   8.834  68.449  1.00  0.00     0.000 HD 
HETATM   34  H2  UNL     1     -10.789   9.279  67.054  1.00  0.00     0.000 HD 
ENDBRANCH  26  29
ENDBRANCH  20  22
ENDBRANCH  15  20
ENDBRANCH   2  14
TORSDOF 5
ENDMDL
MODEL      263
REMARK 921   NORMALIZED FREE ENERGY PREDICTED BY IDOCK:   -3.63 KCAL/MOL
REMARK 922        TOTAL FREE ENERGY PREDICTED BY IDOCK:   -5.16 KCAL/MOL
REMARK 923 INTER-LIGAND FREE ENERGY PREDICTED BY IDOCK:   -4.40 KCAL/MOL
REMARK 924 INTRA-LIGAND FREE ENERGY PREDICTED BY IDOCK:   -0.76 KCAL/MOL
REMARK 927      BINDING AFFINITY PREDICTED BY RF-SCORE:    0.00 PKD
ROOT
HETATM    1  C   UNL     1      -8.490   2.433  66.564  1.00  0.00    -0.100 C  
HETATM    2  N   UNL     1      -7.777   3.424  67.371  1.00  0.00    -0.077 NA 
ENDROOT
BRANCH   2   3
HETATM    3  C   UNL     1      -7.749   4.763  66.879  1.00  0.00    -0.091 A  
HETATM    4  C   UNL     1      -6.383   6.474  65.581  1.00  0.00    -0.038 A  
HETATM    5  C   UNL     1      -6.824   9.371  64.381  1.00  0.00    -0.091 C  
HETATM    6  C   UNL     1      -8.865   5.628  67.030  1.00  0.00    -0.111 A  
HETATM    7  C   UNL     1      -8.724   6.893  66.429  1.00  0.00    -0.142 A  
HETATM    8  C   UNL     1      -7.518   7.255  65.736  1.00  0.00    -0.084 A  
HETATM    9  C   UNL     1      -7.701   8.516  65.221  1.00  0.00    -0.097 A  
HETATM   10  N   UNL     1      -9.586   7.920  66.377  1.00  0.00    -0.203 NA 
HETATM   11  N   UNL     1      -8.963   8.865  65.640  1.00  0.00    -0.193 NA 
HETATM   12  C   UNL     1      -9.659  10.102  65.368  1.00  0.00    -0.264 C  
HETATM   13  C   UNL     1      -6.556   5.211  66.192  1.00  0.00    -0.052 A  
ENDBRANCH   2   3
BRANCH   2  14
HETATM   14  C   UNL     1      -7.368   3.037  68.665  1.00  0.00    -0.049 A  
HETATM   15  C   UNL     1      -7.414   3.451  70.955  1.00  0.00    -0.037 A  
HETATM   16  N   UNL     1      -6.558   2.465  71.236  1.00  0.00    -0.023 NA 
HETATM   17  C   UNL     1      -6.142   1.733  70.191  1.00  0.00    -0.023 A  
HETATM   18  C   UNL     1      -6.521   1.969  68.889  1.00  0.00    -0.029 A  
HETATM   19  N   UNL     1      -7.809   3.760  69.711  1.00  0.00    -0.051 NA 
BRANCH  15  20
HETATM   20  N   UNL     1      -7.880   4.209  72.028  1.00  0.00    -0.082 NA 
HETATM   21  H   UNL     1      -7.440   4.024  72.929  1.00  0.00     0.000 HD 
BRANCH  20  22
HETATM   22  C   UNL     1      -8.879   5.193  72.024  1.00  0.00    -0.130 A  
HETATM   23  C   UNL     1     -10.131   4.899  72.566  1.00  0.00    -0.233 A  
HETATM   24  C   UNL     1     -11.120   5.883  72.660  1.00  0.00    -0.322 A  
HETATM   25  C   UNL     1     -10.895   7.195  72.202  1.00  0.00    -0.255 A  
HETATM   26  C   UNL     1      -9.647   7.483  71.621  1.00  0.00    -0.150 A  
HETATM   27  C   UNL     1     -11.997   8.200  72.353  1.00  0.00    -0.431 C  
HETATM   28  C   UNL     1      -8.656   6.490  71.547  1.00  0.00    -0.129 A  
BRANCH  26  29
HETATM   29  S   UNL     1      -9.244   9.065  70.888  1.00  0.00    -0.266 S  
HETATM   30  O   UNL     1      -8.025   9.566  71.471  1.00  0.00    -0.225 OA 
HETATM   31  O   UNL     1     -10.447   9.868  70.841  1.00  0.00    -0.286 OA 
HETATM   32  N   UNL     1      -8.904   8.632  69.305  1.00  0.00    -0.136 N  
HETATM   33  H1  UNL     1      -8.674   9.534  68.887  1.00  0.00     0.000 HD 
HETATM   34  H2  UNL     1      -8.922   7.708  68.873  1.00  0.00     0.000 HD 
ENDBRANCH  26  29
ENDBRANCH  20  22
ENDBRANCH  15  20
ENDBRANCH   2  14
TORSDOF 5
ENDMDL
MODEL      264
REMARK 921   NORMALIZED FREE ENERGY PREDICTED BY IDOCK:   -3.62 KCAL/MOL
REMARK 922        TOTAL FREE ENERGY PREDICTED BY IDOCK:   -5.14 KCAL/MOL
REMARK 923 INTER-LIGAND FREE ENERGY PREDICTED BY IDOCK:   -4.12 KCAL/MOL
REMARK 924 INTRA-LIGAND FREE ENERGY PREDICTED BY IDOCK:   -1.02 KCAL/MOL
REMARK 927      BINDING AFFINITY PREDICTED BY RF-SCORE:    0.00 PKD
ROOT
HETATM    1  C   UNL     1     -10.126  17.975  69.324  1.00  0.00    -0.086 C  
HETATM    2  N   UNL     1      -9.292  16.918  68.751  1.00  0.00    -0.262 NA 
ENDROOT
BRANCH   2   3
HETATM    3  C   UNL     1      -9.926  16.004  67.859  1.00  0.00    -0.233 A  
HETATM    4  C   UNL     1     -11.314  13.876  67.701  1.00  0.00    -0.335 A  
HETATM    5  C   UNL     1     -12.852  12.268  65.447  1.00  0.00     0.744 C  
HETATM    6  C   UNL     1      -9.944  16.232  66.458  1.00  0.00    -0.290 A  
HETATM    7  C   UNL     1     -10.670  15.287  65.709  1.00  0.00    -0.348 A  
HETATM    8  C   UNL     1     -11.320  14.176  66.347  1.00  0.00    -0.342 A  
HETATM    9  C   UNL     1     -11.982  13.468  65.372  1.00  0.00    -0.379 A  
HETATM   10  N   UNL     1     -10.890  15.225  64.386  1.00  0.00    -0.093 NA 
HETATM   11  N   UNL     1     -11.685  14.147  64.213  1.00  0.00    -0.374 NA 
HETATM   12  C   UNL     1     -12.137  13.826  62.877  1.00  0.00     0.973 C  
HETATM   13  C   UNL     1     -10.580  14.843  68.425  1.00  0.00    -0.244 A  
ENDBRANCH   2   3
BRANCH   2  14
HETATM   14  C   UNL     1      -7.897  17.013  68.945  1.00  0.00    -0.224 A  
HETATM   15  C   UNL     1      -5.931  15.992  69.661  1.00  0.00    -0.162 A  
HETATM   16  N   UNL     1      -5.195  17.092  69.477  1.00  0.00    -0.147 NA 
HETATM   17  C   UNL     1      -5.841  18.155  68.975  1.00  0.00    -0.212 A  
HETATM   18  C   UNL     1      -7.186  18.168  68.682  1.00  0.00    -0.288 A  
HETATM   19  N   UNL     1      -7.250  15.935  69.425  1.00  0.00    -0.215 NA 
BRANCH  15  20
HETATM   20  N   UNL     1      -5.276  14.867  70.158  1.00  0.00    -0.101 NA 
HETATM   21  H   UNL     1      -4.428  15.046  70.696  1.00  0.00     0.000 HD 
BRANCH  20  22
HETATM   22  C   UNL     1      -5.636  13.520  70.011  1.00  0.00    -0.114 A  
HETATM   23  C   UNL     1      -5.139  12.577  70.913  1.00  0.00    -0.141 A  
HETATM   24  C   UNL     1      -5.548  11.241  70.850  1.00  0.00    -0.072 A  
HETATM   25  C   UNL     1      -6.459  10.799  69.874  1.00  0.00    -0.135 A  
HETATM   26  C   UNL     1      -6.931  11.739  68.940  1.00  0.00    -0.109 A  
HETATM   27  C   UNL     1      -6.865   9.355  69.882  1.00  0.00    -0.061 C  
HETATM   28  C   UNL     1      -6.526  13.082  69.023  1.00  0.00    -0.103 A  
BRANCH  26  29
HETATM   29  S   UNL     1      -8.000  11.314  67.570  1.00  0.00    -0.129 S  
HETATM   30  O   UNL     1      -9.349  11.145  68.050  1.00  0.00    -0.156 OA 
HETATM   31  O   UNL     1      -7.346  10.298  66.775  1.00  0.00    -0.100 OA 
HETATM   32  N   UNL     1      -7.964  12.721  66.659  1.00  0.00    -0.382 N  
HETATM   33  H1  UNL     1      -8.574  12.479  65.878  1.00  0.00     0.000 HD 
HETATM   34  H2  UNL     1      -7.463  13.591  66.839  1.00  0.00     0.000 HD 
ENDBRANCH  26  29
ENDBRANCH  20  22
ENDBRANCH  15  20
ENDBRANCH   2  14
TORSDOF 5
ENDMDL
MODEL      265
REMARK 921   NORMALIZED FREE ENERGY PREDICTED BY IDOCK:   -3.35 KCAL/MOL
REMARK 922        TOTAL FREE ENERGY PREDICTED BY IDOCK:   -4.79 KCAL/MOL
REMARK 923 INTER-LIGAND FREE ENERGY PREDICTED BY IDOCK:   -4.08 KCAL/MOL
REMARK 924 INTRA-LIGAND FREE ENERGY PREDICTED BY IDOCK:   -0.71 KCAL/MOL
REMARK 927      BINDING AFFINITY PREDICTED BY RF-SCORE:    0.00 PKD
ROOT
HETATM    1  C   UNL     1      -9.887   4.119  63.213  1.00  0.00    -0.096 C  
HETATM    2  N   UNL     1      -8.688   4.369  64.014  1.00  0.00    -0.131 NA 
ENDROOT
BRANCH   2   3
HETATM    3  C   UNL     1      -8.159   5.694  63.993  1.00  0.00    -0.123 A  
HETATM    4  C   UNL     1      -7.227   7.539  62.509  1.00  0.00    -0.084 A  
HETATM    5  C   UNL     1      -6.414  10.584  62.821  1.00  0.00    -0.104 C  
HETATM    6  C   UNL     1      -8.096   6.481  65.173  1.00  0.00    -0.133 A  
HETATM    7  C   UNL     1      -7.622   7.793  64.988  1.00  0.00    -0.096 A  
HETATM    8  C   UNL     1      -7.223   8.263  63.691  1.00  0.00    -0.093 A  
HETATM    9  C   UNL     1      -6.860   9.582  63.822  1.00  0.00    -0.105 A  
HETATM   10  N   UNL     1      -7.457   8.781  65.883  1.00  0.00    -0.088 NA 
HETATM   11  N   UNL     1      -7.021   9.838  65.164  1.00  0.00    -0.110 NA 
HETATM   12  C   UNL     1      -6.781  11.089  65.846  1.00  0.00     0.028 C  
HETATM   13  C   UNL     1      -7.709   6.228  62.725  1.00  0.00    -0.088 A  
ENDBRANCH   2   3
BRANCH   2  14
HETATM   14  C   UNL     1      -8.279   3.356  64.907  1.00  0.00    -0.090 A  
HETATM   15  C   UNL     1      -8.642   2.230  66.912  1.00  0.00    -0.109 A  
HETATM   16  N   UNL     1      -7.535   1.490  66.793  1.00  0.00    -0.055 NA 
HETATM   17  C   UNL     1      -6.820   1.678  65.673  1.00  0.00    -0.034 A  
HETATM   18  C   UNL     1      -7.150   2.588  64.696  1.00  0.00    -0.049 A  
HETATM   19  N   UNL     1      -9.015   3.156  66.016  1.00  0.00    -0.141 NA 
BRANCH  15  20
HETATM   20  N   UNL     1      -9.414   2.034  68.055  1.00  0.00    -0.320 NA 
HETATM   21  H   UNL     1      -9.910   1.144  68.111  1.00  0.00     0.000 HD 
BRANCH  20  22
HETATM   22  C   UNL     1      -9.597   2.906  69.137  1.00  0.00     0.016 A  
HETATM   23  C   UNL     1      -9.434   2.427  70.437  1.00  0.00    -0.169 A  
HETATM   24  C   UNL     1      -9.520   3.289  71.535  1.00  0.00    -0.217 A  
HETATM   25  C   UNL     1      -9.785   4.661  71.370  1.00  0.00    -0.246 A  
HETATM   26  C   UNL     1      -9.989   5.139  70.063  1.00  0.00    -0.256 A  
HETATM   27  C   UNL     1      -9.845   5.526  72.593  1.00  0.00    -0.185 C  
HETATM   28  C   UNL     1      -9.883   4.266  68.967  1.00  0.00    -0.148 A  
BRANCH  26  29
HETATM   29  S   UNL     1     -10.448   6.829  69.693  1.00  0.00    -0.227 S  
HETATM   30  O   UNL     1     -11.442   7.272  70.638  1.00  0.00    -0.283 OA 
HETATM   31  O   UNL     1     -10.655   6.945  68.266  1.00  0.00    -0.196 OA 
HETATM   32  N   UNL     1      -9.029   7.652  70.033  1.00  0.00    -0.143 N  
HETATM   33  H1  UNL     1      -9.291   8.615  69.822  1.00  0.00     0.000 HD 
HETATM   34  H2  UNL     1      -8.136   7.286  70.364  1.00  0.00     0.000 HD 
ENDBRANCH  26  29
ENDBRANCH  20  22
ENDBRANCH  15  20
ENDBRANCH   2  14
TORSDOF 5
ENDMDL
MODEL      266
REMARK 921   NORMALIZED FREE ENERGY PREDICTED BY IDOCK:   -3.28 KCAL/MOL
REMARK 922        TOTAL FREE ENERGY PREDICTED BY IDOCK:   -4.70 KCAL/MOL
REMARK 923 INTER-LIGAND FREE ENERGY PREDICTED BY IDOCK:   -3.68 KCAL/MOL
REMARK 924 INTRA-LIGAND FREE ENERGY PREDICTED BY IDOCK:   -1.02 KCAL/MOL
REMARK 927      BINDING AFFINITY PREDICTED BY RF-SCORE:    0.00 PKD
ROOT
HETATM    1  C   UNL     1     -10.598  16.159  68.918  1.00  0.00    -0.275 C  
HETATM    2  N   UNL     1     -10.186  15.132  67.961  1.00  0.00    -0.229 NA 
ENDROOT
BRANCH   2   3
HETATM    3  C   UNL     1      -9.546  13.972  68.490  1.00  0.00    -0.201 A  
HETATM    4  C   UNL     1      -9.916  11.620  69.387  1.00  0.00     0.374 A  
HETATM    5  C   UNL     1      -8.127   9.138  70.207  1.00  0.00    -0.156 C  
HETATM    6  C   UNL     1      -8.132  13.886  68.581  1.00  0.00    -0.097 A  
HETATM    7  C   UNL     1      -7.639  12.655  69.051  1.00  0.00     0.146 A  
HETATM    8  C   UNL     1      -8.530  11.590  69.419  1.00  0.00     0.545 A  
HETATM    9  C   UNL     1      -7.759  10.513  69.785  1.00  0.00    -0.067 A  
HETATM   10  N   UNL     1      -6.371  12.252  69.237  1.00  0.00    -0.096 NA 
HETATM   11  N   UNL     1      -6.468  10.971  69.656  1.00  0.00    -0.108 NA 
HETATM   12  C   UNL     1      -5.253  10.232  69.913  1.00  0.00    -0.038 C  
HETATM   13  C   UNL     1     -10.380  12.866  68.909  1.00  0.00    -0.059 A  
ENDBRANCH   2   3
BRANCH   2  14
HETATM   14  C   UNL     1     -10.642  15.261  66.631  1.00  0.00    -0.304 A  
HETATM   15  C   UNL     1     -11.273  14.210  64.652  1.00  0.00    -0.368 A  
HETATM   16  N   UNL     1     -11.426  15.362  63.992  1.00  0.00    -0.112 NA 
HETATM   17  C   UNL     1     -11.215  16.480  64.703  1.00  0.00    -0.115 A  
HETATM   18  C   UNL     1     -10.832  16.487  66.025  1.00  0.00    -0.069 A  
HETATM   19  N   UNL     1     -10.875  14.135  65.931  1.00  0.00    -0.289 NA 
BRANCH  15  20
HETATM   20  N   UNL     1     -11.511  13.036  63.941  1.00  0.00    -0.449 NA 
HETATM   21  H   UNL     1     -12.417  12.971  63.477  1.00  0.00     0.000 HD 
BRANCH  20  22
HETATM   22  C   UNL     1     -10.662  11.932  63.782  1.00  0.00    -0.418 A  
HETATM   23  C   UNL     1      -9.956  11.778  62.587  1.00  0.00     0.354 A  
HETATM   24  C   UNL     1      -9.033  10.739  62.430  1.00  0.00    -0.347 A  
HETATM   25  C   UNL     1      -8.794   9.809  63.458  1.00  0.00    -0.260 A  
HETATM   26  C   UNL     1      -9.531   9.939  64.648  1.00  0.00    -0.278 A  
HETATM   27  C   UNL     1      -7.776   8.734  63.221  1.00  0.00    -0.124 C  
HETATM   28  C   UNL     1     -10.444  10.997  64.801  1.00  0.00    -0.384 A  
BRANCH  26  29
HETATM   29  S   UNL     1      -9.429   8.775  66.003  1.00  0.00    -0.206 S  
HETATM   30  O   UNL     1      -9.502   7.432  65.486  1.00  0.00     0.289 OA 
HETATM   31  O   UNL     1     -10.304   9.227  67.063  1.00  0.00    -0.243 OA 
HETATM   32  N   UNL     1      -7.863   9.020  66.547  1.00  0.00    -0.099 N  
HETATM   33  H1  UNL     1      -7.805   8.356  67.319  1.00  0.00     0.000 HD 
HETATM   34  H2  UNL     1      -7.154   9.664  66.197  1.00  0.00     0.000 HD 
ENDBRANCH  26  29
ENDBRANCH  20  22
ENDBRANCH  15  20
ENDBRANCH   2  14
TORSDOF 5
ENDMDL
MODEL      267
REMARK 921   NORMALIZED FREE ENERGY PREDICTED BY IDOCK:   -3.13 KCAL/MOL
REMARK 922        TOTAL FREE ENERGY PREDICTED BY IDOCK:   -4.51 KCAL/MOL
REMARK 923 INTER-LIGAND FREE ENERGY PREDICTED BY IDOCK:   -4.17 KCAL/MOL
REMARK 924 INTRA-LIGAND FREE ENERGY PREDICTED BY IDOCK:   -0.34 KCAL/MOL
REMARK 927      BINDING AFFINITY PREDICTED BY RF-SCORE:    0.00 PKD
ROOT
HETATM    1  C   UNL     1      -7.856   4.865  66.074  1.00  0.00    -0.099 C  
HETATM    2  N   UNL     1      -7.529   5.902  67.054  1.00  0.00    -0.083 NA 
ENDROOT
BRANCH   2   3
HETATM    3  C   UNL     1      -7.843   7.248  66.702  1.00  0.00    -0.102 A  
HETATM    4  C   UNL     1      -8.944   8.741  64.960  1.00  0.00    -0.113 A  
HETATM    5  C   UNL     1      -9.741  11.793  64.686  1.00  0.00    -0.172 C  
HETATM    6  C   UNL     1      -7.548   8.326  67.577  1.00  0.00    -0.098 A  
HETATM    7  C   UNL     1      -7.981   9.589  67.133  1.00  0.00    -0.102 A  
HETATM    8  C   UNL     1      -8.656   9.742  65.874  1.00  0.00    -0.149 A  
HETATM    9  C   UNL     1      -8.996  11.068  65.745  1.00  0.00    -0.195 A  
HETATM   10  N   UNL     1      -7.873  10.791  67.723  1.00  0.00    -0.107 NA 
HETATM   11  N   UNL     1      -8.498  11.650  66.888  1.00  0.00    -0.164 NA 
HETATM   12  C   UNL     1      -8.586  13.042  67.264  1.00  0.00    -0.206 C  
HETATM   13  C   UNL     1      -8.499   7.485  65.434  1.00  0.00    -0.105 A  
ENDBRANCH   2   3
BRANCH   2  14
HETATM   14  C   UNL     1      -7.139   5.479  68.343  1.00  0.00    -0.070 A  
HETATM   15  C   UNL     1      -7.649   5.332  70.609  1.00  0.00    -0.076 A  
HETATM   16  N   UNL     1      -6.462   4.808  70.928  1.00  0.00    -0.029 NA 
HETATM   17  C   UNL     1      -5.623   4.585  69.904  1.00  0.00    -0.012 A  
HETATM   18  C   UNL     1      -5.914   4.892  68.594  1.00  0.00    -0.025 A  
HETATM   19  N   UNL     1      -7.994   5.683  69.361  1.00  0.00    -0.098 NA 
BRANCH  15  20
HETATM   20  N   UNL     1      -8.546   5.548  71.653  1.00  0.00    -0.130 NA 
HETATM   21  H   UNL     1      -8.260   5.197  72.567  1.00  0.00     0.000 HD 
BRANCH  20  22
HETATM   22  C   UNL     1      -9.792   6.188  71.605  1.00  0.00    -0.169 A  
HETATM   23  C   UNL     1     -10.892   5.592  72.226  1.00  0.00    -0.295 A  
HETATM   24  C   UNL     1     -12.128   6.245  72.274  1.00  0.00    -0.255 A  
HETATM   25  C   UNL     1     -12.310   7.512  71.692  1.00  0.00    -0.362 A  
HETATM   26  C   UNL     1     -11.215   8.097  71.032  1.00  0.00    -0.258 A  
HETATM   27  C   UNL     1     -13.660   8.157  71.800  1.00  0.00    -0.397 C  
HETATM   28  C   UNL     1      -9.974   7.439  71.004  1.00  0.00    -0.183 A  
BRANCH  26  29
HETATM   29  S   UNL     1     -11.314   9.647  70.143  1.00  0.00    -0.196 S  
HETATM   30  O   UNL     1     -12.590  10.266  70.400  1.00  0.00    -0.278 OA 
HETATM   31  O   UNL     1     -10.834   9.434  68.794  1.00  0.00    -0.199 OA 
HETATM   32  N   UNL     1     -10.145  10.563  70.920  1.00  0.00     0.556 N  
HETATM   33  H1  UNL     1     -10.202  11.446  70.414  1.00  0.00     0.000 HD 
HETATM   34  H2  UNL     1      -9.537  10.304  71.697  1.00  0.00     0.000 HD 
ENDBRANCH  26  29
ENDBRANCH  20  22
ENDBRANCH  15  20
ENDBRANCH   2  14
TORSDOF 5
ENDMDL
MODEL      268
REMARK 921   NORMALIZED FREE ENERGY PREDICTED BY IDOCK:   -2.83 KCAL/MOL
REMARK 922        TOTAL FREE ENERGY PREDICTED BY IDOCK:   -4.11 KCAL/MOL
REMARK 923 INTER-LIGAND FREE ENERGY PREDICTED BY IDOCK:   -3.89 KCAL/MOL
REMARK 924 INTRA-LIGAND FREE ENERGY PREDICTED BY IDOCK:   -0.22 KCAL/MOL
REMARK 927      BINDING AFFINITY PREDICTED BY RF-SCORE:    0.00 PKD
ROOT
HETATM    1  C   UNL     1     -10.246  17.872  69.442  1.00  0.00     0.041 C  
HETATM    2  N   UNL     1      -9.464  16.864  68.725  1.00  0.00    -0.262 NA 
ENDROOT
BRANCH   2   3
HETATM    3  C   UNL     1     -10.135  16.128  67.704  1.00  0.00    -0.248 A  
HETATM    4  C   UNL     1     -11.022  16.211  65.321  1.00  0.00    -0.280 A  
HETATM    5  C   UNL     1     -12.229  14.173  63.218  1.00  0.00     0.486 C  
HETATM    6  C   UNL     1     -10.484  14.764  67.887  1.00  0.00    -0.246 A  
HETATM    7  C   UNL     1     -11.073  14.145  66.769  1.00  0.00    -0.310 A  
HETATM    8  C   UNL     1     -11.306  14.874  65.553  1.00  0.00    -0.339 A  
HETATM    9  C   UNL     1     -11.838  13.997  64.640  1.00  0.00    -0.417 A  
HETATM   10  N   UNL     1     -11.497  12.881  66.611  1.00  0.00    -0.324 NA 
HETATM   11  N   UNL     1     -11.931  12.813  65.333  1.00  0.00    -0.411 NA 
HETATM   12  C   UNL     1     -12.426  11.549  64.836  1.00  0.00     1.071 C  
HETATM   13  C   UNL     1     -10.430  16.804  66.459  1.00  0.00    -0.258 A  
ENDBRANCH   2   3
BRANCH   2  14
HETATM   14  C   UNL     1      -8.069  16.850  68.939  1.00  0.00    -0.219 A  
HETATM   15  C   UNL     1      -6.157  15.604  69.397  1.00  0.00    -0.131 A  
HETATM   16  N   UNL     1      -5.373  16.682  69.482  1.00  0.00    -0.139 NA 
HETATM   17  C   UNL     1      -5.968  17.862  69.244  1.00  0.00    -0.229 A  
HETATM   18  C   UNL     1      -7.307  18.002  68.959  1.00  0.00    -0.198 A  
HETATM   19  N   UNL     1      -7.474  15.661  69.152  1.00  0.00    -0.184 NA 
BRANCH  15  20
HETATM   20  N   UNL     1      -5.555  14.366  69.615  1.00  0.00    -0.093 NA 
HETATM   21  H   UNL     1      -4.873  14.328  70.373  1.00  0.00     0.000 HD 
BRANCH  20  22
HETATM   22  C   UNL     1      -5.769  13.166  68.924  1.00  0.00    -0.074 A  
HETATM   23  C   UNL     1      -5.177  12.980  67.674  1.00  0.00    -0.071 A  
HETATM   24  C   UNL     1      -5.296  11.762  66.998  1.00  0.00    -0.122 A  
HETATM   25  C   UNL     1      -6.024  10.689  67.543  1.00  0.00    -0.048 A  
HETATM   26  C   UNL     1      -6.655  10.886  68.784  1.00  0.00    -0.059 A  
HETATM   27  C   UNL     1      -6.092   9.408  66.768  1.00  0.00    -0.064 C  
HETATM   28  C   UNL     1      -6.515  12.109  69.462  1.00  0.00    -0.100 A  
BRANCH  26  29
HETATM   29  S   UNL     1      -7.711   9.666  69.557  1.00  0.00    -0.125 S  
HETATM   30  O   UNL     1      -9.067   9.851  69.106  1.00  0.00    -0.151 OA 
HETATM   31  O   UNL     1      -7.384   9.602  70.965  1.00  0.00    -0.321 OA 
HETATM   32  N   UNL     1      -7.145   8.243  68.876  1.00  0.00    -0.065 N  
HETATM   33  H1  UNL     1      -7.747   7.547  69.317  1.00  0.00     0.000 HD 
HETATM   34  H2  UNL     1      -6.395   8.108  68.198  1.00  0.00     0.000 HD 
ENDBRANCH  26  29
ENDBRANCH  20  22
ENDBRANCH  15  20
ENDBRANCH   2  14
TORSDOF 5
ENDMDL
MODEL      269
REMARK 921   NORMALIZED FREE ENERGY PREDICTED BY IDOCK:   -2.73 KCAL/MOL
REMARK 922        TOTAL FREE ENERGY PREDICTED BY IDOCK:   -3.99 KCAL/MOL
REMARK 923 INTER-LIGAND FREE ENERGY PREDICTED BY IDOCK:   -3.67 KCAL/MOL
REMARK 924 INTRA-LIGAND FREE ENERGY PREDICTED BY IDOCK:   -0.32 KCAL/MOL
REMARK 927      BINDING AFFINITY PREDICTED BY RF-SCORE:    0.00 PKD
ROOT
HETATM    1  C   UNL     1     -10.697  13.405  64.437  1.00  0.00    -0.408 C  
HETATM    2  N   UNL     1     -10.343  13.532  65.851  1.00  0.00    -0.293 NA 
ENDROOT
BRANCH   2   3
HETATM    3  C   UNL     1     -10.110  12.325  66.573  1.00  0.00    -0.215 A  
HETATM    4  C   UNL     1     -11.208  10.270  67.600  1.00  0.00    -0.232 A  
HETATM    5  C   UNL     1     -10.268   7.543  68.905  1.00  0.00    -0.214 C  
HETATM    6  C   UNL     1      -8.795  11.899  66.896  1.00  0.00    -0.197 A  
HETATM    7  C   UNL     1      -8.714  10.652  67.543  1.00  0.00    -0.125 A  
HETATM    8  C   UNL     1      -9.897   9.899  67.855  1.00  0.00    -0.170 A  
HETATM    9  C   UNL     1      -9.495   8.718  68.431  1.00  0.00    -0.141 A  
HETATM   10  N   UNL     1      -7.635   9.971  67.963  1.00  0.00    -0.088 NA 
HETATM   11  N   UNL     1      -8.124   8.818  68.470  1.00  0.00    -0.115 NA 
HETATM   12  C   UNL     1      -7.194   7.836  68.980  1.00  0.00    -0.080 C  
HETATM   13  C   UNL     1     -11.257  11.524  66.948  1.00  0.00    -0.363 A  
ENDBRANCH   2   3
BRANCH   2  14
HETATM   14  C   UNL     1     -10.044  14.825  66.334  1.00  0.00    -0.280 A  
HETATM   15  C   UNL     1     -10.440  16.476  67.926  1.00  0.00    -0.313 A  
HETATM   16  N   UNL     1      -9.643  17.365  67.325  1.00  0.00    -0.253 NA 
HETATM   17  C   UNL     1      -9.009  16.934  66.223  1.00  0.00    -0.270 A  
HETATM   18  C   UNL     1      -9.165  15.675  65.690  1.00  0.00    -0.113 A  
HETATM   19  N   UNL     1     -10.664  15.242  67.453  1.00  0.00    -0.287 NA 
BRANCH  15  20
HETATM   20  N   UNL     1     -11.089  16.893  69.086  1.00  0.00    -0.274 NA 
HETATM   21  H   UNL     1     -11.360  17.875  69.118  1.00  0.00     0.000 HD 
BRANCH  20  22
HETATM   22  C   UNL     1     -11.416  16.131  70.216  1.00  0.00    -0.308 A  
HETATM   23  C   UNL     1     -11.412  16.735  71.475  1.00  0.00     0.275 A  
HETATM   24  C   UNL     1     -11.819  16.028  72.611  1.00  0.00    -0.611 A  
HETATM   25  C   UNL     1     -12.234  14.687  72.529  1.00  0.00    -0.291 A  
HETATM   26  C   UNL     1     -12.202  14.063  71.269  1.00  0.00    -0.310 A  
HETATM   27  C   UNL     1     -12.674  14.000  73.788  1.00  0.00     1.214 C  
HETATM   28  C   UNL     1     -11.807  14.788  70.132  1.00  0.00    -0.360 A  
BRANCH  26  29
HETATM   29  S   UNL     1     -12.586  12.334  71.015  1.00  0.00    -0.152 S  
HETATM   30  O   UNL     1     -13.284  12.177  69.764  1.00  0.00     1.061 OA 
HETATM   31  O   UNL     1     -13.115  11.796  72.250  1.00  0.00    -0.378 OA 
HETATM   32  N   UNL     1     -11.059  11.669  70.826  1.00  0.00     0.620 N  
HETATM   33  H1  UNL     1     -11.278  10.683  70.681  1.00  0.00     0.000 HD 
HETATM   34  H2  UNL     1     -10.150  12.129  70.850  1.00  0.00     0.000 HD 
ENDBRANCH  26  29
ENDBRANCH  20  22
ENDBRANCH  15  20
ENDBRANCH   2  14
TORSDOF 5
ENDMDL
MODEL      270
REMARK 921   NORMALIZED FREE ENERGY PREDICTED BY IDOCK:   -2.29 KCAL/MOL
REMARK 922        TOTAL FREE ENERGY PREDICTED BY IDOCK:   -3.42 KCAL/MOL
REMARK 923 INTER-LIGAND FREE ENERGY PREDICTED BY IDOCK:   -2.92 KCAL/MOL
REMARK 924 INTRA-LIGAND FREE ENERGY PREDICTED BY IDOCK:   -0.50 KCAL/MOL
REMARK 927      BINDING AFFINITY PREDICTED BY RF-SCORE:    0.00 PKD
ROOT
HETATM    1  C   UNL     1     -11.821  14.082  69.121  1.00  0.00    -0.350 C  
HETATM    2  N   UNL     1     -11.150  13.262  68.113  1.00  0.00    -0.247 NA 
ENDROOT
BRANCH   2   3
HETATM    3  C   UNL     1     -10.010  12.517  68.537  1.00  0.00    -0.165 A  
HETATM    4  C   UNL     1      -7.467  12.407  68.505  1.00  0.00    -0.112 A  
HETATM    5  C   UNL     1      -5.199  10.685  69.890  1.00  0.00    -0.039 C  
HETATM    6  C   UNL     1     -10.143  11.372  69.365  1.00  0.00     0.147 A  
HETATM    7  C   UNL     1      -8.930  10.783  69.767  1.00  0.00     0.461 A  
HETATM    8  C   UNL     1      -7.667  11.317  69.338  1.00  0.00     0.083 A  
HETATM    9  C   UNL     1      -6.678  10.567  69.928  1.00  0.00    -0.142 A  
HETATM   10  N   UNL     1      -8.712   9.714  70.550  1.00  0.00    -0.184 NA 
HETATM   11  N   UNL     1      -7.367   9.617  70.645  1.00  0.00    -0.247 NA 
HETATM   12  C   UNL     1      -6.805   8.568  71.466  1.00  0.00    -0.079 C  
HETATM   13  C   UNL     1      -8.702  12.978  68.121  1.00  0.00    -0.190 A  
ENDBRANCH   2   3
BRANCH   2  14
HETATM   14  C   UNL     1     -11.799  13.096  66.870  1.00  0.00    -0.386 A  
HETATM   15  C   UNL     1     -11.766  12.168  64.736  1.00  0.00    -0.327 A  
HETATM   16  N   UNL     1     -12.897  12.774  64.364  1.00  0.00    -0.735 NA 
HETATM   17  C   UNL     1     -13.498  13.524  65.301  1.00  0.00     0.819 A  
HETATM   18  C   UNL     1     -13.000  13.710  66.570  1.00  0.00     0.556 A  
HETATM   19  N   UNL     1     -11.204  12.323  65.943  1.00  0.00    -0.325 NA 
BRANCH  15  20
HETATM   20  N   UNL     1     -11.138  11.364  63.787  1.00  0.00    -0.504 NA 
HETATM   21  H   UNL     1     -11.462  11.471  62.826  1.00  0.00     0.000 HD 
BRANCH  20  22
HETATM   22  C   UNL     1     -10.115  10.426  63.987  1.00  0.00    -0.145 A  
HETATM   23  C   UNL     1      -8.984  10.462  63.170  1.00  0.00    -0.245 A  
HETATM   24  C   UNL     1      -7.907   9.599  63.399  1.00  0.00    -0.138 A  
HETATM   25  C   UNL     1      -7.930   8.662  64.448  1.00  0.00    -0.146 A  
HETATM   26  C   UNL     1      -9.084   8.597  65.248  1.00  0.00    -0.040 A  
HETATM   27  C   UNL     1      -6.730   7.783  64.643  1.00  0.00    -0.047 C  
HETATM   28  C   UNL     1     -10.153   9.480  65.018  1.00  0.00     0.360 A  
BRANCH  26  29
HETATM   29  S   UNL     1      -9.318   7.386  66.544  1.00  0.00    -0.155 S  
HETATM   30  O   UNL     1      -8.237   6.433  66.509  1.00  0.00    -0.108 OA 
HETATM   31  O   UNL     1     -10.701   6.962  66.532  1.00  0.00    -0.156 OA 
HETATM   32  N   UNL     1      -9.122   8.318  67.923  1.00  0.00    -0.133 N  
HETATM   33  H1  UNL     1      -9.255   7.627  68.662  1.00  0.00     0.000 HD 
HETATM   34  H2  UNL     1      -8.923   9.315  68.002  1.00  0.00     0.000 HD 
ENDBRANCH  26  29
ENDBRANCH  20  22
ENDBRANCH  15  20
ENDBRANCH   2  14
TORSDOF 5
ENDMDL
MODEL      271
REMARK 921   NORMALIZED FREE ENERGY PREDICTED BY IDOCK:   -2.20 KCAL/MOL
REMARK 922        TOTAL FREE ENERGY PREDICTED BY IDOCK:   -3.31 KCAL/MOL
REMARK 923 INTER-LIGAND FREE ENERGY PREDICTED BY IDOCK:   -3.02 KCAL/MOL
REMARK 924 INTRA-LIGAND FREE ENERGY PREDICTED BY IDOCK:   -0.28 KCAL/MOL
REMARK 927      BINDING AFFINITY PREDICTED BY RF-SCORE:    0.00 PKD
ROOT
HETATM    1  C   UNL     1      -9.492   4.386  63.723  1.00  0.00    -0.071 C  
HETATM    2  N   UNL     1      -8.255   4.533  64.492  1.00  0.00    -0.102 NA 
ENDROOT
BRANCH   2   3
HETATM    3  C   UNL     1      -7.608   5.803  64.444  1.00  0.00    -0.085 A  
HETATM    4  C   UNL     1      -6.396   7.464  62.945  1.00  0.00    -0.054 A  
HETATM    5  C   UNL     1      -5.338  10.441  63.156  1.00  0.00    -0.148 C  
HETATM    6  C   UNL     1      -7.568   6.655  65.579  1.00  0.00    -0.088 A  
HETATM    7  C   UNL     1      -6.964   7.907  65.363  1.00  0.00    -0.059 A  
HETATM    8  C   UNL     1      -6.421   8.258  64.081  1.00  0.00    -0.067 A  
HETATM    9  C   UNL     1      -5.951   9.547  64.169  1.00  0.00    -0.082 A  
HETATM   10  N   UNL     1      -6.782   8.931  66.213  1.00  0.00    -0.073 NA 
HETATM   11  N   UNL     1      -6.195   9.899  65.476  1.00  0.00    -0.077 NA 
HETATM   12  C   UNL     1      -5.898  11.165  66.106  1.00  0.00    -0.120 C  
HETATM   13  C   UNL     1      -7.012   6.216  63.191  1.00  0.00    -0.046 A  
ENDBRANCH   2   3
BRANCH   2  14
HETATM   14  C   UNL     1      -7.918   3.495  65.388  1.00  0.00    -0.090 A  
HETATM   15  C   UNL     1      -8.317   2.439  67.423  1.00  0.00    -0.083 A  
HETATM   16  N   UNL     1      -7.298   1.587  67.277  1.00  0.00    -0.053 NA 
HETATM   17  C   UNL     1      -6.611   1.685  66.128  1.00  0.00    -0.024 A  
HETATM   18  C   UNL     1      -6.884   2.611  65.147  1.00  0.00    -0.044 A  
HETATM   19  N   UNL     1      -8.627   3.386  66.526  1.00  0.00    -0.110 NA 
BRANCH  15  20
HETATM   20  N   UNL     1      -9.061   2.339  68.597  1.00  0.00    -0.131 NA 
HETATM   21  H   UNL     1      -9.652   1.512  68.682  1.00  0.00     0.000 HD 
BRANCH  20  22
HETATM   22  C   UNL     1      -9.099   3.233  69.677  1.00  0.00    -0.135 A  
HETATM   23  C   UNL     1      -9.876   4.389  69.582  1.00  0.00    -0.272 A  
HETATM   24  C   UNL     1     -10.008   5.255  70.671  1.00  0.00    -0.287 A  
HETATM   25  C   UNL     1      -9.355   5.002  71.892  1.00  0.00    -0.176 A  
HETATM   26  C   UNL     1      -8.540   3.859  71.978  1.00  0.00    -0.099 A  
HETATM   27  C   UNL     1      -9.559   5.968  73.021  1.00  0.00    -0.155 C  
HETATM   28  C   UNL     1      -8.429   2.987  70.882  1.00  0.00    -0.100 A  
BRANCH  26  29
HETATM   29  S   UNL     1      -7.554   3.459  73.416  1.00  0.00    -0.062 S  
HETATM   30  O   UNL     1      -7.388   2.029  73.499  1.00  0.00    -0.031 OA 
HETATM   31  O   UNL     1      -8.044   4.230  74.538  1.00  0.00    -0.086 OA 
HETATM   32  N   UNL     1      -6.068   4.115  73.005  1.00  0.00    -0.015 N  
HETATM   33  H1  UNL     1      -5.505   3.886  73.825  1.00  0.00     0.000 HD 
HETATM   34  H2  UNL     1      -5.796   4.612  72.157  1.00  0.00     0.000 HD 
ENDBRANCH  26  29
ENDBRANCH  20  22
ENDBRANCH  15  20
ENDBRANCH   2  14
TORSDOF 5
ENDMDL
MODEL      272
REMARK 921   NORMALIZED FREE ENERGY PREDICTED BY IDOCK:   -2.09 KCAL/MOL
REMARK 922        TOTAL FREE ENERGY PREDICTED BY IDOCK:   -3.17 KCAL/MOL
REMARK 923 INTER-LIGAND FREE ENERGY PREDICTED BY IDOCK:   -3.16 KCAL/MOL
REMARK 924 INTRA-LIGAND FREE ENERGY PREDICTED BY IDOCK:   -0.01 KCAL/MOL
REMARK 927      BINDING AFFINITY PREDICTED BY RF-SCORE:    0.00 PKD
ROOT
HETATM    1  C   UNL     1     -10.743  15.567  71.464  1.00  0.00     0.315 C  
HETATM    2  N   UNL     1     -10.537  15.349  70.032  1.00  0.00    -0.300 NA 
ENDROOT
BRANCH   2   3
HETATM    3  C   UNL     1      -9.822  16.356  69.319  1.00  0.00    -0.240 A  
HETATM    4  C   UNL     1      -9.906  18.747  68.451  1.00  0.00    -0.429 A  
HETATM    5  C   UNL     1      -7.901  20.807  67.122  1.00  0.00    -0.288 C  
HETATM    6  C   UNL     1      -8.489  16.143  68.879  1.00  0.00    -0.241 A  
HETATM    7  C   UNL     1      -7.883  17.250  68.256  1.00  0.00    -0.244 A  
HETATM    8  C   UNL     1      -8.597  18.484  68.078  1.00  0.00    -0.310 A  
HETATM    9  C   UNL     1      -7.734  19.380  67.493  1.00  0.00    -0.256 A  
HETATM   10  N   UNL     1      -6.647  17.379  67.748  1.00  0.00    -0.151 NA 
HETATM   11  N   UNL     1      -6.577  18.658  67.317  1.00  0.00    -0.199 NA 
HETATM   12  C   UNL     1      -5.337  19.128  66.741  1.00  0.00    -0.162 C  
HETATM   13  C   UNL     1     -10.486  17.619  69.076  1.00  0.00    -0.200 A  
ENDBRANCH   2   3
BRANCH   2  14
HETATM   14  C   UNL     1     -10.861  14.076  69.515  1.00  0.00    -0.036 A  
HETATM   15  C   UNL     1     -10.433  11.788  69.494  1.00  0.00     0.290 A  
HETATM   16  N   UNL     1     -11.309  11.548  68.515  1.00  0.00    -0.250 NA 
HETATM   17  C   UNL     1     -11.997  12.610  68.068  1.00  0.00    -0.245 A  
HETATM   18  C   UNL     1     -11.820  13.891  68.538  1.00  0.00    -0.401 A  
HETATM   19  N   UNL     1     -10.185  13.011  69.985  1.00  0.00     1.684 NA 
BRANCH  15  20
HETATM   20  N   UNL     1      -9.725  10.696  69.992  1.00  0.00    -0.296 NA 
HETATM   21  H   UNL     1      -9.987  10.382  70.926  1.00  0.00     0.000 HD 
BRANCH  20  22
HETATM   22  C   UNL     1      -8.697   9.973  69.369  1.00  0.00    -0.186 A  
HETATM   23  C   UNL     1      -7.419   9.978  69.930  1.00  0.00    -0.171 A  
HETATM   24  C   UNL     1      -6.395   9.198  69.386  1.00  0.00    -0.044 A  
HETATM   25  C   UNL     1      -6.610   8.393  68.252  1.00  0.00    -0.060 A  
HETATM   26  C   UNL     1      -7.885   8.416  67.661  1.00  0.00    -0.107 A  
HETATM   27  C   UNL     1      -5.467   7.570  67.737  1.00  0.00    -0.030 C  
HETATM   28  C   UNL     1      -8.912   9.192  68.227  1.00  0.00    -0.129 A  
BRANCH  26  29
HETATM   29  S   UNL     1      -8.288   7.543  66.152  1.00  0.00    -0.146 S  
HETATM   30  O   UNL     1      -7.832   8.310  65.020  1.00  0.00    -0.110 OA 
HETATM   31  O   UNL     1      -9.652   7.070  66.246  1.00  0.00    -0.137 OA 
HETATM   32  N   UNL     1      -7.308   6.188  66.269  1.00  0.00    -0.083 N  
HETATM   33  H1  UNL     1      -7.538   5.691  65.408  1.00  0.00     0.000 HD 
HETATM   34  H2  UNL     1      -6.654   5.929  67.007  1.00  0.00     0.000 HD 
ENDBRANCH  26  29
ENDBRANCH  20  22
ENDBRANCH  15  20
ENDBRANCH   2  14
TORSDOF 5
ENDMDL
MODEL      273
REMARK 921   NORMALIZED FREE ENERGY PREDICTED BY IDOCK:   -0.90 KCAL/MOL
REMARK 922        TOTAL FREE ENERGY PREDICTED BY IDOCK:   -1.62 KCAL/MOL
REMARK 923 INTER-LIGAND FREE ENERGY PREDICTED BY IDOCK:   -1.66 KCAL/MOL
REMARK 924 INTRA-LIGAND FREE ENERGY PREDICTED BY IDOCK:    0.03 KCAL/MOL
REMARK 927      BINDING AFFINITY PREDICTED BY RF-SCORE:    0.00 PKD
ROOT
HETATM    1  C   UNL     1     -10.693  16.448  70.548  1.00  0.00     0.069 C  
HETATM    2  N   UNL     1     -10.979  15.034  70.308  1.00  0.00    -0.237 NA 
ENDROOT
BRANCH   2   3
HETATM    3  C   UNL     1      -9.974  14.274  69.640  1.00  0.00     0.427 A  
HETATM    4  C   UNL     1      -9.345  11.966  68.769  1.00  0.00     0.013 A  
HETATM    5  C   UNL     1      -7.051  10.701  66.989  1.00  0.00    -0.100 C  
HETATM    6  C   UNL     1      -8.797  14.888  69.135  1.00  0.00    -0.145 A  
HETATM    7  C   UNL     1      -7.930  14.030  68.434  1.00  0.00    -0.143 A  
HETATM    8  C   UNL     1      -8.236  12.635  68.274  1.00  0.00    -0.164 A  
HETATM    9  C   UNL     1      -7.238  12.078  67.510  1.00  0.00    -0.127 A  
HETATM   10  N   UNL     1      -6.761  14.296  67.829  1.00  0.00    -0.166 NA 
HETATM   11  N   UNL     1      -6.379  13.126  67.273  1.00  0.00    -0.266 NA 
HETATM   12  C   UNL     1      -5.154  13.090  66.507  1.00  0.00     1.782 C  
HETATM   13  C   UNL     1     -10.197  12.854  69.465  1.00  0.00     0.777 A  
ENDBRANCH   2   3
BRANCH   2  14
HETATM   14  C   UNL     1     -12.114  14.482  70.940  1.00  0.00    -0.336 A  
HETATM   15  C   UNL     1     -13.480  12.627  71.272  1.00  0.00     0.295 A  
HETATM   16  N   UNL     1     -14.359  13.302  72.018  1.00  0.00    -0.041 NA 
HETATM   17  C   UNL     1     -14.064  14.591  72.251  1.00  0.00    -0.500 A  
HETATM   18  C   UNL     1     -12.952  15.227  71.746  1.00  0.00    -0.475 A  
HETATM   19  N   UNL     1     -12.391  13.183  70.722  1.00  0.00    -0.360 NA 
BRANCH  15  20
HETATM   20  N   UNL     1     -13.753  11.281  71.037  1.00  0.00     0.857 NA 
HETATM   21  H   UNL     1     -14.647  11.078  70.590  1.00  0.00     0.000 HD 
BRANCH  20  22
HETATM   22  C   UNL     1     -12.953  10.170  71.339  1.00  0.00    -0.429 A  
HETATM   23  C   UNL     1     -13.170   9.472  72.528  1.00  0.00    -0.356 A  
HETATM   24  C   UNL     1     -12.451   8.308  72.818  1.00  0.00    -0.092 A  
HETATM   25  C   UNL     1     -11.479   7.808  71.932  1.00  0.00    -0.320 A  
HETATM   26  C   UNL     1     -11.230   8.530  70.752  1.00  0.00    -0.257 A  
HETATM   27  C   UNL     1     -10.763   6.544  72.303  1.00  0.00    -0.252 C  
HETATM   28  C   UNL     1     -11.971   9.689  70.464  1.00  0.00    -0.241 A  
BRANCH  26  29
HETATM   29  S   UNL     1      -9.950   8.093  69.581  1.00  0.00    -0.197 S  
HETATM   30  O   UNL     1      -9.869   6.658  69.474  1.00  0.00    -0.152 OA 
HETATM   31  O   UNL     1      -8.781   8.899  69.857  1.00  0.00    -0.126 OA 
HETATM   32  N   UNL     1     -10.591   8.669  68.143  1.00  0.00    -0.393 N  
HETATM   33  H1  UNL     1      -9.861   8.419  67.475  1.00  0.00     0.000 HD 
HETATM   34  H2  UNL     1     -11.478   9.144  67.978  1.00  0.00     0.000 HD 
ENDBRANCH  26  29
ENDBRANCH  20  22
ENDBRANCH  15  20
ENDBRANCH   2  14
TORSDOF 5
ENDMDL
MODEL      274
REMARK 921   NORMALIZED FREE ENERGY PREDICTED BY IDOCK:    1.07 KCAL/MOL
REMARK 922        TOTAL FREE ENERGY PREDICTED BY IDOCK:    0.92 KCAL/MOL
REMARK 923 INTER-LIGAND FREE ENERGY PREDICTED BY IDOCK:    1.37 KCAL/MOL
REMARK 924 INTRA-LIGAND FREE ENERGY PREDICTED BY IDOCK:   -0.45 KCAL/MOL
REMARK 927      BINDING AFFINITY PREDICTED BY RF-SCORE:    0.00 PKD
ROOT
HETATM    1  C   UNL     1     -11.065   5.795  73.933  1.00  0.00     0.271 C  
HETATM    2  N   UNL     1     -10.936   6.865  72.943  1.00  0.00    -0.277 NA 
ENDROOT
BRANCH   2   3
HETATM    3  C   UNL     1      -9.754   7.661  72.999  1.00  0.00    -0.244 A  
HETATM    4  C   UNL     1      -7.848   8.454  74.487  1.00  0.00    -0.259 A  
HETATM    5  C   UNL     1      -5.129  10.039  74.134  1.00  0.00    -0.053 C  
HETATM    6  C   UNL     1      -9.246   8.310  71.843  1.00  0.00    -0.272 A  
HETATM    7  C   UNL     1      -8.033   8.997  72.030  1.00  0.00     0.294 A  
HETATM    8  C   UNL     1      -7.391   9.034  73.314  1.00  0.00     0.495 A  
HETATM    9  C   UNL     1      -6.214   9.730  73.169  1.00  0.00     0.915 A  
HETATM   10  N   UNL     1      -7.294   9.691  71.149  1.00  0.00    -0.313 NA 
HETATM   11  N   UNL     1      -6.210  10.100  71.845  1.00  0.00    -0.053 NA 
HETATM   12  C   UNL     1      -5.188  10.855  71.155  1.00  0.00    -0.093 C  
HETATM   13  C   UNL     1      -9.065   7.769  74.267  1.00  0.00    -0.018 A  
ENDBRANCH   2   3
BRANCH   2  14
HETATM   14  C   UNL     1     -11.869   6.888  71.885  1.00  0.00    -0.315 A  
HETATM   15  C   UNL     1     -12.264   6.700  69.599  1.00  0.00     0.709 A  
HETATM   16  N   UNL     1     -13.558   7.013  69.711  1.00  0.00     3.476 NA 
HETATM   17  C   UNL     1     -14.005   7.224  70.959  1.00  0.00     0.069 A  
HETATM   18  C   UNL     1     -13.209   7.165  72.080  1.00  0.00    -0.170 A  
HETATM   19  N   UNL     1     -11.419   6.651  70.639  1.00  0.00    -0.342 NA 
BRANCH  15  20
HETATM   20  N   UNL     1     -11.783   6.452  68.315  1.00  0.00    -0.291 NA 
HETATM   21  H   UNL     1     -12.221   5.677  67.817  1.00  0.00     0.000 HD 
BRANCH  20  22
HETATM   22  C   UNL     1     -10.773   7.133  67.622  1.00  0.00    -0.244 A  
HETATM   23  C   UNL     1      -9.602   6.455  67.278  1.00  0.00    -0.143 A  
HETATM   24  C   UNL     1      -8.613   7.077  66.509  1.00  0.00    -0.130 A  
HETATM   25  C   UNL     1      -8.756   8.406  66.068  1.00  0.00    -0.183 A  
HETATM   26  C   UNL     1      -9.916   9.104  66.446  1.00  0.00    -0.288 A  
HETATM   27  C   UNL     1      -7.661   8.999  65.233  1.00  0.00    -0.098 C  
HETATM   28  C   UNL     1     -10.910   8.462  67.205  1.00  0.00    -0.072 A  
BRANCH  26  29
HETATM   29  S   UNL     1     -10.196  10.830  66.066  1.00  0.00    -0.240 S  
HETATM   30  O   UNL     1     -11.282  11.327  66.872  1.00  0.00    -0.298 OA 
HETATM   31  O   UNL     1     -10.184  10.991  64.628  1.00  0.00    -0.284 OA 
HETATM   32  N   UNL     1      -8.785  11.537  66.631  1.00  0.00    -0.178 N  
HETATM   33  H1  UNL     1      -8.945  12.521  66.415  1.00  0.00     0.000 HD 
HETATM   34  H2  UNL     1      -7.979  11.098  67.075  1.00  0.00     0.000 HD 
ENDBRANCH  26  29
ENDBRANCH  20  22
ENDBRANCH  15  20
ENDBRANCH   2  14
TORSDOF 5
ENDMDL
MODEL      275
REMARK 921   NORMALIZED FREE ENERGY PREDICTED BY IDOCK:    1.34 KCAL/MOL
REMARK 922        TOTAL FREE ENERGY PREDICTED BY IDOCK:    1.26 KCAL/MOL
REMARK 923 INTER-LIGAND FREE ENERGY PREDICTED BY IDOCK:    1.96 KCAL/MOL
REMARK 924 INTRA-LIGAND FREE ENERGY PREDICTED BY IDOCK:   -0.70 KCAL/MOL
REMARK 927      BINDING AFFINITY PREDICTED BY RF-SCORE:    0.00 PKD
ROOT
HETATM    1  C   UNL     1     -11.065   5.795  73.933  1.00  0.00     0.271 C  
HETATM    2  N   UNL     1     -10.927   6.882  72.964  1.00  0.00    -0.282 NA 
ENDROOT
BRANCH   2   3
HETATM    3  C   UNL     1      -9.746   7.678  73.045  1.00  0.00    -0.244 A  
HETATM    4  C   UNL     1      -7.855   8.445  74.566  1.00  0.00    -0.259 A  
HETATM    5  C   UNL     1      -5.133  10.037  74.267  1.00  0.00    -0.073 C  
HETATM    6  C   UNL     1      -9.227   8.347  71.906  1.00  0.00    -0.306 A  
HETATM    7  C   UNL     1      -8.016   9.032  72.117  1.00  0.00     0.364 A  
HETATM    8  C   UNL     1      -7.386   9.046  73.408  1.00  0.00     0.491 A  
HETATM    9  C   UNL     1      -6.209   9.744  73.286  1.00  0.00     0.921 A  
HETATM   10  N   UNL     1      -7.269   9.741  71.255  1.00  0.00    -0.249 NA 
HETATM   11  N   UNL     1      -6.192  10.139  71.969  1.00  0.00     0.048 NA 
HETATM   12  C   UNL     1      -5.164  10.905  71.303  1.00  0.00    -0.071 C  
HETATM   13  C   UNL     1      -9.069   7.764  74.322  1.00  0.00    -0.018 A  
ENDBRANCH   2   3
BRANCH   2  14
HETATM   14  C   UNL     1     -11.850   6.924  71.897  1.00  0.00    -0.315 A  
HETATM   15  C   UNL     1     -12.223   6.777  69.604  1.00  0.00     0.651 A  
HETATM   16  N   UNL     1     -13.518   7.087  69.710  1.00  0.00     3.168 NA 
HETATM   17  C   UNL     1     -13.977   7.276  70.957  1.00  0.00     0.069 A  
HETATM   18  C   UNL     1     -13.191   7.197  72.084  1.00  0.00    -0.043 A  
HETATM   19  N   UNL     1     -11.388   6.709  70.652  1.00  0.00    -0.323 NA 
BRANCH  15  20
HETATM   20  N   UNL     1     -11.729   6.552  68.321  1.00  0.00    -0.298 NA 
HETATM   21  H   UNL     1     -12.231   5.859  67.765  1.00  0.00     0.000 HD 
BRANCH  20  22
HETATM   22  C   UNL     1     -10.629   7.157  67.697  1.00  0.00    -0.248 A  
HETATM   23  C   UNL     1     -10.404   8.522  67.880  1.00  0.00    -0.281 A  
HETATM   24  C   UNL     1      -9.267   9.139  67.347  1.00  0.00    -0.150 A  
HETATM   25  C   UNL     1      -8.322   8.412  66.600  1.00  0.00    -0.110 A  
HETATM   26  C   UNL     1      -8.566   7.045  66.381  1.00  0.00    -0.135 A  
HETATM   27  C   UNL     1      -7.119   9.139  66.076  1.00  0.00    -0.090 C  
HETATM   28  C   UNL     1      -9.703   6.433  66.936  1.00  0.00    -0.190 A  
BRANCH  26  29
HETATM   29  S   UNL     1      -7.525   6.010  65.359  1.00  0.00    -0.086 S  
HETATM   30  O   UNL     1      -6.185   6.006  65.890  1.00  0.00    -0.035 OA 
HETATM   31  O   UNL     1      -7.788   6.323  63.971  1.00  0.00    -0.109 OA 
HETATM   32  N   UNL     1      -8.178   4.491  65.632  1.00  0.00    -0.109 N  
HETATM   33  H1  UNL     1      -7.584   3.901  65.050  1.00  0.00     0.000 HD 
HETATM   34  H2  UNL     1      -8.964   4.226  66.226  1.00  0.00     0.000 HD 
ENDBRANCH  26  29
ENDBRANCH  20  22
ENDBRANCH  15  20
ENDBRANCH   2  14
TORSDOF 5
ENDMDL
MODEL      276
REMARK 921   NORMALIZED FREE ENERGY PREDICTED BY IDOCK:    4.45 KCAL/MOL
REMARK 922        TOTAL FREE ENERGY PREDICTED BY IDOCK:    5.29 KCAL/MOL
REMARK 923 INTER-LIGAND FREE ENERGY PREDICTED BY IDOCK:    5.92 KCAL/MOL
REMARK 924 INTRA-LIGAND FREE ENERGY PREDICTED BY IDOCK:   -0.63 KCAL/MOL
REMARK 927      BINDING AFFINITY PREDICTED BY RF-SCORE:    0.00 PKD
ROOT
HETATM    1  C   UNL     1     -10.824   5.937  74.329  1.00  0.00     0.301 C  
HETATM    2  N   UNL     1     -10.863   6.872  73.204  1.00  0.00    -0.296 NA 
ENDROOT
BRANCH   2   3
HETATM    3  C   UNL     1      -9.714   7.692  73.002  1.00  0.00    -0.244 A  
HETATM    4  C   UNL     1      -7.861   8.999  74.158  1.00  0.00     0.588 A  
HETATM    5  C   UNL     1      -5.201  10.497  73.315  1.00  0.00     0.358 C  
HETATM    6  C   UNL     1      -9.216   7.956  71.699  1.00  0.00    -0.180 A  
HETATM    7  C   UNL     1      -8.033   8.717  71.656  1.00  0.00    -0.119 A  
HETATM    8  C   UNL     1      -7.411   9.190  72.861  1.00  0.00     0.688 A  
HETATM    9  C   UNL     1      -6.260   9.850  72.500  1.00  0.00     0.876 A  
HETATM   10  N   UNL     1      -7.309   9.120  70.599  1.00  0.00    -0.098 NA 
HETATM   11  N   UNL     1      -6.253   9.776  71.127  1.00  0.00    -0.230 NA 
HETATM   12  C   UNL     1      -5.251  10.310  70.232  1.00  0.00    -0.042 C  
HETATM   13  C   UNL     1      -9.048   8.230  74.169  1.00  0.00     0.476 A  
ENDBRANCH   2   3
BRANCH   2  14
HETATM   14  C   UNL     1     -11.927   6.741  72.285  1.00  0.00    -0.210 A  
HETATM   15  C   UNL     1     -12.599   6.441  70.077  1.00  0.00     1.548 A  
HETATM   16  N   UNL     1     -13.897   6.578  70.366  1.00  0.00     2.385 NA 
HETATM   17  C   UNL     1     -14.195   6.760  71.662  1.00  0.00    -0.088 A  
HETATM   18  C   UNL     1     -13.252   6.839  72.661  1.00  0.00     0.772 A  
HETATM   19  N   UNL     1     -11.622   6.534  70.991  1.00  0.00    -0.335 NA 
BRANCH  15  20
HETATM   20  N   UNL     1     -12.268   6.225  68.741  1.00  0.00     1.197 NA 
HETATM   21  H   UNL     1     -13.048   6.218  68.083  1.00  0.00     0.000 HD 
BRANCH  20  22
HETATM   22  C   UNL     1     -10.997   6.017  68.187  1.00  0.00    -0.246 A  
HETATM   23  C   UNL     1     -10.478   6.956  67.294  1.00  0.00    -0.357 A  
HETATM   24  C   UNL     1      -9.179   6.825  66.792  1.00  0.00    -0.172 A  
HETATM   25  C   UNL     1      -8.358   5.742  67.157  1.00  0.00    -0.104 A  
HETATM   26  C   UNL     1      -8.893   4.774  68.025  1.00  0.00    -0.105 A  
HETATM   27  C   UNL     1      -6.970   5.680  66.592  1.00  0.00    -0.064 C  
HETATM   28  C   UNL     1     -10.193   4.925  68.536  1.00  0.00    -0.105 A  
BRANCH  26  29
HETATM   29  S   UNL     1      -8.023   3.282  68.493  1.00  0.00    -0.057 S  
HETATM   30  O   UNL     1      -6.868   3.629  69.281  1.00  0.00    -0.043 OA 
HETATM   31  O   UNL     1      -7.918   2.429  67.329  1.00  0.00    -0.068 OA 
HETATM   32  N   UNL     1      -9.129   2.549  69.517  1.00  0.00    -0.108 N  
HETATM   33  H1  UNL     1      -8.633   1.698  69.784  1.00  0.00     0.000 HD 
HETATM   34  H2  UNL     1     -10.055   2.869  69.799  1.00  0.00     0.000 HD 
ENDBRANCH  26  29
ENDBRANCH  20  22
ENDBRANCH  15  20
ENDBRANCH   2  14
TORSDOF 5
ENDMDL
MODEL      277
REMARK 921   NORMALIZED FREE ENERGY PREDICTED BY IDOCK:    4.63 KCAL/MOL
REMARK 922        TOTAL FREE ENERGY PREDICTED BY IDOCK:    5.52 KCAL/MOL
REMARK 923 INTER-LIGAND FREE ENERGY PREDICTED BY IDOCK:    6.24 KCAL/MOL
REMARK 924 INTRA-LIGAND FREE ENERGY PREDICTED BY IDOCK:   -0.72 KCAL/MOL
REMARK 927      BINDING AFFINITY PREDICTED BY RF-SCORE:    0.00 PKD
ROOT
HETATM    1  C   UNL     1     -10.677  15.787  72.210  1.00  0.00     1.326 C  
HETATM    2  N   UNL     1     -10.696  15.610  70.758  1.00  0.00    -0.247 NA 
ENDROOT
BRANCH   2   3
HETATM    3  C   UNL     1      -9.543  16.041  70.037  1.00  0.00     0.317 A  
HETATM    4  C   UNL     1      -7.439  15.275  68.827  1.00  0.00    -0.135 A  
HETATM    5  C   UNL     1      -5.199  16.582  67.010  1.00  0.00    -0.064 C  
HETATM    6  C   UNL     1      -9.339  17.411  69.722  1.00  0.00     0.962 A  
HETATM    7  C   UNL     1      -8.199  17.679  68.942  1.00  0.00    -0.151 A  
HETATM    8  C   UNL     1      -7.318  16.624  68.527  1.00  0.00    -0.201 A  
HETATM    9  C   UNL     1      -6.338  17.186  67.745  1.00  0.00    -0.145 A  
HETATM   10  N   UNL     1      -7.738  18.849  68.469  1.00  0.00    -0.320 NA 
HETATM   11  N   UNL     1      -6.642  18.528  67.747  1.00  0.00    -0.212 NA 
HETATM   12  C   UNL     1      -5.927  19.584  67.068  1.00  0.00    -0.177 C  
HETATM   13  C   UNL     1      -8.593  15.037  69.608  1.00  0.00     0.005 A  
ENDBRANCH   2   3
BRANCH   2  14
HETATM   14  C   UNL     1     -11.741  14.836  70.210  1.00  0.00    -0.298 A  
HETATM   15  C   UNL     1     -12.743  12.746  69.993  1.00  0.00     0.310 A  
HETATM   16  N   UNL     1     -13.659  13.183  69.124  1.00  0.00     3.659 NA 
HETATM   17  C   UNL     1     -13.620  14.493  68.837  1.00  0.00     4.383 A  
HETATM   18  C   UNL     1     -12.691  15.365  69.358  1.00  0.00     0.216 A  
HETATM   19  N   UNL     1     -11.790  13.528  70.521  1.00  0.00    -0.241 NA 
BRANCH  15  20
HETATM   20  N   UNL     1     -12.781  11.394  70.325  1.00  0.00    -0.109 NA 
HETATM   21  H   UNL     1     -13.660  11.054  70.715  1.00  0.00     0.000 HD 
BRANCH  20  22
HETATM   22  C   UNL     1     -11.761  10.441  70.192  1.00  0.00    -0.312 A  
HETATM   23  C   UNL     1     -11.235   9.837  71.335  1.00  0.00    -0.368 A  
HETATM   24  C   UNL     1     -10.281   8.819  71.233  1.00  0.00    -0.332 A  
HETATM   25  C   UNL     1      -9.811   8.378  69.982  1.00  0.00    -0.182 A  
HETATM   26  C   UNL     1     -10.311   9.011  68.830  1.00  0.00    -0.215 A  
HETATM   27  C   UNL     1      -8.802   7.269  69.952  1.00  0.00    -0.142 C  
HETATM   28  C   UNL     1     -11.281  10.022  68.945  1.00  0.00    -0.179 A  
BRANCH  26  29
HETATM   29  S   UNL     1      -9.732   8.649  67.177  1.00  0.00    -0.210 S  
HETATM   30  O   UNL     1      -8.300   8.489  67.196  1.00  0.00    -0.110 OA 
HETATM   31  O   UNL     1     -10.380   9.556  66.255  1.00  0.00    -0.244 OA 
HETATM   32  N   UNL     1     -10.403   7.137  66.903  1.00  0.00    -0.349 N  
HETATM   33  H1  UNL     1     -10.073   6.931  65.960  1.00  0.00     0.000 HD 
HETATM   34  H2  UNL     1     -10.988   6.573  67.518  1.00  0.00     0.000 HD 
ENDBRANCH  26  29
ENDBRANCH  20  22
ENDBRANCH  15  20
ENDBRANCH   2  14
TORSDOF 5
ENDMDL
MODEL      278
REMARK 921   NORMALIZED FREE ENERGY PREDICTED BY IDOCK:    7.80 KCAL/MOL
REMARK 922        TOTAL FREE ENERGY PREDICTED BY IDOCK:    9.61 KCAL/MOL
REMARK 923 INTER-LIGAND FREE ENERGY PREDICTED BY IDOCK:   10.09 KCAL/MOL
REMARK 924 INTRA-LIGAND FREE ENERGY PREDICTED BY IDOCK:   -0.48 KCAL/MOL
REMARK 927      BINDING AFFINITY PREDICTED BY RF-SCORE:    0.00 PKD
ROOT
HETATM    1  C   UNL     1     -10.610   6.565  73.529  1.00  0.00    -0.290 C  
HETATM    2  N   UNL     1     -10.703   7.443  72.363  1.00  0.00    -0.236 NA 
ENDROOT
BRANCH   2   3
HETATM    3  C   UNL     1      -9.590   8.296  72.103  1.00  0.00    -0.268 A  
HETATM    4  C   UNL     1      -7.688   9.615  73.161  1.00  0.00     2.734 A  
HETATM    5  C   UNL     1      -5.130  11.200  72.174  1.00  0.00     0.177 C  
HETATM    6  C   UNL     1      -9.193   8.607  70.776  1.00  0.00    -0.223 A  
HETATM    7  C   UNL     1      -8.033   9.397  70.670  1.00  0.00    -0.158 A  
HETATM    8  C   UNL     1      -7.337   9.853  71.841  1.00  0.00     1.727 A  
HETATM    9  C   UNL     1      -6.230  10.550  71.419  1.00  0.00     0.536 A  
HETATM   10  N   UNL     1      -7.397   9.847  69.577  1.00  0.00    -0.088 NA 
HETATM   11  N   UNL     1      -6.320  10.514  70.047  1.00  0.00    -0.101 NA 
HETATM   12  C   UNL     1      -5.397  11.096  69.099  1.00  0.00    -0.040 C  
HETATM   13  C   UNL     1      -8.853   8.818  73.234  1.00  0.00     0.390 A  
ENDBRANCH   2   3
BRANCH   2  14
HETATM   14  C   UNL     1     -11.774   7.227  71.469  1.00  0.00    -0.289 A  
HETATM   15  C   UNL     1     -12.466   6.791  69.290  1.00  0.00     2.338 A  
HETATM   16  N   UNL     1     -13.764   6.895  69.592  1.00  0.00     4.617 NA 
HETATM   17  C   UNL     1     -14.050   7.132  70.882  1.00  0.00     0.407 A  
HETATM   18  C   UNL     1     -13.097   7.296  71.861  1.00  0.00    -0.290 A  
HETATM   19  N   UNL     1     -11.480   6.966  70.182  1.00  0.00    -0.315 NA 
BRANCH  15  20
HETATM   20  N   UNL     1     -12.146   6.521  67.961  1.00  0.00     0.928 NA 
HETATM   21  H   UNL     1     -12.895   6.666  67.283  1.00  0.00     0.000 HD 
BRANCH  20  22
HETATM   22  C   UNL     1     -10.925   6.074  67.438  1.00  0.00    -0.246 A  
HETATM   23  C   UNL     1     -10.558   4.737  67.601  1.00  0.00     0.190 A  
HETATM   24  C   UNL     1      -9.390   4.238  67.015  1.00  0.00    -0.184 A  
HETATM   25  C   UNL     1      -8.540   5.064  66.256  1.00  0.00    -0.113 A  
HETATM   26  C   UNL     1      -8.887   6.420  66.123  1.00  0.00    -0.150 A  
HETATM   27  C   UNL     1      -7.315   4.452  65.644  1.00  0.00    -0.080 C  
HETATM   28  C   UNL     1     -10.071   6.906  66.702  1.00  0.00    -0.211 A  
BRANCH  26  29
HETATM   29  S   UNL     1      -7.857   7.623  65.290  1.00  0.00    -0.129 S  
HETATM   30  O   UNL     1      -7.376   7.065  64.051  1.00  0.00    -0.070 OA 
HETATM   31  O   UNL     1      -6.954   8.203  66.260  1.00  0.00    -0.061 OA 
HETATM   32  N   UNL     1      -8.968   8.817  64.906  1.00  0.00    -0.412 N  
HETATM   33  H1  UNL     1      -8.381   9.503  64.432  1.00  0.00     0.000 HD 
HETATM   34  H2  UNL     1      -9.969   8.850  65.098  1.00  0.00     0.000 HD 
ENDBRANCH  26  29
ENDBRANCH  20  22
ENDBRANCH  15  20
ENDBRANCH   2  14
TORSDOF 5
ENDMDL
MODEL      279
REMARK 921   NORMALIZED FREE ENERGY PREDICTED BY IDOCK:    8.35 KCAL/MOL
REMARK 922        TOTAL FREE ENERGY PREDICTED BY IDOCK:   10.32 KCAL/MOL
REMARK 923 INTER-LIGAND FREE ENERGY PREDICTED BY IDOCK:    9.13 KCAL/MOL
REMARK 924 INTRA-LIGAND FREE ENERGY PREDICTED BY IDOCK:    1.19 KCAL/MOL
REMARK 927      BINDING AFFINITY PREDICTED BY RF-SCORE:    0.00 PKD
ROOT
HETATM    1  C   UNL     1     -14.016  11.925  70.065  1.00  0.00     4.814 C  
HETATM    2  N   UNL     1     -12.711  12.141  69.440  1.00  0.00     0.502 NA 
ENDROOT
BRANCH   2   3
HETATM    3  C   UNL     1     -12.080  11.007  68.848  1.00  0.00    -0.169 A  
HETATM    4  C   UNL     1     -10.905  10.130  66.768  1.00  0.00    -0.129 A  
HETATM    5  C   UNL     1      -9.304   7.530  65.926  1.00  0.00     0.022 C  
HETATM    6  C   UNL     1     -11.889   9.804  69.578  1.00  0.00     0.204 A  
HETATM    7  C   UNL     1     -11.185   8.796  68.892  1.00  0.00     0.385 A  
HETATM    8  C   UNL     1     -10.723   8.998  67.547  1.00  0.00    -0.239 A  
HETATM    9  C   UNL     1     -10.035   7.868  67.173  1.00  0.00    -0.230 A  
HETATM   10  N   UNL     1     -10.832   7.567  69.299  1.00  0.00    -0.169 NA 
HETATM   11  N   UNL     1     -10.135   7.042  68.268  1.00  0.00    -0.160 NA 
HETATM   12  C   UNL     1      -9.578   5.716  68.411  1.00  0.00    -0.126 C  
HETATM   13  C   UNL     1     -11.611  11.123  67.483  1.00  0.00    -0.220 A  
ENDBRANCH   2   3
BRANCH   2  14
HETATM   14  C   UNL     1     -12.280  13.475  69.275  1.00  0.00    -0.211 A  
HETATM   15  C   UNL     1     -10.523  14.943  68.859  1.00  0.00    -0.242 A  
HETATM   16  N   UNL     1     -11.278  16.031  69.038  1.00  0.00    -0.325 NA 
HETATM   17  C   UNL     1     -12.575  15.808  69.302  1.00  0.00     0.373 A  
HETATM   18  C   UNL     1     -13.130  14.554  69.421  1.00  0.00     1.057 A  
HETATM   19  N   UNL     1     -10.984  13.690  68.986  1.00  0.00    -0.252 NA 
BRANCH  15  20
HETATM   20  N   UNL     1      -9.178  15.150  68.559  1.00  0.00    -0.185 NA 
HETATM   21  H   UNL     1      -8.594  14.315  68.529  1.00  0.00     0.000 HD 
BRANCH  20  22
HETATM   22  C   UNL     1      -8.526  16.363  68.293  1.00  0.00    -0.195 A  
HETATM   23  C   UNL     1      -7.619  16.435  67.235  1.00  0.00    -0.198 A  
HETATM   24  C   UNL     1      -7.020  17.649  66.887  1.00  0.00    -0.219 A  
HETATM   25  C   UNL     1      -7.298  18.833  67.594  1.00  0.00    -0.238 A  
HETATM   26  C   UNL     1      -8.181  18.756  68.685  1.00  0.00    -0.329 A  
HETATM   27  C   UNL     1      -6.630  20.101  67.150  1.00  0.00    -0.247 C  
HETATM   28  C   UNL     1      -8.790  17.533  69.016  1.00  0.00    -0.033 A  
BRANCH  26  29
HETATM   29  S   UNL     1      -8.548  20.142  69.756  1.00  0.00     1.295 S  
HETATM   30  O   UNL     1      -8.233  19.791  71.118  1.00  0.00     1.756 OA 
HETATM   31  O   UNL     1      -9.844  20.672  69.391  1.00  0.00     0.465 OA 
HETATM   32  N   UNL     1      -7.417  21.271  69.254  1.00  0.00     2.371 N  
HETATM   33  H1  UNL     1      -7.626  22.061  69.864  1.00  0.00     0.000 HD 
HETATM   34  H2  UNL     1      -6.705  21.190  68.527  1.00  0.00     0.000 HD 
ENDBRANCH  26  29
ENDBRANCH  20  22
ENDBRANCH  15  20
ENDBRANCH   2  14
TORSDOF 5
ENDMDL
MODEL      280
REMARK 921   NORMALIZED FREE ENERGY PREDICTED BY IDOCK:    8.37 KCAL/MOL
REMARK 922        TOTAL FREE ENERGY PREDICTED BY IDOCK:   10.36 KCAL/MOL
REMARK 923 INTER-LIGAND FREE ENERGY PREDICTED BY IDOCK:   10.20 KCAL/MOL
REMARK 924 INTRA-LIGAND FREE ENERGY PREDICTED BY IDOCK:    0.15 KCAL/MOL
REMARK 927      BINDING AFFINITY PREDICTED BY RF-SCORE:    0.00 PKD
ROOT
HETATM    1  C   UNL     1     -10.610   6.565  73.529  1.00  0.00    -0.290 C  
HETATM    2  N   UNL     1     -10.681   7.446  72.364  1.00  0.00    -0.236 NA 
ENDROOT
BRANCH   2   3
HETATM    3  C   UNL     1      -9.572   8.315  72.139  1.00  0.00    -0.268 A  
HETATM    4  C   UNL     1      -7.721   9.656  73.258  1.00  0.00     2.783 A  
HETATM    5  C   UNL     1      -5.157  11.280  72.352  1.00  0.00     0.291 C  
HETATM    6  C   UNL     1      -9.141   8.637  70.825  1.00  0.00    -0.214 A  
HETATM    7  C   UNL     1      -7.989   9.443  70.757  1.00  0.00    -0.116 A  
HETATM    8  C   UNL     1      -7.334   9.904  71.950  1.00  0.00     1.727 A  
HETATM    9  C   UNL     1      -6.225  10.617  71.562  1.00  0.00     0.804 A  
HETATM   10  N   UNL     1      -7.327   9.906  69.685  1.00  0.00    -0.098 NA 
HETATM   11  N   UNL     1      -6.274  10.585  70.188  1.00  0.00    -0.101 NA 
HETATM   12  C   UNL     1      -5.332  11.184  69.270  1.00  0.00    -0.040 C  
HETATM   13  C   UNL     1      -8.877   8.843  73.294  1.00  0.00     0.735 A  
ENDBRANCH   2   3
BRANCH   2  14
HETATM   14  C   UNL     1     -11.722   7.219  71.437  1.00  0.00    -0.287 A  
HETATM   15  C   UNL     1     -12.344   6.782  69.237  1.00  0.00     1.806 A  
HETATM   16  N   UNL     1     -13.651   6.867  69.501  1.00  0.00     4.926 NA 
HETATM   17  C   UNL     1     -13.978   7.095  70.783  1.00  0.00     0.628 A  
HETATM   18  C   UNL     1     -13.056   7.268  71.791  1.00  0.00    -0.365 A  
HETATM   19  N   UNL     1     -11.387   6.966  70.159  1.00  0.00    -0.313 NA 
BRANCH  15  20
HETATM   20  N   UNL     1     -11.981   6.521  67.918  1.00  0.00     0.452 NA 
HETATM   21  H   UNL     1     -12.667   6.777  67.207  1.00  0.00     0.000 HD 
BRANCH  20  22
HETATM   22  C   UNL     1     -10.792   5.950  67.443  1.00  0.00    -0.248 A  
HETATM   23  C   UNL     1      -9.597   6.190  68.125  1.00  0.00    -0.117 A  
HETATM   24  C   UNL     1      -8.410   5.565  67.732  1.00  0.00    -0.099 A  
HETATM   25  C   UNL     1      -8.373   4.686  66.633  1.00  0.00    -0.106 A  
HETATM   26  C   UNL     1      -9.566   4.473  65.921  1.00  0.00    -0.189 A  
HETATM   27  C   UNL     1      -7.066   4.040  66.283  1.00  0.00    -0.064 C  
HETATM   28  C   UNL     1     -10.757   5.094  66.335  1.00  0.00    -0.275 A  
BRANCH  26  29
HETATM   29  S   UNL     1      -9.663   3.479  64.436  1.00  0.00    -0.182 S  
HETATM   30  O   UNL     1      -9.685   2.084  64.795  1.00  0.00    -0.052 OA 
HETATM   31  O   UNL     1      -8.716   3.999  63.474  1.00  0.00    -0.098 OA 
HETATM   32  N   UNL     1     -11.187   3.874  63.859  1.00  0.00    -0.189 N  
HETATM   33  H1  UNL     1     -11.242   3.307  63.013  1.00  0.00     0.000 HD 
HETATM   34  H2  UNL     1     -11.878   4.513  64.252  1.00  0.00     0.000 HD 
ENDBRANCH  26  29
ENDBRANCH  20  22
ENDBRANCH  15  20
ENDBRANCH   2  14
TORSDOF 5
ENDMDL
MODEL      281
REMARK 921   NORMALIZED FREE ENERGY PREDICTED BY IDOCK:    9.27 KCAL/MOL
REMARK 922        TOTAL FREE ENERGY PREDICTED BY IDOCK:   11.52 KCAL/MOL
REMARK 923 INTER-LIGAND FREE ENERGY PREDICTED BY IDOCK:   12.32 KCAL/MOL
REMARK 924 INTRA-LIGAND FREE ENERGY PREDICTED BY IDOCK:   -0.80 KCAL/MOL
REMARK 927      BINDING AFFINITY PREDICTED BY RF-SCORE:    0.00 PKD
ROOT
HETATM    1  C   UNL     1      -6.932  11.904  66.425  1.00  0.00     0.346 C  
HETATM    2  N   UNL     1      -7.206  10.526  66.835  1.00  0.00    -0.101 NA 
ENDROOT
BRANCH   2   3
HETATM    3  C   UNL     1      -8.108  10.341  67.924  1.00  0.00    -0.102 A  
HETATM    4  C   UNL     1      -8.296   9.739  70.389  1.00  0.00    -0.106 A  
HETATM    5  C   UNL     1     -10.548   9.741  72.616  1.00  0.00     3.352 C  
HETATM    6  C   UNL     1      -9.497  10.602  67.785  1.00  0.00    -0.165 A  
HETATM    7  C   UNL     1     -10.253  10.449  68.962  1.00  0.00    -0.217 A  
HETATM    8  C   UNL     1      -9.635  10.041  70.193  1.00  0.00    -0.151 A  
HETATM    9  C   UNL     1     -10.610  10.031  71.162  1.00  0.00     0.200 A  
HETATM   10  N   UNL     1     -11.567  10.630  69.168  1.00  0.00    -0.280 NA 
HETATM   11  N   UNL     1     -11.751  10.394  70.486  1.00  0.00    -0.318 NA 
HETATM   12  C   UNL     1     -13.079  10.544  71.037  1.00  0.00    -0.330 C  
HETATM   13  C   UNL     1      -7.563   9.904  69.192  1.00  0.00    -0.090 A  
ENDBRANCH   2   3
BRANCH   2  14
HETATM   14  C   UNL     1      -6.740   9.492  65.994  1.00  0.00    -0.082 A  
HETATM   15  C   UNL     1      -6.928   7.277  65.303  1.00  0.00    -0.056 A  
HETATM   16  N   UNL     1      -5.867   7.352  64.495  1.00  0.00    -0.037 NA 
HETATM   17  C   UNL     1      -5.267   8.551  64.421  1.00  0.00    -0.043 A  
HETATM   18  C   UNL     1      -5.668   9.654  65.139  1.00  0.00    -0.066 A  
HETATM   19  N   UNL     1      -7.361   8.300  66.055  1.00  0.00    -0.079 NA 
BRANCH  15  20
HETATM   20  N   UNL     1      -7.582   6.049  65.377  1.00  0.00    -0.082 NA 
HETATM   21  H   UNL     1      -7.261   5.333  64.725  1.00  0.00     0.000 HD 
BRANCH  20  22
HETATM   22  C   UNL     1      -8.625   5.673  66.234  1.00  0.00    -0.127 A  
HETATM   23  C   UNL     1      -9.701   4.944  65.725  1.00  0.00    -0.184 A  
HETATM   24  C   UNL     1     -10.713   4.477  66.569  1.00  0.00     0.329 A  
HETATM   25  C   UNL     1     -10.691   4.734  67.952  1.00  0.00     0.467 A  
HETATM   26  C   UNL     1      -9.629   5.502  68.462  1.00  0.00    -0.127 A  
HETATM   27  C   UNL     1     -11.803   4.184  68.795  1.00  0.00    11.124 C  
HETATM   28  C   UNL     1      -8.609   5.952  67.606  1.00  0.00    -0.102 A  
BRANCH  26  29
HETATM   29  S   UNL     1      -9.516   6.014  70.173  1.00  0.00    -0.159 S  
HETATM   30  O   UNL     1     -10.741   6.668  70.558  1.00  0.00    -0.226 OA 
HETATM   31  O   UNL     1      -8.227   6.637  70.381  1.00  0.00    -0.121 OA 
HETATM   32  N   UNL     1      -9.462   4.539  70.968  1.00  0.00    -0.149 N  
HETATM   33  H1  UNL     1      -9.398   4.831  71.943  1.00  0.00     0.000 HD 
HETATM   34  H2  UNL     1      -9.486   3.597  70.578  1.00  0.00     0.000 HD 
ENDBRANCH  26  29
ENDBRANCH  20  22
ENDBRANCH  15  20
ENDBRANCH   2  14
TORSDOF 5
ENDMDL
MODEL      282
REMARK 921   NORMALIZED FREE ENERGY PREDICTED BY IDOCK:   12.37 KCAL/MOL
REMARK 922        TOTAL FREE ENERGY PREDICTED BY IDOCK:   15.52 KCAL/MOL
REMARK 923 INTER-LIGAND FREE ENERGY PREDICTED BY IDOCK:   16.19 KCAL/MOL
REMARK 924 INTRA-LIGAND FREE ENERGY PREDICTED BY IDOCK:   -0.67 KCAL/MOL
REMARK 927      BINDING AFFINITY PREDICTED BY RF-SCORE:    0.00 PKD
ROOT
HETATM    1  C   UNL     1     -10.047  15.083  72.361  1.00  0.00     3.692 C  
HETATM    2  N   UNL     1      -9.299  14.570  71.212  1.00  0.00     3.464 NA 
ENDROOT
BRANCH   2   3
HETATM    3  C   UNL     1      -9.913  14.694  69.931  1.00  0.00     0.329 A  
HETATM    4  C   UNL     1     -10.829  16.333  68.213  1.00  0.00    -0.340 A  
HETATM    5  C   UNL     1     -11.871  16.226  65.225  1.00  0.00     0.865 C  
HETATM    6  C   UNL     1     -10.138  13.560  69.107  1.00  0.00     0.194 A  
HETATM    7  C   UNL     1     -10.681  13.841  67.840  1.00  0.00    -0.247 A  
HETATM    8  C   UNL     1     -10.990  15.189  67.448  1.00  0.00    -0.314 A  
HETATM    9  C   UNL     1     -11.453  15.147  66.154  1.00  0.00    -0.157 A  
HETATM   10  N   UNL     1     -10.994  13.008  66.835  1.00  0.00    -0.261 NA 
HETATM   11  N   UNL     1     -11.434  13.808  65.839  1.00  0.00    -0.315 NA 
HETATM   12  C   UNL     1     -11.820  13.204  64.584  1.00  0.00    -0.370 C  
HETATM   13  C   UNL     1     -10.279  16.019  69.477  1.00  0.00    -0.274 A  
ENDBRANCH   2   3
BRANCH   2  14
HETATM   14  C   UNL     1      -7.954  14.197  71.425  1.00  0.00     5.061 A  
HETATM   15  C   UNL     1      -6.090  13.026  70.671  1.00  0.00     0.080 A  
HETATM   16  N   UNL     1      -5.370  13.303  71.762  1.00  0.00    -0.341 NA 
HETATM   17  C   UNL     1      -5.966  14.084  72.677  1.00  0.00     0.459 A  
HETATM   18  C   UNL     1      -7.250  14.566  72.554  1.00  0.00     3.859 A  
HETATM   19  N   UNL     1      -7.354  13.435  70.492  1.00  0.00     1.623 NA 
BRANCH  15  20
HETATM   20  N   UNL     1      -5.482  12.237  69.696  1.00  0.00    -0.077 NA 
HETATM   21  H   UNL     1      -4.463  12.270  69.667  1.00  0.00     0.000 HD 
BRANCH  20  22
HETATM   22  C   UNL     1      -6.095  11.405  68.749  1.00  0.00    -0.048 A  
HETATM   23  C   UNL     1      -6.881  11.974  67.745  1.00  0.00    -0.100 A  
HETATM   24  C   UNL     1      -7.433  11.182  66.733  1.00  0.00    -0.146 A  
HETATM   25  C   UNL     1      -7.229   9.791  66.698  1.00  0.00    -0.090 A  
HETATM   26  C   UNL     1      -6.471   9.210  67.730  1.00  0.00    -0.056 A  
HETATM   27  C   UNL     1      -7.839   9.011  65.571  1.00  0.00    -0.096 C  
HETATM   28  C   UNL     1      -5.908  10.018  68.732  1.00  0.00    -0.034 A  
BRANCH  26  29
HETATM   29  S   UNL     1      -6.218   7.446  67.894  1.00  0.00    -0.045 S  
HETATM   30  O   UNL     1      -5.527   6.952  66.729  1.00  0.00    -0.016 OA 
HETATM   31  O   UNL     1      -7.451   6.846  68.354  1.00  0.00    -0.093 OA 
HETATM   32  N   UNL     1      -5.147   7.373  69.181  1.00  0.00    -0.015 N  
HETATM   33  H1  UNL     1      -5.003   6.367  69.274  1.00  0.00     0.000 HD 
HETATM   34  H2  UNL     1      -4.746   8.134  69.728  1.00  0.00     0.000 HD 
ENDBRANCH  26  29
ENDBRANCH  20  22
ENDBRANCH  15  20
ENDBRANCH   2  14
TORSDOF 5
ENDMDL
MODEL      283
REMARK 921   NORMALIZED FREE ENERGY PREDICTED BY IDOCK:   31.36 KCAL/MOL
REMARK 922        TOTAL FREE ENERGY PREDICTED BY IDOCK:   40.07 KCAL/MOL
REMARK 923 INTER-LIGAND FREE ENERGY PREDICTED BY IDOCK:   40.69 KCAL/MOL
REMARK 924 INTRA-LIGAND FREE ENERGY PREDICTED BY IDOCK:   -0.62 KCAL/MOL
REMARK 927      BINDING AFFINITY PREDICTED BY RF-SCORE:    0.00 PKD
ROOT
HETATM    1  C   UNL     1     -12.012  16.986  73.555  1.00  0.00     0.112 C  
HETATM    2  N   UNL     1     -11.846  16.759  72.119  1.00  0.00    -0.123 NA 
ENDROOT
BRANCH   2   3
HETATM    3  C   UNL     1     -10.652  17.255  71.518  1.00  0.00     2.648 A  
HETATM    4  C   UNL     1      -9.028  19.213  71.424  1.00  0.00     5.028 A  
HETATM    5  C   UNL     1      -6.202  19.828  70.134  1.00  0.00    -0.342 C  
HETATM    6  C   UNL     1      -9.890  16.459  70.623  1.00  0.00     1.698 A  
HETATM    7  C   UNL     1      -8.697  17.050  70.167  1.00  0.00     2.291 A  
HETATM    8  C   UNL     1      -8.317  18.371  70.583  1.00  0.00     4.320 A  
HETATM    9  C   UNL     1      -7.095  18.647  70.018  1.00  0.00     0.606 A  
HETATM   10  N   UNL     1      -7.760  16.564  69.337  1.00  0.00    -0.142 NA 
HETATM   11  N   UNL     1      -6.811  17.523  69.278  1.00  0.00    -0.232 NA 
HETATM   12  C   UNL     1      -5.630  17.282  68.480  1.00  0.00    -0.146 C  
HETATM   13  C   UNL     1     -10.218  18.592  71.867  1.00  0.00     4.398 A  
ENDBRANCH   2   3
BRANCH   2  14
HETATM   14  C   UNL     1     -12.759  15.887  71.488  1.00  0.00    -0.374 A  
HETATM   15  C   UNL     1     -13.612  13.730  71.293  1.00  0.00    -0.103 A  
HETATM   16  N   UNL     1     -14.410  14.048  70.269  1.00  0.00     2.303 NA 
HETATM   17  C   UNL     1     -14.393  15.336  69.889  1.00  0.00     2.958 A  
HETATM   18  C   UNL     1     -13.597  16.296  70.469  1.00  0.00     2.867 A  
HETATM   19  N   UNL     1     -12.788  14.603  71.890  1.00  0.00    -0.315 NA 
BRANCH  15  20
HETATM   20  N   UNL     1     -13.631  12.404  71.721  1.00  0.00    -0.144 NA 
HETATM   21  H   UNL     1     -14.548  12.024  71.956  1.00  0.00     0.000 HD 
BRANCH  20  22
HETATM   22  C   UNL     1     -12.549  11.527  71.869  1.00  0.00     0.002 A  
HETATM   23  C   UNL     1     -12.630  10.490  72.800  1.00  0.00     2.016 A  
HETATM   24  C   UNL     1     -11.606   9.544  72.910  1.00  0.00     2.177 A  
HETATM   25  C   UNL     1     -10.457   9.610  72.101  1.00  0.00     1.248 A  
HETATM   26  C   UNL     1     -10.354  10.675  71.190  1.00  0.00     2.230 A  
HETATM   27  C   UNL     1      -9.410   8.548  72.265  1.00  0.00    -0.363 C  
HETATM   28  C   UNL     1     -11.397  11.610  71.076  1.00  0.00     1.436 A  
BRANCH  26  29
HETATM   29  S   UNL     1      -8.911  10.967  70.173  1.00  0.00     1.856 S  
HETATM   30  O   UNL     1      -7.784  11.270  71.019  1.00  0.00     2.911 OA 
HETATM   31  O   UNL     1      -9.289  11.832  69.077  1.00  0.00     0.016 OA 
HETATM   32  N   UNL     1      -8.648   9.450  69.509  1.00  0.00    -0.146 N  
HETATM   33  H1  UNL     1      -7.825   9.617  68.930  1.00  0.00     0.000 HD 
HETATM   34  H2  UNL     1      -9.174   8.587  69.648  1.00  0.00     0.000 HD 
ENDBRANCH  26  29
ENDBRANCH  20  22
ENDBRANCH  15  20
ENDBRANCH   2  14
TORSDOF 5
ENDMDL
MODEL      284
REMARK 921   NORMALIZED FREE ENERGY PREDICTED BY IDOCK:   39.80 KCAL/MOL
REMARK 922        TOTAL FREE ENERGY PREDICTED BY IDOCK:   50.97 KCAL/MOL
REMARK 923 INTER-LIGAND FREE ENERGY PREDICTED BY IDOCK:   51.19 KCAL/MOL
REMARK 924 INTRA-LIGAND FREE ENERGY PREDICTED BY IDOCK:   -0.22 KCAL/MOL
REMARK 927      BINDING AFFINITY PREDICTED BY RF-SCORE:    0.00 PKD
ROOT
HETATM    1  C   UNL     1     -12.012  16.986  73.555  1.00  0.00     0.112 C  
HETATM    2  N   UNL     1     -11.837  16.754  72.121  1.00  0.00    -0.123 NA 
ENDROOT
BRANCH   2   3
HETATM    3  C   UNL     1     -10.641  17.252  71.524  1.00  0.00     2.648 A  
HETATM    4  C   UNL     1      -8.236  16.696  70.906  1.00  0.00     5.024 A  
HETATM    5  C   UNL     1      -5.899  18.030  69.237  1.00  0.00    -0.225 C  
HETATM    6  C   UNL     1     -10.595  18.542  70.932  1.00  0.00     2.524 A  
HETATM    7  C   UNL     1      -9.373  18.871  70.316  1.00  0.00     1.751 A  
HETATM    8  C   UNL     1      -8.269  17.951  70.319  1.00  0.00     3.012 A  
HETATM    9  C   UNL     1      -7.248  18.529  69.604  1.00  0.00     0.236 A  
HETATM   10  N   UNL     1      -9.013  19.988  69.664  1.00  0.00     0.467 NA 
HETATM   11  N   UNL     1      -7.753  19.754  69.235  1.00  0.00    -0.192 NA 
HETATM   12  C   UNL     1      -7.087  20.772  68.455  1.00  0.00     0.169 C  
HETATM   13  C   UNL     1      -9.476  16.394  71.514  1.00  0.00     5.597 A  
ENDBRANCH   2   3
BRANCH   2  14
HETATM   14  C   UNL     1     -12.743  15.875  71.489  1.00  0.00    -0.374 A  
HETATM   15  C   UNL     1     -13.587  13.715  71.297  1.00  0.00    -0.055 A  
HETATM   16  N   UNL     1     -14.380  14.025  70.268  1.00  0.00     2.303 NA 
HETATM   17  C   UNL     1     -14.367  15.311  69.883  1.00  0.00     2.958 A  
HETATM   18  C   UNL     1     -13.577  16.277  70.463  1.00  0.00     2.867 A  
HETATM   19  N   UNL     1     -12.769  14.593  71.896  1.00  0.00    -0.320 NA 
BRANCH  15  20
HETATM   20  N   UNL     1     -13.603  12.390  71.731  1.00  0.00    -0.144 NA 
HETATM   21  H   UNL     1     -14.520  12.008  71.963  1.00  0.00     0.000 HD 
BRANCH  20  22
HETATM   22  C   UNL     1     -12.518  11.518  71.889  1.00  0.00     0.196 A  
HETATM   23  C   UNL     1     -11.525  11.822  72.821  1.00  0.00     8.431 A  
HETATM   24  C   UNL     1     -10.476  10.930  73.068  1.00  0.00    13.297 A  
HETATM   25  C   UNL     1     -10.377   9.707  72.380  1.00  0.00     2.137 A  
HETATM   26  C   UNL     1     -11.354   9.415  71.412  1.00  0.00    -0.381 A  
HETATM   27  C   UNL     1      -9.234   8.795  72.712  1.00  0.00     0.122 C  
HETATM   28  C   UNL     1     -12.413  10.312  71.185  1.00  0.00    -0.495 A  
BRANCH  26  29
HETATM   29  S   UNL     1     -11.308   7.960  70.372  1.00  0.00    -0.133 S  
HETATM   30  O   UNL     1     -10.647   6.890  71.076  1.00  0.00    -0.217 OA 
HETATM   31  O   UNL     1     -10.897   8.359  69.043  1.00  0.00    -0.133 OA 
HETATM   32  N   UNL     1     -12.933   7.564  70.264  1.00  0.00     0.130 N  
HETATM   33  H1  UNL     1     -12.906   6.734  69.672  1.00  0.00     0.000 HD 
HETATM   34  H2  UNL     1     -13.737   8.031  70.682  1.00  0.00     0.000 HD 
ENDBRANCH  26  29
ENDBRANCH  20  22
ENDBRANCH  15  20
ENDBRANCH   2  14
TORSDOF 5
ENDMDL
MODEL      285
REMARK 921   NORMALIZED FREE ENERGY PREDICTED BY IDOCK:   44.61 KCAL/MOL
REMARK 922        TOTAL FREE ENERGY PREDICTED BY IDOCK:   57.19 KCAL/MOL
REMARK 923 INTER-LIGAND FREE ENERGY PREDICTED BY IDOCK:   56.23 KCAL/MOL
REMARK 924 INTRA-LIGAND FREE ENERGY PREDICTED BY IDOCK:    0.96 KCAL/MOL
REMARK 927      BINDING AFFINITY PREDICTED BY RF-SCORE:    0.00 PKD
ROOT
HETATM    1  C   UNL     1      -9.824  15.974  74.437  1.00  0.00    12.974 C  
HETATM    2  N   UNL     1      -9.301  15.068  73.414  1.00  0.00     7.666 NA 
ENDROOT
BRANCH   2   3
HETATM    3  C   UNL     1     -10.221  14.600  72.431  1.00  0.00     4.021 A  
HETATM    4  C   UNL     1     -12.452  13.433  72.058  1.00  0.00     0.007 A  
HETATM    5  C   UNL     1     -14.378  12.828  69.618  1.00  0.00     8.766 C  
HETATM    6  C   UNL     1     -10.004  14.831  71.047  1.00  0.00     1.660 A  
HETATM    7  C   UNL     1     -11.031  14.378  70.199  1.00  0.00     0.055 A  
HETATM    8  C   UNL     1     -12.194  13.720  70.727  1.00  0.00    -0.437 A  
HETATM    9  C   UNL     1     -13.030  13.446  69.670  1.00  0.00     0.910 A  
HETATM   10  N   UNL     1     -11.138  14.455  68.862  1.00  0.00    -0.248 NA 
HETATM   11  N   UNL     1     -12.341  13.911  68.574  1.00  0.00    -0.152 NA 
HETATM   12  C   UNL     1     -12.774  13.877  67.196  1.00  0.00     0.449 C  
HETATM   13  C   UNL     1     -11.405  13.901  72.884  1.00  0.00     3.004 A  
ENDBRANCH   2   3
BRANCH   2  14
HETATM   14  C   UNL     1      -7.900  14.904  73.345  1.00  0.00     8.043 A  
HETATM   15  C   UNL     1      -6.065  14.094  72.164  1.00  0.00     0.473 A  
HETATM   16  N   UNL     1      -5.197  14.416  73.127  1.00  0.00    -0.277 NA 
HETATM   17  C   UNL     1      -5.713  15.035  74.200  1.00  0.00     1.478 A  
HETATM   18  C   UNL     1      -7.052  15.312  74.356  1.00  0.00     6.421 A  
HETATM   19  N   UNL     1      -7.387  14.305  72.255  1.00  0.00     3.128 NA 
BRANCH  15  20
HETATM   20  N   UNL     1      -5.549  13.473  71.029  1.00  0.00    -0.196 NA 
HETATM   21  H   UNL     1      -4.568  13.196  71.078  1.00  0.00     0.000 HD 
BRANCH  20  22
HETATM   22  C   UNL     1      -6.207  13.180  69.826  1.00  0.00    -0.108 A  
HETATM   23  C   UNL     1      -6.255  11.860  69.375  1.00  0.00    -0.108 A  
HETATM   24  C   UNL     1      -6.979  11.520  68.228  1.00  0.00    -0.073 A  
HETATM   25  C   UNL     1      -7.671  12.493  67.484  1.00  0.00    -0.165 A  
HETATM   26  C   UNL     1      -7.593  13.830  67.913  1.00  0.00    -0.156 A  
HETATM   27  C   UNL     1      -8.441  12.050  66.275  1.00  0.00     0.086 C  
HETATM   28  C   UNL     1      -6.876  14.156  69.077  1.00  0.00    -0.110 A  
BRANCH  26  29
HETATM   29  S   UNL     1      -8.318  15.198  67.016  1.00  0.00    -0.227 S  
HETATM   30  O   UNL     1      -7.287  15.888  66.282  1.00  0.00     0.058 OA 
HETATM   31  O   UNL     1      -9.218  15.902  67.902  1.00  0.00    -0.197 OA 
HETATM   32  N   UNL     1      -9.281  14.402  65.899  1.00  0.00    -0.515 N  
HETATM   33  H1  UNL     1      -9.694  15.181  65.387  1.00  0.00     0.000 HD 
HETATM   34  H2  UNL     1      -9.419  13.400  65.767  1.00  0.00     0.000 HD 
ENDBRANCH  26  29
ENDBRANCH  20  22
ENDBRANCH  15  20
ENDBRANCH   2  14
TORSDOF 5
ENDMDL
