MODEL        1
REMARK 921   NORMALIZED FREE ENERGY PREDICTED BY IDOCK:   -7.47 KCAL/MOL
REMARK 922        TOTAL FREE ENERGY PREDICTED BY IDOCK:   -8.58 KCAL/MOL
REMARK 923 INTER-LIGAND FREE ENERGY PREDICTED BY IDOCK:   -8.34 KCAL/MOL
REMARK 924 INTRA-LIGAND FREE ENERGY PREDICTED BY IDOCK:   -0.24 KCAL/MOL
REMARK 927      BINDING AFFINITY PREDICTED BY RF-SCORE:    0.00 PKD
ROOT
HETATM    1  C   UNL     1     -12.910  14.595  73.230  1.00  0.00    -0.580 C  
HETATM    2  C   UNL     1     -13.729  14.042  72.071  1.00  0.00    -0.479 C  
ENDROOT
BRANCH   2   3
HETATM    3  N   UNL     1     -13.076  12.865  71.464  1.00  0.00    -0.351 NA 
HETATM    4  C   UNL     1     -13.393  11.580  71.886  1.00  0.00    -0.303 C  
HETATM    5  C   UNL     1     -12.867  10.438  71.422  1.00  0.00    -0.556 C  
HETATM    6  C   UNL     1     -13.334   9.148  71.968  1.00  0.00    -0.445 C  
HETATM    7  C   UNL     1     -11.845  10.559  70.364  1.00  0.00    -0.340 C  
HETATM    8  C   UNL     1     -11.553  11.902  69.820  1.00  0.00    -0.359 A  
HETATM    9  O   UNL     1     -11.282   9.552  69.939  1.00  0.00    -0.234 OA 
HETATM   10  O   UNL     1     -14.199   9.056  72.829  1.00  0.00    -0.572 OA 
HETATM   11  O   UNL     1     -12.736   8.062  71.432  1.00  0.00    -0.316 OA 
HETATM   12  C   UNL     1     -10.670  12.018  68.744  1.00  0.00    -0.252 A  
HETATM   13  C   UNL     1     -10.458  13.264  68.163  1.00  0.00    -0.245 A  
HETATM   14  F   UNL     1      -9.671  13.301  67.076  1.00  0.00    -0.215 F  
HETATM   15  C   UNL     1     -11.091  14.424  68.639  1.00  0.00    -0.251 A  
HETATM   16  C   UNL     1     -12.190  13.025  70.375  1.00  0.00    -0.310 A  
HETATM   17  C   UNL     1     -11.914  14.265  69.774  1.00  0.00    -0.394 A  
BRANCH  15  18
HETATM   18  N   UNL     1     -10.965  15.678  68.061  1.00  0.00    -0.308 NA 
HETATM   19  C   UNL     1     -10.580  16.882  68.815  1.00  0.00    -0.355 C  
HETATM   20  C   UNL     1      -9.311  17.533  68.217  1.00  0.00    -0.281 C  
HETATM   21  N   UNL     1      -9.370  17.797  66.759  1.00  0.00    -0.272 NA 
HETATM   22  C   UNL     1      -9.717  16.535  66.074  1.00  0.00    -0.301 C  
HETATM   23  C   UNL     1     -10.330  18.853  66.440  1.00  0.00    -0.443 C  
HETATM   24  C   UNL     1     -10.991  15.827  66.593  1.00  0.00    -0.179 C  
ENDBRANCH  15  18
ENDBRANCH   2   3
TORSDOF 2
ENDMDL
MODEL        2
REMARK 921   NORMALIZED FREE ENERGY PREDICTED BY IDOCK:   -7.47 KCAL/MOL
REMARK 922        TOTAL FREE ENERGY PREDICTED BY IDOCK:   -8.58 KCAL/MOL
REMARK 923 INTER-LIGAND FREE ENERGY PREDICTED BY IDOCK:   -8.08 KCAL/MOL
REMARK 924 INTRA-LIGAND FREE ENERGY PREDICTED BY IDOCK:   -0.49 KCAL/MOL
REMARK 927      BINDING AFFINITY PREDICTED BY RF-SCORE:    0.00 PKD
ROOT
HETATM    1  C   UNL     1     -12.017  16.444  72.676  1.00  0.00    -0.595 C  
HETATM    2  C   UNL     1     -11.689  15.095  72.051  1.00  0.00    -0.422 C  
ENDROOT
BRANCH   2   3
HETATM    3  N   UNL     1     -11.446  15.219  70.601  1.00  0.00    -0.292 NA 
HETATM    4  C   UNL     1     -11.023  16.424  70.052  1.00  0.00    -0.318 C  
HETATM    5  C   UNL     1     -10.775  16.665  68.757  1.00  0.00    -0.342 C  
HETATM    6  C   UNL     1     -10.308  18.003  68.342  1.00  0.00    -0.368 C  
HETATM    7  C   UNL     1     -10.981  15.541  67.822  1.00  0.00    -0.317 C  
HETATM    8  C   UNL     1     -11.335  14.219  68.379  1.00  0.00    -0.309 A  
HETATM    9  O   UNL     1     -10.828  15.715  66.614  1.00  0.00    -0.313 OA 
HETATM   10  O   UNL     1     -10.118  18.921  69.128  1.00  0.00    -0.365 OA 
HETATM   11  O   UNL     1     -10.093  18.136  67.016  1.00  0.00    -0.319 OA 
HETATM   12  C   UNL     1     -11.423  13.123  67.517  1.00  0.00    -0.371 A  
HETATM   13  C   UNL     1     -11.664  11.857  68.040  1.00  0.00    -0.312 A  
HETATM   14  F   UNL     1     -11.649  10.830  67.175  1.00  0.00    -0.310 F  
HETATM   15  C   UNL     1     -11.843  11.643  69.416  1.00  0.00    -0.342 A  
HETATM   16  C   UNL     1     -11.544  14.086  69.762  1.00  0.00    -0.281 A  
HETATM   17  C   UNL     1     -11.818  12.792  70.235  1.00  0.00    -0.292 A  
BRANCH  15  18
HETATM   18  N   UNL     1     -12.023  10.397  69.998  1.00  0.00    -0.264 NA 
HETATM   19  C   UNL     1     -10.955   9.391  70.101  1.00  0.00    -0.246 C  
HETATM   20  C   UNL     1     -10.713   8.982  71.573  1.00  0.00    -0.351 C  
HETATM   21  N   UNL     1     -11.928   8.569  72.316  1.00  0.00    -0.380 NA 
HETATM   22  C   UNL     1     -12.931   9.647  72.201  1.00  0.00    -0.406 C  
HETATM   23  C   UNL     1     -12.458   7.299  71.820  1.00  0.00    -0.343 C  
HETATM   24  C   UNL     1     -13.253  10.101  70.758  1.00  0.00    -0.226 C  
ENDBRANCH  15  18
ENDBRANCH   2   3
TORSDOF 2
ENDMDL
MODEL        3
REMARK 921   NORMALIZED FREE ENERGY PREDICTED BY IDOCK:   -7.33 KCAL/MOL
REMARK 922        TOTAL FREE ENERGY PREDICTED BY IDOCK:   -8.42 KCAL/MOL
REMARK 923 INTER-LIGAND FREE ENERGY PREDICTED BY IDOCK:   -7.98 KCAL/MOL
REMARK 924 INTRA-LIGAND FREE ENERGY PREDICTED BY IDOCK:   -0.44 KCAL/MOL
REMARK 927      BINDING AFFINITY PREDICTED BY RF-SCORE:    0.00 PKD
ROOT
HETATM    1  C   UNL     1      -9.046   9.465  64.882  1.00  0.00    -0.258 C  
HETATM    2  C   UNL     1      -9.964   9.382  66.095  1.00  0.00    -0.281 C  
ENDROOT
BRANCH   2   3
HETATM    3  N   UNL     1     -10.655  10.664  66.334  1.00  0.00    -0.210 NA 
HETATM    4  C   UNL     1     -11.042  11.472  65.272  1.00  0.00    -0.191 C  
HETATM    5  C   UNL     1     -11.666  12.656  65.358  1.00  0.00    -0.428 C  
HETATM    6  C   UNL     1     -12.027  13.379  64.123  1.00  0.00    -0.450 C  
HETATM    7  C   UNL     1     -11.964  13.151  66.716  1.00  0.00    -0.373 C  
HETATM    8  C   UNL     1     -11.657  12.275  67.867  1.00  0.00    -0.416 A  
HETATM    9  O   UNL     1     -12.481  14.257  66.864  1.00  0.00    -0.338 OA 
HETATM   10  O   UNL     1     -11.797  12.949  63.001  1.00  0.00    -0.403 OA 
HETATM   11  O   UNL     1     -12.649  14.561  64.326  1.00  0.00    -0.681 OA 
HETATM   12  C   UNL     1     -12.036  12.685  69.148  1.00  0.00    -0.293 A  
HETATM   13  C   UNL     1     -11.837  11.831  70.227  1.00  0.00    -0.295 A  
HETATM   14  F   UNL     1     -12.302  12.239  71.418  1.00  0.00    -0.378 F  
HETATM   15  C   UNL     1     -11.245  10.566  70.075  1.00  0.00    -0.315 A  
HETATM   16  C   UNL     1     -11.022  11.042  67.646  1.00  0.00    -0.275 A  
HETATM   17  C   UNL     1     -10.813  10.231  68.774  1.00  0.00    -0.265 A  
BRANCH  15  18
HETATM   18  N   UNL     1     -11.079   9.650  71.103  1.00  0.00    -0.359 NA 
HETATM   19  C   UNL     1     -12.198   9.106  71.889  1.00  0.00    -0.379 C  
HETATM   20  C   UNL     1     -12.241   7.562  71.806  1.00  0.00    -0.314 C  
HETATM   21  N   UNL     1     -10.963   6.882  72.129  1.00  0.00    -0.229 NA 
HETATM   22  C   UNL     1      -9.905   7.452  71.269  1.00  0.00    -0.176 C  
HETATM   23  C   UNL     1     -10.623   7.016  73.545  1.00  0.00    -0.368 C  
HETATM   24  C   UNL     1      -9.775   8.992  71.311  1.00  0.00    -0.301 C  
ENDBRANCH  15  18
ENDBRANCH   2   3
TORSDOF 2
ENDMDL
MODEL        4
REMARK 921   NORMALIZED FREE ENERGY PREDICTED BY IDOCK:   -7.19 KCAL/MOL
REMARK 922        TOTAL FREE ENERGY PREDICTED BY IDOCK:   -8.27 KCAL/MOL
REMARK 923 INTER-LIGAND FREE ENERGY PREDICTED BY IDOCK:   -7.81 KCAL/MOL
REMARK 924 INTRA-LIGAND FREE ENERGY PREDICTED BY IDOCK:   -0.45 KCAL/MOL
REMARK 927      BINDING AFFINITY PREDICTED BY RF-SCORE:    0.00 PKD
ROOT
HETATM    1  C   UNL     1     -10.116  15.821  65.615  1.00  0.00    -0.401 C  
HETATM    2  C   UNL     1     -11.345  15.082  66.126  1.00  0.00    -0.270 C  
ENDROOT
BRANCH   2   3
HETATM    3  N   UNL     1     -11.107  13.626  66.192  1.00  0.00    -0.294 NA 
HETATM    4  C   UNL     1     -10.573  12.943  65.107  1.00  0.00    -0.302 C  
HETATM    5  C   UNL     1     -10.319  11.628  65.040  1.00  0.00    -0.329 C  
HETATM    6  C   UNL     1      -9.727  11.064  63.811  1.00  0.00    -0.309 C  
HETATM    7  C   UNL     1     -10.647  10.828  66.236  1.00  0.00    -0.192 C  
HETATM    8  C   UNL     1     -11.124  11.533  67.445  1.00  0.00    -0.339 A  
HETATM    9  O   UNL     1     -10.492   9.608  66.217  1.00  0.00    -0.191 OA 
HETATM   10  O   UNL     1      -9.437  11.739  62.833  1.00  0.00    -0.364 OA 
HETATM   11  O   UNL     1      -9.515   9.730  63.852  1.00  0.00    -0.232 OA 
HETATM   12  C   UNL     1     -11.331  10.801  68.617  1.00  0.00    -0.356 A  
HETATM   13  C   UNL     1     -11.690  11.466  69.785  1.00  0.00    -0.344 A  
HETATM   14  F   UNL     1     -11.787  10.724  70.899  1.00  0.00    -0.369 F  
HETATM   15  C   UNL     1     -11.873  12.858  69.822  1.00  0.00    -0.310 A  
HETATM   16  C   UNL     1     -11.328  12.922  67.398  1.00  0.00    -0.309 A  
HETATM   17  C   UNL     1     -11.724  13.540  68.596  1.00  0.00    -0.389 A  
BRANCH  15  18
HETATM   18  N   UNL     1     -12.168  13.578  70.969  1.00  0.00    -0.328 NA 
HETATM   19  C   UNL     1     -11.428  14.781  71.383  1.00  0.00    -0.175 C  
HETATM   20  C   UNL     1     -12.373  15.996  71.528  1.00  0.00    -0.376 C  
HETATM   21  N   UNL     1     -13.563  15.766  72.383  1.00  0.00    -0.489 NA 
HETATM   22  C   UNL     1     -14.272  14.573  71.876  1.00  0.00    -0.538 C  
HETATM   23  C   UNL     1     -13.195  15.605  73.789  1.00  0.00    -0.214 C  
HETATM   24  C   UNL     1     -13.406  13.301  71.724  1.00  0.00    -0.393 C  
ENDBRANCH  15  18
ENDBRANCH   2   3
TORSDOF 2
ENDMDL
MODEL        5
REMARK 921   NORMALIZED FREE ENERGY PREDICTED BY IDOCK:   -7.14 KCAL/MOL
REMARK 922        TOTAL FREE ENERGY PREDICTED BY IDOCK:   -8.22 KCAL/MOL
REMARK 923 INTER-LIGAND FREE ENERGY PREDICTED BY IDOCK:   -8.02 KCAL/MOL
REMARK 924 INTRA-LIGAND FREE ENERGY PREDICTED BY IDOCK:   -0.19 KCAL/MOL
REMARK 927      BINDING AFFINITY PREDICTED BY RF-SCORE:    0.00 PKD
ROOT
HETATM    1  C   UNL     1     -12.916  15.591  71.410  1.00  0.00    -0.553 C  
HETATM    2  C   UNL     1     -11.482  15.728  70.916  1.00  0.00    -0.403 C  
ENDROOT
BRANCH   2   3
HETATM    3  N   UNL     1     -11.366  15.360  69.492  1.00  0.00    -0.278 NA 
HETATM    4  C   UNL     1     -11.085  16.322  68.529  1.00  0.00    -0.368 C  
HETATM    5  C   UNL     1     -10.963  16.116  67.210  1.00  0.00    -0.175 C  
HETATM    6  C   UNL     1     -10.639  17.252  66.324  1.00  0.00    -0.184 C  
HETATM    7  C   UNL     1     -11.154  14.733  66.734  1.00  0.00    -0.338 C  
HETATM    8  C   UNL     1     -11.356  13.665  67.737  1.00  0.00    -0.336 A  
HETATM    9  O   UNL     1     -11.113  14.489  65.529  1.00  0.00    -0.316 OA 
HETATM   10  O   UNL     1     -10.460  18.392  66.731  1.00  0.00    -0.380 OA 
HETATM   11  O   UNL     1     -10.542  16.933  65.015  1.00  0.00    -0.700 OA 
HETATM   12  C   UNL     1     -11.426  12.338  67.307  1.00  0.00    -0.426 A  
HETATM   13  C   UNL     1     -11.523  11.318  68.247  1.00  0.00    -0.308 A  
HETATM   14  F   UNL     1     -11.496  10.059  67.781  1.00  0.00    -0.337 F  
HETATM   15  C   UNL     1     -11.573  11.579  69.626  1.00  0.00    -0.333 A  
HETATM   16  C   UNL     1     -11.441  14.004  69.098  1.00  0.00    -0.296 A  
HETATM   17  C   UNL     1     -11.574  12.939  70.004  1.00  0.00    -0.189 A  
BRANCH  15  18
HETATM   18  N   UNL     1     -11.606  10.601  70.608  1.00  0.00    -0.342 NA 
HETATM   19  C   UNL     1     -12.768  10.370  71.481  1.00  0.00    -0.459 C  
HETATM   20  C   UNL     1     -13.277   8.915  71.360  1.00  0.00    -0.262 C  
HETATM   21  N   UNL     1     -12.239   7.871  71.543  1.00  0.00    -0.302 NA 
HETATM   22  C   UNL     1     -11.133   8.148  70.604  1.00  0.00    -0.254 C  
HETATM   23  C   UNL     1     -11.760   7.822  72.924  1.00  0.00    -0.177 C  
HETATM   24  C   UNL     1     -10.546   9.577  70.675  1.00  0.00    -0.308 C  
ENDBRANCH  15  18
ENDBRANCH   2   3
TORSDOF 2
ENDMDL
MODEL        6
REMARK 921   NORMALIZED FREE ENERGY PREDICTED BY IDOCK:   -7.12 KCAL/MOL
REMARK 922        TOTAL FREE ENERGY PREDICTED BY IDOCK:   -8.19 KCAL/MOL
REMARK 923 INTER-LIGAND FREE ENERGY PREDICTED BY IDOCK:   -7.85 KCAL/MOL
REMARK 924 INTRA-LIGAND FREE ENERGY PREDICTED BY IDOCK:   -0.35 KCAL/MOL
REMARK 927      BINDING AFFINITY PREDICTED BY RF-SCORE:    0.00 PKD
ROOT
HETATM    1  C   UNL     1      -9.657  16.435  68.835  1.00  0.00    -0.252 C  
HETATM    2  C   UNL     1     -11.015  15.990  68.309  1.00  0.00    -0.335 C  
ENDROOT
BRANCH   2   3
HETATM    3  N   UNL     1     -11.535  14.837  69.070  1.00  0.00    -0.277 NA 
HETATM    4  C   UNL     1     -12.345  15.027  70.182  1.00  0.00    -0.333 C  
HETATM    5  C   UNL     1     -12.872  14.068  70.957  1.00  0.00    -0.410 C  
HETATM    6  C   UNL     1     -13.734  14.443  72.095  1.00  0.00    -0.463 C  
HETATM    7  C   UNL     1     -12.551  12.673  70.595  1.00  0.00    -0.160 C  
HETATM    8  C   UNL     1     -11.774  12.427  69.362  1.00  0.00    -0.384 A  
HETATM    9  O   UNL     1     -12.954  11.750  71.301  1.00  0.00    -0.359 OA 
HETATM   10  O   UNL     1     -14.013  15.601  72.373  1.00  0.00    -0.530 OA 
HETATM   11  O   UNL     1     -14.208  13.399  72.809  1.00  0.00    -0.693 OA 
HETATM   12  C   UNL     1     -11.560  11.110  68.949  1.00  0.00    -0.385 A  
HETATM   13  C   UNL     1     -10.911  10.867  67.743  1.00  0.00    -0.283 A  
HETATM   14  F   UNL     1     -10.813   9.586  67.354  1.00  0.00    -0.326 F  
HETATM   15  C   UNL     1     -10.442  11.910  66.927  1.00  0.00    -0.222 A  
HETATM   16  C   UNL     1     -11.297  13.519  68.618  1.00  0.00    -0.288 A  
HETATM   17  C   UNL     1     -10.618  13.219  67.425  1.00  0.00    -0.250 A  
BRANCH  15  18
HETATM   18  N   UNL     1      -9.847  11.728  65.689  1.00  0.00    -0.233 NA 
HETATM   19  C   UNL     1      -8.805  10.721  65.431  1.00  0.00    -0.189 C  
HETATM   20  C   UNL     1      -9.231   9.754  64.302  1.00  0.00    -0.232 C  
HETATM   21  N   UNL     1      -9.677  10.411  63.050  1.00  0.00    -0.299 NA 
HETATM   22  C   UNL     1     -10.749  11.370  63.387  1.00  0.00    -0.332 C  
HETATM   23  C   UNL     1      -8.569  11.076  62.364  1.00  0.00    -0.286 C  
HETATM   24  C   UNL     1     -10.399  12.393  64.492  1.00  0.00    -0.325 C  
ENDBRANCH  15  18
ENDBRANCH   2   3
TORSDOF 2
ENDMDL
MODEL        7
REMARK 921   NORMALIZED FREE ENERGY PREDICTED BY IDOCK:   -7.10 KCAL/MOL
REMARK 922        TOTAL FREE ENERGY PREDICTED BY IDOCK:   -8.17 KCAL/MOL
REMARK 923 INTER-LIGAND FREE ENERGY PREDICTED BY IDOCK:   -7.71 KCAL/MOL
REMARK 924 INTRA-LIGAND FREE ENERGY PREDICTED BY IDOCK:   -0.46 KCAL/MOL
REMARK 927      BINDING AFFINITY PREDICTED BY RF-SCORE:    0.00 PKD
ROOT
HETATM    1  C   UNL     1     -10.436   9.633  67.267  1.00  0.00    -0.323 C  
HETATM    2  C   UNL     1     -10.428  11.123  67.580  1.00  0.00    -0.204 C  
ENDROOT
BRANCH   2   3
HETATM    3  N   UNL     1     -11.176  11.416  68.818  1.00  0.00    -0.223 NA 
HETATM    4  C   UNL     1     -11.681  10.388  69.603  1.00  0.00    -0.212 C  
HETATM    5  C   UNL     1     -12.379  10.523  70.740  1.00  0.00    -0.474 C  
HETATM    6  C   UNL     1     -12.825   9.319  71.467  1.00  0.00    -0.354 C  
HETATM    7  C   UNL     1     -12.645  11.902  71.195  1.00  0.00    -0.288 C  
HETATM    8  C   UNL     1     -12.041  13.020  70.439  1.00  0.00    -0.391 A  
HETATM    9  O   UNL     1     -13.331  12.094  72.197  1.00  0.00    -0.522 OA 
HETATM   10  O   UNL     1     -12.580   8.179  71.095  1.00  0.00    -0.263 OA 
HETATM   11  O   UNL     1     -13.523   9.571  72.596  1.00  0.00    -0.369 OA 
HETATM   12  C   UNL     1     -12.192  14.322  70.923  1.00  0.00    -0.425 A  
HETATM   13  C   UNL     1     -11.551  15.372  70.274  1.00  0.00    -0.320 A  
HETATM   14  F   UNL     1     -11.658  16.587  70.834  1.00  0.00    -0.402 F  
HETATM   15  C   UNL     1     -10.767  15.170  69.126  1.00  0.00    -0.253 A  
HETATM   16  C   UNL     1     -11.305  12.748  69.274  1.00  0.00    -0.247 A  
HETATM   17  C   UNL     1     -10.707  13.848  68.636  1.00  0.00    -0.272 A  
BRANCH  15  18
HETATM   18  N   UNL     1     -10.057  16.168  68.477  1.00  0.00    -0.234 NA 
HETATM   19  C   UNL     1      -8.612  16.088  68.205  1.00  0.00    -0.179 C  
HETATM   20  C   UNL     1      -8.321  16.220  66.692  1.00  0.00    -0.280 C  
HETATM   21  N   UNL     1      -8.936  17.399  66.037  1.00  0.00    -0.522 NA 
HETATM   22  C   UNL     1     -10.386  17.382  66.319  1.00  0.00    -0.330 C  
HETATM   23  C   UNL     1      -8.324  18.648  66.488  1.00  0.00    -0.291 C  
HETATM   24  C   UNL     1     -10.769  17.278  67.813  1.00  0.00    -0.333 C  
ENDBRANCH  15  18
ENDBRANCH   2   3
TORSDOF 2
ENDMDL
MODEL        8
REMARK 921   NORMALIZED FREE ENERGY PREDICTED BY IDOCK:   -6.97 KCAL/MOL
REMARK 922        TOTAL FREE ENERGY PREDICTED BY IDOCK:   -8.02 KCAL/MOL
REMARK 923 INTER-LIGAND FREE ENERGY PREDICTED BY IDOCK:   -7.60 KCAL/MOL
REMARK 924 INTRA-LIGAND FREE ENERGY PREDICTED BY IDOCK:   -0.42 KCAL/MOL
REMARK 927      BINDING AFFINITY PREDICTED BY RF-SCORE:    0.00 PKD
ROOT
HETATM    1  C   UNL     1     -11.678  15.394  70.496  1.00  0.00    -0.356 C  
HETATM    2  C   UNL     1     -10.350  15.446  69.754  1.00  0.00    -0.286 C  
ENDROOT
BRANCH   2   3
HETATM    3  N   UNL     1     -10.516  15.996  68.394  1.00  0.00    -0.252 NA 
HETATM    4  C   UNL     1     -10.394  17.360  68.160  1.00  0.00    -0.366 C  
HETATM    5  C   UNL     1     -10.528  17.979  66.978  1.00  0.00    -0.361 C  
HETATM    6  C   UNL     1     -10.345  19.442  66.900  1.00  0.00    -0.437 C  
HETATM    7  C   UNL     1     -10.845  17.128  65.815  1.00  0.00    -0.039 C  
HETATM    8  C   UNL     1     -10.884  15.663  66.006  1.00  0.00    -0.276 A  
HETATM    9  O   UNL     1     -11.039  17.643  64.715  1.00  0.00    -0.915 OA 
HETATM   10  O   UNL     1     -10.060  20.137  67.865  1.00  0.00    -0.406 OA 
HETATM   11  O   UNL     1     -10.506  19.962  65.663  1.00  0.00    -0.477 OA 
HETATM   12  C   UNL     1     -11.072  14.841  64.892  1.00  0.00    -0.416 A  
HETATM   13  C   UNL     1     -11.018  13.459  65.044  1.00  0.00    -0.316 A  
HETATM   14  F   UNL     1     -11.115  12.722  63.926  1.00  0.00    -0.359 F  
HETATM   15  C   UNL     1     -10.800  12.856  66.294  1.00  0.00    -0.275 A  
HETATM   16  C   UNL     1     -10.702  15.129  67.293  1.00  0.00    -0.305 A  
HETATM   17  C   UNL     1     -10.691  13.729  67.398  1.00  0.00    -0.279 A  
BRANCH  15  18
HETATM   18  N   UNL     1     -10.675  11.489  66.493  1.00  0.00    -0.263 NA 
HETATM   19  C   UNL     1      -9.674  10.660  65.804  1.00  0.00    -0.221 C  
HETATM   20  C   UNL     1      -8.767   9.923  66.816  1.00  0.00    -0.128 C  
HETATM   21  N   UNL     1      -9.488   9.156  67.861  1.00  0.00    -0.140 NA 
HETATM   22  C   UNL     1     -10.437  10.067  68.532  1.00  0.00    -0.202 C  
HETATM   23  C   UNL     1     -10.177   7.995  67.299  1.00  0.00    -0.275 C  
HETATM   24  C   UNL     1     -11.402  10.828  67.594  1.00  0.00    -0.252 C  
ENDBRANCH  15  18
ENDBRANCH   2   3
TORSDOF 2
ENDMDL
MODEL        9
REMARK 921   NORMALIZED FREE ENERGY PREDICTED BY IDOCK:   -6.92 KCAL/MOL
REMARK 922        TOTAL FREE ENERGY PREDICTED BY IDOCK:   -7.96 KCAL/MOL
REMARK 923 INTER-LIGAND FREE ENERGY PREDICTED BY IDOCK:   -7.42 KCAL/MOL
REMARK 924 INTRA-LIGAND FREE ENERGY PREDICTED BY IDOCK:   -0.54 KCAL/MOL
REMARK 927      BINDING AFFINITY PREDICTED BY RF-SCORE:    0.00 PKD
ROOT
HETATM    1  C   UNL     1      -8.204   9.607  65.127  1.00  0.00    -0.134 C  
HETATM    2  C   UNL     1      -9.646   9.257  65.468  1.00  0.00    -0.220 C  
ENDROOT
BRANCH   2   3
HETATM    3  N   UNL     1     -10.396  10.447  65.918  1.00  0.00    -0.225 NA 
HETATM    4  C   UNL     1     -10.873  11.375  65.002  1.00  0.00    -0.246 C  
HETATM    5  C   UNL     1     -11.557  12.493  65.285  1.00  0.00    -0.406 C  
HETATM    6  C   UNL     1     -12.011  13.365  64.184  1.00  0.00    -0.450 C  
HETATM    7  C   UNL     1     -11.821  12.767  66.711  1.00  0.00    -0.382 C  
HETATM    8  C   UNL     1     -11.415  11.754  67.708  1.00  0.00    -0.381 A  
HETATM    9  O   UNL     1     -12.391  13.807  67.039  1.00  0.00    -0.378 OA 
HETATM   10  O   UNL     1     -11.808  13.119  63.003  1.00  0.00    -0.347 OA 
HETATM   11  O   UNL     1     -12.688  14.465  64.581  1.00  0.00    -0.655 OA 
HETATM   12  C   UNL     1     -11.758  11.949  69.048  1.00  0.00    -0.391 A  
HETATM   13  C   UNL     1     -11.465  10.960  69.981  1.00  0.00    -0.329 A  
HETATM   14  F   UNL     1     -11.898  11.162  71.236  1.00  0.00    -0.349 F  
HETATM   15  C   UNL     1     -10.812   9.770  69.623  1.00  0.00    -0.250 A  
HETATM   16  C   UNL     1     -10.724  10.606  67.284  1.00  0.00    -0.285 A  
HETATM   17  C   UNL     1     -10.421   9.654  68.271  1.00  0.00    -0.259 A  
BRANCH  15  18
HETATM   18  N   UNL     1     -10.551   8.725  70.497  1.00  0.00    -0.207 NA 
HETATM   19  C   UNL     1      -9.274   8.568  71.211  1.00  0.00    -0.200 C  
HETATM   20  C   UNL     1      -9.491   8.529  72.742  1.00  0.00    -0.173 C  
HETATM   21  N   UNL     1     -10.502   7.549  73.206  1.00  0.00    -0.361 NA 
HETATM   22  C   UNL     1     -11.762   7.802  72.477  1.00  0.00    -0.339 C  
HETATM   23  C   UNL     1     -10.048   6.172  73.015  1.00  0.00    -0.183 C  
HETATM   24  C   UNL     1     -11.641   7.832  70.936  1.00  0.00    -0.274 C  
ENDBRANCH  15  18
ENDBRANCH   2   3
TORSDOF 2
ENDMDL
MODEL       10
REMARK 921   NORMALIZED FREE ENERGY PREDICTED BY IDOCK:   -6.90 KCAL/MOL
REMARK 922        TOTAL FREE ENERGY PREDICTED BY IDOCK:   -7.95 KCAL/MOL
REMARK 923 INTER-LIGAND FREE ENERGY PREDICTED BY IDOCK:   -7.46 KCAL/MOL
REMARK 924 INTRA-LIGAND FREE ENERGY PREDICTED BY IDOCK:   -0.49 KCAL/MOL
REMARK 927      BINDING AFFINITY PREDICTED BY RF-SCORE:    0.00 PKD
ROOT
HETATM    1  C   UNL     1     -12.214  10.619  71.193  1.00  0.00    -0.479 C  
HETATM    2  C   UNL     1     -12.766  11.520  70.096  1.00  0.00     0.038 C  
ENDROOT
BRANCH   2   3
HETATM    3  N   UNL     1     -12.373  12.927  70.308  1.00  0.00    -0.269 NA 
HETATM    4  C   UNL     1     -12.536  13.531  71.549  1.00  0.00    -0.266 C  
HETATM    5  C   UNL     1     -12.227  14.797  71.865  1.00  0.00    -0.415 C  
HETATM    6  C   UNL     1     -12.445  15.276  73.244  1.00  0.00    -0.486 C  
HETATM    7  C   UNL     1     -11.666  15.632  70.785  1.00  0.00    -0.375 C  
HETATM    8  C   UNL     1     -11.386  14.998  69.479  1.00  0.00    -0.308 A  
HETATM    9  O   UNL     1     -11.418  16.818  70.995  1.00  0.00    -0.099 OA 
HETATM   10  O   UNL     1     -12.889  14.570  74.138  1.00  0.00    -0.277 OA 
HETATM   11  O   UNL     1     -12.102  16.567  73.450  1.00  0.00    -0.498 OA 
HETATM   12  C   UNL     1     -10.753  15.748  68.485  1.00  0.00    -0.274 A  
HETATM   13  C   UNL     1     -10.400  15.137  67.286  1.00  0.00    -0.261 A  
HETATM   14  F   UNL     1      -9.714  15.882  66.405  1.00  0.00    -0.239 F  
HETATM   15  C   UNL     1     -10.679  13.785  67.030  1.00  0.00    -0.283 A  
HETATM   16  C   UNL     1     -11.733  13.651  69.277  1.00  0.00    -0.325 A  
HETATM   17  C   UNL     1     -11.386  13.092  68.036  1.00  0.00    -0.327 A  
BRANCH  15  18
HETATM   18  N   UNL     1     -10.296  13.110  65.881  1.00  0.00    -0.285 NA 
HETATM   19  C   UNL     1      -9.496  11.875  65.897  1.00  0.00    -0.214 C  
HETATM   20  C   UNL     1     -10.234  10.721  65.178  1.00  0.00    -0.298 C  
HETATM   21  N   UNL     1     -10.717  11.043  63.813  1.00  0.00    -0.318 NA 
HETATM   22  C   UNL     1     -11.545  12.264  63.890  1.00  0.00    -0.444 C  
HETATM   23  C   UNL     1      -9.609  11.213  62.874  1.00  0.00    -0.348 C  
HETATM   24  C   UNL     1     -10.873  13.477  64.574  1.00  0.00    -0.410 C  
ENDBRANCH  15  18
ENDBRANCH   2   3
TORSDOF 2
ENDMDL
MODEL       11
REMARK 921   NORMALIZED FREE ENERGY PREDICTED BY IDOCK:   -6.87 KCAL/MOL
REMARK 922        TOTAL FREE ENERGY PREDICTED BY IDOCK:   -7.91 KCAL/MOL
REMARK 923 INTER-LIGAND FREE ENERGY PREDICTED BY IDOCK:   -7.50 KCAL/MOL
REMARK 924 INTRA-LIGAND FREE ENERGY PREDICTED BY IDOCK:   -0.41 KCAL/MOL
REMARK 927      BINDING AFFINITY PREDICTED BY RF-SCORE:    0.00 PKD
ROOT
HETATM    1  C   UNL     1     -12.732   9.890  71.618  1.00  0.00    -0.527 C  
HETATM    2  C   UNL     1     -12.339  10.251  70.192  1.00  0.00    -0.142 C  
ENDROOT
BRANCH   2   3
HETATM    3  N   UNL     1     -12.256  11.714  70.011  1.00  0.00    -0.285 NA 
HETATM    4  C   UNL     1     -12.529  12.576  71.066  1.00  0.00    -0.258 C  
HETATM    5  C   UNL     1     -12.495  13.916  71.027  1.00  0.00    -0.452 C  
HETATM    6  C   UNL     1     -12.793  14.687  72.250  1.00  0.00    -0.340 C  
HETATM    7  C   UNL     1     -12.143  14.534  69.734  1.00  0.00    -0.331 C  
HETATM    8  C   UNL     1     -11.750  13.649  68.616  1.00  0.00    -0.389 A  
HETATM    9  O   UNL     1     -12.153  15.758  69.617  1.00  0.00    -0.355 OA 
HETATM   10  O   UNL     1     -13.062  14.166  73.324  1.00  0.00    -0.551 OA 
HETATM   11  O   UNL     1     -12.734  16.028  72.098  1.00  0.00    -0.449 OA 
HETATM   12  C   UNL     1     -11.307  14.224  67.422  1.00  0.00    -0.349 A  
HETATM   13  C   UNL     1     -10.848  13.405  66.397  1.00  0.00    -0.289 A  
HETATM   14  F   UNL     1     -10.350  14.015  65.309  1.00  0.00    -0.310 F  
HETATM   15  C   UNL     1     -10.832  12.005  66.513  1.00  0.00    -0.277 A  
HETATM   16  C   UNL     1     -11.801  12.256  68.788  1.00  0.00    -0.306 A  
HETATM   17  C   UNL     1     -11.359  11.472  67.709  1.00  0.00    -0.364 A  
BRANCH  15  18
HETATM   18  N   UNL     1     -10.328  11.145  65.550  1.00  0.00    -0.261 NA 
HETATM   19  C   UNL     1     -10.749  11.172  64.140  1.00  0.00    -0.345 C  
HETATM   20  C   UNL     1      -9.541  11.396  63.200  1.00  0.00    -0.380 C  
HETATM   21  N   UNL     1      -8.403  10.470  63.413  1.00  0.00    -0.152 NA 
HETATM   22  C   UNL     1      -8.013  10.534  64.837  1.00  0.00    -0.063 C  
HETATM   23  C   UNL     1      -8.738   9.102  63.018  1.00  0.00    -0.158 C  
HETATM   24  C   UNL     1      -9.158  10.296  65.848  1.00  0.00    -0.163 C  
ENDBRANCH  15  18
ENDBRANCH   2   3
TORSDOF 2
ENDMDL
MODEL       12
REMARK 921   NORMALIZED FREE ENERGY PREDICTED BY IDOCK:   -6.83 KCAL/MOL
REMARK 922        TOTAL FREE ENERGY PREDICTED BY IDOCK:   -7.87 KCAL/MOL
REMARK 923 INTER-LIGAND FREE ENERGY PREDICTED BY IDOCK:   -7.42 KCAL/MOL
REMARK 924 INTRA-LIGAND FREE ENERGY PREDICTED BY IDOCK:   -0.45 KCAL/MOL
REMARK 927      BINDING AFFINITY PREDICTED BY RF-SCORE:    0.00 PKD
ROOT
HETATM    1  C   UNL     1     -13.544  14.140  72.667  1.00  0.00    -0.618 C  
HETATM    2  C   UNL     1     -13.360  12.732  72.117  1.00  0.00    -0.492 C  
ENDROOT
BRANCH   2   3
HETATM    3  N   UNL     1     -12.615  12.745  70.843  1.00  0.00    -0.311 NA 
HETATM    4  C   UNL     1     -12.401  13.934  70.157  1.00  0.00    -0.334 C  
HETATM    5  C   UNL     1     -11.750  14.077  68.994  1.00  0.00    -0.368 C  
HETATM    6  C   UNL     1     -11.592  15.423  68.409  1.00  0.00    -0.354 C  
HETATM    7  C   UNL     1     -11.216  12.846  68.378  1.00  0.00    -0.270 C  
HETATM    8  C   UNL     1     -11.338  11.576  69.125  1.00  0.00    -0.351 A  
HETATM    9  O   UNL     1     -10.662  12.902  67.281  1.00  0.00    -0.242 OA 
HETATM   10  O   UNL     1     -12.018  16.440  68.938  1.00  0.00    -0.128 OA 
HETATM   11  O   UNL     1     -10.924  15.450  67.235  1.00  0.00    -0.316 OA 
HETATM   12  C   UNL     1     -10.739  10.426  68.604  1.00  0.00    -0.250 A  
HETATM   13  C   UNL     1     -10.766   9.247  69.341  1.00  0.00    -0.208 A  
HETATM   14  F   UNL     1     -10.098   8.199  68.834  1.00  0.00    -0.179 F  
HETATM   15  C   UNL     1     -11.398   9.166  70.593  1.00  0.00    -0.273 A  
HETATM   16  C   UNL     1     -12.023  11.560  70.351  1.00  0.00    -0.368 A  
HETATM   17  C   UNL     1     -12.051  10.335  71.039  1.00  0.00    -0.487 A  
BRANCH  15  18
HETATM   18  N   UNL     1     -11.402   8.037  71.397  1.00  0.00    -0.251 NA 
HETATM   19  C   UNL     1     -11.938   6.737  70.964  1.00  0.00    -0.379 C  
HETATM   20  C   UNL     1     -10.862   5.630  71.057  1.00  0.00    -0.219 C  
HETATM   21  N   UNL     1     -10.179   5.530  72.370  1.00  0.00    -0.190 NA 
HETATM   22  C   UNL     1      -9.632   6.860  72.710  1.00  0.00    -0.146 C  
HETATM   23  C   UNL     1     -11.082   5.047  73.413  1.00  0.00    -0.335 C  
HETATM   24  C   UNL     1     -10.649   8.024  72.667  1.00  0.00    -0.350 C  
ENDBRANCH  15  18
ENDBRANCH   2   3
TORSDOF 2
ENDMDL
MODEL       13
REMARK 921   NORMALIZED FREE ENERGY PREDICTED BY IDOCK:   -6.82 KCAL/MOL
REMARK 922        TOTAL FREE ENERGY PREDICTED BY IDOCK:   -7.86 KCAL/MOL
REMARK 923 INTER-LIGAND FREE ENERGY PREDICTED BY IDOCK:   -7.54 KCAL/MOL
REMARK 924 INTRA-LIGAND FREE ENERGY PREDICTED BY IDOCK:   -0.32 KCAL/MOL
REMARK 927      BINDING AFFINITY PREDICTED BY RF-SCORE:    0.00 PKD
ROOT
HETATM    1  C   UNL     1     -10.591  12.007  65.033  1.00  0.00    -0.332 C  
HETATM    2  C   UNL     1      -9.752  12.232  66.283  1.00  0.00    -0.244 C  
ENDROOT
BRANCH   2   3
HETATM    3  N   UNL     1     -10.269  13.361  67.081  1.00  0.00    -0.245 NA 
HETATM    4  C   UNL     1     -10.217  14.660  66.592  1.00  0.00    -0.274 C  
HETATM    5  C   UNL     1     -10.645  15.765  67.219  1.00  0.00    -0.313 C  
HETATM    6  C   UNL     1     -10.535  17.073  66.545  1.00  0.00    -0.250 C  
HETATM    7  C   UNL     1     -11.219  15.582  68.567  1.00  0.00    -0.333 C  
HETATM    8  C   UNL     1     -11.382  14.206  69.081  1.00  0.00    -0.318 A  
HETATM    9  O   UNL     1     -11.574  16.563  69.219  1.00  0.00    -0.166 OA 
HETATM   10  O   UNL     1     -10.078  17.212  65.418  1.00  0.00    -0.571 OA 
HETATM   11  O   UNL     1     -10.992  18.118  67.268  1.00  0.00    -0.294 OA 
HETATM   12  C   UNL     1     -12.025  14.013  70.305  1.00  0.00    -0.409 A  
HETATM   13  C   UNL     1     -12.267  12.720  70.756  1.00  0.00    -0.248 A  
HETATM   14  F   UNL     1     -12.969  12.595  71.894  1.00  0.00    -0.452 F  
HETATM   15  C   UNL     1     -11.865  11.590  70.025  1.00  0.00    -0.355 A  
HETATM   16  C   UNL     1     -10.915  13.124  68.316  1.00  0.00    -0.253 A  
HETATM   17  C   UNL     1     -11.154  11.839  68.832  1.00  0.00    -0.297 A  
BRANCH  15  18
HETATM   18  N   UNL     1     -12.135  10.281  70.395  1.00  0.00    -0.289 NA 
HETATM   19  C   UNL     1     -11.091   9.260  70.577  1.00  0.00    -0.265 C  
HETATM   20  C   UNL     1     -11.137   8.662  72.003  1.00  0.00    -0.367 C  
HETATM   21  N   UNL     1     -12.467   8.167  72.431  1.00  0.00    -0.300 NA 
HETATM   22  C   UNL     1     -13.446   9.260  72.260  1.00  0.00    -0.482 C  
HETATM   23  C   UNL     1     -12.868   6.977  71.681  1.00  0.00    -0.364 C  
HETATM   24  C   UNL     1     -13.485   9.900  70.853  1.00  0.00    -0.122 C  
ENDBRANCH  15  18
ENDBRANCH   2   3
TORSDOF 2
ENDMDL
MODEL       14
REMARK 921   NORMALIZED FREE ENERGY PREDICTED BY IDOCK:   -6.79 KCAL/MOL
REMARK 922        TOTAL FREE ENERGY PREDICTED BY IDOCK:   -7.82 KCAL/MOL
REMARK 923 INTER-LIGAND FREE ENERGY PREDICTED BY IDOCK:   -7.39 KCAL/MOL
REMARK 924 INTRA-LIGAND FREE ENERGY PREDICTED BY IDOCK:   -0.43 KCAL/MOL
REMARK 927      BINDING AFFINITY PREDICTED BY RF-SCORE:    0.00 PKD
ROOT
HETATM    1  C   UNL     1     -10.833  15.712  70.451  1.00  0.00    -0.358 C  
HETATM    2  C   UNL     1      -9.640  15.641  69.508  1.00  0.00    -0.279 C  
ENDROOT
BRANCH   2   3
HETATM    3  N   UNL     1     -10.025  15.994  68.127  1.00  0.00    -0.225 NA 
HETATM    4  C   UNL     1     -10.168  17.322  67.746  1.00  0.00    -0.332 C  
HETATM    5  C   UNL     1     -10.518  17.768  66.531  1.00  0.00    -0.297 C  
HETATM    6  C   UNL     1     -10.603  19.222  66.288  1.00  0.00    -0.454 C  
HETATM    7  C   UNL     1     -10.786  16.746  65.501  1.00  0.00    -0.196 C  
HETATM    8  C   UNL     1     -10.549  15.327  65.840  1.00  0.00    -0.345 A  
HETATM    9  O   UNL     1     -11.169  17.090  64.383  1.00  0.00    -1.167 OA 
HETATM   10  O   UNL     1     -10.357  20.062  67.142  1.00  0.00    -0.425 OA 
HETATM   11  O   UNL     1     -10.967  19.560  65.031  1.00  0.00    -0.325 OA 
HETATM   12  C   UNL     1     -10.691  14.361  64.841  1.00  0.00    -0.444 A  
HETATM   13  C   UNL     1     -10.382  13.034  65.122  1.00  0.00    -0.304 A  
HETATM   14  F   UNL     1     -10.450  12.165  64.101  1.00  0.00    -0.291 F  
HETATM   15  C   UNL     1      -9.946  12.626  66.394  1.00  0.00    -0.255 A  
HETATM   16  C   UNL     1     -10.157  14.985  67.145  1.00  0.00    -0.239 A  
HETATM   17  C   UNL     1      -9.890  13.627  67.386  1.00  0.00    -0.234 A  
BRANCH  15  18
HETATM   18  N   UNL     1      -9.564  11.331  66.712  1.00  0.00    -0.190 NA 
HETATM   19  C   UNL     1     -10.319  10.470  67.636  1.00  0.00    -0.217 C  
HETATM   20  C   UNL     1     -10.748   9.153  66.948  1.00  0.00    -0.079 C  
HETATM   21  N   UNL     1      -9.651   8.410  66.279  1.00  0.00    -0.229 NA 
HETATM   22  C   UNL     1      -8.975   9.329  65.340  1.00  0.00    -0.207 C  
HETATM   23  C   UNL     1      -8.707   7.855  67.247  1.00  0.00    -0.131 C  
HETATM   24  C   UNL     1      -8.490  10.663  65.953  1.00  0.00    -0.167 C  
ENDBRANCH  15  18
ENDBRANCH   2   3
TORSDOF 2
ENDMDL
MODEL       15
REMARK 921   NORMALIZED FREE ENERGY PREDICTED BY IDOCK:   -6.78 KCAL/MOL
REMARK 922        TOTAL FREE ENERGY PREDICTED BY IDOCK:   -7.81 KCAL/MOL
REMARK 923 INTER-LIGAND FREE ENERGY PREDICTED BY IDOCK:   -7.52 KCAL/MOL
REMARK 924 INTRA-LIGAND FREE ENERGY PREDICTED BY IDOCK:   -0.29 KCAL/MOL
REMARK 927      BINDING AFFINITY PREDICTED BY RF-SCORE:    0.00 PKD
ROOT
HETATM    1  C   UNL     1      -9.408  10.161  67.467  1.00  0.00    -0.168 C  
HETATM    2  C   UNL     1     -10.659  11.018  67.333  1.00  0.00    -0.237 C  
ENDROOT
BRANCH   2   3
HETATM    3  N   UNL     1     -11.332  11.194  68.635  1.00  0.00    -0.251 NA 
HETATM    4  C   UNL     1     -11.611  10.099  69.444  1.00  0.00    -0.087 C  
HETATM    5  C   UNL     1     -12.220  10.126  70.638  1.00  0.00    -0.394 C  
HETATM    6  C   UNL     1     -12.421   8.866  71.380  1.00  0.00    -0.304 C  
HETATM    7  C   UNL     1     -12.643  11.449  71.137  1.00  0.00    -0.386 C  
HETATM    8  C   UNL     1     -12.276  12.647  70.351  1.00  0.00    -0.368 A  
HETATM    9  O   UNL     1     -13.261  11.535  72.197  1.00  0.00    -0.505 OA 
HETATM   10  O   UNL     1     -12.047   7.777  70.969  1.00  0.00    -0.302 OA 
HETATM   11  O   UNL     1     -13.048   9.009  72.569  1.00  0.00    -0.433 OA 
HETATM   12  C   UNL     1     -12.572  13.911  70.868  1.00  0.00    -0.431 A  
HETATM   13  C   UNL     1     -12.151  15.046  70.184  1.00  0.00    -0.331 A  
HETATM   14  F   UNL     1     -12.384  16.230  70.772  1.00  0.00    -0.345 F  
HETATM   15  C   UNL     1     -11.448  14.965  68.971  1.00  0.00    -0.301 A  
HETATM   16  C   UNL     1     -11.613  12.490  69.123  1.00  0.00    -0.320 A  
HETATM   17  C   UNL     1     -11.239  13.668  68.455  1.00  0.00    -0.310 A  
BRANCH  15  18
HETATM   18  N   UNL     1     -10.949  16.059  68.280  1.00  0.00    -0.321 NA 
HETATM   19  C   UNL     1     -10.360  17.234  68.942  1.00  0.00    -0.352 C  
HETATM   20  C   UNL     1      -8.911  17.478  68.460  1.00  0.00    -0.282 C  
HETATM   21  N   UNL     1      -8.742  17.537  66.988  1.00  0.00    -0.233 NA 
HETATM   22  C   UNL     1      -9.316  16.307  66.406  1.00  0.00    -0.292 C  
HETATM   23  C   UNL     1      -9.365  18.732  66.421  1.00  0.00    -0.312 C  
HETATM   24  C   UNL     1     -10.775  15.999  66.816  1.00  0.00    -0.259 C  
ENDBRANCH  15  18
ENDBRANCH   2   3
TORSDOF 2
ENDMDL
MODEL       16
REMARK 921   NORMALIZED FREE ENERGY PREDICTED BY IDOCK:   -6.72 KCAL/MOL
REMARK 922        TOTAL FREE ENERGY PREDICTED BY IDOCK:   -7.74 KCAL/MOL
REMARK 923 INTER-LIGAND FREE ENERGY PREDICTED BY IDOCK:   -7.23 KCAL/MOL
REMARK 924 INTRA-LIGAND FREE ENERGY PREDICTED BY IDOCK:   -0.52 KCAL/MOL
REMARK 927      BINDING AFFINITY PREDICTED BY RF-SCORE:    0.00 PKD
ROOT
HETATM    1  C   UNL     1     -10.249   9.228  66.612  1.00  0.00    -0.323 C  
HETATM    2  C   UNL     1      -9.619   9.743  67.898  1.00  0.00    -0.138 C  
ENDROOT
BRANCH   2   3
HETATM    3  N   UNL     1     -10.501   9.512  69.059  1.00  0.00    -0.208 NA 
HETATM    4  C   UNL     1     -10.558   8.266  69.671  1.00  0.00    -0.222 C  
HETATM    5  C   UNL     1     -11.319   7.930  70.722  1.00  0.00    -0.283 C  
HETATM    6  C   UNL     1     -11.243   6.559  71.266  1.00  0.00    -0.288 C  
HETATM    7  C   UNL     1     -12.189   8.985  71.276  1.00  0.00    -0.312 C  
HETATM    8  C   UNL     1     -12.084  10.349  70.715  1.00  0.00    -0.463 A  
HETATM    9  O   UNL     1     -12.955   8.724  72.202  1.00  0.00    -0.355 OA 
HETATM   10  O   UNL     1     -10.502   5.697  70.815  1.00  0.00    -0.236 OA 
HETATM   11  O   UNL     1     -12.054   6.329  72.322  1.00  0.00    -0.304 OA 
HETATM   12  C   UNL     1     -12.818  11.381  71.304  1.00  0.00    -0.481 A  
HETATM   13  C   UNL     1     -12.658  12.684  70.846  1.00  0.00    -0.249 A  
HETATM   14  F   UNL     1     -13.320  13.646  71.508  1.00  0.00    -0.394 F  
HETATM   15  C   UNL     1     -11.790  12.999  69.788  1.00  0.00    -0.311 A  
HETATM   16  C   UNL     1     -11.227  10.583  69.627  1.00  0.00    -0.282 A  
HETATM   17  C   UNL     1     -11.127  11.911  69.180  1.00  0.00    -0.285 A  
BRANCH  15  18
HETATM   18  N   UNL     1     -11.544  14.285  69.333  1.00  0.00    -0.287 NA 
HETATM   19  C   UNL     1     -10.734  15.265  70.074  1.00  0.00    -0.279 C  
HETATM   20  C   UNL     1      -9.542  15.764  69.223  1.00  0.00    -0.270 C  
HETATM   21  N   UNL     1      -9.903  16.261  67.873  1.00  0.00    -0.234 NA 
HETATM   22  C   UNL     1     -10.672  15.207  67.181  1.00  0.00    -0.310 C  
HETATM   23  C   UNL     1     -10.661  17.510  67.942  1.00  0.00    -0.390 C  
HETATM   24  C   UNL     1     -11.899  14.667  67.952  1.00  0.00    -0.320 C  
ENDBRANCH  15  18
ENDBRANCH   2   3
TORSDOF 2
ENDMDL
MODEL       17
REMARK 921   NORMALIZED FREE ENERGY PREDICTED BY IDOCK:   -6.72 KCAL/MOL
REMARK 922        TOTAL FREE ENERGY PREDICTED BY IDOCK:   -7.74 KCAL/MOL
REMARK 923 INTER-LIGAND FREE ENERGY PREDICTED BY IDOCK:   -7.38 KCAL/MOL
REMARK 924 INTRA-LIGAND FREE ENERGY PREDICTED BY IDOCK:   -0.37 KCAL/MOL
REMARK 927      BINDING AFFINITY PREDICTED BY RF-SCORE:    0.00 PKD
ROOT
HETATM    1  C   UNL     1     -12.810  15.525  70.866  1.00  0.00    -0.535 C  
HETATM    2  C   UNL     1     -11.337  15.812  70.611  1.00  0.00    -0.388 C  
ENDROOT
BRANCH   2   3
HETATM    3  N   UNL     1     -11.073  16.036  69.176  1.00  0.00    -0.294 NA 
HETATM    4  C   UNL     1     -10.881  17.320  68.681  1.00  0.00    -0.199 C  
HETATM    5  C   UNL     1     -10.642  17.653  67.405  1.00  0.00    -0.320 C  
HETATM    6  C   UNL     1     -10.440  19.072  67.049  1.00  0.00    -0.434 C  
HETATM    7  C   UNL     1     -10.587  16.547  66.429  1.00  0.00    -0.221 C  
HETATM    8  C   UNL     1     -10.687  15.161  66.932  1.00  0.00    -0.308 A  
HETATM    9  O   UNL     1     -10.431  16.793  65.234  1.00  0.00    -0.630 OA 
HETATM   10  O   UNL     1     -10.465  19.980  67.868  1.00  0.00    -0.391 OA 
HETATM   11  O   UNL     1     -10.210  19.294  65.737  1.00  0.00    -0.473 OA 
HETATM   12  C   UNL     1     -10.524  14.103  66.035  1.00  0.00    -0.308 A  
HETATM   13  C   UNL     1     -10.524  12.795  66.510  1.00  0.00    -0.263 A  
HETATM   14  F   UNL     1     -10.273  11.825  65.617  1.00  0.00    -0.241 F  
HETATM   15  C   UNL     1     -10.704  12.499  67.871  1.00  0.00    -0.217 A  
HETATM   16  C   UNL     1     -10.913  14.938  68.301  1.00  0.00    -0.264 A  
HETATM   17  C   UNL     1     -10.939  13.598  68.724  1.00  0.00    -0.292 A  
BRANCH  15  18
HETATM   18  N   UNL     1     -10.651  11.221  68.408  1.00  0.00    -0.187 NA 
HETATM   19  C   UNL     1      -9.431  10.398  68.417  1.00  0.00    -0.149 C  
HETATM   20  C   UNL     1      -9.047   9.985  69.857  1.00  0.00    -0.154 C  
HETATM   21  N   UNL     1     -10.138   9.355  70.640  1.00  0.00    -0.271 NA 
HETATM   22  C   UNL     1     -11.305  10.261  70.619  1.00  0.00    -0.347 C  
HETATM   23  C   UNL     1     -10.484   8.034  70.118  1.00  0.00    -0.225 C  
HETATM   24  C   UNL     1     -11.774  10.705  69.214  1.00  0.00    -0.264 C  
ENDBRANCH  15  18
ENDBRANCH   2   3
TORSDOF 2
ENDMDL
MODEL       18
REMARK 921   NORMALIZED FREE ENERGY PREDICTED BY IDOCK:   -6.69 KCAL/MOL
REMARK 922        TOTAL FREE ENERGY PREDICTED BY IDOCK:   -7.71 KCAL/MOL
REMARK 923 INTER-LIGAND FREE ENERGY PREDICTED BY IDOCK:   -7.22 KCAL/MOL
REMARK 924 INTRA-LIGAND FREE ENERGY PREDICTED BY IDOCK:   -0.49 KCAL/MOL
REMARK 927      BINDING AFFINITY PREDICTED BY RF-SCORE:    0.00 PKD
ROOT
HETATM    1  C   UNL     1      -8.160  15.410  69.136  1.00  0.00    -0.233 C  
HETATM    2  C   UNL     1      -8.878  14.288  68.399  1.00  0.00    -0.187 C  
ENDROOT
BRANCH   2   3
HETATM    3  N   UNL     1      -9.603  14.799  67.219  1.00  0.00    -0.219 NA 
HETATM    4  C   UNL     1      -9.756  16.165  67.015  1.00  0.00    -0.230 C  
HETATM    5  C   UNL     1     -10.395  16.750  65.992  1.00  0.00    -0.346 C  
HETATM    6  C   UNL     1     -10.447  18.223  65.914  1.00  0.00    -0.307 C  
HETATM    7  C   UNL     1     -11.004  15.854  64.990  1.00  0.00    -0.412 C  
HETATM    8  C   UNL     1     -10.779  14.398  65.119  1.00  0.00    -0.413 A  
HETATM    9  O   UNL     1     -11.655  16.328  64.060  1.00  0.00    -0.953 OA 
HETATM   10  O   UNL     1      -9.919  18.959  66.737  1.00  0.00    -0.319 OA 
HETATM   11  O   UNL     1     -11.118  18.706  64.846  1.00  0.00    -0.450 OA 
HETATM   12  C   UNL     1     -11.254  13.549  64.118  1.00  0.00    -0.341 A  
HETATM   13  C   UNL     1     -10.969  12.189  64.180  1.00  0.00    -0.361 A  
HETATM   14  F   UNL     1     -11.374  11.436  63.145  1.00  0.00    -0.417 F  
HETATM   15  C   UNL     1     -10.229  11.632  65.236  1.00  0.00    -0.272 A  
HETATM   16  C   UNL     1     -10.067  13.906  66.226  1.00  0.00    -0.300 A  
HETATM   17  C   UNL     1      -9.836  12.521  66.259  1.00  0.00    -0.260 A  
BRANCH  15  18
HETATM   18  N   UNL     1      -9.863  10.297  65.317  1.00  0.00    -0.286 NA 
HETATM   19  C   UNL     1      -8.881   9.672  64.416  1.00  0.00    -0.230 C  
HETATM   20  C   UNL     1      -7.709   9.052  65.212  1.00  0.00    -0.100 C  
HETATM   21  N   UNL     1      -8.110   8.134  66.305  1.00  0.00    -0.103 NA 
HETATM   22  C   UNL     1      -9.057   8.849  67.186  1.00  0.00    -0.138 C  
HETATM   23  C   UNL     1      -8.700   6.901  65.786  1.00  0.00    -0.106 C  
HETATM   24  C   UNL     1     -10.276   9.480  66.474  1.00  0.00    -0.237 C  
ENDBRANCH  15  18
ENDBRANCH   2   3
TORSDOF 2
ENDMDL
MODEL       19
REMARK 921   NORMALIZED FREE ENERGY PREDICTED BY IDOCK:   -6.69 KCAL/MOL
REMARK 922        TOTAL FREE ENERGY PREDICTED BY IDOCK:   -7.71 KCAL/MOL
REMARK 923 INTER-LIGAND FREE ENERGY PREDICTED BY IDOCK:   -7.21 KCAL/MOL
REMARK 924 INTRA-LIGAND FREE ENERGY PREDICTED BY IDOCK:   -0.50 KCAL/MOL
REMARK 927      BINDING AFFINITY PREDICTED BY RF-SCORE:    0.00 PKD
ROOT
HETATM    1  C   UNL     1      -9.516   8.785  66.078  1.00  0.00    -0.302 C  
HETATM    2  C   UNL     1      -8.975   9.541  67.284  1.00  0.00    -0.131 C  
ENDROOT
BRANCH   2   3
HETATM    3  N   UNL     1      -9.882  10.635  67.684  1.00  0.00    -0.165 NA 
HETATM    4  C   UNL     1     -10.062  11.744  66.867  1.00  0.00    -0.207 C  
HETATM    5  C   UNL     1     -10.848  12.800  67.120  1.00  0.00    -0.282 C  
HETATM    6  C   UNL     1     -10.941  13.891  66.130  1.00  0.00    -0.293 C  
HETATM    7  C   UNL     1     -11.589  12.785  68.396  1.00  0.00    -0.325 C  
HETATM    8  C   UNL     1     -11.501  11.578  69.246  1.00  0.00    -0.370 A  
HETATM    9  O   UNL     1     -12.280  13.752  68.714  1.00  0.00    -0.350 OA 
HETATM   10  O   UNL     1     -10.341  13.884  65.064  1.00  0.00    -0.370 OA 
HETATM   11  O   UNL     1     -11.759  14.905  66.487  1.00  0.00    -0.312 OA 
HETATM   12  C   UNL     1     -12.284  11.506  70.400  1.00  0.00    -0.442 A  
HETATM   13  C   UNL     1     -12.281  10.340  71.158  1.00  0.00    -0.397 A  
HETATM   14  F   UNL     1     -13.120  10.294  72.205  1.00  0.00    -0.505 F  
HETATM   15  C   UNL     1     -11.495   9.229  70.811  1.00  0.00    -0.292 A  
HETATM   16  C   UNL     1     -10.659  10.522  68.859  1.00  0.00    -0.216 A  
HETATM   17  C   UNL     1     -10.666   9.380  69.678  1.00  0.00    -0.251 A  
BRANCH  15  18
HETATM   18  N   UNL     1     -11.500   8.022  71.492  1.00  0.00    -0.256 NA 
HETATM   19  C   UNL     1     -11.821   6.734  70.855  1.00  0.00    -0.385 C  
HETATM   20  C   UNL     1     -10.659   5.726  71.017  1.00  0.00    -0.253 C  
HETATM   21  N   UNL     1     -10.178   5.544  72.408  1.00  0.00    -0.190 NA 
HETATM   22  C   UNL     1      -9.836   6.872  72.958  1.00  0.00    -0.179 C  
HETATM   23  C   UNL     1     -11.173   4.867  73.239  1.00  0.00    -0.345 C  
HETATM   24  C   UNL     1     -10.953   7.936  72.861  1.00  0.00    -0.388 C  
ENDBRANCH  15  18
ENDBRANCH   2   3
TORSDOF 2
ENDMDL
MODEL       20
REMARK 921   NORMALIZED FREE ENERGY PREDICTED BY IDOCK:   -6.67 KCAL/MOL
REMARK 922        TOTAL FREE ENERGY PREDICTED BY IDOCK:   -7.69 KCAL/MOL
REMARK 923 INTER-LIGAND FREE ENERGY PREDICTED BY IDOCK:   -7.19 KCAL/MOL
REMARK 924 INTRA-LIGAND FREE ENERGY PREDICTED BY IDOCK:   -0.50 KCAL/MOL
REMARK 927      BINDING AFFINITY PREDICTED BY RF-SCORE:    0.00 PKD
ROOT
HETATM    1  C   UNL     1      -9.462   7.401  66.769  1.00  0.00    -0.226 C  
HETATM    2  C   UNL     1     -10.177   8.739  66.893  1.00  0.00    -0.287 C  
ENDROOT
BRANCH   2   3
HETATM    3  N   UNL     1     -10.647   8.971  68.273  1.00  0.00    -0.196 NA 
HETATM    4  C   UNL     1     -10.508   7.989  69.246  1.00  0.00    -0.215 C  
HETATM    5  C   UNL     1     -10.897   8.075  70.526  1.00  0.00    -0.241 C  
HETATM    6  C   UNL     1     -10.654   6.940  71.438  1.00  0.00    -0.219 C  
HETATM    7  C   UNL     1     -11.546   9.335  70.938  1.00  0.00    -0.301 C  
HETATM    8  C   UNL     1     -11.623  10.440  69.959  1.00  0.00    -0.378 A  
HETATM    9  O   UNL     1     -11.980   9.454  72.083  1.00  0.00    -0.322 OA 
HETATM   10  O   UNL     1     -10.094   5.909  71.093  1.00  0.00    -0.187 OA 
HETATM   11  O   UNL     1     -11.089   7.133  72.702  1.00  0.00    -0.260 OA 
HETATM   12  C   UNL     1     -12.133  11.673  70.370  1.00  0.00    -0.462 A  
HETATM   13  C   UNL     1     -12.126  12.747  69.486  1.00  0.00    -0.205 A  
HETATM   14  F   UNL     1     -12.544  13.930  69.963  1.00  0.00    -0.367 F  
HETATM   15  C   UNL     1     -11.637  12.627  68.175  1.00  0.00    -0.338 A  
HETATM   16  C   UNL     1     -11.155  10.235  68.650  1.00  0.00    -0.239 A  
HETATM   17  C   UNL     1     -11.201  11.342  67.785  1.00  0.00    -0.354 A  
BRANCH  15  18
HETATM   18  N   UNL     1     -11.547  13.676  67.273  1.00  0.00    -0.335 NA 
HETATM   19  C   UNL     1     -10.528  14.735  67.362  1.00  0.00    -0.256 C  
HETATM   20  C   UNL     1      -9.686  14.809  66.066  1.00  0.00    -0.321 C  
HETATM   21  N   UNL     1     -10.473  14.911  64.813  1.00  0.00    -0.350 NA 
HETATM   22  C   UNL     1     -11.437  13.792  64.780  1.00  0.00    -0.356 C  
HETATM   23  C   UNL     1     -11.154  16.200  64.707  1.00  0.00    -0.333 C  
HETATM   24  C   UNL     1     -12.340  13.659  66.028  1.00  0.00    -0.445 C  
ENDBRANCH  15  18
ENDBRANCH   2   3
TORSDOF 2
ENDMDL
MODEL       21
REMARK 921   NORMALIZED FREE ENERGY PREDICTED BY IDOCK:   -6.64 KCAL/MOL
REMARK 922        TOTAL FREE ENERGY PREDICTED BY IDOCK:   -7.65 KCAL/MOL
REMARK 923 INTER-LIGAND FREE ENERGY PREDICTED BY IDOCK:   -7.33 KCAL/MOL
REMARK 924 INTRA-LIGAND FREE ENERGY PREDICTED BY IDOCK:   -0.32 KCAL/MOL
REMARK 927      BINDING AFFINITY PREDICTED BY RF-SCORE:    0.00 PKD
ROOT
HETATM    1  C   UNL     1     -13.223  10.094  71.860  1.00  0.00    -0.557 C  
HETATM    2  C   UNL     1     -12.171  10.559  70.861  1.00  0.00    -0.388 C  
ENDROOT
BRANCH   2   3
HETATM    3  N   UNL     1     -11.496   9.414  70.220  1.00  0.00    -0.221 NA 
HETATM    4  C   UNL     1     -11.437   8.178  70.852  1.00  0.00    -0.271 C  
HETATM    5  C   UNL     1     -10.850   7.069  70.380  1.00  0.00    -0.283 C  
HETATM    6  C   UNL     1     -10.899   5.826  71.174  1.00  0.00    -0.248 C  
HETATM    7  C   UNL     1     -10.194   7.176  69.062  1.00  0.00    -0.190 C  
HETATM    8  C   UNL     1     -10.320   8.446  68.315  1.00  0.00    -0.244 A  
HETATM    9  O   UNL     1      -9.586   6.211  68.601  1.00  0.00    -0.126 OA 
HETATM   10  O   UNL     1     -11.465   5.741  72.255  1.00  0.00    -0.288 OA 
HETATM   11  O   UNL     1     -10.273   4.772  70.606  1.00  0.00    -0.230 OA 
HETATM   12  C   UNL     1      -9.799   8.523  67.021  1.00  0.00    -0.289 A  
HETATM   13  C   UNL     1      -9.992   9.679  66.273  1.00  0.00    -0.264 A  
HETATM   14  F   UNL     1      -9.549   9.663  65.006  1.00  0.00    -0.306 F  
HETATM   15  C   UNL     1     -10.681  10.790  66.786  1.00  0.00    -0.231 A  
HETATM   16  C   UNL     1     -10.984   9.532  68.908  1.00  0.00    -0.086 A  
HETATM   17  C   UNL     1     -11.121  10.689  68.123  1.00  0.00    -0.343 A  
BRANCH  15  18
HETATM   18  N   UNL     1     -10.956  11.943  66.065  1.00  0.00    -0.299 NA 
HETATM   19  C   UNL     1     -11.429  11.932  64.672  1.00  0.00    -0.279 C  
HETATM   20  C   UNL     1     -12.781  12.670  64.535  1.00  0.00    -0.357 C  
HETATM   21  N   UNL     1     -12.809  14.036  65.111  1.00  0.00    -0.745 NA 
HETATM   22  C   UNL     1     -12.366  13.954  66.518  1.00  0.00    -0.404 C  
HETATM   23  C   UNL     1     -11.975  14.962  64.347  1.00  0.00    -0.394 C  
HETATM   24  C   UNL     1     -11.007  13.252  66.745  1.00  0.00    -0.287 C  
ENDBRANCH  15  18
ENDBRANCH   2   3
TORSDOF 2
ENDMDL
MODEL       22
REMARK 921   NORMALIZED FREE ENERGY PREDICTED BY IDOCK:   -6.63 KCAL/MOL
REMARK 922        TOTAL FREE ENERGY PREDICTED BY IDOCK:   -7.64 KCAL/MOL
REMARK 923 INTER-LIGAND FREE ENERGY PREDICTED BY IDOCK:   -7.11 KCAL/MOL
REMARK 924 INTRA-LIGAND FREE ENERGY PREDICTED BY IDOCK:   -0.52 KCAL/MOL
REMARK 927      BINDING AFFINITY PREDICTED BY RF-SCORE:    0.00 PKD
ROOT
HETATM    1  C   UNL     1     -12.615  11.897  63.335  1.00  0.00    -0.555 C  
HETATM    2  C   UNL     1     -11.147  11.642  63.651  1.00  0.00    -0.425 C  
ENDROOT
BRANCH   2   3
HETATM    3  N   UNL     1     -10.629  12.622  64.625  1.00  0.00    -0.315 NA 
HETATM    4  C   UNL     1     -10.863  13.982  64.459  1.00  0.00    -0.347 C  
HETATM    5  C   UNL     1     -10.443  14.966  65.266  1.00  0.00    -0.427 C  
HETATM    6  C   UNL     1     -10.799  16.364  64.953  1.00  0.00    -0.250 C  
HETATM    7  C   UNL     1      -9.645  14.566  66.441  1.00  0.00    -0.303 C  
HETATM    8  C   UNL     1      -9.458  13.124  66.706  1.00  0.00    -0.252 A  
HETATM    9  O   UNL     1      -9.179  15.427  67.186  1.00  0.00    -0.200 OA 
HETATM   10  O   UNL     1     -11.480  16.685  63.989  1.00  0.00    -1.192 OA 
HETATM   11  O   UNL     1     -10.321  17.275  65.829  1.00  0.00    -0.531 OA 
HETATM   12  C   UNL     1      -8.802  12.730  67.874  1.00  0.00    -0.186 A  
HETATM   13  C   UNL     1      -8.701  11.378  68.181  1.00  0.00    -0.154 A  
HETATM   14  F   UNL     1      -8.140  11.063  69.360  1.00  0.00    -0.136 F  
HETATM   15  C   UNL     1      -9.225  10.383  67.340  1.00  0.00    -0.142 A  
HETATM   16  C   UNL     1      -9.971  12.183  65.797  1.00  0.00    -0.249 A  
HETATM   17  C   UNL     1      -9.813  10.829  66.136  1.00  0.00    -0.269 A  
BRANCH  15  18
HETATM   18  N   UNL     1      -9.209   9.026  67.626  1.00  0.00    -0.135 NA 
HETATM   19  C   UNL     1     -10.404   8.272  68.037  1.00  0.00    -0.213 C  
HETATM   20  C   UNL     1     -10.678   7.092  67.076  1.00  0.00    -0.353 C  
HETATM   21  N   UNL     1      -9.520   6.196  66.839  1.00  0.00    -0.131 NA 
HETATM   22  C   UNL     1      -8.380   7.021  66.388  1.00  0.00    -0.125 C  
HETATM   23  C   UNL     1      -9.176   5.429  68.036  1.00  0.00    -0.110 C  
HETATM   24  C   UNL     1      -8.020   8.212  67.307  1.00  0.00    -0.113 C  
ENDBRANCH  15  18
ENDBRANCH   2   3
TORSDOF 2
ENDMDL
MODEL       23
REMARK 921   NORMALIZED FREE ENERGY PREDICTED BY IDOCK:   -6.61 KCAL/MOL
REMARK 922        TOTAL FREE ENERGY PREDICTED BY IDOCK:   -7.62 KCAL/MOL
REMARK 923 INTER-LIGAND FREE ENERGY PREDICTED BY IDOCK:   -7.16 KCAL/MOL
REMARK 924 INTRA-LIGAND FREE ENERGY PREDICTED BY IDOCK:   -0.46 KCAL/MOL
REMARK 927      BINDING AFFINITY PREDICTED BY RF-SCORE:    0.00 PKD
ROOT
HETATM    1  C   UNL     1     -11.239  13.175  66.649  1.00  0.00    -0.335 C  
HETATM    2  C   UNL     1     -10.382  13.185  67.907  1.00  0.00    -0.231 C  
ENDROOT
BRANCH   2   3
HETATM    3  N   UNL     1     -11.165  12.791  69.095  1.00  0.00    -0.254 NA 
HETATM    4  C   UNL     1     -11.960  13.715  69.761  1.00  0.00    -0.341 C  
HETATM    5  C   UNL     1     -12.709  13.484  70.848  1.00  0.00    -0.366 C  
HETATM    6  C   UNL     1     -13.517  14.579  71.421  1.00  0.00    -0.375 C  
HETATM    7  C   UNL     1     -12.678  12.114  71.396  1.00  0.00    -0.263 C  
HETATM    8  C   UNL     1     -11.922  11.079  70.659  1.00  0.00    -0.464 A  
HETATM    9  O   UNL     1     -13.296  11.853  72.427  1.00  0.00    -0.370 OA 
HETATM   10  O   UNL     1     -13.555  15.706  70.947  1.00  0.00    -0.568 OA 
HETATM   11  O   UNL     1     -14.230  14.236  72.516  1.00  0.00    -0.568 OA 
HETATM   12  C   UNL     1     -11.976   9.756  71.104  1.00  0.00    -0.463 A  
HETATM   13  C   UNL     1     -11.346   8.759  70.368  1.00  0.00    -0.192 A  
HETATM   14  F   UNL     1     -11.507   7.496  70.794  1.00  0.00    -0.277 F  
HETATM   15  C   UNL     1     -10.634   9.041  69.191  1.00  0.00    -0.203 A  
HETATM   16  C   UNL     1     -11.194  11.441  69.513  1.00  0.00    -0.256 A  
HETATM   17  C   UNL     1     -10.547  10.401  68.824  1.00  0.00    -0.232 A  
BRANCH  15  18
HETATM   18  N   UNL     1     -10.041   8.081  68.385  1.00  0.00    -0.190 NA 
HETATM   19  C   UNL     1      -8.952   7.203  68.840  1.00  0.00    -0.129 C  
HETATM   20  C   UNL     1      -9.338   5.712  68.691  1.00  0.00    -0.123 C  
HETATM   21  N   UNL     1      -9.828   5.324  67.347  1.00  0.00    -0.149 NA 
HETATM   22  C   UNL     1     -10.945   6.220  66.984  1.00  0.00    -0.364 C  
HETATM   23  C   UNL     1      -8.763   5.375  66.347  1.00  0.00    -0.121 C  
HETATM   24  C   UNL     1     -10.638   7.733  67.080  1.00  0.00    -0.331 C  
ENDBRANCH  15  18
ENDBRANCH   2   3
TORSDOF 2
ENDMDL
MODEL       24
REMARK 921   NORMALIZED FREE ENERGY PREDICTED BY IDOCK:   -6.57 KCAL/MOL
REMARK 922        TOTAL FREE ENERGY PREDICTED BY IDOCK:   -7.57 KCAL/MOL
REMARK 923 INTER-LIGAND FREE ENERGY PREDICTED BY IDOCK:   -7.13 KCAL/MOL
REMARK 924 INTRA-LIGAND FREE ENERGY PREDICTED BY IDOCK:   -0.44 KCAL/MOL
REMARK 927      BINDING AFFINITY PREDICTED BY RF-SCORE:    0.00 PKD
ROOT
HETATM    1  C   UNL     1     -11.567  15.452  68.926  1.00  0.00    -0.369 C  
HETATM    2  C   UNL     1     -12.212  14.075  69.000  1.00  0.00    -0.245 C  
ENDROOT
BRANCH   2   3
HETATM    3  N   UNL     1     -11.958  13.296  67.772  1.00  0.00    -0.341 NA 
HETATM    4  C   UNL     1     -12.180  13.854  66.519  1.00  0.00    -0.442 C  
HETATM    5  C   UNL     1     -11.995  13.251  65.335  1.00  0.00    -0.432 C  
HETATM    6  C   UNL     1     -12.259  13.999  64.090  1.00  0.00    -0.396 C  
HETATM    7  C   UNL     1     -11.519  11.855  65.369  1.00  0.00    -0.251 C  
HETATM    8  C   UNL     1     -11.179  11.260  66.679  1.00  0.00    -0.247 A  
HETATM    9  O   UNL     1     -11.388  11.227  64.319  1.00  0.00    -0.250 OA 
HETATM   10  O   UNL     1     -12.631  15.164  64.071  1.00  0.00    -0.791 OA 
HETATM   11  O   UNL     1     -12.044  13.295  62.957  1.00  0.00    -0.421 OA 
HETATM   12  C   UNL     1     -10.622   9.979  66.716  1.00  0.00    -0.229 A  
HETATM   13  C   UNL     1     -10.212   9.445  67.932  1.00  0.00    -0.211 A  
HETATM   14  F   UNL     1      -9.602   8.249  67.896  1.00  0.00    -0.149 F  
HETATM   15  C   UNL     1     -10.357  10.147  69.140  1.00  0.00    -0.219 A  
HETATM   16  C   UNL     1     -11.392  12.004  67.852  1.00  0.00    -0.305 A  
HETATM   17  C   UNL     1     -10.993  11.405  69.058  1.00  0.00    -0.288 A  
BRANCH  15  18
HETATM   18  N   UNL     1      -9.910   9.691  70.371  1.00  0.00    -0.262 NA 
HETATM   19  C   UNL     1     -10.813   9.266  71.453  1.00  0.00    -0.364 C  
HETATM   20  C   UNL     1     -10.523   7.808  71.881  1.00  0.00    -0.220 C  
HETATM   21  N   UNL     1      -9.105   7.521  72.207  1.00  0.00    -0.133 NA 
HETATM   22  C   UNL     1      -8.274   7.933  71.057  1.00  0.00    -0.100 C  
HETATM   23  C   UNL     1      -8.685   8.197  73.433  1.00  0.00    -0.251 C  
HETATM   24  C   UNL     1      -8.481   9.388  70.578  1.00  0.00    -0.212 C  
ENDBRANCH  15  18
ENDBRANCH   2   3
TORSDOF 2
ENDMDL
MODEL       25
REMARK 921   NORMALIZED FREE ENERGY PREDICTED BY IDOCK:   -6.55 KCAL/MOL
REMARK 922        TOTAL FREE ENERGY PREDICTED BY IDOCK:   -7.56 KCAL/MOL
REMARK 923 INTER-LIGAND FREE ENERGY PREDICTED BY IDOCK:   -7.06 KCAL/MOL
REMARK 924 INTRA-LIGAND FREE ENERGY PREDICTED BY IDOCK:   -0.49 KCAL/MOL
REMARK 927      BINDING AFFINITY PREDICTED BY RF-SCORE:    0.00 PKD
ROOT
HETATM    1  C   UNL     1     -12.201  11.876  63.266  1.00  0.00    -0.487 C  
HETATM    2  C   UNL     1     -12.682  12.405  64.610  1.00  0.00    -0.283 C  
ENDROOT
BRANCH   2   3
HETATM    3  N   UNL     1     -11.636  13.204  65.279  1.00  0.00    -0.311 NA 
HETATM    4  C   UNL     1     -11.482  14.554  64.994  1.00  0.00    -0.382 C  
HETATM    5  C   UNL     1     -10.571  15.381  65.526  1.00  0.00    -0.400 C  
HETATM    6  C   UNL     1     -10.557  16.803  65.127  1.00  0.00    -0.114 C  
HETATM    7  C   UNL     1      -9.634  14.795  66.505  1.00  0.00    -0.284 C  
HETATM    8  C   UNL     1      -9.830  13.386  66.908  1.00  0.00    -0.256 A  
HETATM    9  O   UNL     1      -8.738  15.488  66.984  1.00  0.00    -0.197 OA 
HETATM   10  O   UNL     1     -11.352  17.285  64.332  1.00  0.00    -1.052 OA 
HETATM   11  O   UNL     1      -9.597  17.544  65.722  1.00  0.00    -0.523 OA 
HETATM   12  C   UNL     1      -9.021  12.853  67.915  1.00  0.00    -0.193 A  
HETATM   13  C   UNL     1      -9.255  11.559  68.367  1.00  0.00    -0.190 A  
HETATM   14  F   UNL     1      -8.507  11.132  69.397  1.00  0.00    -0.085 F  
HETATM   15  C   UNL     1     -10.273  10.755  67.829  1.00  0.00    -0.182 A  
HETATM   16  C   UNL     1     -10.840  12.627  66.294  1.00  0.00    -0.273 A  
HETATM   17  C   UNL     1     -11.012  11.314  66.764  1.00  0.00    -0.339 A  
BRANCH  15  18
HETATM   18  N   UNL     1     -10.591   9.484  68.283  1.00  0.00    -0.222 NA 
HETATM   19  C   UNL     1     -10.209   8.252  67.575  1.00  0.00    -0.243 C  
HETATM   20  C   UNL     1      -9.366   7.326  68.482  1.00  0.00    -0.141 C  
HETATM   21  N   UNL     1      -9.965   7.032  69.806  1.00  0.00    -0.172 NA 
HETATM   22  C   UNL     1     -10.277   8.315  70.468  1.00  0.00    -0.198 C  
HETATM   23  C   UNL     1     -11.158   6.195  69.686  1.00  0.00    -0.419 C  
HETATM   24  C   UNL     1     -11.140   9.295  69.640  1.00  0.00    -0.116 C  
ENDBRANCH  15  18
ENDBRANCH   2   3
TORSDOF 2
ENDMDL
MODEL       26
REMARK 921   NORMALIZED FREE ENERGY PREDICTED BY IDOCK:   -6.55 KCAL/MOL
REMARK 922        TOTAL FREE ENERGY PREDICTED BY IDOCK:   -7.55 KCAL/MOL
REMARK 923 INTER-LIGAND FREE ENERGY PREDICTED BY IDOCK:   -7.05 KCAL/MOL
REMARK 924 INTRA-LIGAND FREE ENERGY PREDICTED BY IDOCK:   -0.51 KCAL/MOL
REMARK 927      BINDING AFFINITY PREDICTED BY RF-SCORE:    0.00 PKD
ROOT
HETATM    1  C   UNL     1     -14.143   8.826  71.772  1.00  0.00    -0.468 C  
HETATM    2  C   UNL     1     -12.802   9.470  72.097  1.00  0.00    -0.389 C  
ENDROOT
BRANCH   2   3
HETATM    3  N   UNL     1     -12.602  10.712  71.325  1.00  0.00    -0.394 NA 
HETATM    4  C   UNL     1     -13.026  11.936  71.827  1.00  0.00    -0.350 C  
HETATM    5  C   UNL     1     -12.909  13.128  71.223  1.00  0.00    -0.384 C  
HETATM    6  C   UNL     1     -13.396  14.341  71.908  1.00  0.00    -0.388 C  
HETATM    7  C   UNL     1     -12.274  13.137  69.891  1.00  0.00    -0.225 C  
HETATM    8  C   UNL     1     -11.721  11.869  69.367  1.00  0.00    -0.401 A  
HETATM    9  O   UNL     1     -12.191  14.189  69.259  1.00  0.00    -0.332 OA 
HETATM   10  O   UNL     1     -13.900  14.327  73.023  1.00  0.00    -0.565 OA 
HETATM   11  O   UNL     1     -13.231  15.485  71.209  1.00  0.00    -0.480 OA 
HETATM   12  C   UNL     1     -11.020  11.886  68.159  1.00  0.00    -0.272 A  
HETATM   13  C   UNL     1     -10.416  10.720  67.701  1.00  0.00    -0.214 A  
HETATM   14  F   UNL     1      -9.681  10.816  66.582  1.00  0.00    -0.195 F  
HETATM   15  C   UNL     1     -10.504   9.510  68.409  1.00  0.00    -0.224 A  
HETATM   16  C   UNL     1     -11.885  10.687  70.107  1.00  0.00    -0.337 A  
HETATM   17  C   UNL     1     -11.285   9.529  69.584  1.00  0.00    -0.138 A  
BRANCH  15  18
HETATM   18  N   UNL     1      -9.871   8.335  68.033  1.00  0.00    -0.162 NA 
HETATM   19  C   UNL     1      -8.758   7.738  68.789  1.00  0.00    -0.128 C  
HETATM   20  C   UNL     1      -9.093   6.293  69.227  1.00  0.00    -0.134 C  
HETATM   21  N   UNL     1      -9.555   5.400  68.137  1.00  0.00    -0.119 NA 
HETATM   22  C   UNL     1     -10.696   6.048  67.460  1.00  0.00    -0.301 C  
HETATM   23  C   UNL     1      -8.480   5.099  67.192  1.00  0.00    -0.106 C  
HETATM   24  C   UNL     1     -10.440   7.491  66.965  1.00  0.00    -0.338 C  
ENDBRANCH  15  18
ENDBRANCH   2   3
TORSDOF 2
ENDMDL
MODEL       27
REMARK 921   NORMALIZED FREE ENERGY PREDICTED BY IDOCK:   -6.47 KCAL/MOL
REMARK 922        TOTAL FREE ENERGY PREDICTED BY IDOCK:   -7.47 KCAL/MOL
REMARK 923 INTER-LIGAND FREE ENERGY PREDICTED BY IDOCK:   -6.96 KCAL/MOL
REMARK 924 INTRA-LIGAND FREE ENERGY PREDICTED BY IDOCK:   -0.51 KCAL/MOL
REMARK 927      BINDING AFFINITY PREDICTED BY RF-SCORE:    0.00 PKD
ROOT
HETATM    1  C   UNL     1     -12.115  15.631  73.183  1.00  0.00    -0.598 C  
HETATM    2  C   UNL     1     -11.993  15.945  71.698  1.00  0.00    -0.480 C  
ENDROOT
BRANCH   2   3
HETATM    3  N   UNL     1     -11.831  14.714  70.900  1.00  0.00    -0.311 NA 
HETATM    4  C   UNL     1     -12.438  13.528  71.294  1.00  0.00    -0.300 C  
HETATM    5  C   UNL     1     -12.363  12.347  70.662  1.00  0.00    -0.367 C  
HETATM    6  C   UNL     1     -13.091  11.184  71.206  1.00  0.00    -0.256 C  
HETATM    7  C   UNL     1     -11.547  12.303  69.433  1.00  0.00    -0.314 C  
HETATM    8  C   UNL     1     -10.966  13.566  68.929  1.00  0.00    -0.286 A  
HETATM    9  O   UNL     1     -11.389  11.237  68.841  1.00  0.00    -0.224 OA 
HETATM   10  O   UNL     1     -13.784  11.235  72.213  1.00  0.00    -0.127 OA 
HETATM   11  O   UNL     1     -12.943  10.046  70.493  1.00  0.00    -0.235 OA 
HETATM   12  C   UNL     1     -10.287  13.558  67.709  1.00  0.00    -0.241 A  
HETATM   13  C   UNL     1      -9.816  14.755  67.179  1.00  0.00    -0.232 A  
HETATM   14  F   UNL     1      -9.251  14.699  65.962  1.00  0.00    -0.300 F  
HETATM   15  C   UNL     1      -9.986  15.980  67.844  1.00  0.00    -0.233 A  
HETATM   16  C   UNL     1     -11.137  14.748  69.670  1.00  0.00    -0.272 A  
HETATM   17  C   UNL     1     -10.613  15.924  69.107  1.00  0.00    -0.246 A  
BRANCH  15  18
HETATM   18  N   UNL     1      -9.594  17.209  67.334  1.00  0.00    -0.244 NA 
HETATM   19  C   UNL     1     -10.355  17.939  66.308  1.00  0.00    -0.364 C  
HETATM   20  C   UNL     1     -10.754  19.348  66.805  1.00  0.00    -0.448 C  
HETATM   21  N   UNL     1      -9.637  20.163  67.339  1.00  0.00    -0.392 NA 
HETATM   22  C   UNL     1      -8.955  19.380  68.391  1.00  0.00    -0.354 C  
HETATM   23  C   UNL     1      -8.704  20.558  66.285  1.00  0.00     0.121 C  
HETATM   24  C   UNL     1      -8.497  17.964  67.971  1.00  0.00    -0.256 C  
ENDBRANCH  15  18
ENDBRANCH   2   3
TORSDOF 2
ENDMDL
MODEL       28
REMARK 921   NORMALIZED FREE ENERGY PREDICTED BY IDOCK:   -6.46 KCAL/MOL
REMARK 922        TOTAL FREE ENERGY PREDICTED BY IDOCK:   -7.46 KCAL/MOL
REMARK 923 INTER-LIGAND FREE ENERGY PREDICTED BY IDOCK:   -7.01 KCAL/MOL
REMARK 924 INTRA-LIGAND FREE ENERGY PREDICTED BY IDOCK:   -0.45 KCAL/MOL
REMARK 927      BINDING AFFINITY PREDICTED BY RF-SCORE:    0.00 PKD
ROOT
HETATM    1  C   UNL     1     -14.290   8.306  72.013  1.00  0.00    -0.541 C  
HETATM    2  C   UNL     1     -13.470   9.543  71.671  1.00  0.00    -0.385 C  
ENDROOT
BRANCH   2   3
HETATM    3  N   UNL     1     -12.024   9.245  71.666  1.00  0.00    -0.354 NA 
HETATM    4  C   UNL     1     -11.493   8.289  72.523  1.00  0.00    -0.384 C  
HETATM    5  C   UNL     1     -10.204   7.935  72.619  1.00  0.00    -0.361 C  
HETATM    6  C   UNL     1      -9.809   6.879  73.573  1.00  0.00    -0.242 C  
HETATM    7  C   UNL     1      -9.255   8.637  71.732  1.00  0.00    -0.268 C  
HETATM    8  C   UNL     1      -9.795   9.589  70.738  1.00  0.00    -0.309 A  
HETATM    9  O   UNL     1      -8.051   8.399  71.814  1.00  0.00    -0.125 OA 
HETATM   10  O   UNL     1     -10.605   6.287  74.287  1.00  0.00    -0.250 OA 
HETATM   11  O   UNL     1      -8.486   6.604  73.589  1.00  0.00    -0.119 OA 
HETATM   12  C   UNL     1      -8.921  10.175  69.820  1.00  0.00    -0.159 A  
HETATM   13  C   UNL     1      -9.428  11.000  68.822  1.00  0.00    -0.183 A  
HETATM   14  F   UNL     1      -8.554  11.462  67.914  1.00  0.00    -0.125 F  
HETATM   15  C   UNL     1     -10.800  11.283  68.716  1.00  0.00    -0.208 A  
HETATM   16  C   UNL     1     -11.173   9.859  70.719  1.00  0.00    -0.353 A  
HETATM   17  C   UNL     1     -11.630  10.726  69.712  1.00  0.00    -0.393 A  
BRANCH  15  18
HETATM   18  N   UNL     1     -11.367  12.045  67.707  1.00  0.00    -0.280 NA 
HETATM   19  C   UNL     1     -11.906  13.398  67.920  1.00  0.00    -0.357 C  
HETATM   20  C   UNL     1     -11.211  14.427  66.998  1.00  0.00    -0.328 C  
HETATM   21  N   UNL     1     -11.192  14.067  65.560  1.00  0.00    -0.306 NA 
HETATM   22  C   UNL     1     -10.598  12.720  65.428  1.00  0.00    -0.287 C  
HETATM   23  C   UNL     1     -12.530  14.114  64.973  1.00  0.00    -0.419 C  
HETATM   24  C   UNL     1     -11.251  11.621  66.298  1.00  0.00    -0.271 C  
ENDBRANCH  15  18
ENDBRANCH   2   3
TORSDOF 2
ENDMDL
MODEL       29
REMARK 921   NORMALIZED FREE ENERGY PREDICTED BY IDOCK:   -6.46 KCAL/MOL
REMARK 922        TOTAL FREE ENERGY PREDICTED BY IDOCK:   -7.45 KCAL/MOL
REMARK 923 INTER-LIGAND FREE ENERGY PREDICTED BY IDOCK:   -7.36 KCAL/MOL
REMARK 924 INTRA-LIGAND FREE ENERGY PREDICTED BY IDOCK:   -0.09 KCAL/MOL
REMARK 927      BINDING AFFINITY PREDICTED BY RF-SCORE:    0.00 PKD
ROOT
HETATM    1  C   UNL     1     -10.517  19.777  67.034  1.00  0.00    -0.595 C  
HETATM    2  C   UNL     1      -9.306  19.185  66.328  1.00  0.00    -0.315 C  
ENDROOT
BRANCH   2   3
HETATM    3  N   UNL     1      -8.435  18.458  67.272  1.00  0.00    -0.251 NA 
HETATM    4  C   UNL     1      -7.722  19.141  68.250  1.00  0.00    -0.315 C  
HETATM    5  C   UNL     1      -6.897  18.600  69.158  1.00  0.00    -0.284 C  
HETATM    6  C   UNL     1      -6.231  19.471  70.146  1.00  0.00    -0.227 C  
HETATM    7  C   UNL     1      -6.722  17.135  69.106  1.00  0.00    -0.238 C  
HETATM    8  C   UNL     1      -7.538  16.364  68.144  1.00  0.00    -0.157 A  
HETATM    9  O   UNL     1      -5.933  16.585  69.872  1.00  0.00    -0.198 OA 
HETATM   10  O   UNL     1      -6.400  20.682  70.197  1.00  0.00    -0.371 OA 
HETATM   11  O   UNL     1      -5.420  18.822  71.010  1.00  0.00    -0.247 OA 
HETATM   12  C   UNL     1      -7.465  14.969  68.161  1.00  0.00    -0.116 A  
HETATM   13  C   UNL     1      -8.295  14.229  67.326  1.00  0.00    -0.204 A  
HETATM   14  F   UNL     1      -8.246  12.893  67.450  1.00  0.00    -0.149 F  
HETATM   15  C   UNL     1      -9.199  14.842  66.443  1.00  0.00    -0.269 A  
HETATM   16  C   UNL     1      -8.390  17.046  67.258  1.00  0.00    -0.186 A  
HETATM   17  C   UNL     1      -9.182  16.253  66.412  1.00  0.00    -0.332 A  
BRANCH  15  18
HETATM   18  N   UNL     1     -10.093  14.155  65.636  1.00  0.00    -0.326 NA 
HETATM   19  C   UNL     1     -10.112  12.688  65.515  1.00  0.00    -0.265 C  
HETATM   20  C   UNL     1     -11.496  12.114  65.898  1.00  0.00    -0.363 C  
HETATM   21  N   UNL     1     -12.647  12.736  65.199  1.00  0.00    -0.641 NA 
HETATM   22  C   UNL     1     -12.580  14.197  65.406  1.00  0.00    -0.466 C  
HETATM   23  C   UNL     1     -12.658  12.403  63.775  1.00  0.00    -0.437 C  
HETATM   24  C   UNL     1     -11.236  14.859  65.023  1.00  0.00    -0.404 C  
ENDBRANCH  15  18
ENDBRANCH   2   3
TORSDOF 2
ENDMDL
MODEL       30
REMARK 921   NORMALIZED FREE ENERGY PREDICTED BY IDOCK:   -6.32 KCAL/MOL
REMARK 922        TOTAL FREE ENERGY PREDICTED BY IDOCK:   -7.29 KCAL/MOL
REMARK 923 INTER-LIGAND FREE ENERGY PREDICTED BY IDOCK:   -6.79 KCAL/MOL
REMARK 924 INTRA-LIGAND FREE ENERGY PREDICTED BY IDOCK:   -0.50 KCAL/MOL
REMARK 927      BINDING AFFINITY PREDICTED BY RF-SCORE:    0.00 PKD
ROOT
HETATM    1  C   UNL     1     -10.967  14.177  67.157  1.00  0.00    -0.304 C  
HETATM    2  C   UNL     1     -10.240  13.208  68.080  1.00  0.00    -0.239 C  
ENDROOT
BRANCH   2   3
HETATM    3  N   UNL     1     -11.110  12.770  69.190  1.00  0.00    -0.223 NA 
HETATM    4  C   UNL     1     -11.948  13.672  69.835  1.00  0.00    -0.348 C  
HETATM    5  C   UNL     1     -12.775  13.400  70.855  1.00  0.00    -0.349 C  
HETATM    6  C   UNL     1     -13.617  14.476  71.413  1.00  0.00    -0.381 C  
HETATM    7  C   UNL     1     -12.788  12.009  71.346  1.00  0.00    -0.288 C  
HETATM    8  C   UNL     1     -11.984  11.000  70.623  1.00  0.00    -0.464 A  
HETATM    9  O   UNL     1     -13.481  11.709  72.317  1.00  0.00    -0.397 OA 
HETATM   10  O   UNL     1     -13.617  15.622  70.984  1.00  0.00    -0.588 OA 
HETATM   11  O   UNL     1     -14.409  14.093  72.438  1.00  0.00    -0.586 OA 
HETATM   12  C   UNL     1     -12.075   9.661  71.008  1.00  0.00    -0.421 A  
HETATM   13  C   UNL     1     -11.397   8.690  70.278  1.00  0.00    -0.136 A  
HETATM   14  F   UNL     1     -11.593   7.412  70.638  1.00  0.00    -0.294 F  
HETATM   15  C   UNL     1     -10.600   9.016  69.168  1.00  0.00    -0.203 A  
HETATM   16  C   UNL     1     -11.174  11.404  69.548  1.00  0.00    -0.256 A  
HETATM   17  C   UNL     1     -10.483  10.390  68.866  1.00  0.00    -0.232 A  
BRANCH  15  18
HETATM   18  N   UNL     1      -9.954   8.087  68.368  1.00  0.00    -0.179 NA 
HETATM   19  C   UNL     1     -10.209   7.944  66.925  1.00  0.00    -0.310 C  
HETATM   20  C   UNL     1      -8.910   8.130  66.107  1.00  0.00    -0.162 C  
HETATM   21  N   UNL     1      -7.769   7.291  66.546  1.00  0.00    -0.092 NA 
HETATM   22  C   UNL     1      -7.550   7.525  67.989  1.00  0.00    -0.110 C  
HETATM   23  C   UNL     1      -8.001   5.874  66.269  1.00  0.00    -0.102 C  
HETATM   24  C   UNL     1      -8.795   7.335  68.886  1.00  0.00    -0.127 C  
ENDBRANCH  15  18
ENDBRANCH   2   3
TORSDOF 2
ENDMDL
MODEL       31
REMARK 921   NORMALIZED FREE ENERGY PREDICTED BY IDOCK:   -6.31 KCAL/MOL
REMARK 922        TOTAL FREE ENERGY PREDICTED BY IDOCK:   -7.29 KCAL/MOL
REMARK 923 INTER-LIGAND FREE ENERGY PREDICTED BY IDOCK:   -6.78 KCAL/MOL
REMARK 924 INTRA-LIGAND FREE ENERGY PREDICTED BY IDOCK:   -0.51 KCAL/MOL
REMARK 927      BINDING AFFINITY PREDICTED BY RF-SCORE:    0.00 PKD
ROOT
HETATM    1  C   UNL     1     -13.115  10.885  71.721  1.00  0.00    -0.564 C  
HETATM    2  C   UNL     1     -11.902  10.535  70.870  1.00  0.00    -0.355 C  
ENDROOT
BRANCH   2   3
HETATM    3  N   UNL     1     -11.732  11.490  69.757  1.00  0.00    -0.326 NA 
HETATM    4  C   UNL     1     -11.926  12.852  69.954  1.00  0.00    -0.307 C  
HETATM    5  C   UNL     1     -11.810  13.815  69.028  1.00  0.00    -0.397 C  
HETATM    6  C   UNL     1     -12.030  15.223  69.412  1.00  0.00    -0.315 C  
HETATM    7  C   UNL     1     -11.449  13.383  67.664  1.00  0.00    -0.319 C  
HETATM    8  C   UNL     1     -11.138  11.955  67.438  1.00  0.00    -0.336 A  
HETATM    9  O   UNL     1     -11.385  14.211  66.757  1.00  0.00    -0.319 OA 
HETATM   10  O   UNL     1     -12.307  15.574  70.551  1.00  0.00    -0.375 OA 
HETATM   11  O   UNL     1     -11.891  16.108  68.402  1.00  0.00    -0.260 OA 
HETATM   12  C   UNL     1     -10.687  11.553  66.178  1.00  0.00    -0.324 A  
HETATM   13  C   UNL     1     -10.304  10.231  65.978  1.00  0.00    -0.178 A  
HETATM   14  F   UNL     1      -9.794   9.923  64.774  1.00  0.00    -0.358 F  
HETATM   15  C   UNL     1     -10.373   9.273  67.002  1.00  0.00    -0.255 A  
HETATM   16  C   UNL     1     -11.272  11.043  68.498  1.00  0.00    -0.268 A  
HETATM   17  C   UNL     1     -10.904   9.713  68.234  1.00  0.00    -0.230 A  
BRANCH  15  18
HETATM   18  N   UNL     1      -9.946   7.960  66.877  1.00  0.00    -0.236 NA 
HETATM   19  C   UNL     1      -8.527   7.571  66.840  1.00  0.00    -0.122 C  
HETATM   20  C   UNL     1      -8.194   6.565  67.967  1.00  0.00    -0.116 C  
HETATM   21  N   UNL     1      -9.085   5.381  68.032  1.00  0.00    -0.108 NA 
HETATM   22  C   UNL     1     -10.481   5.856  68.112  1.00  0.00    -0.233 C  
HETATM   23  C   UNL     1      -8.892   4.496  66.885  1.00  0.00    -0.112 C  
HETATM   24  C   UNL     1     -10.908   6.848  67.006  1.00  0.00    -0.366 C  
ENDBRANCH  15  18
ENDBRANCH   2   3
TORSDOF 2
ENDMDL
MODEL       32
REMARK 921   NORMALIZED FREE ENERGY PREDICTED BY IDOCK:   -6.31 KCAL/MOL
REMARK 922        TOTAL FREE ENERGY PREDICTED BY IDOCK:   -7.29 KCAL/MOL
REMARK 923 INTER-LIGAND FREE ENERGY PREDICTED BY IDOCK:   -6.76 KCAL/MOL
REMARK 924 INTRA-LIGAND FREE ENERGY PREDICTED BY IDOCK:   -0.52 KCAL/MOL
REMARK 927      BINDING AFFINITY PREDICTED BY RF-SCORE:    0.00 PKD
ROOT
HETATM    1  C   UNL     1      -7.463  16.173  66.933  1.00  0.00    -0.266 C  
HETATM    2  C   UNL     1      -7.790  14.740  67.331  1.00  0.00    -0.200 C  
ENDROOT
BRANCH   2   3
HETATM    3  N   UNL     1      -9.073  14.301  66.749  1.00  0.00    -0.257 NA 
HETATM    4  C   UNL     1      -9.799  15.140  65.912  1.00  0.00    -0.341 C  
HETATM    5  C   UNL     1     -10.974  14.861  65.329  1.00  0.00    -0.389 C  
HETATM    6  C   UNL     1     -11.603  15.863  64.446  1.00  0.00    -0.234 C  
HETATM    7  C   UNL     1     -11.557  13.535  65.613  1.00  0.00    -0.325 C  
HETATM    8  C   UNL     1     -10.769  12.578  66.419  1.00  0.00    -0.275 A  
HETATM    9  O   UNL     1     -12.661  13.242  65.157  1.00  0.00    -0.597 OA 
HETATM   10  O   UNL     1     -11.101  16.950  64.198  1.00  0.00    -1.032 OA 
HETATM   11  O   UNL     1     -12.784  15.480  63.915  1.00  0.00    -0.665 OA 
HETATM   12  C   UNL     1     -11.260  11.283  66.600  1.00  0.00    -0.247 A  
HETATM   13  C   UNL     1     -10.486  10.346  67.277  1.00  0.00    -0.252 A  
HETATM   14  F   UNL     1     -10.968   9.095  67.343  1.00  0.00    -0.347 F  
HETATM   15  C   UNL     1      -9.225  10.666  67.806  1.00  0.00    -0.146 A  
HETATM   16  C   UNL     1      -9.535  12.980  66.955  1.00  0.00    -0.237 A  
HETATM   17  C   UNL     1      -8.808  12.006  67.660  1.00  0.00    -0.172 A  
BRANCH  15  18
HETATM   18  N   UNL     1      -8.386   9.758  68.433  1.00  0.00    -0.109 NA 
HETATM   19  C   UNL     1      -8.542   9.348  69.838  1.00  0.00    -0.191 C  
HETATM   20  C   UNL     1      -8.714   7.815  69.957  1.00  0.00    -0.141 C  
HETATM   21  N   UNL     1      -7.676   7.013  69.265  1.00  0.00    -0.106 NA 
HETATM   22  C   UNL     1      -7.613   7.453  67.856  1.00  0.00    -0.114 C  
HETATM   23  C   UNL     1      -6.373   7.139  69.916  1.00  0.00    -0.035 C  
HETATM   24  C   UNL     1      -7.416   8.972  67.645  1.00  0.00    -0.085 C  
ENDBRANCH  15  18
ENDBRANCH   2   3
TORSDOF 2
ENDMDL
MODEL       33
REMARK 921   NORMALIZED FREE ENERGY PREDICTED BY IDOCK:   -6.30 KCAL/MOL
REMARK 922        TOTAL FREE ENERGY PREDICTED BY IDOCK:   -7.28 KCAL/MOL
REMARK 923 INTER-LIGAND FREE ENERGY PREDICTED BY IDOCK:   -6.79 KCAL/MOL
REMARK 924 INTRA-LIGAND FREE ENERGY PREDICTED BY IDOCK:   -0.49 KCAL/MOL
REMARK 927      BINDING AFFINITY PREDICTED BY RF-SCORE:    0.00 PKD
ROOT
HETATM    1  C   UNL     1     -12.533  15.143  70.638  1.00  0.00    -0.442 C  
HETATM    2  C   UNL     1     -12.198  13.670  70.452  1.00  0.00    -0.363 C  
ENDROOT
BRANCH   2   3
HETATM    3  N   UNL     1     -11.668  13.406  69.100  1.00  0.00    -0.306 NA 
HETATM    4  C   UNL     1     -11.412  14.451  68.221  1.00  0.00    -0.305 C  
HETATM    5  C   UNL     1     -10.938  14.342  66.971  1.00  0.00    -0.305 C  
HETATM    6  C   UNL     1     -10.701  15.562  66.174  1.00  0.00    -0.313 C  
HETATM    7  C   UNL     1     -10.673  12.976  66.479  1.00  0.00    -0.278 C  
HETATM    8  C   UNL     1     -10.840  11.846  67.418  1.00  0.00    -0.289 A  
HETATM    9  O   UNL     1     -10.295  12.805  65.321  1.00  0.00    -0.288 OA 
HETATM   10  O   UNL     1     -10.902  16.691  66.599  1.00  0.00    -0.184 OA 
HETATM   11  O   UNL     1     -10.228  15.336  64.930  1.00  0.00    -0.336 OA 
HETATM   12  C   UNL     1     -10.485  10.561  66.999  1.00  0.00    -0.304 A  
HETATM   13  C   UNL     1     -10.549   9.504  67.901  1.00  0.00    -0.244 A  
HETATM   14  F   UNL     1     -10.111   8.311  67.470  1.00  0.00    -0.205 F  
HETATM   15  C   UNL     1     -10.981   9.682  69.225  1.00  0.00    -0.168 A  
HETATM   16  C   UNL     1     -11.320  12.091  68.715  1.00  0.00    -0.278 A  
HETATM   17  C   UNL     1     -11.398  10.984  69.577  1.00  0.00    -0.356 A  
BRANCH  15  18
HETATM   18  N   UNL     1     -11.005   8.680  70.183  1.00  0.00    -0.244 NA 
HETATM   19  C   UNL     1      -9.790   8.072  70.749  1.00  0.00    -0.183 C  
HETATM   20  C   UNL     1      -9.756   8.223  72.288  1.00  0.00    -0.292 C  
HETATM   21  N   UNL     1     -10.977   7.759  72.990  1.00  0.00    -0.404 NA 
HETATM   22  C   UNL     1     -12.142   8.446  72.395  1.00  0.00    -0.378 C  
HETATM   23  C   UNL     1     -11.125   6.307  72.915  1.00  0.00    -0.236 C  
HETATM   24  C   UNL     1     -12.269   8.325  70.858  1.00  0.00    -0.091 C  
ENDBRANCH  15  18
ENDBRANCH   2   3
TORSDOF 2
ENDMDL
MODEL       34
REMARK 921   NORMALIZED FREE ENERGY PREDICTED BY IDOCK:   -6.30 KCAL/MOL
REMARK 922        TOTAL FREE ENERGY PREDICTED BY IDOCK:   -7.28 KCAL/MOL
REMARK 923 INTER-LIGAND FREE ENERGY PREDICTED BY IDOCK:   -6.76 KCAL/MOL
REMARK 924 INTRA-LIGAND FREE ENERGY PREDICTED BY IDOCK:   -0.52 KCAL/MOL
REMARK 927      BINDING AFFINITY PREDICTED BY RF-SCORE:    0.00 PKD
ROOT
HETATM    1  C   UNL     1     -11.680  13.635  68.845  1.00  0.00    -0.377 C  
HETATM    2  C   UNL     1     -12.031  12.157  68.735  1.00  0.00    -0.239 C  
ENDROOT
BRANCH   2   3
HETATM    3  N   UNL     1     -11.367  11.532  67.573  1.00  0.00    -0.364 NA 
HETATM    4  C   UNL     1     -11.166  12.248  66.400  1.00  0.00    -0.324 C  
HETATM    5  C   UNL     1     -10.585  11.794  65.280  1.00  0.00    -0.327 C  
HETATM    6  C   UNL     1     -10.430  12.698  64.123  1.00  0.00    -0.413 C  
HETATM    7  C   UNL     1     -10.123  10.392  65.294  1.00  0.00    -0.300 C  
HETATM    8  C   UNL     1     -10.230   9.629  66.555  1.00  0.00    -0.294 A  
HETATM    9  O   UNL     1      -9.637   9.899  64.277  1.00  0.00    -0.282 OA 
HETATM   10  O   UNL     1     -10.796  13.866  64.129  1.00  0.00    -0.255 OA 
HETATM   11  O   UNL     1      -9.836  12.137  63.048  1.00  0.00    -0.365 OA 
HETATM   12  C   UNL     1      -9.695   8.340  66.613  1.00  0.00    -0.321 A  
HETATM   13  C   UNL     1      -9.706   7.647  67.819  1.00  0.00    -0.148 A  
HETATM   14  F   UNL     1      -9.098   6.451  67.837  1.00  0.00    -0.117 F  
HETATM   15  C   UNL     1     -10.260   8.196  68.987  1.00  0.00    -0.220 A  
HETATM   16  C   UNL     1     -10.837  10.226  67.673  1.00  0.00    -0.307 A  
HETATM   17  C   UNL     1     -10.854   9.470  68.858  1.00  0.00    -0.177 A  
BRANCH  15  18
HETATM   18  N   UNL     1     -10.242   7.578  70.228  1.00  0.00    -0.202 NA 
HETATM   19  C   UNL     1      -9.204   7.826  71.241  1.00  0.00    -0.141 C  
HETATM   20  C   UNL     1      -9.825   8.328  72.565  1.00  0.00    -0.298 C  
HETATM   21  N   UNL     1     -10.922   7.487  73.101  1.00  0.00    -0.392 NA 
HETATM   22  C   UNL     1     -11.940   7.324  72.043  1.00  0.00    -0.296 C  
HETATM   23  C   UNL     1     -10.431   6.191  73.567  1.00  0.00    -0.264 C  
HETATM   24  C   UNL     1     -11.409   6.799  70.688  1.00  0.00    -0.334 C  
ENDBRANCH  15  18
ENDBRANCH   2   3
TORSDOF 2
ENDMDL
MODEL       35
REMARK 921   NORMALIZED FREE ENERGY PREDICTED BY IDOCK:   -6.29 KCAL/MOL
REMARK 922        TOTAL FREE ENERGY PREDICTED BY IDOCK:   -7.26 KCAL/MOL
REMARK 923 INTER-LIGAND FREE ENERGY PREDICTED BY IDOCK:   -6.87 KCAL/MOL
REMARK 924 INTRA-LIGAND FREE ENERGY PREDICTED BY IDOCK:   -0.39 KCAL/MOL
REMARK 927      BINDING AFFINITY PREDICTED BY RF-SCORE:    0.00 PKD
ROOT
HETATM    1  C   UNL     1     -13.698   9.308  71.464  1.00  0.00    -0.382 C  
HETATM    2  C   UNL     1     -12.276   9.841  71.347  1.00  0.00    -0.397 C  
ENDROOT
BRANCH   2   3
HETATM    3  N   UNL     1     -12.254  11.186  70.740  1.00  0.00    -0.372 NA 
HETATM    4  C   UNL     1     -12.688  12.296  71.455  1.00  0.00    -0.248 C  
HETATM    5  C   UNL     1     -12.724  13.562  71.015  1.00  0.00    -0.399 C  
HETATM    6  C   UNL     1     -13.197  14.631  71.916  1.00  0.00    -0.349 C  
HETATM    7  C   UNL     1     -12.265  13.797  69.632  1.00  0.00    -0.305 C  
HETATM    8  C   UNL     1     -11.703  12.658  68.875  1.00  0.00    -0.370 A  
HETATM    9  O   UNL     1     -12.329  14.927  69.150  1.00  0.00    -0.187 OA 
HETATM   10  O   UNL     1     -13.554  14.430  73.068  1.00  0.00    -0.619 OA 
HETATM   11  O   UNL     1     -13.194  15.867  71.370  1.00  0.00    -0.475 OA 
HETATM   12  C   UNL     1     -11.163  12.890  67.608  1.00  0.00    -0.317 A  
HETATM   13  C   UNL     1     -10.549  11.846  66.923  1.00  0.00    -0.230 A  
HETATM   14  F   UNL     1      -9.968  12.148  65.751  1.00  0.00    -0.238 F  
HETATM   15  C   UNL     1     -10.469  10.550  67.459  1.00  0.00    -0.239 A  
HETATM   16  C   UNL     1     -11.697  11.379  69.455  1.00  0.00    -0.348 A  
HETATM   17  C   UNL     1     -11.095  10.352  68.709  1.00  0.00    -0.298 A  
BRANCH  15  18
HETATM   18  N   UNL     1      -9.815   9.490  66.851  1.00  0.00    -0.190 NA 
HETATM   19  C   UNL     1      -8.440   9.576  66.334  1.00  0.00    -0.126 C  
HETATM   20  C   UNL     1      -7.528   8.515  66.992  1.00  0.00    -0.084 C  
HETATM   21  N   UNL     1      -8.046   7.126  66.941  1.00  0.00    -0.115 NA 
HETATM   22  C   UNL     1      -9.406   7.117  67.517  1.00  0.00    -0.124 C  
HETATM   23  C   UNL     1      -8.045   6.600  65.577  1.00  0.00    -0.124 C  
HETATM   24  C   UNL     1     -10.394   8.133  66.897  1.00  0.00    -0.331 C  
ENDBRANCH  15  18
ENDBRANCH   2   3
TORSDOF 2
ENDMDL
MODEL       36
REMARK 921   NORMALIZED FREE ENERGY PREDICTED BY IDOCK:   -6.25 KCAL/MOL
REMARK 922        TOTAL FREE ENERGY PREDICTED BY IDOCK:   -7.22 KCAL/MOL
REMARK 923 INTER-LIGAND FREE ENERGY PREDICTED BY IDOCK:   -6.68 KCAL/MOL
REMARK 924 INTRA-LIGAND FREE ENERGY PREDICTED BY IDOCK:   -0.54 KCAL/MOL
REMARK 927      BINDING AFFINITY PREDICTED BY RF-SCORE:    0.00 PKD
ROOT
HETATM    1  C   UNL     1     -10.433  11.747  65.832  1.00  0.00    -0.296 C  
HETATM    2  C   UNL     1      -9.604  12.159  67.041  1.00  0.00    -0.205 C  
ENDROOT
BRANCH   2   3
HETATM    3  N   UNL     1     -10.461  12.634  68.144  1.00  0.00    -0.224 NA 
HETATM    4  C   UNL     1     -11.133  11.733  68.960  1.00  0.00    -0.246 C  
HETATM    5  C   UNL     1     -11.942  12.038  69.985  1.00  0.00    -0.400 C  
HETATM    6  C   UNL     1     -12.564  10.952  70.768  1.00  0.00    -0.377 C  
HETATM    7  C   UNL     1     -12.144  13.473  70.267  1.00  0.00    -0.355 C  
HETATM    8  C   UNL     1     -11.369  14.459  69.484  1.00  0.00    -0.318 A  
HETATM    9  O   UNL     1     -12.921  13.818  71.156  1.00  0.00    -0.326 OA 
HETATM   10  O   UNL     1     -12.373   9.766  70.542  1.00  0.00    -0.214 OA 
HETATM   11  O   UNL     1     -13.362  11.372  71.774  1.00  0.00    -0.402 OA 
HETATM   12  C   UNL     1     -11.467  15.812  69.815  1.00  0.00    -0.350 A  
HETATM   13  C   UNL     1     -10.674  16.740  69.149  1.00  0.00    -0.329 A  
HETATM   14  F   UNL     1     -10.743  18.013  69.570  1.00  0.00    -0.098 F  
HETATM   15  C   UNL     1      -9.784  16.362  68.130  1.00  0.00    -0.229 A  
HETATM   16  C   UNL     1     -10.531  14.013  68.448  1.00  0.00    -0.253 A  
HETATM   17  C   UNL     1      -9.777  14.994  67.783  1.00  0.00    -0.215 A  
BRANCH  15  18
HETATM   18  N   UNL     1      -8.926  17.233  67.476  1.00  0.00    -0.221 NA 
HETATM   19  C   UNL     1      -9.346  18.100  66.364  1.00  0.00    -0.265 C  
HETATM   20  C   UNL     1      -9.073  19.589  66.684  1.00  0.00    -0.351 C  
HETATM   21  N   UNL     1      -7.689  19.892  67.121  1.00  0.00    -0.263 NA 
HETATM   22  C   UNL     1      -7.362  19.014  68.264  1.00  0.00    -0.284 C  
HETATM   23  C   UNL     1      -6.728  19.722  66.032  1.00  0.00    -0.237 C  
HETATM   24  C   UNL     1      -7.581  17.503  68.022  1.00  0.00    -0.220 C  
ENDBRANCH  15  18
ENDBRANCH   2   3
TORSDOF 2
ENDMDL
MODEL       37
REMARK 921   NORMALIZED FREE ENERGY PREDICTED BY IDOCK:   -6.25 KCAL/MOL
REMARK 922        TOTAL FREE ENERGY PREDICTED BY IDOCK:   -7.22 KCAL/MOL
REMARK 923 INTER-LIGAND FREE ENERGY PREDICTED BY IDOCK:   -6.82 KCAL/MOL
REMARK 924 INTRA-LIGAND FREE ENERGY PREDICTED BY IDOCK:   -0.40 KCAL/MOL
REMARK 927      BINDING AFFINITY PREDICTED BY RF-SCORE:    0.00 PKD
ROOT
HETATM    1  C   UNL     1     -12.187  13.467  63.630  1.00  0.00    -0.480 C  
HETATM    2  C   UNL     1     -11.804  13.591  65.098  1.00  0.00    -0.343 C  
ENDROOT
BRANCH   2   3
HETATM    3  N   UNL     1     -11.234  12.330  65.613  1.00  0.00    -0.320 NA 
HETATM    4  C   UNL     1     -10.499  11.492  64.785  1.00  0.00    -0.299 C  
HETATM    5  C   UNL     1      -9.938  10.324  65.129  1.00  0.00    -0.395 C  
HETATM    6  C   UNL     1      -9.167   9.564  64.126  1.00  0.00    -0.084 C  
HETATM    7  C   UNL     1     -10.131   9.882  66.524  1.00  0.00    -0.232 C  
HETATM    8  C   UNL     1     -10.823  10.792  67.461  1.00  0.00    -0.342 A  
HETATM    9  O   UNL     1      -9.692   8.791  66.886  1.00  0.00    -0.174 OA 
HETATM   10  O   UNL     1      -8.993   9.949  62.978  1.00  0.00    -0.223 OA 
HETATM   11  O   UNL     1      -8.649   8.401  64.579  1.00  0.00    -0.114 OA 
HETATM   12  C   UNL     1     -10.913  10.435  68.808  1.00  0.00    -0.287 A  
HETATM   13  C   UNL     1     -11.479  11.323  69.717  1.00  0.00    -0.310 A  
HETATM   14  F   UNL     1     -11.457  10.965  71.010  1.00  0.00    -0.372 F  
HETATM   15  C   UNL     1     -11.986  12.571  69.319  1.00  0.00    -0.250 A  
HETATM   16  C   UNL     1     -11.346  12.006  66.984  1.00  0.00    -0.336 A  
HETATM   17  C   UNL     1     -11.938  12.852  67.936  1.00  0.00    -0.333 A  
BRANCH  15  18
HETATM   18  N   UNL     1     -12.503  13.520  70.188  1.00  0.00    -0.257 NA 
HETATM   19  C   UNL     1     -13.533  13.219  71.195  1.00  0.00     0.133 C  
HETATM   20  C   UNL     1     -13.043  13.575  72.618  1.00  0.00    -0.298 C  
HETATM   21  N   UNL     1     -12.513  14.952  72.771  1.00  0.00    -0.357 NA 
HETATM   22  C   UNL     1     -11.458  15.158  71.758  1.00  0.00    -0.380 C  
HETATM   23  C   UNL     1     -13.570  15.954  72.646  1.00  0.00    -0.461 C  
HETATM   24  C   UNL     1     -11.871  14.849  70.300  1.00  0.00    -0.307 C  
ENDBRANCH  15  18
ENDBRANCH   2   3
TORSDOF 2
ENDMDL
MODEL       38
REMARK 921   NORMALIZED FREE ENERGY PREDICTED BY IDOCK:   -6.24 KCAL/MOL
REMARK 922        TOTAL FREE ENERGY PREDICTED BY IDOCK:   -7.21 KCAL/MOL
REMARK 923 INTER-LIGAND FREE ENERGY PREDICTED BY IDOCK:   -7.16 KCAL/MOL
REMARK 924 INTRA-LIGAND FREE ENERGY PREDICTED BY IDOCK:   -0.05 KCAL/MOL
REMARK 927      BINDING AFFINITY PREDICTED BY RF-SCORE:    0.00 PKD
ROOT
HETATM    1  C   UNL     1     -12.055   9.800  71.468  1.00  0.00    -0.493 C  
HETATM    2  C   UNL     1     -11.346  10.364  70.245  1.00  0.00    -0.328 C  
ENDROOT
BRANCH   2   3
HETATM    3  N   UNL     1     -10.855   9.286  69.364  1.00  0.00    -0.205 NA 
HETATM    4  C   UNL     1     -10.791   7.974  69.815  1.00  0.00    -0.194 C  
HETATM    5  C   UNL     1     -10.360   6.913  69.118  1.00  0.00    -0.207 C  
HETATM    6  C   UNL     1     -10.379   5.576  69.743  1.00  0.00    -0.296 C  
HETATM    7  C   UNL     1      -9.899   7.168  67.739  1.00  0.00    -0.145 C  
HETATM    8  C   UNL     1     -10.043   8.533  67.191  1.00  0.00    -0.331 A  
HETATM    9  O   UNL     1      -9.436   6.246  67.069  1.00  0.00    -0.123 OA 
HETATM   10  O   UNL     1     -10.784   5.370  70.879  1.00  0.00    -0.238 OA 
HETATM   11  O   UNL     1      -9.920   4.580  68.953  1.00  0.00    -0.149 OA 
HETATM   12  C   UNL     1      -9.715   8.762  65.852  1.00  0.00    -0.211 A  
HETATM   13  C   UNL     1      -9.933  10.019  65.299  1.00  0.00    -0.298 A  
HETATM   14  F   UNL     1      -9.685  10.156  63.987  1.00  0.00    -0.332 F  
HETATM   15  C   UNL     1     -10.459  11.082  66.051  1.00  0.00    -0.245 A  
HETATM   16  C   UNL     1     -10.534   9.559  68.014  1.00  0.00    -0.230 A  
HETATM   17  C   UNL     1     -10.704  10.819  67.416  1.00  0.00    -0.317 A  
BRANCH  15  18
HETATM   18  N   UNL     1     -10.755  12.335  65.537  1.00  0.00    -0.270 NA 
HETATM   19  C   UNL     1     -10.700  12.654  64.101  1.00  0.00    -0.406 C  
HETATM   20  C   UNL     1     -12.063  13.177  63.592  1.00  0.00    -0.513 C  
HETATM   21  N   UNL     1     -12.638  14.295  64.379  1.00  0.00    -0.679 NA 
HETATM   22  C   UNL     1     -12.700  13.880  65.796  1.00  0.00    -0.461 C  
HETATM   23  C   UNL     1     -11.859  15.523  64.222  1.00  0.00    -0.173 C  
HETATM   24  C   UNL     1     -11.371  13.366  66.395  1.00  0.00    -0.313 C  
ENDBRANCH  15  18
ENDBRANCH   2   3
TORSDOF 2
ENDMDL
MODEL       39
REMARK 921   NORMALIZED FREE ENERGY PREDICTED BY IDOCK:   -6.20 KCAL/MOL
REMARK 922        TOTAL FREE ENERGY PREDICTED BY IDOCK:   -7.16 KCAL/MOL
REMARK 923 INTER-LIGAND FREE ENERGY PREDICTED BY IDOCK:   -6.77 KCAL/MOL
REMARK 924 INTRA-LIGAND FREE ENERGY PREDICTED BY IDOCK:   -0.39 KCAL/MOL
REMARK 927      BINDING AFFINITY PREDICTED BY RF-SCORE:    0.00 PKD
ROOT
HETATM    1  C   UNL     1     -10.585   6.046  66.811  1.00  0.00    -0.359 C  
HETATM    2  C   UNL     1     -10.135   7.460  67.150  1.00  0.00    -0.244 C  
ENDROOT
BRANCH   2   3
HETATM    3  N   UNL     1     -10.511   7.828  68.529  1.00  0.00    -0.194 NA 
HETATM    4  C   UNL     1     -10.393   6.912  69.566  1.00  0.00    -0.207 C  
HETATM    5  C   UNL     1     -10.707   7.121  70.853  1.00  0.00    -0.251 C  
HETATM    6  C   UNL     1     -10.499   6.041  71.837  1.00  0.00    -0.218 C  
HETATM    7  C   UNL     1     -11.239   8.454  71.198  1.00  0.00    -0.263 C  
HETATM    8  C   UNL     1     -11.287   9.487  70.141  1.00  0.00    -0.241 A  
HETATM    9  O   UNL     1     -11.601   8.689  72.349  1.00  0.00    -0.369 OA 
HETATM   10  O   UNL     1     -10.036   4.947  71.546  1.00  0.00    -0.185 OA 
HETATM   11  O   UNL     1     -10.851   6.358  73.102  1.00  0.00    -0.253 OA 
HETATM   12  C   UNL     1     -11.682  10.783  70.480  1.00  0.00    -0.449 A  
HETATM   13  C   UNL     1     -11.643  11.785  69.516  1.00  0.00    -0.332 A  
HETATM   14  F   UNL     1     -11.947  13.029  69.921  1.00  0.00    -0.345 F  
HETATM   15  C   UNL     1     -11.234  11.532  68.196  1.00  0.00    -0.271 A  
HETATM   16  C   UNL     1     -10.905   9.152  68.831  1.00  0.00    -0.070 A  
HETATM   17  C   UNL     1     -10.916  10.192  67.887  1.00  0.00    -0.335 A  
BRANCH  15  18
HETATM   18  N   UNL     1     -11.116  12.503  67.213  1.00  0.00    -0.261 NA 
HETATM   19  C   UNL     1     -11.955  12.538  66.005  1.00  0.00    -0.392 C  
HETATM   20  C   UNL     1     -12.717  13.878  65.892  1.00  0.00    -0.421 C  
HETATM   21  N   UNL     1     -11.871  15.091  66.006  1.00  0.00    -0.110 NA 
HETATM   22  C   UNL     1     -11.098  15.000  67.261  1.00  0.00    -0.334 C  
HETATM   23  C   UNL     1     -10.988  15.243  64.850  1.00  0.00    -0.430 C  
HETATM   24  C   UNL     1     -10.283  13.699  67.445  1.00  0.00    -0.241 C  
ENDBRANCH  15  18
ENDBRANCH   2   3
TORSDOF 2
ENDMDL
MODEL       40
REMARK 921   NORMALIZED FREE ENERGY PREDICTED BY IDOCK:   -6.10 KCAL/MOL
REMARK 922        TOTAL FREE ENERGY PREDICTED BY IDOCK:   -7.05 KCAL/MOL
REMARK 923 INTER-LIGAND FREE ENERGY PREDICTED BY IDOCK:   -6.53 KCAL/MOL
REMARK 924 INTRA-LIGAND FREE ENERGY PREDICTED BY IDOCK:   -0.52 KCAL/MOL
REMARK 927      BINDING AFFINITY PREDICTED BY RF-SCORE:    0.00 PKD
ROOT
HETATM    1  C   UNL     1      -8.071  10.895  62.495  1.00  0.00    -0.179 C  
HETATM    2  C   UNL     1      -9.102   9.932  63.068  1.00  0.00    -0.269 C  
ENDROOT
BRANCH   2   3
HETATM    3  N   UNL     1      -9.919  10.580  64.113  1.00  0.00    -0.333 NA 
HETATM    4  C   UNL     1     -10.710  11.683  63.814  1.00  0.00    -0.419 C  
HETATM    5  C   UNL     1     -11.488  12.360  64.671  1.00  0.00    -0.384 C  
HETATM    6  C   UNL     1     -12.285  13.502  64.182  1.00  0.00    -0.394 C  
HETATM    7  C   UNL     1     -11.497  11.892  66.071  1.00  0.00    -0.281 C  
HETATM    8  C   UNL     1     -10.746  10.663  66.406  1.00  0.00    -0.198 A  
HETATM    9  O   UNL     1     -12.143  12.508  66.917  1.00  0.00    -0.537 OA 
HETATM   10  O   UNL     1     -12.289  13.869  63.015  1.00  0.00    -0.618 OA 
HETATM   11  O   UNL     1     -13.029  14.114  65.129  1.00  0.00    -0.729 OA 
HETATM   12  C   UNL     1     -10.838  10.148  67.701  1.00  0.00    -0.346 A  
HETATM   13  C   UNL     1     -10.212   8.943  68.005  1.00  0.00    -0.213 A  
HETATM   14  F   UNL     1     -10.409   8.451  69.238  1.00  0.00    -0.197 F  
HETATM   15  C   UNL     1      -9.468   8.231  67.050  1.00  0.00    -0.176 A  
HETATM   16  C   UNL     1      -9.986  10.026  65.411  1.00  0.00    -0.294 A  
HETATM   17  C   UNL     1      -9.345   8.831  65.779  1.00  0.00    -0.259 A  
BRANCH  15  18
HETATM   18  N   UNL     1      -8.878   6.997  67.279  1.00  0.00    -0.119 NA 
HETATM   19  C   UNL     1      -7.458   6.833  67.632  1.00  0.00    -0.098 C  
HETATM   20  C   UNL     1      -7.300   6.086  68.978  1.00  0.00    -0.085 C  
HETATM   21  N   UNL     1      -8.040   4.805  69.073  1.00  0.00    -0.078 NA 
HETATM   22  C   UNL     1      -9.458   5.063  68.749  1.00  0.00    -0.139 C  
HETATM   23  C   UNL     1      -7.473   3.787  68.190  1.00  0.00    -0.062 C  
HETATM   24  C   UNL     1      -9.710   5.785  67.405  1.00  0.00    -0.123 C  
ENDBRANCH  15  18
ENDBRANCH   2   3
TORSDOF 2
ENDMDL
MODEL       41
REMARK 921   NORMALIZED FREE ENERGY PREDICTED BY IDOCK:   -6.05 KCAL/MOL
REMARK 922        TOTAL FREE ENERGY PREDICTED BY IDOCK:   -6.99 KCAL/MOL
REMARK 923 INTER-LIGAND FREE ENERGY PREDICTED BY IDOCK:   -6.91 KCAL/MOL
REMARK 924 INTRA-LIGAND FREE ENERGY PREDICTED BY IDOCK:   -0.09 KCAL/MOL
REMARK 927      BINDING AFFINITY PREDICTED BY RF-SCORE:    0.00 PKD
ROOT
HETATM    1  C   UNL     1     -10.918  11.973  63.552  1.00  0.00    -0.514 C  
HETATM    2  C   UNL     1     -10.343  12.917  64.599  1.00  0.00    -0.344 C  
ENDROOT
BRANCH   2   3
HETATM    3  N   UNL     1     -10.605  12.427  65.966  1.00  0.00    -0.250 NA 
HETATM    4  C   UNL     1     -10.552  11.070  66.257  1.00  0.00    -0.237 C  
HETATM    5  C   UNL     1     -10.776  10.502  67.450  1.00  0.00    -0.334 C  
HETATM    6  C   UNL     1     -10.657   9.037  67.593  1.00  0.00    -0.231 C  
HETATM    7  C   UNL     1     -11.122  11.409  68.562  1.00  0.00    -0.235 C  
HETATM    8  C   UNL     1     -11.091  12.866  68.316  1.00  0.00    -0.294 A  
HETATM    9  O   UNL     1     -11.397  10.945  69.668  1.00  0.00    -0.245 OA 
HETATM   10  O   UNL     1     -10.348   8.295  66.671  1.00  0.00    -0.308 OA 
HETATM   11  O   UNL     1     -10.907   8.572  68.836  1.00  0.00    -0.123 OA 
HETATM   12  C   UNL     1     -11.306  13.737  69.386  1.00  0.00    -0.306 A  
HETATM   13  C   UNL     1     -11.189  15.109  69.188  1.00  0.00    -0.279 A  
HETATM   14  F   UNL     1     -11.317  15.892  70.270  1.00  0.00    -0.265 F  
HETATM   15  C   UNL     1     -10.878  15.654  67.931  1.00  0.00    -0.306 A  
HETATM   16  C   UNL     1     -10.817  13.342  67.023  1.00  0.00    -0.269 A  
HETATM   17  C   UNL     1     -10.744  14.736  66.868  1.00  0.00    -0.308 A  
BRANCH  15  18
HETATM   18  N   UNL     1     -10.688  17.006  67.690  1.00  0.00    -0.328 NA 
HETATM   19  C   UNL     1     -10.478  17.997  68.758  1.00  0.00    -0.172 C  
HETATM   20  C   UNL     1      -9.141  18.752  68.564  1.00  0.00    -0.342 C  
HETATM   21  N   UNL     1      -8.947  19.347  67.220  1.00  0.00    -0.293 NA 
HETATM   22  C   UNL     1      -9.130  18.282  66.212  1.00  0.00    -0.190 C  
HETATM   23  C   UNL     1      -9.864  20.461  66.985  1.00  0.00    -0.453 C  
HETATM   24  C   UNL     1     -10.455  17.492  66.316  1.00  0.00    -0.283 C  
ENDBRANCH  15  18
ENDBRANCH   2   3
TORSDOF 2
ENDMDL
MODEL       42
REMARK 921   NORMALIZED FREE ENERGY PREDICTED BY IDOCK:   -5.96 KCAL/MOL
REMARK 922        TOTAL FREE ENERGY PREDICTED BY IDOCK:   -6.90 KCAL/MOL
REMARK 923 INTER-LIGAND FREE ENERGY PREDICTED BY IDOCK:   -6.82 KCAL/MOL
REMARK 924 INTRA-LIGAND FREE ENERGY PREDICTED BY IDOCK:   -0.08 KCAL/MOL
REMARK 927      BINDING AFFINITY PREDICTED BY RF-SCORE:    0.00 PKD
ROOT
HETATM    1  C   UNL     1      -5.893  14.278  69.614  1.00  0.00    -0.106 C  
HETATM    2  C   UNL     1      -7.326  14.493  69.147  1.00  0.00    -0.133 C  
ENDROOT
BRANCH   2   3
HETATM    3  N   UNL     1      -7.576  15.909  68.814  1.00  0.00    -0.165 NA 
HETATM    4  C   UNL     1      -6.824  16.920  69.398  1.00  0.00    -0.195 C  
HETATM    5  C   UNL     1      -6.958  18.237  69.185  1.00  0.00    -0.230 C  
HETATM    6  C   UNL     1      -6.056  19.181  69.874  1.00  0.00    -0.242 C  
HETATM    7  C   UNL     1      -8.016  18.652  68.243  1.00  0.00    -0.312 C  
HETATM    8  C   UNL     1      -8.772  17.602  67.528  1.00  0.00    -0.234 A  
HETATM    9  O   UNL     1      -8.229  19.848  68.051  1.00  0.00    -0.298 OA 
HETATM   10  O   UNL     1      -5.166  18.826  70.635  1.00  0.00    -0.210 OA 
HETATM   11  O   UNL     1      -6.281  20.482  69.589  1.00  0.00    -0.318 OA 
HETATM   12  C   UNL     1      -9.698  17.981  66.553  1.00  0.00    -0.338 A  
HETATM   13  C   UNL     1     -10.347  17.003  65.808  1.00  0.00    -0.261 A  
HETATM   14  F   UNL     1     -11.158  17.427  64.825  1.00  0.00    -0.394 F  
HETATM   15  C   UNL     1     -10.117  15.633  66.018  1.00  0.00    -0.333 A  
HETATM   16  C   UNL     1      -8.521  16.251  67.820  1.00  0.00    -0.163 A  
HETATM   17  C   UNL     1      -9.229  15.302  67.063  1.00  0.00    -0.235 A  
BRANCH  15  18
HETATM   18  N   UNL     1     -10.688  14.619  65.264  1.00  0.00    -0.353 NA 
HETATM   19  C   UNL     1     -10.212  13.226  65.289  1.00  0.00    -0.290 C  
HETATM   20  C   UNL     1     -11.345  12.256  65.700  1.00  0.00    -0.350 C  
HETATM   21  N   UNL     1     -12.599  12.392  64.919  1.00  0.00    -0.600 NA 
HETATM   22  C   UNL     1     -13.032  13.803  64.980  1.00  0.00    -0.162 C  
HETATM   23  C   UNL     1     -12.423  11.953  63.535  1.00  0.00    -0.492 C  
HETATM   24  C   UNL     1     -11.966  14.842  64.561  1.00  0.00    -0.410 C  
ENDBRANCH  15  18
ENDBRANCH   2   3
TORSDOF 2
ENDMDL
MODEL       43
REMARK 921   NORMALIZED FREE ENERGY PREDICTED BY IDOCK:   -5.94 KCAL/MOL
REMARK 922        TOTAL FREE ENERGY PREDICTED BY IDOCK:   -6.87 KCAL/MOL
REMARK 923 INTER-LIGAND FREE ENERGY PREDICTED BY IDOCK:   -6.45 KCAL/MOL
REMARK 924 INTRA-LIGAND FREE ENERGY PREDICTED BY IDOCK:   -0.42 KCAL/MOL
REMARK 927      BINDING AFFINITY PREDICTED BY RF-SCORE:    0.00 PKD
ROOT
HETATM    1  C   UNL     1     -12.923  11.366  71.611  1.00  0.00    -0.523 C  
HETATM    2  C   UNL     1     -12.159  10.532  70.592  1.00  0.00    -0.356 C  
ENDROOT
BRANCH   2   3
HETATM    3  N   UNL     1     -11.778  11.338  69.416  1.00  0.00    -0.308 NA 
HETATM    4  C   UNL     1     -11.892  12.723  69.436  1.00  0.00    -0.300 C  
HETATM    5  C   UNL     1     -11.587  13.561  68.435  1.00  0.00    -0.378 C  
HETATM    6  C   UNL     1     -11.748  15.015  68.630  1.00  0.00    -0.337 C  
HETATM    7  C   UNL     1     -11.090  12.951  67.186  1.00  0.00    -0.275 C  
HETATM    8  C   UNL     1     -10.861  11.490  67.160  1.00  0.00    -0.314 A  
HETATM    9  O   UNL     1     -10.849  13.661  66.211  1.00  0.00    -0.282 OA 
HETATM   10  O   UNL     1     -12.139  15.514  69.676  1.00  0.00    -0.351 OA 
HETATM   11  O   UNL     1     -11.415  15.766  67.557  1.00  0.00    -0.216 OA 
HETATM   12  C   UNL     1     -10.286  10.917  66.024  1.00  0.00    -0.311 A  
HETATM   13  C   UNL     1      -9.981   9.560  66.022  1.00  0.00    -0.278 A  
HETATM   14  F   UNL     1      -9.347   9.082  64.939  1.00  0.00    -0.252 F  
HETATM   15  C   UNL     1     -10.251   8.735  67.126  1.00  0.00    -0.276 A  
HETATM   16  C   UNL     1     -11.197  10.719  68.285  1.00  0.00    -0.297 A  
HETATM   17  C   UNL     1     -10.900   9.348  68.219  1.00  0.00    -0.163 A  
BRANCH  15  18
HETATM   18  N   UNL     1      -9.912   7.392  67.202  1.00  0.00    -0.193 NA 
HETATM   19  C   UNL     1     -10.903   6.305  67.181  1.00  0.00    -0.381 C  
HETATM   20  C   UNL     1     -10.629   5.323  66.018  1.00  0.00    -0.119 C  
HETATM   21  N   UNL     1      -9.242   4.801  65.953  1.00  0.00    -0.142 NA 
HETATM   22  C   UNL     1      -8.315   5.951  65.933  1.00  0.00    -0.136 C  
HETATM   23  C   UNL     1      -8.949   3.905  67.070  1.00  0.00    -0.138 C  
HETATM   24  C   UNL     1      -8.502   6.973  67.078  1.00  0.00    -0.121 C  
ENDBRANCH  15  18
ENDBRANCH   2   3
TORSDOF 2
ENDMDL
MODEL       44
REMARK 921   NORMALIZED FREE ENERGY PREDICTED BY IDOCK:   -5.94 KCAL/MOL
REMARK 922        TOTAL FREE ENERGY PREDICTED BY IDOCK:   -6.87 KCAL/MOL
REMARK 923 INTER-LIGAND FREE ENERGY PREDICTED BY IDOCK:   -6.33 KCAL/MOL
REMARK 924 INTRA-LIGAND FREE ENERGY PREDICTED BY IDOCK:   -0.54 KCAL/MOL
REMARK 927      BINDING AFFINITY PREDICTED BY RF-SCORE:    0.00 PKD
ROOT
HETATM    1  C   UNL     1      -6.786  11.428  66.961  1.00  0.00    -0.131 C  
HETATM    2  C   UNL     1      -8.104  10.667  66.990  1.00  0.00    -0.120 C  
ENDROOT
BRANCH   2   3
HETATM    3  N   UNL     1      -9.220  11.540  67.404  1.00  0.00    -0.164 NA 
HETATM    4  C   UNL     1      -9.570  12.653  66.649  1.00  0.00    -0.249 C  
HETATM    5  C   UNL     1     -10.553  13.522  66.921  1.00  0.00    -0.270 C  
HETATM    6  C   UNL     1     -10.807  14.645  65.996  1.00  0.00    -0.318 C  
HETATM    7  C   UNL     1     -11.334  13.278  68.149  1.00  0.00    -0.288 C  
HETATM    8  C   UNL     1     -11.057  12.051  68.926  1.00  0.00    -0.298 A  
HETATM    9  O   UNL     1     -12.210  14.073  68.486  1.00  0.00    -0.333 OA 
HETATM   10  O   UNL     1     -10.170  14.827  64.968  1.00  0.00    -0.389 OA 
HETATM   11  O   UNL     1     -11.818  15.461  66.369  1.00  0.00     0.067 OA 
HETATM   12  C   UNL     1     -11.863  11.751  70.027  1.00  0.00    -0.422 A  
HETATM   13  C   UNL     1     -11.672  10.555  70.710  1.00  0.00    -0.356 A  
HETATM   14  F   UNL     1     -12.533  10.279  71.702  1.00  0.00    -0.425 F  
HETATM   15  C   UNL     1     -10.674   9.638  70.340  1.00  0.00    -0.298 A  
HETATM   16  C   UNL     1     -10.013  11.201  68.524  1.00  0.00    -0.199 A  
HETATM   17  C   UNL     1      -9.840  10.022  69.268  1.00  0.00    -0.227 A  
BRANCH  15  18
HETATM   18  N   UNL     1     -10.481   8.405  70.944  1.00  0.00    -0.192 NA 
HETATM   19  C   UNL     1      -9.826   8.239  72.252  1.00  0.00    -0.294 C  
HETATM   20  C   UNL     1     -10.755   7.511  73.252  1.00  0.00    -0.382 C  
HETATM   21  N   UNL     1     -11.327   6.234  72.760  1.00  0.00    -0.236 NA 
HETATM   22  C   UNL     1     -12.001   6.495  71.471  1.00  0.00    -0.329 C  
HETATM   23  C   UNL     1     -10.302   5.201  72.620  1.00  0.00    -0.200 C  
HETATM   24  C   UNL     1     -11.135   7.199  70.401  1.00  0.00    -0.280 C  
ENDBRANCH  15  18
ENDBRANCH   2   3
TORSDOF 2
ENDMDL
MODEL       45
REMARK 921   NORMALIZED FREE ENERGY PREDICTED BY IDOCK:   -5.94 KCAL/MOL
REMARK 922        TOTAL FREE ENERGY PREDICTED BY IDOCK:   -6.87 KCAL/MOL
REMARK 923 INTER-LIGAND FREE ENERGY PREDICTED BY IDOCK:   -6.36 KCAL/MOL
REMARK 924 INTRA-LIGAND FREE ENERGY PREDICTED BY IDOCK:   -0.51 KCAL/MOL
REMARK 927      BINDING AFFINITY PREDICTED BY RF-SCORE:    0.00 PKD
ROOT
HETATM    1  C   UNL     1      -5.550  15.023  68.289  1.00  0.00    -0.118 C  
HETATM    2  C   UNL     1      -6.752  14.193  67.857  1.00  0.00    -0.167 C  
ENDROOT
BRANCH   2   3
HETATM    3  N   UNL     1      -7.792  15.035  67.236  1.00  0.00    -0.200 NA 
HETATM    4  C   UNL     1      -7.550  16.375  66.959  1.00  0.00    -0.205 C  
HETATM    5  C   UNL     1      -8.410  17.242  66.406  1.00  0.00    -0.315 C  
HETATM    6  C   UNL     1      -7.983  18.633  66.160  1.00  0.00    -0.202 C  
HETATM    7  C   UNL     1      -9.750  16.723  66.068  1.00  0.00    -0.259 C  
HETATM    8  C   UNL     1     -10.012  15.280  66.256  1.00  0.00    -0.304 A  
HETATM    9  O   UNL     1     -10.604  17.482  65.613  1.00  0.00    -0.549 OA 
HETATM   10  O   UNL     1      -6.863  19.049  66.423  1.00  0.00    -0.196 OA 
HETATM   11  O   UNL     1      -8.929  19.421  65.603  1.00  0.00    -0.307 OA 
HETATM   12  C   UNL     1     -11.237  14.755  65.835  1.00  0.00    -0.340 A  
HETATM   13  C   UNL     1     -11.461  13.385  65.921  1.00  0.00    -0.321 A  
HETATM   14  F   UNL     1     -12.618  12.927  65.419  1.00  0.00    -0.500 F  
HETATM   15  C   UNL     1     -10.497  12.505  66.439  1.00  0.00    -0.247 A  
HETATM   16  C   UNL     1      -9.018  14.465  66.822  1.00  0.00    -0.233 A  
HETATM   17  C   UNL     1      -9.307  13.094  66.919  1.00  0.00    -0.246 A  
BRANCH  15  18
HETATM   18  N   UNL     1     -10.642  11.127  66.490  1.00  0.00    -0.256 NA 
HETATM   19  C   UNL     1     -10.151  10.223  65.438  1.00  0.00    -0.284 C  
HETATM   20  C   UNL     1      -9.163   9.181  66.013  1.00  0.00    -0.215 C  
HETATM   21  N   UNL     1      -9.659   8.431  67.192  1.00  0.00    -0.167 NA 
HETATM   22  C   UNL     1     -10.088   9.406  68.215  1.00  0.00    -0.183 C  
HETATM   23  C   UNL     1     -10.750   7.525  66.835  1.00  0.00    -0.229 C  
HETATM   24  C   UNL     1     -11.099  10.472  67.731  1.00  0.00    -0.317 C  
ENDBRANCH  15  18
ENDBRANCH   2   3
TORSDOF 2
ENDMDL
MODEL       46
REMARK 921   NORMALIZED FREE ENERGY PREDICTED BY IDOCK:   -5.80 KCAL/MOL
REMARK 922        TOTAL FREE ENERGY PREDICTED BY IDOCK:   -6.72 KCAL/MOL
REMARK 923 INTER-LIGAND FREE ENERGY PREDICTED BY IDOCK:   -6.25 KCAL/MOL
REMARK 924 INTRA-LIGAND FREE ENERGY PREDICTED BY IDOCK:   -0.47 KCAL/MOL
REMARK 927      BINDING AFFINITY PREDICTED BY RF-SCORE:    0.00 PKD
ROOT
HETATM    1  C   UNL     1      -6.546  13.882  69.489  1.00  0.00    -0.097 C  
HETATM    2  C   UNL     1      -6.743  13.784  67.982  1.00  0.00    -0.139 C  
ENDROOT
BRANCH   2   3
HETATM    3  N   UNL     1      -8.175  13.724  67.630  1.00  0.00    -0.163 NA 
HETATM    4  C   UNL     1      -8.947  12.623  67.980  1.00  0.00    -0.200 C  
HETATM    5  C   UNL     1     -10.249  12.446  67.713  1.00  0.00    -0.212 C  
HETATM    6  C   UNL     1     -10.926  11.220  68.179  1.00  0.00    -0.231 C  
HETATM    7  C   UNL     1     -10.925  13.525  66.967  1.00  0.00    -0.288 C  
HETATM    8  C   UNL     1     -10.163  14.755  66.663  1.00  0.00    -0.271 A  
HETATM    9  O   UNL     1     -12.104  13.396  66.639  1.00  0.00    -0.391 OA 
HETATM   10  O   UNL     1     -10.363  10.342  68.817  1.00  0.00    -0.175 OA 
HETATM   11  O   UNL     1     -12.235  11.144  67.853  1.00  0.00    -0.521 OA 
HETATM   12  C   UNL     1     -10.822  15.826  66.057  1.00  0.00    -0.256 A  
HETATM   13  C   UNL     1     -10.142  17.021  65.850  1.00  0.00    -0.263 A  
HETATM   14  F   UNL     1     -10.850  18.044  65.346  1.00  0.00    -0.436 F  
HETATM   15  C   UNL     1      -8.795  17.183  66.215  1.00  0.00    -0.231 A  
HETATM   16  C   UNL     1      -8.806  14.831  67.018  1.00  0.00    -0.237 A  
HETATM   17  C   UNL     1      -8.154  16.048  66.756  1.00  0.00    -0.302 A  
BRANCH  15  18
HETATM   18  N   UNL     1      -8.087  18.368  66.091  1.00  0.00    -0.460 NA 
HETATM   19  C   UNL     1      -8.487  19.623  66.747  1.00  0.00    -0.311 C  
HETATM   20  C   UNL     1      -7.360  20.160  67.660  1.00  0.00    -0.293 C  
HETATM   21  N   UNL     1      -6.033  20.282  67.010  1.00  0.00    -0.166 NA 
HETATM   22  C   UNL     1      -5.685  18.974  66.417  1.00  0.00    -0.157 C  
HETATM   23  C   UNL     1      -6.021  21.340  66.000  1.00  0.00    -0.232 C  
HETATM   24  C   UNL     1      -6.749  18.374  65.468  1.00  0.00    -0.220 C  
ENDBRANCH  15  18
ENDBRANCH   2   3
TORSDOF 2
ENDMDL
MODEL       47
REMARK 921   NORMALIZED FREE ENERGY PREDICTED BY IDOCK:   -5.79 KCAL/MOL
REMARK 922        TOTAL FREE ENERGY PREDICTED BY IDOCK:   -6.70 KCAL/MOL
REMARK 923 INTER-LIGAND FREE ENERGY PREDICTED BY IDOCK:   -6.26 KCAL/MOL
REMARK 924 INTRA-LIGAND FREE ENERGY PREDICTED BY IDOCK:   -0.44 KCAL/MOL
REMARK 927      BINDING AFFINITY PREDICTED BY RF-SCORE:    0.00 PKD
ROOT
HETATM    1  C   UNL     1     -13.997   9.288  72.342  1.00  0.00    -0.432 C  
HETATM    2  C   UNL     1     -12.722   9.943  71.830  1.00  0.00    -0.409 C  
ENDROOT
BRANCH   2   3
HETATM    3  N   UNL     1     -11.737   8.933  71.394  1.00  0.00    -0.294 NA 
HETATM    4  C   UNL     1     -11.720   7.666  71.963  1.00  0.00    -0.298 C  
HETATM    5  C   UNL     1     -10.876   6.669  71.660  1.00  0.00    -0.269 C  
HETATM    6  C   UNL     1     -11.009   5.369  72.347  1.00  0.00    -0.240 C  
HETATM    7  C   UNL     1      -9.860   6.951  70.627  1.00  0.00    -0.182 C  
HETATM    8  C   UNL     1      -9.908   8.254  69.930  1.00  0.00    -0.186 A  
HETATM    9  O   UNL     1      -9.019   6.098  70.348  1.00  0.00    -0.147 OA 
HETATM   10  O   UNL     1     -11.869   5.137  73.185  1.00  0.00    -0.263 OA 
HETATM   11  O   UNL     1     -10.106   4.439  71.968  1.00  0.00    -0.181 OA 
HETATM   12  C   UNL     1      -9.023   8.489  68.875  1.00  0.00    -0.146 A  
HETATM   13  C   UNL     1      -9.120   9.673  68.151  1.00  0.00    -0.122 A  
HETATM   14  F   UNL     1      -8.305   9.805  67.093  1.00  0.00    -0.117 F  
HETATM   15  C   UNL     1     -10.073  10.658  68.460  1.00  0.00    -0.172 A  
HETATM   16  C   UNL     1     -10.860   9.211  70.321  1.00  0.00    -0.246 A  
HETATM   17  C   UNL     1     -10.893  10.404  69.580  1.00  0.00    -0.320 A  
BRANCH  15  18
HETATM   18  N   UNL     1     -10.255  11.825  67.735  1.00  0.00    -0.188 NA 
HETATM   19  C   UNL     1     -10.560  11.845  66.295  1.00  0.00    -0.253 C  
HETATM   20  C   UNL     1     -11.883  12.596  66.015  1.00  0.00    -0.436 C  
HETATM   21  N   UNL     1     -11.972  13.950  66.611  1.00  0.00    -0.421 NA 
HETATM   22  C   UNL     1     -11.699  13.838  68.059  1.00  0.00    -0.355 C  
HETATM   23  C   UNL     1     -11.049  14.885  65.970  1.00  0.00    -0.334 C  
HETATM   24  C   UNL     1     -10.380  13.121  68.430  1.00  0.00    -0.253 C  
ENDBRANCH  15  18
ENDBRANCH   2   3
TORSDOF 2
ENDMDL
MODEL       48
REMARK 921   NORMALIZED FREE ENERGY PREDICTED BY IDOCK:   -5.77 KCAL/MOL
REMARK 922        TOTAL FREE ENERGY PREDICTED BY IDOCK:   -6.69 KCAL/MOL
REMARK 923 INTER-LIGAND FREE ENERGY PREDICTED BY IDOCK:   -6.17 KCAL/MOL
REMARK 924 INTRA-LIGAND FREE ENERGY PREDICTED BY IDOCK:   -0.51 KCAL/MOL
REMARK 927      BINDING AFFINITY PREDICTED BY RF-SCORE:    0.00 PKD
ROOT
HETATM    1  C   UNL     1     -11.717  12.413  69.400  1.00  0.00    -0.384 C  
HETATM    2  C   UNL     1     -11.587  11.084  68.668  1.00  0.00    -0.316 C  
ENDROOT
BRANCH   2   3
HETATM    3  N   UNL     1     -11.334  11.286  67.228  1.00  0.00    -0.447 NA 
HETATM    4  C   UNL     1     -11.943  12.327  66.539  1.00  0.00    -0.197 C  
HETATM    5  C   UNL     1     -11.800  12.610  65.236  1.00  0.00    -0.452 C  
HETATM    6  C   UNL     1     -12.507  13.773  64.663  1.00  0.00    -0.315 C  
HETATM    7  C   UNL     1     -10.915  11.722  64.457  1.00  0.00    -0.324 C  
HETATM    8  C   UNL     1     -10.173  10.664  65.175  1.00  0.00    -0.368 A  
HETATM    9  O   UNL     1     -10.790  11.893  63.245  1.00  0.00    -0.385 OA 
HETATM   10  O   UNL     1     -13.220  14.517  65.321  1.00  0.00    -0.512 OA 
HETATM   11  O   UNL     1     -12.295  13.963  63.342  1.00  0.00    -0.760 OA 
HETATM   12  C   UNL     1      -9.249   9.890  64.470  1.00  0.00    -0.315 A  
HETATM   13  C   UNL     1      -8.477   8.954  65.151  1.00  0.00    -0.173 A  
HETATM   14  F   UNL     1      -7.543   8.304  64.440  1.00  0.00    -0.089 F  
HETATM   15  C   UNL     1      -8.610   8.746  66.534  1.00  0.00    -0.118 A  
HETATM   16  C   UNL     1     -10.389  10.482  66.551  1.00  0.00    -0.233 A  
HETATM   17  C   UNL     1      -9.609   9.501  67.186  1.00  0.00    -0.206 A  
BRANCH  15  18
HETATM   18  N   UNL     1      -7.826   7.874  67.274  1.00  0.00    -0.111 NA 
HETATM   19  C   UNL     1      -6.866   8.319  68.297  1.00  0.00    -0.065 C  
HETATM   20  C   UNL     1      -7.182   7.686  69.672  1.00  0.00    -0.079 C  
HETATM   21  N   UNL     1      -7.327   6.210  69.663  1.00  0.00    -0.077 NA 
HETATM   22  C   UNL     1      -8.336   5.850  68.645  1.00  0.00    -0.109 C  
HETATM   23  C   UNL     1      -6.052   5.543  69.402  1.00  0.00    -0.024 C  
HETATM   24  C   UNL     1      -8.084   6.422  67.231  1.00  0.00    -0.113 C  
ENDBRANCH  15  18
ENDBRANCH   2   3
TORSDOF 2
ENDMDL
MODEL       49
REMARK 921   NORMALIZED FREE ENERGY PREDICTED BY IDOCK:   -5.77 KCAL/MOL
REMARK 922        TOTAL FREE ENERGY PREDICTED BY IDOCK:   -6.68 KCAL/MOL
REMARK 923 INTER-LIGAND FREE ENERGY PREDICTED BY IDOCK:   -6.20 KCAL/MOL
REMARK 924 INTRA-LIGAND FREE ENERGY PREDICTED BY IDOCK:   -0.47 KCAL/MOL
REMARK 927      BINDING AFFINITY PREDICTED BY RF-SCORE:    0.00 PKD
ROOT
HETATM    1  C   UNL     1     -11.264   7.323  72.229  1.00  0.00    -0.305 C  
HETATM    2  C   UNL     1     -11.114   8.791  71.854  1.00  0.00    -0.364 C  
ENDROOT
BRANCH   2   3
HETATM    3  N   UNL     1     -10.915   8.957  70.401  1.00  0.00    -0.240 NA 
HETATM    4  C   UNL     1     -10.582   7.872  69.601  1.00  0.00    -0.234 C  
HETATM    5  C   UNL     1     -10.370   7.894  68.277  1.00  0.00    -0.239 C  
HETATM    6  C   UNL     1     -10.043   6.638  67.572  1.00  0.00    -0.160 C  
HETATM    7  C   UNL     1     -10.493   9.203  67.607  1.00  0.00    -0.261 C  
HETATM    8  C   UNL     1     -10.942  10.362  68.407  1.00  0.00    -0.312 A  
HETATM    9  O   UNL     1     -10.252   9.300  66.405  1.00  0.00    -0.273 OA 
HETATM   10  O   UNL     1      -9.965   5.554  68.132  1.00  0.00    -0.136 OA 
HETATM   11  O   UNL     1      -9.846   6.776  66.243  1.00  0.00    -0.085 OA 
HETATM   12  C   UNL     1     -11.171  11.580  67.762  1.00  0.00    -0.343 A  
HETATM   13  C   UNL     1     -11.682  12.653  68.486  1.00  0.00    -0.330 A  
HETATM   14  F   UNL     1     -11.966  13.769  67.796  1.00  0.00    -0.353 F  
HETATM   15  C   UNL     1     -11.960  12.559  69.859  1.00  0.00    -0.301 A  
HETATM   16  C   UNL     1     -11.159  10.207  69.786  1.00  0.00    -0.279 A  
HETATM   17  C   UNL     1     -11.642  11.330  70.478  1.00  0.00    -0.233 A  
BRANCH  15  18
HETATM   18  N   UNL     1     -12.528  13.573  70.615  1.00  0.00    -0.349 NA 
HETATM   19  C   UNL     1     -13.766  13.407  71.392  1.00  0.00     0.087 C  
HETATM   20  C   UNL     1     -13.534  13.725  72.887  1.00  0.00    -0.199 C  
HETATM   21  N   UNL     1     -12.891  15.034  73.156  1.00  0.00    -0.469 NA 
HETATM   22  C   UNL     1     -11.638  15.103  72.377  1.00  0.00    -0.360 C  
HETATM   23  C   UNL     1     -13.778  16.150  72.830  1.00  0.00    -0.160 C  
HETATM   24  C   UNL     1     -11.782  14.822  70.864  1.00  0.00    -0.307 C  
ENDBRANCH  15  18
ENDBRANCH   2   3
TORSDOF 2
ENDMDL
MODEL       50
REMARK 921   NORMALIZED FREE ENERGY PREDICTED BY IDOCK:   -5.74 KCAL/MOL
REMARK 922        TOTAL FREE ENERGY PREDICTED BY IDOCK:   -6.65 KCAL/MOL
REMARK 923 INTER-LIGAND FREE ENERGY PREDICTED BY IDOCK:   -6.13 KCAL/MOL
REMARK 924 INTRA-LIGAND FREE ENERGY PREDICTED BY IDOCK:   -0.52 KCAL/MOL
REMARK 927      BINDING AFFINITY PREDICTED BY RF-SCORE:    0.00 PKD
ROOT
HETATM    1  C   UNL     1      -8.607   7.581  65.491  1.00  0.00    -0.102 C  
HETATM    2  C   UNL     1      -8.492   7.965  66.960  1.00  0.00    -0.124 C  
ENDROOT
BRANCH   2   3
HETATM    3  N   UNL     1      -9.515   8.960  67.337  1.00  0.00    -0.141 NA 
HETATM    4  C   UNL     1     -10.030   9.842  66.395  1.00  0.00    -0.247 C  
HETATM    5  C   UNL     1     -10.952  10.790  66.613  1.00  0.00    -0.173 C  
HETATM    6  C   UNL     1     -11.408  11.633  65.490  1.00  0.00    -0.160 C  
HETATM    7  C   UNL     1     -11.462  10.915  67.992  1.00  0.00    -0.281 C  
HETATM    8  C   UNL     1     -11.012   9.931  69.000  1.00  0.00    -0.223 A  
HETATM    9  O   UNL     1     -12.265  11.804  68.270  1.00  0.00    -0.486 OA 
HETATM   10  O   UNL     1     -10.995  11.508  64.345  1.00  0.00    -0.332 OA 
HETATM   11  O   UNL     1     -12.335  12.557  65.822  1.00  0.00    -0.627 OA 
HETATM   12  C   UNL     1     -11.573   9.969  70.279  1.00  0.00    -0.354 A  
HETATM   13  C   UNL     1     -11.227   8.993  71.207  1.00  0.00    -0.315 A  
HETATM   14  F   UNL     1     -11.864   9.026  72.389  1.00  0.00    -0.418 F  
HETATM   15  C   UNL     1     -10.310   7.972  70.907  1.00  0.00    -0.200 A  
HETATM   16  C   UNL     1     -10.058   8.964  68.642  1.00  0.00    -0.188 A  
HETATM   17  C   UNL     1      -9.717   8.022  69.627  1.00  0.00    -0.169 A  
BRANCH  15  18
HETATM   18  N   UNL     1      -9.977   6.939  71.770  1.00  0.00    -0.174 NA 
HETATM   19  C   UNL     1      -9.159   7.128  72.979  1.00  0.00    -0.136 C  
HETATM   20  C   UNL     1      -9.917   6.660  74.244  1.00  0.00    -0.345 C  
HETATM   21  N   UNL     1     -10.474   5.288  74.168  1.00  0.00    -0.279 NA 
HETATM   22  C   UNL     1     -11.314   5.195  72.957  1.00  0.00    -0.309 C  
HETATM   23  C   UNL     1      -9.419   4.276  74.159  1.00  0.00    -0.106 C  
HETATM   24  C   UNL     1     -10.626   5.620  71.639  1.00  0.00    -0.241 C  
ENDBRANCH  15  18
ENDBRANCH   2   3
TORSDOF 2
ENDMDL
MODEL       51
REMARK 921   NORMALIZED FREE ENERGY PREDICTED BY IDOCK:   -5.69 KCAL/MOL
REMARK 922        TOTAL FREE ENERGY PREDICTED BY IDOCK:   -6.60 KCAL/MOL
REMARK 923 INTER-LIGAND FREE ENERGY PREDICTED BY IDOCK:   -6.07 KCAL/MOL
REMARK 924 INTRA-LIGAND FREE ENERGY PREDICTED BY IDOCK:   -0.53 KCAL/MOL
REMARK 927      BINDING AFFINITY PREDICTED BY RF-SCORE:    0.00 PKD
ROOT
HETATM    1  C   UNL     1     -12.142  12.370  64.122  1.00  0.00    -0.539 C  
HETATM    2  C   UNL     1     -12.129  13.038  65.489  1.00  0.00    -0.452 C  
ENDROOT
BRANCH   2   3
HETATM    3  N   UNL     1     -11.027  12.525  66.327  1.00  0.00    -0.268 NA 
HETATM    4  C   UNL     1     -10.725  11.169  66.352  1.00  0.00    -0.247 C  
HETATM    5  C   UNL     1      -9.759  10.582  67.073  1.00  0.00    -0.212 C  
HETATM    6  C   UNL     1      -9.557   9.123  66.966  1.00  0.00    -0.170 C  
HETATM    7  C   UNL     1      -8.943  11.463  67.931  1.00  0.00    -0.153 C  
HETATM    8  C   UNL     1      -9.169  12.922  67.857  1.00  0.00    -0.208 A  
HETATM    9  O   UNL     1      -8.080  10.977  68.661  1.00  0.00    -0.134 OA 
HETATM   10  O   UNL     1     -10.224   8.404  66.235  1.00  0.00    -0.212 OA 
HETATM   11  O   UNL     1      -8.560   8.637  67.737  1.00  0.00    -0.134 OA 
HETATM   12  C   UNL     1      -8.329  13.773  68.578  1.00  0.00    -0.120 A  
HETATM   13  C   UNL     1      -8.471  15.151  68.445  1.00  0.00    -0.157 A  
HETATM   14  F   UNL     1      -7.579  15.918  69.091  1.00  0.00    -0.159 F  
HETATM   15  C   UNL     1      -9.452  15.720  67.618  1.00  0.00    -0.218 A  
HETATM   16  C   UNL     1     -10.199  13.421  67.041  1.00  0.00    -0.249 A  
HETATM   17  C   UNL     1     -10.322  14.818  66.968  1.00  0.00    -0.255 A  
BRANCH  15  18
HETATM   18  N   UNL     1      -9.598  17.082  67.399  1.00  0.00    -0.243 NA 
HETATM   19  C   UNL     1     -10.536  17.927  68.155  1.00  0.00    -0.372 C  
HETATM   20  C   UNL     1      -9.797  19.090  68.858  1.00  0.00    -0.404 C  
HETATM   21  N   UNL     1      -8.921  19.899  67.976  1.00  0.00    -0.307 NA 
HETATM   22  C   UNL     1      -7.984  18.985  67.290  1.00  0.00    -0.254 C  
HETATM   23  C   UNL     1      -9.697  20.680  67.014  1.00  0.00    -0.345 C  
HETATM   24  C   UNL     1      -8.642  17.804  66.538  1.00  0.00    -0.257 C  
ENDBRANCH  15  18
ENDBRANCH   2   3
TORSDOF 2
ENDMDL
MODEL       52
REMARK 921   NORMALIZED FREE ENERGY PREDICTED BY IDOCK:   -5.66 KCAL/MOL
REMARK 922        TOTAL FREE ENERGY PREDICTED BY IDOCK:   -6.56 KCAL/MOL
REMARK 923 INTER-LIGAND FREE ENERGY PREDICTED BY IDOCK:   -6.07 KCAL/MOL
REMARK 924 INTRA-LIGAND FREE ENERGY PREDICTED BY IDOCK:   -0.49 KCAL/MOL
REMARK 927      BINDING AFFINITY PREDICTED BY RF-SCORE:    0.00 PKD
ROOT
HETATM    1  C   UNL     1      -8.529  14.951  68.573  1.00  0.00    -0.163 C  
HETATM    2  C   UNL     1      -9.886  14.644  67.955  1.00  0.00    -0.217 C  
ENDROOT
BRANCH   2   3
HETATM    3  N   UNL     1     -10.690  13.767  68.830  1.00  0.00    -0.251 NA 
HETATM    4  C   UNL     1     -11.566  14.306  69.764  1.00  0.00    -0.293 C  
HETATM    5  C   UNL     1     -12.341  13.620  70.616  1.00  0.00    -0.440 C  
HETATM    6  C   UNL     1     -13.236  14.352  71.534  1.00  0.00    -0.346 C  
HETATM    7  C   UNL     1     -12.247  12.149  70.562  1.00  0.00    -0.304 C  
HETATM    8  C   UNL     1     -11.400  11.537  69.515  1.00  0.00    -0.342 A  
HETATM    9  O   UNL     1     -12.888  11.464  71.358  1.00  0.00    -0.413 OA 
HETATM   10  O   UNL     1     -13.325  15.572  71.557  1.00  0.00    -0.473 OA 
HETATM   11  O   UNL     1     -13.969  13.564  72.350  1.00  0.00    -0.608 OA 
HETATM   12  C   UNL     1     -11.390  10.146  69.381  1.00  0.00    -0.233 A  
HETATM   13  C   UNL     1     -10.672   9.563  68.343  1.00  0.00    -0.186 A  
HETATM   14  F   UNL     1     -10.771   8.231  68.209  1.00  0.00    -0.237 F  
HETATM   15  C   UNL     1      -9.933  10.330  67.427  1.00  0.00    -0.189 A  
HETATM   16  C   UNL     1     -10.652  12.364  68.661  1.00  0.00    -0.218 A  
HETATM   17  C   UNL     1      -9.916  11.724  67.650  1.00  0.00    -0.204 A  
BRANCH  15  18
HETATM   18  N   UNL     1      -9.251   9.808  66.339  1.00  0.00    -0.154 NA 
HETATM   19  C   UNL     1      -9.642  10.061  64.942  1.00  0.00    -0.310 C  
HETATM   20  C   UNL     1      -8.482  10.704  64.146  1.00  0.00    -0.063 C  
HETATM   21  N   UNL     1      -7.189   9.983  64.230  1.00  0.00    -0.135 NA 
HETATM   22  C   UNL     1      -6.848   9.810  65.657  1.00  0.00    -0.096 C  
HETATM   23  C   UNL     1      -7.243   8.696  63.539  1.00  0.00    -0.095 C  
HETATM   24  C   UNL     1      -7.944   9.149  66.525  1.00  0.00    -0.100 C  
ENDBRANCH  15  18
ENDBRANCH   2   3
TORSDOF 2
ENDMDL
MODEL       53
REMARK 921   NORMALIZED FREE ENERGY PREDICTED BY IDOCK:   -5.60 KCAL/MOL
REMARK 922        TOTAL FREE ENERGY PREDICTED BY IDOCK:   -6.50 KCAL/MOL
REMARK 923 INTER-LIGAND FREE ENERGY PREDICTED BY IDOCK:   -5.97 KCAL/MOL
REMARK 924 INTRA-LIGAND FREE ENERGY PREDICTED BY IDOCK:   -0.53 KCAL/MOL
REMARK 927      BINDING AFFINITY PREDICTED BY RF-SCORE:    0.00 PKD
ROOT
HETATM    1  C   UNL     1      -7.050   9.078  65.651  1.00  0.00    -0.081 C  
HETATM    2  C   UNL     1      -8.491   8.601  65.525  1.00  0.00    -0.165 C  
ENDROOT
BRANCH   2   3
HETATM    3  N   UNL     1      -9.444   9.663  65.904  1.00  0.00    -0.215 NA 
HETATM    4  C   UNL     1      -9.839  10.624  64.983  1.00  0.00    -0.293 C  
HETATM    5  C   UNL     1     -10.688  11.638  65.205  1.00  0.00    -0.346 C  
HETATM    6  C   UNL     1     -11.020  12.564  64.104  1.00  0.00    -0.381 C  
HETATM    7  C   UNL     1     -11.250  11.747  66.566  1.00  0.00    -0.321 C  
HETATM    8  C   UNL     1     -10.930  10.686  67.545  1.00  0.00    -0.371 A  
HETATM    9  O   UNL     1     -11.987  12.689  66.850  1.00  0.00    -0.457 OA 
HETATM   10  O   UNL     1     -10.568  12.452  62.973  1.00  0.00    -0.207 OA 
HETATM   11  O   UNL     1     -11.882  13.549  64.439  1.00  0.00    -0.379 OA 
HETATM   12  C   UNL     1     -11.543  10.717  68.800  1.00  0.00    -0.350 A  
HETATM   13  C   UNL     1     -11.323   9.677  69.696  1.00  0.00    -0.073 A  
HETATM   14  F   UNL     1     -12.008   9.714  70.850  1.00  0.00    -0.307 F  
HETATM   15  C   UNL     1     -10.481   8.595  69.388  1.00  0.00    -0.218 A  
HETATM   16  C   UNL     1     -10.044   9.658  67.184  1.00  0.00    -0.218 A  
HETATM   17  C   UNL     1      -9.828   8.649  68.138  1.00  0.00    -0.192 A  
BRANCH  15  18
HETATM   18  N   UNL     1     -10.275   7.502  70.216  1.00  0.00    -0.202 NA 
HETATM   19  C   UNL     1     -11.071   6.267  70.138  1.00  0.00    -0.377 C  
HETATM   20  C   UNL     1     -10.170   5.036  69.885  1.00  0.00    -0.270 C  
HETATM   21  N   UNL     1      -9.028   4.894  70.821  1.00  0.00    -0.127 NA 
HETATM   22  C   UNL     1      -8.257   6.154  70.807  1.00  0.00    -0.125 C  
HETATM   23  C   UNL     1      -9.476   4.563  72.173  1.00  0.00    -0.140 C  
HETATM   24  C   UNL     1      -9.079   7.436  71.077  1.00  0.00    -0.152 C  
ENDBRANCH  15  18
ENDBRANCH   2   3
TORSDOF 2
ENDMDL
MODEL       54
REMARK 921   NORMALIZED FREE ENERGY PREDICTED BY IDOCK:   -5.55 KCAL/MOL
REMARK 922        TOTAL FREE ENERGY PREDICTED BY IDOCK:   -6.44 KCAL/MOL
REMARK 923 INTER-LIGAND FREE ENERGY PREDICTED BY IDOCK:   -5.97 KCAL/MOL
REMARK 924 INTRA-LIGAND FREE ENERGY PREDICTED BY IDOCK:   -0.47 KCAL/MOL
REMARK 927      BINDING AFFINITY PREDICTED BY RF-SCORE:    0.00 PKD
ROOT
HETATM    1  C   UNL     1      -5.402  15.438  67.960  1.00  0.00    -0.137 C  
HETATM    2  C   UNL     1      -6.333  15.815  69.104  1.00  0.00    -0.134 C  
ENDROOT
BRANCH   2   3
HETATM    3  N   UNL     1      -7.547  16.492  68.609  1.00  0.00    -0.200 NA 
HETATM    4  C   UNL     1      -7.538  17.854  68.332  1.00  0.00    -0.282 C  
HETATM    5  C   UNL     1      -8.572  18.582  67.886  1.00  0.00    -0.304 C  
HETATM    6  C   UNL     1      -8.385  20.022  67.621  1.00  0.00    -0.319 C  
HETATM    7  C   UNL     1      -9.846  17.868  67.678  1.00  0.00    -0.304 C  
HETATM    8  C   UNL     1      -9.869  16.402  67.867  1.00  0.00    -0.238 A  
HETATM    9  O   UNL     1     -10.847  18.491  67.328  1.00  0.00    -0.408 OA 
HETATM   10  O   UNL     1      -7.319  20.602  67.774  1.00  0.00    -0.290 OA 
HETATM   11  O   UNL     1      -9.491  20.659  67.178  1.00  0.00    -0.415 OA 
HETATM   12  C   UNL     1     -11.038  15.699  67.566  1.00  0.00    -0.289 A  
HETATM   13  C   UNL     1     -11.045  14.311  67.651  1.00  0.00    -0.292 A  
HETATM   14  F   UNL     1     -12.167  13.685  67.263  1.00  0.00    -0.408 F  
HETATM   15  C   UNL     1      -9.911  13.585  68.052  1.00  0.00    -0.248 A  
HETATM   16  C   UNL     1      -8.710  15.745  68.314  1.00  0.00    -0.172 A  
HETATM   17  C   UNL     1      -8.779  14.346  68.416  1.00  0.00    -0.180 A  
BRANCH  15  18
HETATM   18  N   UNL     1      -9.842  12.201  68.093  1.00  0.00    -0.202 NA 
HETATM   19  C   UNL     1     -10.635  11.379  69.020  1.00  0.00    -0.191 C  
HETATM   20  C   UNL     1     -11.508  10.357  68.254  1.00  0.00    -0.144 C  
HETATM   21  N   UNL     1     -10.776   9.522  67.271  1.00  0.00    -0.246 NA 
HETATM   22  C   UNL     1     -10.044  10.420  66.354  1.00  0.00    -0.228 C  
HETATM   23  C   UNL     1      -9.867   8.584  67.930  1.00  0.00    -0.170 C  
HETATM   24  C   UNL     1      -9.126  11.459  67.037  1.00  0.00    -0.167 C  
ENDBRANCH  15  18
ENDBRANCH   2   3
TORSDOF 2
ENDMDL
MODEL       55
REMARK 921   NORMALIZED FREE ENERGY PREDICTED BY IDOCK:   -5.53 KCAL/MOL
REMARK 922        TOTAL FREE ENERGY PREDICTED BY IDOCK:   -6.42 KCAL/MOL
REMARK 923 INTER-LIGAND FREE ENERGY PREDICTED BY IDOCK:   -5.89 KCAL/MOL
REMARK 924 INTRA-LIGAND FREE ENERGY PREDICTED BY IDOCK:   -0.53 KCAL/MOL
REMARK 927      BINDING AFFINITY PREDICTED BY RF-SCORE:    0.00 PKD
ROOT
HETATM    1  C   UNL     1      -5.755  12.927  67.736  1.00  0.00    -0.135 C  
HETATM    2  C   UNL     1      -6.860  13.003  68.781  1.00  0.00    -0.102 C  
ENDROOT
BRANCH   2   3
HETATM    3  N   UNL     1      -7.994  12.125  68.428  1.00  0.00    -0.153 NA 
HETATM    4  C   UNL     1      -7.963  10.769  68.727  1.00  0.00    -0.136 C  
HETATM    5  C   UNL     1      -8.921   9.871  68.454  1.00  0.00    -0.120 C  
HETATM    6  C   UNL     1      -8.737   8.465  68.862  1.00  0.00    -0.136 C  
HETATM    7  C   UNL     1     -10.122  10.374  67.758  1.00  0.00    -0.181 C  
HETATM    8  C   UNL     1     -10.235  11.827  67.511  1.00  0.00    -0.214 A  
HETATM    9  O   UNL     1     -11.009   9.589  67.426  1.00  0.00    -0.232 OA 
HETATM   10  O   UNL     1      -7.748   8.062  69.459  1.00  0.00    -0.098 OA 
HETATM   11  O   UNL     1      -9.761   7.647  68.534  1.00  0.00    -0.153 OA 
HETATM   12  C   UNL     1     -11.414  12.328  66.955  1.00  0.00    -0.419 A  
HETATM   13  C   UNL     1     -11.570  13.702  66.803  1.00  0.00    -0.364 A  
HETATM   14  F   UNL     1     -12.758  14.131  66.349  1.00  0.00    -0.486 F  
HETATM   15  C   UNL     1     -10.565  14.610  67.175  1.00  0.00    -0.282 A  
HETATM   16  C   UNL     1      -9.171  12.672  67.868  1.00  0.00    -0.201 A  
HETATM   17  C   UNL     1      -9.365  14.049  67.662  1.00  0.00    -0.203 A  
BRANCH  15  18
HETATM   18  N   UNL     1     -10.690  15.989  67.105  1.00  0.00    -0.308 NA 
HETATM   19  C   UNL     1     -11.117  16.822  68.241  1.00  0.00    -0.259 C  
HETATM   20  C   UNL     1     -10.055  17.894  68.577  1.00  0.00    -0.391 C  
HETATM   21  N   UNL     1      -9.614  18.721  67.428  1.00  0.00    -0.302 NA 
HETATM   22  C   UNL     1      -9.161  17.815  66.353  1.00  0.00    -0.234 C  
HETATM   23  C   UNL     1     -10.679  19.607  66.960  1.00  0.00    -0.455 C  
HETATM   24  C   UNL     1     -10.175  16.725  65.934  1.00  0.00    -0.328 C  
ENDBRANCH  15  18
ENDBRANCH   2   3
TORSDOF 2
ENDMDL
MODEL       56
REMARK 921   NORMALIZED FREE ENERGY PREDICTED BY IDOCK:   -5.50 KCAL/MOL
REMARK 922        TOTAL FREE ENERGY PREDICTED BY IDOCK:   -6.38 KCAL/MOL
REMARK 923 INTER-LIGAND FREE ENERGY PREDICTED BY IDOCK:   -5.86 KCAL/MOL
REMARK 924 INTRA-LIGAND FREE ENERGY PREDICTED BY IDOCK:   -0.52 KCAL/MOL
REMARK 927      BINDING AFFINITY PREDICTED BY RF-SCORE:    0.00 PKD
ROOT
HETATM    1  C   UNL     1     -10.141  10.755  64.357  1.00  0.00    -0.419 C  
HETATM    2  C   UNL     1      -9.368  10.632  65.662  1.00  0.00    -0.201 C  
ENDROOT
BRANCH   2   3
HETATM    3  N   UNL     1     -10.049  11.345  66.760  1.00  0.00    -0.211 NA 
HETATM    4  C   UNL     1     -10.472  12.658  66.601  1.00  0.00    -0.245 C  
HETATM    5  C   UNL     1     -11.092  13.413  67.519  1.00  0.00    -0.294 C  
HETATM    6  C   UNL     1     -11.494  14.791  67.177  1.00  0.00    -0.364 C  
HETATM    7  C   UNL     1     -11.343  12.787  68.832  1.00  0.00    -0.296 C  
HETATM    8  C   UNL     1     -10.997  11.360  69.008  1.00  0.00    -0.288 A  
HETATM    9  O   UNL     1     -11.854  13.445  69.736  1.00  0.00    -0.303 OA 
HETATM   10  O   UNL     1     -11.303  15.294  66.078  1.00  0.00    -0.286 OA 
HETATM   11  O   UNL     1     -12.109  15.461  68.176  1.00  0.00    -0.153 OA 
HETATM   12  C   UNL     1     -11.331  10.727  70.207  1.00  0.00    -0.374 A  
HETATM   13  C   UNL     1     -11.096   9.363  70.351  1.00  0.00    -0.261 A  
HETATM   14  F   UNL     1     -11.520   8.791  71.489  1.00  0.00    -0.289 F  
HETATM   15  C   UNL     1     -10.510   8.598  69.329  1.00  0.00    -0.217 A  
HETATM   16  C   UNL     1     -10.371  10.667  67.958  1.00  0.00    -0.178 A  
HETATM   17  C   UNL     1     -10.124   9.300  68.167  1.00  0.00    -0.222 A  
BRANCH  15  18
HETATM   18  N   UNL     1     -10.311   7.228  69.393  1.00  0.00    -0.202 NA 
HETATM   19  C   UNL     1     -11.089   6.259  68.604  1.00  0.00    -0.325 C  
HETATM   20  C   UNL     1     -10.164   5.388  67.721  1.00  0.00    -0.178 C  
HETATM   21  N   UNL     1      -9.045   4.734  68.442  1.00  0.00    -0.112 NA 
HETATM   22  C   UNL     1      -8.291   5.775  69.169  1.00  0.00    -0.105 C  
HETATM   23  C   UNL     1      -9.523   3.694  69.352  1.00  0.00    -0.179 C  
HETATM   24  C   UNL     1      -9.136   6.678  70.097  1.00  0.00    -0.155 C  
ENDBRANCH  15  18
ENDBRANCH   2   3
TORSDOF 2
ENDMDL
MODEL       57
REMARK 921   NORMALIZED FREE ENERGY PREDICTED BY IDOCK:   -5.48 KCAL/MOL
REMARK 922        TOTAL FREE ENERGY PREDICTED BY IDOCK:   -6.36 KCAL/MOL
REMARK 923 INTER-LIGAND FREE ENERGY PREDICTED BY IDOCK:   -5.82 KCAL/MOL
REMARK 924 INTRA-LIGAND FREE ENERGY PREDICTED BY IDOCK:   -0.54 KCAL/MOL
REMARK 927      BINDING AFFINITY PREDICTED BY RF-SCORE:    0.00 PKD
ROOT
HETATM    1  C   UNL     1     -10.072  10.850  63.338  1.00  0.00    -0.398 C  
HETATM    2  C   UNL     1      -9.009  10.838  64.428  1.00  0.00    -0.161 C  
ENDROOT
BRANCH   2   3
HETATM    3  N   UNL     1      -9.593  10.518  65.745  1.00  0.00    -0.197 NA 
HETATM    4  C   UNL     1      -9.754   9.199  66.150  1.00  0.00    -0.287 C  
HETATM    5  C   UNL     1     -10.275   8.781  67.312  1.00  0.00    -0.332 C  
HETATM    6  C   UNL     1     -10.354   7.334  67.595  1.00  0.00    -0.227 C  
HETATM    7  C   UNL     1     -10.731   9.827  68.249  1.00  0.00    -0.233 C  
HETATM    8  C   UNL     1     -10.487  11.242  67.896  1.00  0.00    -0.218 A  
HETATM    9  O   UNL     1     -11.273   9.507  69.306  1.00  0.00    -0.139 OA 
HETATM   10  O   UNL     1      -9.953   6.475  66.823  1.00  0.00    -0.162 OA 
HETATM   11  O   UNL     1     -10.899   7.026  68.793  1.00  0.00    -0.211 OA 
HETATM   12  C   UNL     1     -10.812  12.235  68.823  1.00  0.00    -0.266 A  
HETATM   13  C   UNL     1     -10.502  13.561  68.542  1.00  0.00    -0.244 A  
HETATM   14  F   UNL     1     -10.755  14.461  69.507  1.00  0.00    -0.241 F  
HETATM   15  C   UNL     1      -9.886  13.943  67.339  1.00  0.00    -0.237 A  
HETATM   16  C   UNL     1      -9.907  11.553  66.655  1.00  0.00    -0.202 A  
HETATM   17  C   UNL     1      -9.646  12.911  66.406  1.00  0.00    -0.252 A  
BRANCH  15  18
HETATM   18  N   UNL     1      -9.498  15.238  67.034  1.00  0.00    -0.217 NA 
HETATM   19  C   UNL     1     -10.402  16.233  66.434  1.00  0.00    -0.314 C  
HETATM   20  C   UNL     1     -10.512  17.495  67.321  1.00  0.00    -0.327 C  
HETATM   21  N   UNL     1      -9.216  18.099  67.713  1.00  0.00    -0.260 NA 
HETATM   22  C   UNL     1      -8.388  17.052  68.345  1.00  0.00    -0.241 C  
HETATM   23  C   UNL     1      -8.529  18.696  66.568  1.00  0.00    -0.291 C  
HETATM   24  C   UNL     1      -8.204  15.761  67.513  1.00  0.00    -0.162 C  
ENDBRANCH  15  18
ENDBRANCH   2   3
TORSDOF 2
ENDMDL
MODEL       58
REMARK 921   NORMALIZED FREE ENERGY PREDICTED BY IDOCK:   -5.46 KCAL/MOL
REMARK 922        TOTAL FREE ENERGY PREDICTED BY IDOCK:   -6.33 KCAL/MOL
REMARK 923 INTER-LIGAND FREE ENERGY PREDICTED BY IDOCK:   -5.87 KCAL/MOL
REMARK 924 INTRA-LIGAND FREE ENERGY PREDICTED BY IDOCK:   -0.46 KCAL/MOL
REMARK 927      BINDING AFFINITY PREDICTED BY RF-SCORE:    0.00 PKD
ROOT
HETATM    1  C   UNL     1      -9.737  10.791  63.434  1.00  0.00    -0.394 C  
HETATM    2  C   UNL     1     -10.737  11.272  64.477  1.00  0.00    -0.323 C  
ENDROOT
BRANCH   2   3
HETATM    3  N   UNL     1     -10.248  12.478  65.174  1.00  0.00    -0.284 NA 
HETATM    4  C   UNL     1     -10.659  13.744  64.775  1.00  0.00    -0.428 C  
HETATM    5  C   UNL     1     -10.283  14.911  65.319  1.00  0.00    -0.404 C  
HETATM    6  C   UNL     1     -10.834  16.173  64.785  1.00  0.00    -0.262 C  
HETATM    7  C   UNL     1      -9.333  14.842  66.446  1.00  0.00    -0.291 C  
HETATM    8  C   UNL     1      -8.951  13.510  66.963  1.00  0.00    -0.237 A  
HETATM    9  O   UNL     1      -8.904  15.879  66.950  1.00  0.00    -0.201 OA 
HETATM   10  O   UNL     1     -11.638  16.219  63.865  1.00  0.00    -0.987 OA 
HETATM   11  O   UNL     1     -10.386  17.287  65.405  1.00  0.00    -0.626 OA 
HETATM   12  C   UNL     1      -8.141  13.433  68.099  1.00  0.00    -0.155 A  
HETATM   13  C   UNL     1      -7.850  12.189  68.649  1.00  0.00    -0.078 A  
HETATM   14  F   UNL     1      -7.144  12.181  69.790  1.00  0.00     0.008 F  
HETATM   15  C   UNL     1      -8.330  10.996  68.084  1.00  0.00    -0.130 A  
HETATM   16  C   UNL     1      -9.432  12.357  66.321  1.00  0.00    -0.220 A  
HETATM   17  C   UNL     1      -9.081  11.124  66.896  1.00  0.00    -0.166 A  
BRANCH  15  18
HETATM   18  N   UNL     1      -8.124   9.736  68.625  1.00  0.00    -0.102 NA 
HETATM   19  C   UNL     1      -6.808   9.078  68.667  1.00  0.00    -0.063 C  
HETATM   20  C   UNL     1      -6.410   8.717  70.117  1.00  0.00    -0.038 C  
HETATM   21  N   UNL     1      -7.429   7.949  70.872  1.00  0.00    -0.071 NA 
HETATM   22  C   UNL     1      -8.704   8.694  70.820  1.00  0.00    -0.173 C  
HETATM   23  C   UNL     1      -7.587   6.594  70.344  1.00  0.00    -0.096 C  
HETATM   24  C   UNL     1      -9.190   9.075  69.403  1.00  0.00    -0.150 C  
ENDBRANCH  15  18
ENDBRANCH   2   3
TORSDOF 2
ENDMDL
MODEL       59
REMARK 921   NORMALIZED FREE ENERGY PREDICTED BY IDOCK:   -5.43 KCAL/MOL
REMARK 922        TOTAL FREE ENERGY PREDICTED BY IDOCK:   -6.30 KCAL/MOL
REMARK 923 INTER-LIGAND FREE ENERGY PREDICTED BY IDOCK:   -5.79 KCAL/MOL
REMARK 924 INTRA-LIGAND FREE ENERGY PREDICTED BY IDOCK:   -0.51 KCAL/MOL
REMARK 927      BINDING AFFINITY PREDICTED BY RF-SCORE:    0.00 PKD
ROOT
HETATM    1  C   UNL     1      -5.575  13.469  67.888  1.00  0.00    -0.116 C  
HETATM    2  C   UNL     1      -6.982  13.593  68.457  1.00  0.00    -0.104 C  
ENDROOT
BRANCH   2   3
HETATM    3  N   UNL     1      -7.985  13.014  67.542  1.00  0.00    -0.166 NA 
HETATM    4  C   UNL     1      -8.207  11.643  67.508  1.00  0.00    -0.148 C  
HETATM    5  C   UNL     1      -9.080  10.998  66.721  1.00  0.00    -0.172 C  
HETATM    6  C   UNL     1      -9.208   9.531  66.826  1.00  0.00    -0.149 C  
HETATM    7  C   UNL     1      -9.876  11.826  65.794  1.00  0.00    -0.240 C  
HETATM    8  C   UNL     1      -9.739  13.296  65.871  1.00  0.00    -0.188 A  
HETATM    9  O   UNL     1     -10.651  11.289  65.004  1.00  0.00    -0.294 OA 
HETATM   10  O   UNL     1      -8.560   8.855  67.613  1.00  0.00    -0.123 OA 
HETATM   11  O   UNL     1     -10.113   8.984  65.986  1.00  0.00    -0.278 OA 
HETATM   12  C   UNL     1     -10.567  14.095  65.078  1.00  0.00    -0.436 A  
HETATM   13  C   UNL     1     -10.513  15.478  65.208  1.00  0.00    -0.411 A  
HETATM   14  F   UNL     1     -11.394  16.191  64.488  1.00  0.00    -0.468 F  
HETATM   15  C   UNL     1      -9.632  16.107  66.103  1.00  0.00    -0.327 A  
HETATM   16  C   UNL     1      -8.804  13.857  66.757  1.00  0.00    -0.149 A  
HETATM   17  C   UNL     1      -8.765  15.260  66.826  1.00  0.00    -0.304 A  
BRANCH  15  18
HETATM   18  N   UNL     1      -9.579  17.476  66.319  1.00  0.00    -0.406 NA 
HETATM   19  C   UNL     1     -10.637  18.226  67.015  1.00  0.00    -0.349 C  
HETATM   20  C   UNL     1     -10.072  18.977  68.244  1.00  0.00    -0.396 C  
HETATM   21  N   UNL     1      -8.888  19.827  67.969  1.00  0.00    -0.314 NA 
HETATM   22  C   UNL     1      -7.861  18.992  67.313  1.00  0.00    -0.245 C  
HETATM   23  C   UNL     1      -9.234  20.984  67.145  1.00  0.00     0.021 C  
HETATM   24  C   UNL     1      -8.334  18.224  66.057  1.00  0.00    -0.024 C  
ENDBRANCH  15  18
ENDBRANCH   2   3
TORSDOF 2
ENDMDL
MODEL       60
REMARK 921   NORMALIZED FREE ENERGY PREDICTED BY IDOCK:   -5.42 KCAL/MOL
REMARK 922        TOTAL FREE ENERGY PREDICTED BY IDOCK:   -6.29 KCAL/MOL
REMARK 923 INTER-LIGAND FREE ENERGY PREDICTED BY IDOCK:   -5.95 KCAL/MOL
REMARK 924 INTRA-LIGAND FREE ENERGY PREDICTED BY IDOCK:   -0.35 KCAL/MOL
REMARK 927      BINDING AFFINITY PREDICTED BY RF-SCORE:    0.00 PKD
ROOT
HETATM    1  C   UNL     1      -7.460   9.664  68.333  1.00  0.00    -0.080 C  
HETATM    2  C   UNL     1      -8.803   9.707  67.616  1.00  0.00    -0.125 C  
ENDROOT
BRANCH   2   3
HETATM    3  N   UNL     1      -9.917   9.860  68.572  1.00  0.00    -0.155 NA 
HETATM    4  C   UNL     1     -10.307   8.802  69.384  1.00  0.00    -0.214 C  
HETATM    5  C   UNL     1     -11.302   8.813  70.282  1.00  0.00    -0.162 C  
HETATM    6  C   UNL     1     -11.572   7.603  71.083  1.00  0.00    -0.280 C  
HETATM    7  C   UNL     1     -12.064  10.070  70.413  1.00  0.00    -0.202 C  
HETATM    8  C   UNL     1     -11.617  11.247  69.637  1.00  0.00    -0.401 A  
HETATM    9  O   UNL     1     -13.028  10.125  71.176  1.00  0.00    -0.353 OA 
HETATM   10  O   UNL     1     -10.920   6.572  70.984  1.00  0.00    -0.241 OA 
HETATM   11  O   UNL     1     -12.598   7.723  71.954  1.00  0.00    -0.309 OA 
HETATM   12  C   UNL     1     -12.260  12.471  69.836  1.00  0.00    -0.233 A  
HETATM   13  C   UNL     1     -11.790  13.606  69.183  1.00  0.00    -0.348 A  
HETATM   14  F   UNL     1     -12.389  14.769  69.481  1.00  0.00    -0.331 F  
HETATM   15  C   UNL     1     -10.694  13.558  68.306  1.00  0.00    -0.258 A  
HETATM   16  C   UNL     1     -10.541  11.117  68.744  1.00  0.00    -0.202 A  
HETATM   17  C   UNL     1     -10.127  12.285  68.083  1.00  0.00    -0.211 A  
BRANCH  15  18
HETATM   18  N   UNL     1     -10.145  14.666  67.678  1.00  0.00    -0.227 NA 
HETATM   19  C   UNL     1     -10.050  14.803  66.216  1.00  0.00    -0.285 C  
HETATM   20  C   UNL     1     -10.775  16.078  65.727  1.00  0.00    -0.301 C  
HETATM   21  N   UNL     1     -10.380  17.328  66.420  1.00  0.00    -0.333 NA 
HETATM   22  C   UNL     1     -10.546  17.124  67.874  1.00  0.00    -0.376 C  
HETATM   23  C   UNL     1      -9.009  17.717  66.094  1.00  0.00    -0.107 C  
HETATM   24  C   UNL     1      -9.830  15.882  68.454  1.00  0.00    -0.214 C  
ENDBRANCH  15  18
ENDBRANCH   2   3
TORSDOF 2
ENDMDL
MODEL       61
REMARK 921   NORMALIZED FREE ENERGY PREDICTED BY IDOCK:   -5.40 KCAL/MOL
REMARK 922        TOTAL FREE ENERGY PREDICTED BY IDOCK:   -6.27 KCAL/MOL
REMARK 923 INTER-LIGAND FREE ENERGY PREDICTED BY IDOCK:   -5.79 KCAL/MOL
REMARK 924 INTRA-LIGAND FREE ENERGY PREDICTED BY IDOCK:   -0.48 KCAL/MOL
REMARK 927      BINDING AFFINITY PREDICTED BY RF-SCORE:    0.00 PKD
ROOT
HETATM    1  C   UNL     1     -13.242  10.372  72.012  1.00  0.00    -0.497 C  
HETATM    2  C   UNL     1     -11.886   9.976  71.442  1.00  0.00    -0.363 C  
ENDROOT
BRANCH   2   3
HETATM    3  N   UNL     1     -11.686  10.537  70.092  1.00  0.00    -0.299 NA 
HETATM    4  C   UNL     1     -11.923  11.882  69.839  1.00  0.00    -0.325 C  
HETATM    5  C   UNL     1     -11.785  12.507  68.660  1.00  0.00    -0.368 C  
HETATM    6  C   UNL     1     -12.059  13.955  68.569  1.00  0.00    -0.296 C  
HETATM    7  C   UNL     1     -11.349  11.680  67.518  1.00  0.00    -0.298 C  
HETATM    8  C   UNL     1     -10.993  10.267  67.769  1.00  0.00    -0.360 A  
HETATM    9  O   UNL     1     -11.261  12.181  66.398  1.00  0.00    -0.298 OA 
HETATM   10  O   UNL     1     -12.398  14.636  69.526  1.00  0.00    -0.280 OA 
HETATM   11  O   UNL     1     -11.892  14.480  67.335  1.00  0.00    -0.389 OA 
HETATM   12  C   UNL     1     -10.472   9.505  66.720  1.00  0.00    -0.263 A  
HETATM   13  C   UNL     1     -10.047   8.204  66.964  1.00  0.00    -0.280 A  
HETATM   14  F   UNL     1      -9.472   7.551  65.941  1.00  0.00    -0.170 F  
HETATM   15  C   UNL     1     -10.142   7.617  68.236  1.00  0.00    -0.186 A  
HETATM   16  C   UNL     1     -11.155   9.732  69.058  1.00  0.00    -0.107 A  
HETATM   17  C   UNL     1     -10.743   8.402  69.243  1.00  0.00    -0.139 A  
BRANCH  15  18
HETATM   18  N   UNL     1      -9.677   6.349  68.551  1.00  0.00    -0.131 NA 
HETATM   19  C   UNL     1      -8.257   5.969  68.488  1.00  0.00    -0.110 C  
HETATM   20  C   UNL     1      -7.757   5.449  69.856  1.00  0.00    -0.080 C  
HETATM   21  N   UNL     1      -8.584   4.375  70.458  1.00  0.00    -0.080 NA 
HETATM   22  C   UNL     1      -9.982   4.850  70.526  1.00  0.00    -0.241 C  
HETATM   23  C   UNL     1      -8.486   3.129  69.701  1.00  0.00    -0.061 C  
HETATM   24  C   UNL     1     -10.572   5.366  69.193  1.00  0.00    -0.171 C  
ENDBRANCH  15  18
ENDBRANCH   2   3
TORSDOF 2
ENDMDL
MODEL       62
REMARK 921   NORMALIZED FREE ENERGY PREDICTED BY IDOCK:   -5.40 KCAL/MOL
REMARK 922        TOTAL FREE ENERGY PREDICTED BY IDOCK:   -6.27 KCAL/MOL
REMARK 923 INTER-LIGAND FREE ENERGY PREDICTED BY IDOCK:   -5.74 KCAL/MOL
REMARK 924 INTRA-LIGAND FREE ENERGY PREDICTED BY IDOCK:   -0.52 KCAL/MOL
REMARK 927      BINDING AFFINITY PREDICTED BY RF-SCORE:    0.00 PKD
ROOT
HETATM    1  C   UNL     1      -9.910   7.861  72.869  1.00  0.00    -0.348 C  
HETATM    2  C   UNL     1      -9.704   8.880  71.757  1.00  0.00    -0.295 C  
ENDROOT
BRANCH   2   3
HETATM    3  N   UNL     1      -9.767   8.244  70.427  1.00  0.00    -0.167 NA 
HETATM    4  C   UNL     1      -9.780   6.860  70.301  1.00  0.00    -0.172 C  
HETATM    5  C   UNL     1      -9.828   6.165  69.155  1.00  0.00    -0.176 C  
HETATM    6  C   UNL     1      -9.857   4.690  69.200  1.00  0.00    -0.172 C  
HETATM    7  C   UNL     1      -9.861   6.949  67.905  1.00  0.00    -0.135 C  
HETATM    8  C   UNL     1      -9.948   8.422  68.001  1.00  0.00    -0.221 A  
HETATM    9  O   UNL     1      -9.845   6.371  66.819  1.00  0.00    -0.152 OA 
HETATM   10  O   UNL     1      -9.853   4.049  70.242  1.00  0.00    -0.201 OA 
HETATM   11  O   UNL     1      -9.902   4.093  67.989  1.00  0.00    -0.122 OA 
HETATM   12  C   UNL     1     -10.092   9.168  66.829  1.00  0.00    -0.341 A  
HETATM   13  C   UNL     1     -10.268  10.545  66.911  1.00  0.00    -0.229 A  
HETATM   14  F   UNL     1     -10.492  11.198  65.759  1.00  0.00    -0.281 F  
HETATM   15  C   UNL     1     -10.285  11.221  68.142  1.00  0.00    -0.180 A  
HETATM   16  C   UNL     1      -9.915   9.035  69.264  1.00  0.00    -0.188 A  
HETATM   17  C   UNL     1     -10.061  10.432  69.290  1.00  0.00    -0.248 A  
BRANCH  15  18
HETATM   18  N   UNL     1     -10.519  12.580  68.287  1.00  0.00    -0.228 NA 
HETATM   19  C   UNL     1      -9.453  13.593  68.243  1.00  0.00    -0.213 C  
HETATM   20  C   UNL     1      -9.721  14.638  67.134  1.00  0.00    -0.235 C  
HETATM   21  N   UNL     1     -11.066  15.260  67.172  1.00  0.00    -0.336 NA 
HETATM   22  C   UNL     1     -12.076  14.182  67.169  1.00  0.00    -0.397 C  
HETATM   23  C   UNL     1     -11.226  16.131  68.336  1.00  0.00    -0.358 C  
HETATM   24  C   UNL     1     -11.898  13.105  68.264  1.00  0.00    -0.349 C  
ENDBRANCH  15  18
ENDBRANCH   2   3
TORSDOF 2
ENDMDL
MODEL       63
REMARK 921   NORMALIZED FREE ENERGY PREDICTED BY IDOCK:   -5.39 KCAL/MOL
REMARK 922        TOTAL FREE ENERGY PREDICTED BY IDOCK:   -6.25 KCAL/MOL
REMARK 923 INTER-LIGAND FREE ENERGY PREDICTED BY IDOCK:   -5.91 KCAL/MOL
REMARK 924 INTRA-LIGAND FREE ENERGY PREDICTED BY IDOCK:   -0.34 KCAL/MOL
REMARK 927      BINDING AFFINITY PREDICTED BY RF-SCORE:    0.00 PKD
ROOT
HETATM    1  C   UNL     1      -9.493  16.189  68.961  1.00  0.00    -0.246 C  
HETATM    2  C   UNL     1      -8.909  14.981  68.241  1.00  0.00    -0.172 C  
ENDROOT
BRANCH   2   3
HETATM    3  N   UNL     1      -9.892  14.378  67.320  1.00  0.00    -0.243 NA 
HETATM    4  C   UNL     1     -10.511  15.145  66.341  1.00  0.00    -0.297 C  
HETATM    5  C   UNL     1     -11.421  14.718  65.453  1.00  0.00    -0.341 C  
HETATM    6  C   UNL     1     -11.967  15.664  64.459  1.00  0.00    -0.120 C  
HETATM    7  C   UNL     1     -11.808  13.296  65.531  1.00  0.00    -0.370 C  
HETATM    8  C   UNL     1     -11.100  12.427  66.494  1.00  0.00    -0.346 A  
HETATM    9  O   UNL     1     -12.681  12.858  64.783  1.00  0.00    -0.647 OA 
HETATM   10  O   UNL     1     -11.623  16.836  64.387  1.00  0.00    -0.902 OA 
HETATM   11  O   UNL     1     -12.877  15.130  63.617  1.00  0.00    -0.473 OA 
HETATM   12  C   UNL     1     -11.377  11.058  66.499  1.00  0.00     0.047 A  
HETATM   13  C   UNL     1     -10.652  10.215  67.335  1.00  0.00    -0.272 A  
HETATM   14  F   UNL     1     -10.899   8.899  67.233  1.00  0.00    -0.351 F  
HETATM   15  C   UNL     1      -9.654  10.700  68.196  1.00  0.00    -0.157 A  
HETATM   16  C   UNL     1     -10.144  12.988  67.357  1.00  0.00    -0.231 A  
HETATM   17  C   UNL     1      -9.464  12.099  68.206  1.00  0.00    -0.204 A  
BRANCH  15  18
HETATM   18  N   UNL     1      -8.859   9.901  69.003  1.00  0.00    -0.146 NA 
HETATM   19  C   UNL     1      -7.428  10.155  69.235  1.00  0.00    -0.111 C  
HETATM   20  C   UNL     1      -7.129  10.322  70.744  1.00  0.00     0.406 C  
HETATM   21  N   UNL     1      -7.637   9.229  71.607  1.00  0.00    -0.310 NA 
HETATM   22  C   UNL     1      -9.083   9.067  71.347  1.00  0.00    -0.201 C  
HETATM   23  C   UNL     1      -6.916   7.978  71.377  1.00  0.00    -0.054 C  
HETATM   24  C   UNL     1      -9.470   8.869  69.863  1.00  0.00    -0.170 C  
ENDBRANCH  15  18
ENDBRANCH   2   3
TORSDOF 2
ENDMDL
MODEL       64
REMARK 921   NORMALIZED FREE ENERGY PREDICTED BY IDOCK:   -5.35 KCAL/MOL
REMARK 922        TOTAL FREE ENERGY PREDICTED BY IDOCK:   -6.22 KCAL/MOL
REMARK 923 INTER-LIGAND FREE ENERGY PREDICTED BY IDOCK:   -6.05 KCAL/MOL
REMARK 924 INTRA-LIGAND FREE ENERGY PREDICTED BY IDOCK:   -0.17 KCAL/MOL
REMARK 927      BINDING AFFINITY PREDICTED BY RF-SCORE:    0.00 PKD
ROOT
HETATM    1  C   UNL     1      -7.316  10.558  69.617  1.00  0.00    -0.151 C  
HETATM    2  C   UNL     1      -8.555   9.951  68.974  1.00  0.00    -0.149 C  
ENDROOT
BRANCH   2   3
HETATM    3  N   UNL     1      -9.157   8.916  69.838  1.00  0.00    -0.154 NA 
HETATM    4  C   UNL     1      -8.490   7.723  70.086  1.00  0.00    -0.134 C  
HETATM    5  C   UNL     1      -8.930   6.707  70.842  1.00  0.00    -0.147 C  
HETATM    6  C   UNL     1      -8.082   5.512  71.021  1.00  0.00    -0.118 C  
HETATM    7  C   UNL     1     -10.259   6.871  71.465  1.00  0.00    -0.196 C  
HETATM    8  C   UNL     1     -10.955   8.165  71.304  1.00  0.00    -0.281 A  
HETATM    9  O   UNL     1     -10.745   5.951  72.121  1.00  0.00    -0.213 OA 
HETATM   10  O   UNL     1      -6.972   5.395  70.520  1.00  0.00    -0.050 OA 
HETATM   11  O   UNL     1      -8.625   4.550  71.799  1.00  0.00    -0.112 OA 
HETATM   12  C   UNL     1     -12.160   8.372  71.980  1.00  0.00    -0.417 A  
HETATM   13  C   UNL     1     -12.778   9.616  71.912  1.00  0.00    -0.411 A  
HETATM   14  F   UNL     1     -13.885   9.786  72.654  1.00  0.00    -0.403 F  
HETATM   15  C   UNL     1     -12.238  10.676  71.165  1.00  0.00    -0.374 A  
HETATM   16  C   UNL     1     -10.377   9.165  70.505  1.00  0.00    -0.235 A  
HETATM   17  C   UNL     1     -11.059  10.392  70.442  1.00  0.00    -0.371 A  
BRANCH  15  18
HETATM   18  N   UNL     1     -12.776  11.952  71.113  1.00  0.00    -0.344 NA 
HETATM   19  C   UNL     1     -13.639  12.510  72.167  1.00  0.00    -0.360 C  
HETATM   20  C   UNL     1     -13.046  13.819  72.739  1.00  0.00    -0.331 C  
HETATM   21  N   UNL     1     -12.690  14.841  71.725  1.00  0.00    -0.313 NA 
HETATM   22  C   UNL     1     -11.791  14.216  70.734  1.00  0.00    -0.242 C  
HETATM   23  C   UNL     1     -13.878  15.401  71.083  1.00  0.00    -0.365 C  
HETATM   24  C   UNL     1     -12.318  12.913  70.090  1.00  0.00    -0.179 C  
ENDBRANCH  15  18
ENDBRANCH   2   3
TORSDOF 2
ENDMDL
MODEL       65
REMARK 921   NORMALIZED FREE ENERGY PREDICTED BY IDOCK:   -5.34 KCAL/MOL
REMARK 922        TOTAL FREE ENERGY PREDICTED BY IDOCK:   -6.20 KCAL/MOL
REMARK 923 INTER-LIGAND FREE ENERGY PREDICTED BY IDOCK:   -5.92 KCAL/MOL
REMARK 924 INTRA-LIGAND FREE ENERGY PREDICTED BY IDOCK:   -0.29 KCAL/MOL
REMARK 927      BINDING AFFINITY PREDICTED BY RF-SCORE:    0.00 PKD
ROOT
HETATM    1  C   UNL     1     -11.885  11.747  63.277  1.00  0.00    -0.342 C  
HETATM    2  C   UNL     1     -10.419  12.109  63.473  1.00  0.00    -0.454 C  
ENDROOT
BRANCH   2   3
HETATM    3  N   UNL     1      -9.878  11.509  64.708  1.00  0.00    -0.248 NA 
HETATM    4  C   UNL     1      -9.343  10.227  64.700  1.00  0.00    -0.266 C  
HETATM    5  C   UNL     1      -8.829   9.572  65.751  1.00  0.00    -0.193 C  
HETATM    6  C   UNL     1      -8.280   8.215  65.565  1.00  0.00    -0.144 C  
HETATM    7  C   UNL     1      -8.842  10.282  67.045  1.00  0.00    -0.136 C  
HETATM    8  C   UNL     1      -9.311  11.683  67.074  1.00  0.00    -0.186 A  
HETATM    9  O   UNL     1      -8.439   9.713  68.059  1.00  0.00    -0.117 OA 
HETATM   10  O   UNL     1      -8.253   7.643  64.483  1.00  0.00    -0.131 OA 
HETATM   11  O   UNL     1      -7.791   7.648  66.689  1.00  0.00    -0.102 OA 
HETATM   12  C   UNL     1      -9.223  12.401  68.269  1.00  0.00    -0.189 A  
HETATM   13  C   UNL     1      -9.575  13.747  68.287  1.00  0.00    -0.219 A  
HETATM   14  F   UNL     1      -9.384  14.408  69.440  1.00  0.00    -0.071 F  
HETATM   15  C   UNL     1     -10.038  14.410  67.139  1.00  0.00    -0.253 A  
HETATM   16  C   UNL     1      -9.805  12.270  65.897  1.00  0.00    -0.251 A  
HETATM   17  C   UNL     1     -10.179  13.622  65.977  1.00  0.00    -0.312 A  
BRANCH  15  18
HETATM   18  N   UNL     1     -10.342  15.762  67.084  1.00  0.00    -0.285 NA 
HETATM   19  C   UNL     1     -10.985  16.492  68.188  1.00  0.00    -0.336 C  
HETATM   20  C   UNL     1     -10.115  17.684  68.651  1.00  0.00    -0.377 C  
HETATM   21  N   UNL     1      -9.682  18.600  67.569  1.00  0.00    -0.303 NA 
HETATM   22  C   UNL     1      -9.009  17.799  66.526  1.00  0.00    -0.261 C  
HETATM   23  C   UNL     1     -10.807  19.352  67.014  1.00  0.00    -0.432 C  
HETATM   24  C   UNL     1      -9.820  16.599  65.986  1.00  0.00    -0.309 C  
ENDBRANCH  15  18
ENDBRANCH   2   3
TORSDOF 2
ENDMDL
MODEL       66
REMARK 921   NORMALIZED FREE ENERGY PREDICTED BY IDOCK:   -5.29 KCAL/MOL
REMARK 922        TOTAL FREE ENERGY PREDICTED BY IDOCK:   -6.15 KCAL/MOL
REMARK 923 INTER-LIGAND FREE ENERGY PREDICTED BY IDOCK:   -5.64 KCAL/MOL
REMARK 924 INTRA-LIGAND FREE ENERGY PREDICTED BY IDOCK:   -0.50 KCAL/MOL
REMARK 927      BINDING AFFINITY PREDICTED BY RF-SCORE:    0.00 PKD
ROOT
HETATM    1  C   UNL     1     -12.147  12.944  69.946  1.00  0.00    -0.335 C  
HETATM    2  C   UNL     1     -12.195  11.478  69.535  1.00  0.00    -0.221 C  
ENDROOT
BRANCH   2   3
HETATM    3  N   UNL     1     -11.670  11.286  68.169  1.00  0.00    -0.539 NA 
HETATM    4  C   UNL     1     -11.859  12.255  67.192  1.00  0.00    -0.258 C  
HETATM    5  C   UNL     1     -11.438  12.196  65.920  1.00  0.00    -0.418 C  
HETATM    6  C   UNL     1     -11.706  13.329  65.013  1.00  0.00    -0.333 C  
HETATM    7  C   UNL     1     -10.712  10.976  65.518  1.00  0.00    -0.148 C  
HETATM    8  C   UNL     1     -10.406   9.966  66.553  1.00  0.00    -0.259 A  
HETATM    9  O   UNL     1     -10.353  10.835  64.350  1.00  0.00    -0.353 OA 
HETATM   10  O   UNL     1     -12.289  14.346  65.361  1.00  0.00    -0.396 OA 
HETATM   11  O   UNL     1     -11.242  13.162  63.755  1.00  0.00    -0.379 OA 
HETATM   12  C   UNL     1      -9.623   8.862  66.210  1.00  0.00    -0.328 A  
HETATM   13  C   UNL     1      -9.250   7.953  67.195  1.00  0.00    -0.146 A  
HETATM   14  F   UNL     1      -8.423   6.962  66.825  1.00  0.00    -0.109 F  
HETATM   15  C   UNL     1      -9.654   8.099  68.532  1.00  0.00    -0.148 A  
HETATM   16  C   UNL     1     -10.880  10.154  67.862  1.00  0.00    -0.284 A  
HETATM   17  C   UNL     1     -10.504   9.190  68.812  1.00  0.00    -0.236 A  
BRANCH  15  18
HETATM   18  N   UNL     1      -9.261   7.261  69.565  1.00  0.00    -0.149 NA 
HETATM   19  C   UNL     1      -9.656   5.846  69.653  1.00  0.00    -0.148 C  
HETATM   20  C   UNL     1      -8.416   4.923  69.713  1.00  0.00    -0.083 C  
HETATM   21  N   UNL     1      -7.420   5.279  70.752  1.00  0.00    -0.073 NA 
HETATM   22  C   UNL     1      -7.044   6.695  70.567  1.00  0.00    -0.068 C  
HETATM   23  C   UNL     1      -7.936   5.040  72.099  1.00  0.00    -0.111 C  
HETATM   24  C   UNL     1      -8.224   7.694  70.521  1.00  0.00    -0.121 C  
ENDBRANCH  15  18
ENDBRANCH   2   3
TORSDOF 2
ENDMDL
MODEL       67
REMARK 921   NORMALIZED FREE ENERGY PREDICTED BY IDOCK:   -5.29 KCAL/MOL
REMARK 922        TOTAL FREE ENERGY PREDICTED BY IDOCK:   -6.15 KCAL/MOL
REMARK 923 INTER-LIGAND FREE ENERGY PREDICTED BY IDOCK:   -5.92 KCAL/MOL
REMARK 924 INTRA-LIGAND FREE ENERGY PREDICTED BY IDOCK:   -0.23 KCAL/MOL
REMARK 927      BINDING AFFINITY PREDICTED BY RF-SCORE:    0.00 PKD
ROOT
HETATM    1  C   UNL     1     -12.536  13.273  65.084  1.00  0.00    -0.525 C  
HETATM    2  C   UNL     1     -11.336  13.852  64.347  1.00  0.00    -0.341 C  
ENDROOT
BRANCH   2   3
HETATM    3  N   UNL     1     -10.501  14.676  65.243  1.00  0.00    -0.369 NA 
HETATM    4  C   UNL     1     -10.612  16.060  65.244  1.00  0.00    -0.402 C  
HETATM    5  C   UNL     1      -9.909  16.915  66.002  1.00  0.00    -0.281 C  
HETATM    6  C   UNL     1     -10.168  18.364  65.894  1.00  0.00    -0.233 C  
HETATM    7  C   UNL     1      -8.914  16.325  66.918  1.00  0.00    -0.217 C  
HETATM    8  C   UNL     1      -8.836  14.852  67.017  1.00  0.00    -0.255 A  
HETATM    9  O   UNL     1      -8.196  17.058  67.596  1.00  0.00    -0.181 OA 
HETATM   10  O   UNL     1     -11.011  18.843  65.148  1.00  0.00    -0.491 OA 
HETATM   11  O   UNL     1      -9.403  19.132  66.700  1.00  0.00    -0.310 OA 
HETATM   12  C   UNL     1      -7.978  14.282  67.961  1.00  0.00    -0.142 A  
HETATM   13  C   UNL     1      -7.963  12.902  68.128  1.00  0.00    -0.153 A  
HETATM   14  F   UNL     1      -7.186  12.418  69.110  1.00  0.00    -0.101 F  
HETATM   15  C   UNL     1      -8.774  12.051  67.360  1.00  0.00    -0.170 A  
HETATM   16  C   UNL     1      -9.646  14.060  66.186  1.00  0.00    -0.241 A  
HETATM   17  C   UNL     1      -9.568  12.670  66.371  1.00  0.00    -0.248 A  
BRANCH  15  18
HETATM   18  N   UNL     1      -8.846  10.676  67.527  1.00  0.00    -0.132 NA 
HETATM   19  C   UNL     1      -9.260  10.034  68.785  1.00  0.00    -0.159 C  
HETATM   20  C   UNL     1     -10.481   9.110  68.565  1.00  0.00    -0.204 C  
HETATM   21  N   UNL     1     -10.328   8.121  67.471  1.00  0.00    -0.243 NA 
HETATM   22  C   UNL     1      -9.958   8.847  66.239  1.00  0.00    -0.266 C  
HETATM   23  C   UNL     1      -9.336   7.099  67.801  1.00  0.00    -0.127 C  
HETATM   24  C   UNL     1      -8.729   9.777  66.362  1.00  0.00    -0.131 C  
ENDBRANCH  15  18
ENDBRANCH   2   3
TORSDOF 2
ENDMDL
MODEL       68
REMARK 921   NORMALIZED FREE ENERGY PREDICTED BY IDOCK:   -5.25 KCAL/MOL
REMARK 922        TOTAL FREE ENERGY PREDICTED BY IDOCK:   -6.10 KCAL/MOL
REMARK 923 INTER-LIGAND FREE ENERGY PREDICTED BY IDOCK:   -5.70 KCAL/MOL
REMARK 924 INTRA-LIGAND FREE ENERGY PREDICTED BY IDOCK:   -0.40 KCAL/MOL
REMARK 927      BINDING AFFINITY PREDICTED BY RF-SCORE:    0.00 PKD
ROOT
HETATM    1  C   UNL     1      -8.433  15.318  69.283  1.00  0.00    -0.238 C  
HETATM    2  C   UNL     1      -8.066  14.285  68.227  1.00  0.00    -0.143 C  
ENDROOT
BRANCH   2   3
HETATM    3  N   UNL     1      -9.028  14.295  67.107  1.00  0.00    -0.215 NA 
HETATM    4  C   UNL     1      -9.530  15.493  66.613  1.00  0.00    -0.259 C  
HETATM    5  C   UNL     1     -10.409  15.633  65.610  1.00  0.00    -0.408 C  
HETATM    6  C   UNL     1     -10.824  16.987  65.193  1.00  0.00    -0.049 C  
HETATM    7  C   UNL     1     -10.897  14.393  64.976  1.00  0.00    -0.407 C  
HETATM    8  C   UNL     1     -10.312  13.106  65.408  1.00  0.00    -0.313 A  
HETATM    9  O   UNL     1     -11.749  14.452  64.091  1.00  0.00    -0.332 OA 
HETATM   10  O   UNL     1     -10.397  18.011  65.708  1.00  0.00    -0.583 OA 
HETATM   11  O   UNL     1     -11.715  17.012  64.177  1.00  0.00    -0.782 OA 
HETATM   12  C   UNL     1     -10.682  11.937  64.740  1.00  0.00    -0.356 A  
HETATM   13  C   UNL     1     -10.071  10.733  65.074  1.00  0.00    -0.313 A  
HETATM   14  F   UNL     1     -10.401   9.660  64.338  1.00  0.00     0.052 F  
HETATM   15  C   UNL     1      -9.098  10.648  66.084  1.00  0.00    -0.170 A  
HETATM   16  C   UNL     1      -9.376  13.090  66.456  1.00  0.00    -0.217 A  
HETATM   17  C   UNL     1      -8.813  11.844  66.778  1.00  0.00    -0.193 A  
BRANCH  15  18
HETATM   18  N   UNL     1      -8.412   9.490  66.415  1.00  0.00    -0.125 NA 
HETATM   19  C   UNL     1      -8.551   8.810  67.713  1.00  0.00    -0.129 C  
HETATM   20  C   UNL     1      -9.010   7.345  67.530  1.00  0.00    -0.126 C  
HETATM   21  N   UNL     1      -8.197   6.548  66.580  1.00  0.00    -0.111 NA 
HETATM   22  C   UNL     1      -8.144   7.274  65.294  1.00  0.00    -0.134 C  
HETATM   23  C   UNL     1      -6.854   6.294  67.099  1.00  0.00    -0.066 C  
HETATM   24  C   UNL     1      -7.669   8.743  65.381  1.00  0.00    -0.089 C  
ENDBRANCH  15  18
ENDBRANCH   2   3
TORSDOF 2
ENDMDL
MODEL       69
REMARK 921   NORMALIZED FREE ENERGY PREDICTED BY IDOCK:   -5.25 KCAL/MOL
REMARK 922        TOTAL FREE ENERGY PREDICTED BY IDOCK:   -6.10 KCAL/MOL
REMARK 923 INTER-LIGAND FREE ENERGY PREDICTED BY IDOCK:   -5.67 KCAL/MOL
REMARK 924 INTRA-LIGAND FREE ENERGY PREDICTED BY IDOCK:   -0.43 KCAL/MOL
REMARK 927      BINDING AFFINITY PREDICTED BY RF-SCORE:    0.00 PKD
ROOT
HETATM    1  C   UNL     1      -9.017   9.612  69.741  1.00  0.00    -0.226 C  
HETATM    2  C   UNL     1      -8.237  10.596  68.881  1.00  0.00    -0.145 C  
ENDROOT
BRANCH   2   3
HETATM    3  N   UNL     1      -8.824  10.713  67.531  1.00  0.00    -0.132 NA 
HETATM    4  C   UNL     1      -8.429   9.861  66.508  1.00  0.00    -0.125 C  
HETATM    5  C   UNL     1      -8.879   9.871  65.245  1.00  0.00    -0.210 C  
HETATM    6  C   UNL     1      -8.367   8.876  64.283  1.00  0.00    -0.169 C  
HETATM    7  C   UNL     1      -9.888  10.895  64.909  1.00  0.00    -0.284 C  
HETATM    8  C   UNL     1     -10.405  11.755  65.994  1.00  0.00    -0.276 A  
HETATM    9  O   UNL     1     -10.297  10.994  63.753  1.00  0.00    -0.342 OA 
HETATM   10  O   UNL     1      -7.548   8.016  64.576  1.00  0.00    -0.099 OA 
HETATM   11  O   UNL     1      -8.886   8.978  63.040  1.00  0.00    -0.172 OA 
HETATM   12  C   UNL     1     -11.440  12.650  65.712  1.00  0.00    -0.399 A  
HETATM   13  C   UNL     1     -11.998  13.399  66.742  1.00  0.00    -0.394 A  
HETATM   14  F   UNL     1     -13.048  14.175  66.429  1.00  0.00    -0.307 F  
HETATM   15  C   UNL     1     -11.541  13.299  68.066  1.00  0.00    -0.336 A  
HETATM   16  C   UNL     1      -9.870  11.632  67.287  1.00  0.00    -0.187 A  
HETATM   17  C   UNL     1     -10.446  12.435  68.285  1.00  0.00    -0.234 A  
BRANCH  15  18
HETATM   18  N   UNL     1     -12.101  13.972  69.142  1.00  0.00    -0.355 NA 
HETATM   19  C   UNL     1     -12.827  13.297  70.230  1.00  0.00     0.153 C  
HETATM   20  C   UNL     1     -12.184  13.602  71.603  1.00  0.00     0.078 C  
HETATM   21  N   UNL     1     -11.979  15.042  71.892  1.00  0.00    -0.365 NA 
HETATM   22  C   UNL     1     -11.208  15.633  70.779  1.00  0.00    -0.367 C  
HETATM   23  C   UNL     1     -13.249  15.740  72.085  1.00  0.00    -0.428 C  
HETATM   24  C   UNL     1     -11.795  15.398  69.368  1.00  0.00    -0.351 C  
ENDBRANCH  15  18
ENDBRANCH   2   3
TORSDOF 2
ENDMDL
MODEL       70
REMARK 921   NORMALIZED FREE ENERGY PREDICTED BY IDOCK:   -5.22 KCAL/MOL
REMARK 922        TOTAL FREE ENERGY PREDICTED BY IDOCK:   -6.06 KCAL/MOL
REMARK 923 INTER-LIGAND FREE ENERGY PREDICTED BY IDOCK:   -5.56 KCAL/MOL
REMARK 924 INTRA-LIGAND FREE ENERGY PREDICTED BY IDOCK:   -0.50 KCAL/MOL
REMARK 927      BINDING AFFINITY PREDICTED BY RF-SCORE:    0.00 PKD
ROOT
HETATM    1  C   UNL     1     -10.262   8.065  72.720  1.00  0.00    -0.389 C  
HETATM    2  C   UNL     1     -10.225   8.978  71.502  1.00  0.00    -0.344 C  
ENDROOT
BRANCH   2   3
HETATM    3  N   UNL     1     -10.089   8.203  70.253  1.00  0.00    -0.190 NA 
HETATM    4  C   UNL     1     -10.063   6.814  70.278  1.00  0.00    -0.179 C  
HETATM    5  C   UNL     1      -9.938   6.002  69.219  1.00  0.00    -0.207 C  
HETATM    6  C   UNL     1      -9.950   4.539  69.419  1.00  0.00    -0.142 C  
HETATM    7  C   UNL     1      -9.806   6.648  67.899  1.00  0.00    -0.124 C  
HETATM    8  C   UNL     1      -9.929   8.119  67.821  1.00  0.00    -0.230 A  
HETATM    9  O   UNL     1      -9.628   5.959  66.895  1.00  0.00    -0.131 OA 
HETATM   10  O   UNL     1     -10.082   4.012  70.515  1.00  0.00    -0.135 OA 
HETATM   11  O   UNL     1      -9.814   3.816  68.286  1.00  0.00    -0.086 OA 
HETATM   12  C   UNL     1      -9.918   8.733  66.566  1.00  0.00    -0.360 A  
HETATM   13  C   UNL     1     -10.125  10.105  66.473  1.00  0.00    -0.234 A  
HETATM   14  F   UNL     1     -10.195  10.626  65.237  1.00  0.00    -0.305 F  
HETATM   15  C   UNL     1     -10.327  10.906  67.609  1.00  0.00    -0.197 A  
HETATM   16  C   UNL     1     -10.084   8.862  69.003  1.00  0.00    -0.197 A  
HETATM   17  C   UNL     1     -10.255  10.249  68.856  1.00  0.00    -0.220 A  
BRANCH  15  18
HETATM   18  N   UNL     1     -10.600  12.265  67.571  1.00  0.00    -0.215 NA 
HETATM   19  C   UNL     1     -11.882  12.845  68.003  1.00  0.00    -0.343 C  
HETATM   20  C   UNL     1     -11.672  13.890  69.123  1.00  0.00    -0.338 C  
HETATM   21  N   UNL     1     -10.671  14.941  68.819  1.00  0.00    -0.244 NA 
HETATM   22  C   UNL     1      -9.406  14.279  68.440  1.00  0.00    -0.208 C  
HETATM   23  C   UNL     1     -11.135  15.840  67.763  1.00  0.00    -0.313 C  
HETATM   24  C   UNL     1      -9.520  13.234  67.306  1.00  0.00    -0.233 C  
ENDBRANCH  15  18
ENDBRANCH   2   3
TORSDOF 2
ENDMDL
MODEL       71
REMARK 921   NORMALIZED FREE ENERGY PREDICTED BY IDOCK:   -5.16 KCAL/MOL
REMARK 922        TOTAL FREE ENERGY PREDICTED BY IDOCK:   -6.00 KCAL/MOL
REMARK 923 INTER-LIGAND FREE ENERGY PREDICTED BY IDOCK:   -6.05 KCAL/MOL
REMARK 924 INTRA-LIGAND FREE ENERGY PREDICTED BY IDOCK:    0.05 KCAL/MOL
REMARK 927      BINDING AFFINITY PREDICTED BY RF-SCORE:    0.00 PKD
ROOT
HETATM    1  C   UNL     1      -7.548   7.279  63.175  1.00  0.00    -0.113 C  
HETATM    2  C   UNL     1      -8.115   8.507  63.874  1.00  0.00    -0.155 C  
ENDROOT
BRANCH   2   3
HETATM    3  N   UNL     1      -8.604   8.177  65.227  1.00  0.00    -0.142 NA 
HETATM    4  C   UNL     1      -8.162   7.036  65.884  1.00  0.00    -0.133 C  
HETATM    5  C   UNL     1      -8.535   6.625  67.105  1.00  0.00    -0.113 C  
HETATM    6  C   UNL     1      -7.949   5.392  67.667  1.00  0.00    -0.100 C  
HETATM    7  C   UNL     1      -9.518   7.466  67.816  1.00  0.00    -0.140 C  
HETATM    8  C   UNL     1      -9.936   8.739  67.192  1.00  0.00    -0.295 A  
HETATM    9  O   UNL     1      -9.944   7.112  68.914  1.00  0.00    -0.157 OA 
HETATM   10  O   UNL     1      -7.118   4.714  67.080  1.00  0.00    -0.069 OA 
HETATM   11  O   UNL     1      -8.397   5.071  68.901  1.00  0.00    -0.084 OA 
HETATM   12  C   UNL     1     -10.778   9.596  67.904  1.00  0.00    -0.302 A  
HETATM   13  C   UNL     1     -11.105  10.837  67.368  1.00  0.00    -0.296 A  
HETATM   14  F   UNL     1     -11.844  11.655  68.135  1.00  0.00    -0.350 F  
HETATM   15  C   UNL     1     -10.629  11.254  66.114  1.00  0.00    -0.258 A  
HETATM   16  C   UNL     1      -9.455   9.073  65.915  1.00  0.00    -0.249 A  
HETATM   17  C   UNL     1      -9.842  10.322  65.403  1.00  0.00    -0.362 A  
BRANCH  15  18
HETATM   18  N   UNL     1     -10.870  12.502  65.560  1.00  0.00    -0.271 NA 
HETATM   19  C   UNL     1     -10.636  12.817  64.141  1.00  0.00    -0.415 C  
HETATM   20  C   UNL     1     -11.929  13.324  63.461  1.00  0.00    -0.474 C  
HETATM   21  N   UNL     1     -12.610  14.438  64.164  1.00  0.00    -0.745 NA 
HETATM   22  C   UNL     1     -12.848  14.028  65.563  1.00  0.00    -0.419 C  
HETATM   23  C   UNL     1     -11.830  15.673  64.101  1.00  0.00    -0.068 C  
HETATM   24  C   UNL     1     -11.600  13.530  66.328  1.00  0.00    -0.345 C  
ENDBRANCH  15  18
ENDBRANCH   2   3
TORSDOF 2
ENDMDL
MODEL       72
REMARK 921   NORMALIZED FREE ENERGY PREDICTED BY IDOCK:   -5.15 KCAL/MOL
REMARK 922        TOTAL FREE ENERGY PREDICTED BY IDOCK:   -5.99 KCAL/MOL
REMARK 923 INTER-LIGAND FREE ENERGY PREDICTED BY IDOCK:   -5.79 KCAL/MOL
REMARK 924 INTRA-LIGAND FREE ENERGY PREDICTED BY IDOCK:   -0.20 KCAL/MOL
REMARK 927      BINDING AFFINITY PREDICTED BY RF-SCORE:    0.00 PKD
ROOT
HETATM    1  C   UNL     1     -12.007  15.775  64.195  1.00  0.00     0.012 C  
HETATM    2  C   UNL     1     -10.710  15.966  64.968  1.00  0.00    -0.404 C  
ENDROOT
BRANCH   2   3
HETATM    3  N   UNL     1     -10.235  14.693  65.544  1.00  0.00    -0.346 NA 
HETATM    4  C   UNL     1     -10.518  13.482  64.923  1.00  0.00    -0.402 C  
HETATM    5  C   UNL     1     -10.151  12.265  65.348  1.00  0.00    -0.292 C  
HETATM    6  C   UNL     1     -10.519  11.076  64.553  1.00  0.00    -0.342 C  
HETATM    7  C   UNL     1      -9.378  12.205  66.603  1.00  0.00    -0.226 C  
HETATM    8  C   UNL     1      -8.972  13.476  67.240  1.00  0.00    -0.222 A  
HETATM    9  O   UNL     1      -9.063  11.114  67.077  1.00  0.00    -0.150 OA 
HETATM   10  O   UNL     1     -11.140  11.137  63.501  1.00  0.00    -0.300 OA 
HETATM   11  O   UNL     1     -10.102   9.902  65.074  1.00  0.00    -0.286 OA 
HETATM   12  C   UNL     1      -8.146  13.435  68.366  1.00  0.00    -0.138 A  
HETATM   13  C   UNL     1      -7.682  14.624  68.919  1.00  0.00    -0.141 A  
HETATM   14  F   UNL     1      -6.820  14.521  69.943  1.00  0.00    -0.142 F  
HETATM   15  C   UNL     1      -8.035  15.877  68.392  1.00  0.00    -0.147 A  
HETATM   16  C   UNL     1      -9.399  14.694  66.684  1.00  0.00    -0.271 A  
HETATM   17  C   UNL     1      -8.930  15.866  67.301  1.00  0.00    -0.209 A  
BRANCH  15  18
HETATM   18  N   UNL     1      -7.553  17.089  68.863  1.00  0.00    -0.243 NA 
HETATM   19  C   UNL     1      -6.217  17.251  69.459  1.00  0.00    -0.251 C  
HETATM   20  C   UNL     1      -5.389  18.310  68.694  1.00  0.00    -0.169 C  
HETATM   21  N   UNL     1      -6.065  19.615  68.503  1.00  0.00    -0.228 NA 
HETATM   22  C   UNL     1      -7.373  19.370  67.861  1.00  0.00    -0.260 C  
HETATM   23  C   UNL     1      -6.223  20.333  69.767  1.00  0.00    -0.320 C  
HETATM   24  C   UNL     1      -8.279  18.341  68.576  1.00  0.00    -0.312 C  
ENDBRANCH  15  18
ENDBRANCH   2   3
TORSDOF 2
ENDMDL
MODEL       73
REMARK 921   NORMALIZED FREE ENERGY PREDICTED BY IDOCK:   -5.14 KCAL/MOL
REMARK 922        TOTAL FREE ENERGY PREDICTED BY IDOCK:   -5.98 KCAL/MOL
REMARK 923 INTER-LIGAND FREE ENERGY PREDICTED BY IDOCK:   -5.48 KCAL/MOL
REMARK 924 INTRA-LIGAND FREE ENERGY PREDICTED BY IDOCK:   -0.50 KCAL/MOL
REMARK 927      BINDING AFFINITY PREDICTED BY RF-SCORE:    0.00 PKD
ROOT
HETATM    1  C   UNL     1     -12.403  10.696  70.898  1.00  0.00    -0.502 C  
HETATM    2  C   UNL     1     -12.347  11.568  69.651  1.00  0.00    -0.142 C  
ENDROOT
BRANCH   2   3
HETATM    3  N   UNL     1     -11.256  11.148  68.750  1.00  0.00    -0.228 NA 
HETATM    4  C   UNL     1     -11.194   9.847  68.268  1.00  0.00    -0.074 C  
HETATM    5  C   UNL     1     -10.256   9.344  67.453  1.00  0.00    -0.298 C  
HETATM    6  C   UNL     1     -10.351   7.937  67.016  1.00  0.00    -0.341 C  
HETATM    7  C   UNL     1      -9.178  10.261  67.036  1.00  0.00    -0.150 C  
HETATM    8  C   UNL     1      -9.263  11.679  67.448  1.00  0.00    -0.168 A  
HETATM    9  O   UNL     1      -8.255   9.844  66.337  1.00  0.00    -0.116 OA 
HETATM   10  O   UNL     1     -11.261   7.190  67.348  1.00  0.00    -0.194 OA 
HETATM   11  O   UNL     1      -9.352   7.534  66.200  1.00  0.00    -0.155 OA 
HETATM   12  C   UNL     1      -8.310  12.580  66.967  1.00  0.00    -0.144 A  
HETATM   13  C   UNL     1      -8.432  13.932  67.271  1.00  0.00    -0.200 A  
HETATM   14  F   UNL     1      -7.540  14.764  66.709  1.00  0.00    -0.153 F  
HETATM   15  C   UNL     1      -9.478  14.424  68.069  1.00  0.00    -0.209 A  
HETATM   16  C   UNL     1     -10.312  12.092  68.284  1.00  0.00    -0.212 A  
HETATM   17  C   UNL     1     -10.370  13.462  68.590  1.00  0.00    -0.213 A  
BRANCH  15  18
HETATM   18  N   UNL     1      -9.683  15.765  68.352  1.00  0.00    -0.200 NA 
HETATM   19  C   UNL     1      -8.736  16.583  69.127  1.00  0.00    -0.150 C  
HETATM   20  C   UNL     1      -8.265  17.812  68.314  1.00  0.00    -0.285 C  
HETATM   21  N   UNL     1      -9.354  18.636  67.737  1.00  0.00    -0.288 NA 
HETATM   22  C   UNL     1     -10.231  17.752  66.941  1.00  0.00    -0.346 C  
HETATM   23  C   UNL     1     -10.110  19.336  68.774  1.00  0.00    -0.401 C  
HETATM   24  C   UNL     1     -10.770  16.509  67.686  1.00  0.00    -0.311 C  
ENDBRANCH  15  18
ENDBRANCH   2   3
TORSDOF 2
ENDMDL
MODEL       74
REMARK 921   NORMALIZED FREE ENERGY PREDICTED BY IDOCK:   -5.14 KCAL/MOL
REMARK 922        TOTAL FREE ENERGY PREDICTED BY IDOCK:   -5.98 KCAL/MOL
REMARK 923 INTER-LIGAND FREE ENERGY PREDICTED BY IDOCK:   -5.64 KCAL/MOL
REMARK 924 INTRA-LIGAND FREE ENERGY PREDICTED BY IDOCK:   -0.34 KCAL/MOL
REMARK 927      BINDING AFFINITY PREDICTED BY RF-SCORE:    0.00 PKD
ROOT
HETATM    1  C   UNL     1      -9.588   8.977  70.209  1.00  0.00    -0.230 C  
HETATM    2  C   UNL     1     -10.462   8.578  69.028  1.00  0.00    -0.200 C  
ENDROOT
BRANCH   2   3
HETATM    3  N   UNL     1      -9.678   7.880  67.990  1.00  0.00    -0.155 NA 
HETATM    4  C   UNL     1      -9.245   6.575  68.185  1.00  0.00    -0.112 C  
HETATM    5  C   UNL     1      -8.524   5.839  67.326  1.00  0.00    -0.107 C  
HETATM    6  C   UNL     1      -8.164   4.452  67.682  1.00  0.00    -0.099 C  
HETATM    7  C   UNL     1      -8.146   6.485  66.054  1.00  0.00    -0.121 C  
HETATM    8  C   UNL     1      -8.671   7.837  65.769  1.00  0.00    -0.160 A  
HETATM    9  O   UNL     1      -7.435   5.884  65.250  1.00  0.00    -0.077 OA 
HETATM   10  O   UNL     1      -8.501   3.917  68.729  1.00  0.00    -0.076 OA 
HETATM   11  O   UNL     1      -7.435   3.805  66.747  1.00  0.00    -0.077 OA 
HETATM   12  C   UNL     1      -8.414   8.413  64.523  1.00  0.00    -0.078 A  
HETATM   13  C   UNL     1      -8.979   9.644  64.207  1.00  0.00    -0.229 A  
HETATM   14  F   UNL     1      -8.771  10.107  62.964  1.00  0.00    -0.147 F  
HETATM   15  C   UNL     1      -9.791  10.344  65.115  1.00  0.00    -0.313 A  
HETATM   16  C   UNL     1      -9.441   8.498  66.741  1.00  0.00    -0.194 A  
HETATM   17  C   UNL     1      -9.959   9.754  66.386  1.00  0.00    -0.314 A  
BRANCH  15  18
HETATM   18  N   UNL     1     -10.430  11.542  64.832  1.00  0.00    -0.276 NA 
HETATM   19  C   UNL     1     -11.136  11.803  63.567  1.00  0.00    -0.422 C  
HETATM   20  C   UNL     1     -12.615  12.178  63.821  1.00  0.00    -0.475 C  
HETATM   21  N   UNL     1     -12.825  13.271  64.801  1.00  0.00    -0.720 NA 
HETATM   22  C   UNL     1     -12.125  12.913  66.051  1.00  0.00    -0.422 C  
HETATM   23  C   UNL     1     -12.358  14.557  64.284  1.00  0.00    -0.369 C  
HETATM   24  C   UNL     1     -10.631  12.548  65.893  1.00  0.00    -0.265 C  
ENDBRANCH  15  18
ENDBRANCH   2   3
TORSDOF 2
ENDMDL
MODEL       75
REMARK 921   NORMALIZED FREE ENERGY PREDICTED BY IDOCK:   -5.12 KCAL/MOL
REMARK 922        TOTAL FREE ENERGY PREDICTED BY IDOCK:   -5.95 KCAL/MOL
REMARK 923 INTER-LIGAND FREE ENERGY PREDICTED BY IDOCK:   -5.44 KCAL/MOL
REMARK 924 INTRA-LIGAND FREE ENERGY PREDICTED BY IDOCK:   -0.51 KCAL/MOL
REMARK 927      BINDING AFFINITY PREDICTED BY RF-SCORE:    0.00 PKD
ROOT
HETATM    1  C   UNL     1      -5.500  13.836  67.847  1.00  0.00    -0.097 C  
HETATM    2  C   UNL     1      -6.591  12.777  67.754  1.00  0.00    -0.134 C  
ENDROOT
BRANCH   2   3
HETATM    3  N   UNL     1      -7.932  13.391  67.690  1.00  0.00    -0.160 NA 
HETATM    4  C   UNL     1      -8.120  14.624  67.080  1.00  0.00    -0.185 C  
HETATM    5  C   UNL     1      -9.281  15.286  66.964  1.00  0.00    -0.235 C  
HETATM    6  C   UNL     1      -9.310  16.585  66.263  1.00  0.00    -0.302 C  
HETATM    7  C   UNL     1     -10.472  14.643  67.552  1.00  0.00    -0.247 C  
HETATM    8  C   UNL     1     -10.330  13.286  68.121  1.00  0.00    -0.246 A  
HETATM    9  O   UNL     1     -11.555  15.227  67.531  1.00  0.00    -0.316 OA 
HETATM   10  O   UNL     1      -8.321  17.100  65.760  1.00  0.00    -0.519 OA 
HETATM   11  O   UNL     1     -10.529  17.165  66.208  1.00  0.00    -0.319 OA 
HETATM   12  C   UNL     1     -11.471  12.622  68.578  1.00  0.00    -0.349 A  
HETATM   13  C   UNL     1     -11.365  11.311  69.031  1.00  0.00    -0.278 A  
HETATM   14  F   UNL     1     -12.507  10.694  69.373  1.00  0.00    -0.350 F  
HETATM   15  C   UNL     1     -10.136  10.633  69.063  1.00  0.00    -0.213 A  
HETATM   16  C   UNL     1      -9.061  12.685  68.162  1.00  0.00    -0.204 A  
HETATM   17  C   UNL     1      -9.004  11.372  68.661  1.00  0.00    -0.133 A  
BRANCH  15  18
HETATM   18  N   UNL     1      -9.983   9.308  69.444  1.00  0.00    -0.175 NA 
HETATM   19  C   UNL     1      -9.907   8.194  68.486  1.00  0.00    -0.179 C  
HETATM   20  C   UNL     1      -8.592   7.398  68.658  1.00  0.00    -0.129 C  
HETATM   21  N   UNL     1      -8.309   6.949  70.042  1.00  0.00    -0.137 NA 
HETATM   22  C   UNL     1      -8.360   8.128  70.931  1.00  0.00    -0.121 C  
HETATM   23  C   UNL     1      -9.249   5.917  70.478  1.00  0.00    -0.152 C  
HETATM   24  C   UNL     1      -9.654   8.969  70.842  1.00  0.00    -0.262 C  
ENDBRANCH  15  18
ENDBRANCH   2   3
TORSDOF 2
ENDMDL
MODEL       76
REMARK 921   NORMALIZED FREE ENERGY PREDICTED BY IDOCK:   -5.09 KCAL/MOL
REMARK 922        TOTAL FREE ENERGY PREDICTED BY IDOCK:   -5.93 KCAL/MOL
REMARK 923 INTER-LIGAND FREE ENERGY PREDICTED BY IDOCK:   -5.64 KCAL/MOL
REMARK 924 INTRA-LIGAND FREE ENERGY PREDICTED BY IDOCK:   -0.28 KCAL/MOL
REMARK 927      BINDING AFFINITY PREDICTED BY RF-SCORE:    0.00 PKD
ROOT
HETATM    1  C   UNL     1      -8.489  12.629  68.402  1.00  0.00    -0.121 C  
HETATM    2  C   UNL     1      -9.541  11.625  67.953  1.00  0.00    -0.180 C  
ENDROOT
BRANCH   2   3
HETATM    3  N   UNL     1     -10.467  11.288  69.052  1.00  0.00    -0.212 NA 
HETATM    4  C   UNL     1     -11.290  12.259  69.611  1.00  0.00    -0.137 C  
HETATM    5  C   UNL     1     -12.163  12.082  70.612  1.00  0.00    -0.409 C  
HETATM    6  C   UNL     1     -12.981  13.221  71.074  1.00  0.00    -0.156 C  
HETATM    7  C   UNL     1     -12.252  10.723  71.183  1.00  0.00    -0.352 C  
HETATM    8  C   UNL     1     -11.465   9.643  70.551  1.00  0.00    -0.352 A  
HETATM    9  O   UNL     1     -12.991  10.510  72.143  1.00  0.00    -0.435 OA 
HETATM   10  O   UNL     1     -12.917  14.338  70.580  1.00  0.00    -0.338 OA 
HETATM   11  O   UNL     1     -13.824  12.931  72.089  1.00  0.00    -0.442 OA 
HETATM   12  C   UNL     1     -11.625   8.333  71.010  1.00  0.00    -0.301 A  
HETATM   13  C   UNL     1     -10.962   7.295  70.364  1.00  0.00    -0.252 A  
HETATM   14  F   UNL     1     -11.224   6.049  70.790  1.00  0.00    -0.333 F  
HETATM   15  C   UNL     1     -10.113   7.523  69.268  1.00  0.00    -0.188 A  
HETATM   16  C   UNL     1     -10.601   9.950  69.487  1.00  0.00    -0.242 A  
HETATM   17  C   UNL     1      -9.928   8.870  68.891  1.00  0.00    -0.199 A  
BRANCH  15  18
HETATM   18  N   UNL     1      -9.478   6.522  68.549  1.00  0.00    -0.123 NA 
HETATM   19  C   UNL     1      -8.946   5.296  69.164  1.00  0.00    -0.103 C  
HETATM   20  C   UNL     1      -9.574   4.034  68.527  1.00  0.00    -0.116 C  
HETATM   21  N   UNL     1      -9.503   3.979  67.047  1.00  0.00    -0.187 NA 
HETATM   22  C   UNL     1     -10.094   5.221  66.508  1.00  0.00    -0.229 C  
HETATM   23  C   UNL     1      -8.129   3.800  66.579  1.00  0.00    -0.096 C  
HETATM   24  C   UNL     1      -9.505   6.534  67.073  1.00  0.00    -0.138 C  
ENDBRANCH  15  18
ENDBRANCH   2   3
TORSDOF 2
ENDMDL
MODEL       77
REMARK 921   NORMALIZED FREE ENERGY PREDICTED BY IDOCK:   -5.08 KCAL/MOL
REMARK 922        TOTAL FREE ENERGY PREDICTED BY IDOCK:   -5.91 KCAL/MOL
REMARK 923 INTER-LIGAND FREE ENERGY PREDICTED BY IDOCK:   -5.50 KCAL/MOL
REMARK 924 INTRA-LIGAND FREE ENERGY PREDICTED BY IDOCK:   -0.41 KCAL/MOL
REMARK 927      BINDING AFFINITY PREDICTED BY RF-SCORE:    0.00 PKD
ROOT
HETATM    1  C   UNL     1     -12.970  11.942  71.872  1.00  0.00    -0.434 C  
HETATM    2  C   UNL     1     -13.036  11.678  70.374  1.00  0.00     0.241 C  
ENDROOT
BRANCH   2   3
HETATM    3  N   UNL     1     -11.888  10.868  69.920  1.00  0.00    -0.317 NA 
HETATM    4  C   UNL     1     -11.857   9.496  70.137  1.00  0.00     0.014 C  
HETATM    5  C   UNL     1     -10.874   8.656  69.781  1.00  0.00    -0.185 C  
HETATM    6  C   UNL     1     -11.009   7.215  70.069  1.00  0.00    -0.262 C  
HETATM    7  C   UNL     1      -9.707   9.251  69.100  1.00  0.00    -0.164 C  
HETATM    8  C   UNL     1      -9.748  10.690  68.764  1.00  0.00    -0.193 A  
HETATM    9  O   UNL     1      -8.746   8.543  68.802  1.00  0.00    -0.136 OA 
HETATM   10  O   UNL     1     -11.990   6.728  70.613  1.00  0.00    -0.386 OA 
HETATM   11  O   UNL     1      -9.961   6.462  69.671  1.00  0.00    -0.159 OA 
HETATM   12  C   UNL     1      -8.700  11.240  68.021  1.00  0.00    -0.144 A  
HETATM   13  C   UNL     1      -8.770  12.570  67.619  1.00  0.00    -0.177 A  
HETATM   14  F   UNL     1      -7.780  13.019  66.832  1.00  0.00    -0.117 F  
HETATM   15  C   UNL     1      -9.859  13.392  67.954  1.00  0.00    -0.237 A  
HETATM   16  C   UNL     1     -10.848  11.463  69.169  1.00  0.00    -0.213 A  
HETATM   17  C   UNL     1     -10.854  12.809  68.767  1.00  0.00    -0.270 A  
BRANCH  15  18
HETATM   18  N   UNL     1     -10.011  14.703  67.528  1.00  0.00    -0.223 NA 
HETATM   19  C   UNL     1      -8.957  15.722  67.655  1.00  0.00    -0.187 C  
HETATM   20  C   UNL     1      -8.594  16.325  66.278  1.00  0.00    -0.339 C  
HETATM   21  N   UNL     1      -9.747  16.825  65.491  1.00  0.00    -0.515 NA 
HETATM   22  C   UNL     1     -10.735  15.733  65.371  1.00  0.00    -0.404 C  
HETATM   23  C   UNL     1     -10.343  18.013  66.100  1.00  0.00    -0.366 C  
HETATM   24  C   UNL     1     -11.174  15.089  66.707  1.00  0.00    -0.322 C  
ENDBRANCH  15  18
ENDBRANCH   2   3
TORSDOF 2
ENDMDL
MODEL       78
REMARK 921   NORMALIZED FREE ENERGY PREDICTED BY IDOCK:   -5.07 KCAL/MOL
REMARK 922        TOTAL FREE ENERGY PREDICTED BY IDOCK:   -5.90 KCAL/MOL
REMARK 923 INTER-LIGAND FREE ENERGY PREDICTED BY IDOCK:   -5.54 KCAL/MOL
REMARK 924 INTRA-LIGAND FREE ENERGY PREDICTED BY IDOCK:   -0.37 KCAL/MOL
REMARK 927      BINDING AFFINITY PREDICTED BY RF-SCORE:    0.00 PKD
ROOT
HETATM    1  C   UNL     1     -10.924   6.340  66.855  1.00  0.00    -0.404 C  
HETATM    2  C   UNL     1      -9.782   7.230  67.324  1.00  0.00    -0.158 C  
ENDROOT
BRANCH   2   3
HETATM    3  N   UNL     1     -10.274   8.334  68.172  1.00  0.00    -0.204 NA 
HETATM    4  C   UNL     1     -10.744   9.511  67.604  1.00  0.00    -0.250 C  
HETATM    5  C   UNL     1     -11.208  10.583  68.262  1.00  0.00    -0.354 C  
HETATM    6  C   UNL     1     -11.692  11.751  67.501  1.00  0.00    -0.240 C  
HETATM    7  C   UNL     1     -11.210  10.506  69.736  1.00  0.00    -0.298 C  
HETATM    8  C   UNL     1     -10.811   9.234  70.374  1.00  0.00    -0.302 A  
HETATM    9  O   UNL     1     -11.568  11.479  70.399  1.00  0.00    -0.281 OA 
HETATM   10  O   UNL     1     -11.707  11.797  66.278  1.00  0.00    -0.482 OA 
HETATM   11  O   UNL     1     -12.134  12.775  68.264  1.00  0.00    -0.282 OA 
HETATM   12  C   UNL     1     -10.916   9.111  71.762  1.00  0.00    -0.429 A  
HETATM   13  C   UNL     1     -10.631   7.891  72.366  1.00  0.00    -0.298 A  
HETATM   14  F   UNL     1     -10.836   7.806  73.690  1.00  0.00    -0.395 F  
HETATM   15  C   UNL     1     -10.220   6.772  71.623  1.00  0.00    -0.191 A  
HETATM   16  C   UNL     1     -10.366   8.169  69.573  1.00  0.00    -0.222 A  
HETATM   17  C   UNL     1     -10.058   6.969  70.235  1.00  0.00    -0.198 A  
BRANCH  15  18
HETATM   18  N   UNL     1      -9.984   5.517  72.163  1.00  0.00    -0.174 NA 
HETATM   19  C   UNL     1     -10.506   4.273  71.576  1.00  0.00     0.117 C  
HETATM   20  C   UNL     1      -9.360   3.290  71.240  1.00  0.00    -0.136 C  
HETATM   21  N   UNL     1      -8.422   3.017  72.356  1.00  0.00    -0.074 NA 
HETATM   22  C   UNL     1      -7.911   4.309  72.858  1.00  0.00    -0.086 C  
HETATM   23  C   UNL     1      -9.062   2.251  73.424  1.00  0.00    -0.076 C  
HETATM   24  C   UNL     1      -8.993   5.345  73.243  1.00  0.00    -0.120 C  
ENDBRANCH  15  18
ENDBRANCH   2   3
TORSDOF 2
ENDMDL
MODEL       79
REMARK 921   NORMALIZED FREE ENERGY PREDICTED BY IDOCK:   -4.95 KCAL/MOL
REMARK 922        TOTAL FREE ENERGY PREDICTED BY IDOCK:   -5.76 KCAL/MOL
REMARK 923 INTER-LIGAND FREE ENERGY PREDICTED BY IDOCK:   -5.39 KCAL/MOL
REMARK 924 INTRA-LIGAND FREE ENERGY PREDICTED BY IDOCK:   -0.37 KCAL/MOL
REMARK 927      BINDING AFFINITY PREDICTED BY RF-SCORE:    0.00 PKD
ROOT
HETATM    1  C   UNL     1     -10.210   8.305  71.832  1.00  0.00    -0.314 C  
HETATM    2  C   UNL     1      -9.865   9.247  70.686  1.00  0.00    -0.270 C  
ENDROOT
BRANCH   2   3
HETATM    3  N   UNL     1      -9.754   8.518  69.407  1.00  0.00    -0.174 NA 
HETATM    4  C   UNL     1      -9.815   7.131  69.372  1.00  0.00    -0.161 C  
HETATM    5  C   UNL     1      -9.720   6.357  68.281  1.00  0.00    -0.127 C  
HETATM    6  C   UNL     1      -9.827   4.891  68.418  1.00  0.00    -0.136 C  
HETATM    7  C   UNL     1      -9.522   7.049  66.992  1.00  0.00    -0.149 C  
HETATM    8  C   UNL     1      -9.551   8.527  66.976  1.00  0.00    -0.246 A  
HETATM    9  O   UNL     1      -9.368   6.393  65.963  1.00  0.00    -0.125 OA 
HETATM   10  O   UNL     1     -10.014   4.328  69.487  1.00  0.00    -0.200 OA 
HETATM   11  O   UNL     1      -9.715   4.210  67.257  1.00  0.00    -0.197 OA 
HETATM   12  C   UNL     1      -9.478   9.191  65.750  1.00  0.00    -0.322 A  
HETATM   13  C   UNL     1      -9.597  10.577  65.712  1.00  0.00    -0.210 A  
HETATM   14  F   UNL     1      -9.610  11.152  64.500  1.00  0.00    -0.233 F  
HETATM   15  C   UNL     1      -9.770  11.340  66.878  1.00  0.00    -0.192 A  
HETATM   16  C   UNL     1      -9.683   9.228  68.187  1.00  0.00    -0.150 A  
HETATM   17  C   UNL     1      -9.764  10.628  68.097  1.00  0.00    -0.167 A  
BRANCH  15  18
HETATM   18  N   UNL     1      -9.957  12.713  66.895  1.00  0.00    -0.226 NA 
HETATM   19  C   UNL     1     -10.949  13.405  66.057  1.00  0.00    -0.271 C  
HETATM   20  C   UNL     1     -11.938  14.222  66.921  1.00  0.00    -0.438 C  
HETATM   21  N   UNL     1     -11.305  15.145  67.893  1.00  0.00    -0.329 NA 
HETATM   22  C   UNL     1     -10.361  14.368  68.722  1.00  0.00    -0.241 C  
HETATM   23  C   UNL     1     -10.630  16.256  67.223  1.00  0.00    -0.298 C  
HETATM   24  C   UNL     1      -9.317  13.540  67.937  1.00  0.00    -0.215 C  
ENDBRANCH  15  18
ENDBRANCH   2   3
TORSDOF 2
ENDMDL
MODEL       80
REMARK 921   NORMALIZED FREE ENERGY PREDICTED BY IDOCK:   -4.91 KCAL/MOL
REMARK 922        TOTAL FREE ENERGY PREDICTED BY IDOCK:   -5.73 KCAL/MOL
REMARK 923 INTER-LIGAND FREE ENERGY PREDICTED BY IDOCK:   -5.20 KCAL/MOL
REMARK 924 INTRA-LIGAND FREE ENERGY PREDICTED BY IDOCK:   -0.52 KCAL/MOL
REMARK 927      BINDING AFFINITY PREDICTED BY RF-SCORE:    0.00 PKD
ROOT
HETATM    1  C   UNL     1     -10.989   5.956  70.164  1.00  0.00    -0.412 C  
HETATM    2  C   UNL     1     -11.054   7.371  69.605  1.00  0.00    -0.111 C  
ENDROOT
BRANCH   2   3
HETATM    3  N   UNL     1      -9.843   8.141  69.948  1.00  0.00    -0.184 NA 
HETATM    4  C   UNL     1      -8.953   7.675  70.908  1.00  0.00    -0.148 C  
HETATM    5  C   UNL     1      -7.828   8.282  71.311  1.00  0.00    -0.112 C  
HETATM    6  C   UNL     1      -6.980   7.637  72.333  1.00  0.00    -0.071 C  
HETATM    7  C   UNL     1      -7.508   9.576  70.677  1.00  0.00    -0.118 C  
HETATM    8  C   UNL     1      -8.377  10.055  69.581  1.00  0.00    -0.188 A  
HETATM    9  O   UNL     1      -6.521  10.211  71.046  1.00  0.00    -0.312 OA 
HETATM   10  O   UNL     1      -7.241   6.553  72.837  1.00  0.00    -0.081 OA 
HETATM   11  O   UNL     1      -5.873   8.336  72.667  1.00  0.00    -0.049 OA 
HETATM   12  C   UNL     1      -8.022  11.221  68.898  1.00  0.00    -0.104 A  
HETATM   13  C   UNL     1      -8.779  11.633  67.806  1.00  0.00    -0.152 A  
HETATM   14  F   UNL     1      -8.339  12.708  67.134  1.00  0.00    -0.165 F  
HETATM   15  C   UNL     1      -9.909  10.921  67.375  1.00  0.00    -0.173 A  
HETATM   16  C   UNL     1      -9.518   9.315  69.231  1.00  0.00    -0.160 A  
HETATM   17  C   UNL     1     -10.268   9.792  68.143  1.00  0.00    -0.220 A  
BRANCH  15  18
HETATM   18  N   UNL     1     -10.662  11.248  66.257  1.00  0.00    -0.268 NA 
HETATM   19  C   UNL     1     -11.636  12.352  66.233  1.00  0.00    -0.393 C  
HETATM   20  C   UNL     1     -11.296  13.371  65.120  1.00  0.00    -0.299 C  
HETATM   21  N   UNL     1     -11.100  12.785  63.773  1.00  0.00    -0.432 NA 
HETATM   22  C   UNL     1     -10.080  11.721  63.874  1.00  0.00    -0.368 C  
HETATM   23  C   UNL     1     -12.351  12.267  63.221  1.00  0.00    -0.409 C  
HETATM   24  C   UNL     1     -10.354  10.642  64.947  1.00  0.00    -0.277 C  
ENDBRANCH  15  18
ENDBRANCH   2   3
TORSDOF 2
ENDMDL
MODEL       81
REMARK 921   NORMALIZED FREE ENERGY PREDICTED BY IDOCK:   -4.91 KCAL/MOL
REMARK 922        TOTAL FREE ENERGY PREDICTED BY IDOCK:   -5.72 KCAL/MOL
REMARK 923 INTER-LIGAND FREE ENERGY PREDICTED BY IDOCK:   -5.39 KCAL/MOL
REMARK 924 INTRA-LIGAND FREE ENERGY PREDICTED BY IDOCK:   -0.33 KCAL/MOL
REMARK 927      BINDING AFFINITY PREDICTED BY RF-SCORE:    0.00 PKD
ROOT
HETATM    1  C   UNL     1      -7.899  10.448  69.584  1.00  0.00    -0.138 C  
HETATM    2  C   UNL     1      -9.289  10.441  68.961  1.00  0.00    -0.194 C  
ENDROOT
BRANCH   2   3
HETATM    3  N   UNL     1     -10.205   9.551  69.700  1.00  0.00    -0.204 NA 
HETATM    4  C   UNL     1     -11.219  10.074  70.492  1.00  0.00    -0.336 C  
HETATM    5  C   UNL     1     -12.107   9.374  71.213  1.00  0.00    -0.424 C  
HETATM    6  C   UNL     1     -13.140  10.090  71.987  1.00  0.00    -0.441 C  
HETATM    7  C   UNL     1     -11.987   7.904  71.169  1.00  0.00    -0.285 C  
HETATM    8  C   UNL     1     -10.983   7.308  70.261  1.00  0.00    -0.281 A  
HETATM    9  O   UNL     1     -12.733   7.208  71.856  1.00  0.00    -0.321 OA 
HETATM   10  O   UNL     1     -13.247  11.308  72.000  1.00  0.00    -0.506 OA 
HETATM   11  O   UNL     1     -13.979   9.288  72.679  1.00  0.00    -0.438 OA 
HETATM   12  C   UNL     1     -10.935   5.918  70.125  1.00  0.00    -0.412 A  
HETATM   13  C   UNL     1     -10.059   5.350  69.207  1.00  0.00    -0.231 A  
HETATM   14  F   UNL     1     -10.120   4.017  69.054  1.00  0.00    -0.197 F  
HETATM   15  C   UNL     1      -9.200   6.131  68.417  1.00  0.00    -0.111 A  
HETATM   16  C   UNL     1     -10.124   8.149  69.534  1.00  0.00    -0.193 A  
HETATM   17  C   UNL     1      -9.235   7.523  68.645  1.00  0.00    -0.144 A  
BRANCH  15  18
HETATM   18  N   UNL     1      -8.353   5.623  67.443  1.00  0.00    -0.101 NA 
HETATM   19  C   UNL     1      -8.822   5.150  66.130  1.00  0.00    -0.132 C  
HETATM   20  C   UNL     1      -8.125   5.915  64.980  1.00  0.00    -0.132 C  
HETATM   21  N   UNL     1      -6.644   5.943  65.055  1.00  0.00    -0.042 NA 
HETATM   22  C   UNL     1      -6.257   6.469  66.380  1.00  0.00    -0.037 C  
HETATM   23  C   UNL     1      -6.066   4.621  64.821  1.00  0.00    -0.029 C  
HETATM   24  C   UNL     1      -6.890   5.744  67.591  1.00  0.00    -0.060 C  
ENDBRANCH  15  18
ENDBRANCH   2   3
TORSDOF 2
ENDMDL
MODEL       82
REMARK 921   NORMALIZED FREE ENERGY PREDICTED BY IDOCK:   -4.90 KCAL/MOL
REMARK 922        TOTAL FREE ENERGY PREDICTED BY IDOCK:   -5.71 KCAL/MOL
REMARK 923 INTER-LIGAND FREE ENERGY PREDICTED BY IDOCK:   -5.34 KCAL/MOL
REMARK 924 INTRA-LIGAND FREE ENERGY PREDICTED BY IDOCK:   -0.37 KCAL/MOL
REMARK 927      BINDING AFFINITY PREDICTED BY RF-SCORE:    0.00 PKD
ROOT
HETATM    1  C   UNL     1     -11.329  10.437  70.382  1.00  0.00    -0.417 C  
HETATM    2  C   UNL     1     -10.849   9.623  69.188  1.00  0.00    -0.190 C  
ENDROOT
BRANCH   2   3
HETATM    3  N   UNL     1     -10.814  10.440  67.959  1.00  0.00    -0.249 NA 
HETATM    4  C   UNL     1     -11.323  11.733  67.951  1.00  0.00    -0.292 C  
HETATM    5  C   UNL     1     -11.356  12.568  66.903  1.00  0.00    -0.383 C  
HETATM    6  C   UNL     1     -11.916  13.924  67.071  1.00  0.00    -0.424 C  
HETATM    7  C   UNL     1     -10.804  12.060  65.632  1.00  0.00    -0.282 C  
HETATM    8  C   UNL     1     -10.164  10.728  65.626  1.00  0.00    -0.320 A  
HETATM    9  O   UNL     1     -10.858  12.757  64.619  1.00  0.00    -0.302 OA 
HETATM   10  O   UNL     1     -12.350  14.344  68.134  1.00  0.00    -0.196 OA 
HETATM   11  O   UNL     1     -11.902  14.680  65.952  1.00  0.00    -0.347 OA 
HETATM   12  C   UNL     1      -9.539  10.283  64.459  1.00  0.00    -0.378 A  
HETATM   13  C   UNL     1      -8.854   9.073  64.467  1.00  0.00    -0.081 A  
HETATM   14  F   UNL     1      -8.197   8.739  63.344  1.00  0.00    -0.149 F  
HETATM   15  C   UNL     1      -8.784   8.265  65.614  1.00  0.00    -0.156 A  
HETATM   16  C   UNL     1     -10.170   9.954  66.799  1.00  0.00    -0.236 A  
HETATM   17  C   UNL     1      -9.494   8.724  66.744  1.00  0.00    -0.249 A  
BRANCH  15  18
HETATM   18  N   UNL     1      -8.065   7.083  65.697  1.00  0.00    -0.123 NA 
HETATM   19  C   UNL     1      -7.231   6.722  66.855  1.00  0.00    -0.081 C  
HETATM   20  C   UNL     1      -7.679   5.375  67.468  1.00  0.00    -0.092 C  
HETATM   21  N   UNL     1      -7.789   4.254  66.503  1.00  0.00    -0.097 NA 
HETATM   22  C   UNL     1      -8.673   4.679  65.398  1.00  0.00    -0.134 C  
HETATM   23  C   UNL     1      -6.478   3.843  66.002  1.00  0.00    -0.037 C  
HETATM   24  C   UNL     1      -8.283   6.007  64.710  1.00  0.00    -0.123 C  
ENDBRANCH  15  18
ENDBRANCH   2   3
TORSDOF 2
ENDMDL
MODEL       83
REMARK 921   NORMALIZED FREE ENERGY PREDICTED BY IDOCK:   -4.83 KCAL/MOL
REMARK 922        TOTAL FREE ENERGY PREDICTED BY IDOCK:   -5.63 KCAL/MOL
REMARK 923 INTER-LIGAND FREE ENERGY PREDICTED BY IDOCK:   -5.25 KCAL/MOL
REMARK 924 INTRA-LIGAND FREE ENERGY PREDICTED BY IDOCK:   -0.39 KCAL/MOL
REMARK 927      BINDING AFFINITY PREDICTED BY RF-SCORE:    0.00 PKD
ROOT
HETATM    1  C   UNL     1      -6.615   8.505  66.960  1.00  0.00    -0.058 C  
HETATM    2  C   UNL     1      -7.587   9.633  67.279  1.00  0.00    -0.091 C  
ENDROOT
BRANCH   2   3
HETATM    3  N   UNL     1      -8.624   9.194  68.235  1.00  0.00    -0.128 NA 
HETATM    4  C   UNL     1      -8.567   7.933  68.815  1.00  0.00    -0.128 C  
HETATM    5  C   UNL     1      -9.446   7.418  69.687  1.00  0.00    -0.156 C  
HETATM    6  C   UNL     1      -9.225   6.062  70.227  1.00  0.00    -0.155 C  
HETATM    7  C   UNL     1     -10.590   8.273  70.059  1.00  0.00    -0.235 C  
HETATM    8  C   UNL     1     -10.632   9.657  69.540  1.00  0.00    -0.247 A  
HETATM    9  O   UNL     1     -11.463   7.836  70.808  1.00  0.00    -0.280 OA 
HETATM   10  O   UNL     1      -8.262   5.369  69.930  1.00  0.00    -0.093 OA 
HETATM   11  O   UNL     1     -10.173   5.642  71.094  1.00  0.00    -0.201 OA 
HETATM   12  C   UNL     1     -11.649  10.511  69.973  1.00  0.00    -0.392 A  
HETATM   13  C   UNL     1     -11.647  11.841  69.565  1.00  0.00    -0.332 A  
HETATM   14  F   UNL     1     -12.595  12.636  70.084  1.00  0.00    -0.248 F  
HETATM   15  C   UNL     1     -10.659  12.354  68.708  1.00  0.00    -0.183 A  
HETATM   16  C   UNL     1      -9.635  10.090  68.650  1.00  0.00    -0.155 A  
HETATM   17  C   UNL     1      -9.698  11.433  68.240  1.00  0.00    -0.202 A  
BRANCH  15  18
HETATM   18  N   UNL     1     -10.573  13.682  68.320  1.00  0.00    -0.246 NA 
HETATM   19  C   UNL     1     -11.711  14.445  67.783  1.00  0.00    -0.376 C  
HETATM   20  C   UNL     1     -11.989  15.706  68.634  1.00  0.00    -0.182 C  
HETATM   21  N   UNL     1     -10.811  16.575  68.868  1.00  0.00    -0.324 NA 
HETATM   22  C   UNL     1      -9.733  15.748  69.447  1.00  0.00    -0.286 C  
HETATM   23  C   UNL     1     -10.371  17.233  67.638  1.00  0.00    -0.350 C  
HETATM   24  C   UNL     1      -9.371  14.476  68.645  1.00  0.00    -0.199 C  
ENDBRANCH  15  18
ENDBRANCH   2   3
TORSDOF 2
ENDMDL
MODEL       84
REMARK 921   NORMALIZED FREE ENERGY PREDICTED BY IDOCK:   -4.83 KCAL/MOL
REMARK 922        TOTAL FREE ENERGY PREDICTED BY IDOCK:   -5.63 KCAL/MOL
REMARK 923 INTER-LIGAND FREE ENERGY PREDICTED BY IDOCK:   -5.41 KCAL/MOL
REMARK 924 INTRA-LIGAND FREE ENERGY PREDICTED BY IDOCK:   -0.22 KCAL/MOL
REMARK 927      BINDING AFFINITY PREDICTED BY RF-SCORE:    0.00 PKD
ROOT
HETATM    1  C   UNL     1      -6.835  12.031  66.607  1.00  0.00     0.154 C  
HETATM    2  C   UNL     1      -7.004  13.230  67.531  1.00  0.00    -0.144 C  
ENDROOT
BRANCH   2   3
HETATM    3  N   UNL     1      -8.404  13.372  67.978  1.00  0.00    -0.154 NA 
HETATM    4  C   UNL     1      -9.213  12.255  68.144  1.00  0.00    -0.197 C  
HETATM    5  C   UNL     1     -10.495  12.252  68.536  1.00  0.00    -0.248 C  
HETATM    6  C   UNL     1     -11.207  10.967  68.683  1.00  0.00    -0.263 C  
HETATM    7  C   UNL     1     -11.109  13.566  68.808  1.00  0.00    -0.264 C  
HETATM    8  C   UNL     1     -10.252  14.769  68.738  1.00  0.00    -0.239 A  
HETATM    9  O   UNL     1     -12.298  13.635  69.114  1.00  0.00    -0.285 OA 
HETATM   10  O   UNL     1     -10.684   9.881  68.477  1.00  0.00    -0.214 OA 
HETATM   11  O   UNL     1     -12.494  11.081  69.080  1.00  0.00    -0.449 OA 
HETATM   12  C   UNL     1     -10.792  16.005  69.102  1.00  0.00    -0.281 A  
HETATM   13  C   UNL     1      -9.974  17.129  69.130  1.00  0.00    -0.218 A  
HETATM   14  F   UNL     1     -10.524  18.270  69.574  1.00  0.00    -0.241 F  
HETATM   15  C   UNL     1      -8.614  17.068  68.782  1.00  0.00    -0.238 A  
HETATM   16  C   UNL     1      -8.912  14.640  68.339  1.00  0.00    -0.180 A  
HETATM   17  C   UNL     1      -8.136  15.812  68.351  1.00  0.00    -0.143 A  
BRANCH  15  18
HETATM   18  N   UNL     1      -7.739  18.141  68.851  1.00  0.00    -0.246 NA 
HETATM   19  C   UNL     1      -6.295  17.992  69.094  1.00  0.00    -0.246 C  
HETATM   20  C   UNL     1      -5.468  18.624  67.949  1.00  0.00    -0.176 C  
HETATM   21  N   UNL     1      -5.826  20.024  67.618  1.00  0.00    -0.189 NA 
HETATM   22  C   UNL     1      -7.277  20.079  67.345  1.00  0.00    -0.260 C  
HETATM   23  C   UNL     1      -5.455  20.945  68.691  1.00  0.00    -0.340 C  
HETATM   24  C   UNL     1      -8.182  19.491  68.453  1.00  0.00    -0.344 C  
ENDBRANCH  15  18
ENDBRANCH   2   3
TORSDOF 2
ENDMDL
MODEL       85
REMARK 921   NORMALIZED FREE ENERGY PREDICTED BY IDOCK:   -4.80 KCAL/MOL
REMARK 922        TOTAL FREE ENERGY PREDICTED BY IDOCK:   -5.60 KCAL/MOL
REMARK 923 INTER-LIGAND FREE ENERGY PREDICTED BY IDOCK:   -5.13 KCAL/MOL
REMARK 924 INTRA-LIGAND FREE ENERGY PREDICTED BY IDOCK:   -0.47 KCAL/MOL
REMARK 927      BINDING AFFINITY PREDICTED BY RF-SCORE:    0.00 PKD
ROOT
HETATM    1  C   UNL     1     -12.889  15.331  69.897  1.00  0.00    -0.036 C  
HETATM    2  C   UNL     1     -11.456  15.777  69.643  1.00  0.00    -0.346 C  
ENDROOT
BRANCH   2   3
HETATM    3  N   UNL     1     -10.635  14.672  69.111  1.00  0.00    -0.243 NA 
HETATM    4  C   UNL     1     -11.153  13.387  69.010  1.00  0.00    -0.249 C  
HETATM    5  C   UNL     1     -10.510  12.303  68.552  1.00  0.00    -0.248 C  
HETATM    6  C   UNL     1     -11.219  11.009  68.491  1.00  0.00    -0.268 C  
HETATM    7  C   UNL     1      -9.111  12.494  68.123  1.00  0.00    -0.204 C  
HETATM    8  C   UNL     1      -8.556  13.864  68.123  1.00  0.00    -0.180 A  
HETATM    9  O   UNL     1      -8.448  11.527  67.750  1.00  0.00    -0.129 OA 
HETATM   10  O   UNL     1     -12.386  10.865  68.827  1.00  0.00    -0.495 OA 
HETATM   11  O   UNL     1     -10.476   9.985  68.017  1.00  0.00    -0.189 OA 
HETATM   12  C   UNL     1      -7.272  14.073  67.614  1.00  0.00    -0.190 A  
HETATM   13  C   UNL     1      -6.774  15.369  67.523  1.00  0.00    -0.181 A  
HETATM   14  F   UNL     1      -5.573  15.518  66.943  1.00  0.00     0.133 F  
HETATM   15  C   UNL     1      -7.517  16.483  67.947  1.00  0.00    -0.150 A  
HETATM   16  C   UNL     1      -9.340  14.926  68.604  1.00  0.00    -0.194 A  
HETATM   17  C   UNL     1      -8.778  16.211  68.522  1.00  0.00    -0.200 A  
BRANCH  15  18
HETATM   18  N   UNL     1      -7.097  17.798  67.822  1.00  0.00    -0.192 NA 
HETATM   19  C   UNL     1      -6.857  18.451  66.525  1.00  0.00    -0.208 C  
HETATM   20  C   UNL     1      -7.729  19.719  66.368  1.00  0.00    -0.303 C  
HETATM   21  N   UNL     1      -7.639  20.683  67.491  1.00  0.00    -0.321 NA 
HETATM   22  C   UNL     1      -7.936  19.962  68.746  1.00  0.00    -0.119 C  
HETATM   23  C   UNL     1      -6.326  21.325  67.548  1.00  0.00    -0.347 C  
HETATM   24  C   UNL     1      -7.090  18.692  68.996  1.00  0.00    -0.274 C  
ENDBRANCH  15  18
ENDBRANCH   2   3
TORSDOF 2
ENDMDL
MODEL       86
REMARK 921   NORMALIZED FREE ENERGY PREDICTED BY IDOCK:   -4.79 KCAL/MOL
REMARK 922        TOTAL FREE ENERGY PREDICTED BY IDOCK:   -5.58 KCAL/MOL
REMARK 923 INTER-LIGAND FREE ENERGY PREDICTED BY IDOCK:   -5.07 KCAL/MOL
REMARK 924 INTRA-LIGAND FREE ENERGY PREDICTED BY IDOCK:   -0.52 KCAL/MOL
REMARK 927      BINDING AFFINITY PREDICTED BY RF-SCORE:    0.00 PKD
ROOT
HETATM    1  C   UNL     1     -11.850  13.001  63.514  1.00  0.00    -0.582 C  
HETATM    2  C   UNL     1     -11.328  11.797  64.288  1.00  0.00    -0.325 C  
ENDROOT
BRANCH   2   3
HETATM    3  N   UNL     1     -10.549  12.215  65.469  1.00  0.00    -0.268 NA 
HETATM    4  C   UNL     1     -10.612  13.521  65.937  1.00  0.00    -0.284 C  
HETATM    5  C   UNL     1      -9.951  14.023  66.990  1.00  0.00    -0.257 C  
HETATM    6  C   UNL     1     -10.150  15.436  67.368  1.00  0.00    -0.233 C  
HETATM    7  C   UNL     1      -9.061  13.096  67.717  1.00  0.00    -0.200 C  
HETATM    8  C   UNL     1      -9.042  11.675  67.310  1.00  0.00    -0.167 A  
HETATM    9  O   UNL     1      -8.381  13.511  68.655  1.00  0.00    -0.123 OA 
HETATM   10  O   UNL     1     -10.907  16.191  66.773  1.00  0.00    -0.277 OA 
HETATM   11  O   UNL     1      -9.433  15.837  68.440  1.00  0.00    -0.191 OA 
HETATM   12  C   UNL     1      -8.291  10.767  68.060  1.00  0.00    -0.120 A  
HETATM   13  C   UNL     1      -8.337   9.414  67.745  1.00  0.00    -0.115 A  
HETATM   14  F   UNL     1      -7.668   8.578  68.554  1.00  0.00    -0.095 F  
HETATM   15  C   UNL     1      -9.106   8.926  66.676  1.00  0.00    -0.156 A  
HETATM   16  C   UNL     1      -9.802  11.264  66.202  1.00  0.00    -0.225 A  
HETATM   17  C   UNL     1      -9.788   9.892  65.904  1.00  0.00    -0.342 A  
BRANCH  15  18
HETATM   18  N   UNL     1      -9.240   7.583  66.355  1.00  0.00    -0.172 NA 
HETATM   19  C   UNL     1      -8.181   6.798  65.702  1.00  0.00    -0.134 C  
HETATM   20  C   UNL     1      -7.787   5.571  66.556  1.00  0.00    -0.101 C  
HETATM   21  N   UNL     1      -8.920   4.714  66.980  1.00  0.00    -0.111 NA 
HETATM   22  C   UNL     1      -9.914   5.566  67.665  1.00  0.00    -0.156 C  
HETATM   23  C   UNL     1      -9.519   4.009  65.847  1.00  0.00    -0.180 C  
HETATM   24  C   UNL     1     -10.384   6.805  66.869  1.00  0.00    -0.254 C  
ENDBRANCH  15  18
ENDBRANCH   2   3
TORSDOF 2
ENDMDL
MODEL       87
REMARK 921   NORMALIZED FREE ENERGY PREDICTED BY IDOCK:   -4.76 KCAL/MOL
REMARK 922        TOTAL FREE ENERGY PREDICTED BY IDOCK:   -5.56 KCAL/MOL
REMARK 923 INTER-LIGAND FREE ENERGY PREDICTED BY IDOCK:   -5.05 KCAL/MOL
REMARK 924 INTRA-LIGAND FREE ENERGY PREDICTED BY IDOCK:   -0.51 KCAL/MOL
REMARK 927      BINDING AFFINITY PREDICTED BY RF-SCORE:    0.00 PKD
ROOT
HETATM    1  C   UNL     1     -10.490   5.339  66.369  1.00  0.00    -0.347 C  
HETATM    2  C   UNL     1     -10.982   6.663  66.940  1.00  0.00    -0.326 C  
ENDROOT
BRANCH   2   3
HETATM    3  N   UNL     1     -10.050   7.188  67.957  1.00  0.00    -0.162 NA 
HETATM    4  C   UNL     1      -9.242   6.329  68.692  1.00  0.00    -0.124 C  
HETATM    5  C   UNL     1      -8.366   6.681  69.643  1.00  0.00    -0.132 C  
HETATM    6  C   UNL     1      -7.565   5.638  70.316  1.00  0.00    -0.081 C  
HETATM    7  C   UNL     1      -8.256   8.121  69.946  1.00  0.00    -0.118 C  
HETATM    8  C   UNL     1      -9.027   9.074  69.118  1.00  0.00    -0.140 A  
HETATM    9  O   UNL     1      -7.514   8.502  70.850  1.00  0.00    -0.059 OA 
HETATM   10  O   UNL     1      -7.646   4.448  70.042  1.00  0.00    -0.049 OA 
HETATM   11  O   UNL     1      -6.717   6.102  71.259  1.00  0.00    -0.052 OA 
HETATM   12  C   UNL     1      -8.847  10.444  69.320  1.00  0.00    -0.166 A  
HETATM   13  C   UNL     1      -9.495  11.350  68.487  1.00  0.00    -0.183 A  
HETATM   14  F   UNL     1      -9.214  12.650  68.670  1.00  0.00    -0.180 F  
HETATM   15  C   UNL     1     -10.347  10.931  67.453  1.00  0.00    -0.211 A  
HETATM   16  C   UNL     1      -9.896   8.583  68.130  1.00  0.00    -0.165 A  
HETATM   17  C   UNL     1     -10.553   9.539  67.338  1.00  0.00    -0.337 A  
BRANCH  15  18
HETATM   18  N   UNL     1     -10.968  11.786  66.555  1.00  0.00    -0.283 NA 
HETATM   19  C   UNL     1     -12.033  12.726  66.937  1.00  0.00    -0.310 C  
HETATM   20  C   UNL     1     -11.647  14.182  66.583  1.00  0.00    -0.384 C  
HETATM   21  N   UNL     1     -11.210  14.390  65.181  1.00  0.00    -0.341 NA 
HETATM   22  C   UNL     1     -10.114  13.443  64.892  1.00  0.00    -0.233 C  
HETATM   23  C   UNL     1     -12.316  14.222  64.240  1.00  0.00    -0.377 C  
HETATM   24  C   UNL     1     -10.424  11.959  65.193  1.00  0.00    -0.287 C  
ENDBRANCH  15  18
ENDBRANCH   2   3
TORSDOF 2
ENDMDL
MODEL       88
REMARK 921   NORMALIZED FREE ENERGY PREDICTED BY IDOCK:   -4.75 KCAL/MOL
REMARK 922        TOTAL FREE ENERGY PREDICTED BY IDOCK:   -5.54 KCAL/MOL
REMARK 923 INTER-LIGAND FREE ENERGY PREDICTED BY IDOCK:   -5.27 KCAL/MOL
REMARK 924 INTRA-LIGAND FREE ENERGY PREDICTED BY IDOCK:   -0.27 KCAL/MOL
REMARK 927      BINDING AFFINITY PREDICTED BY RF-SCORE:    0.00 PKD
ROOT
HETATM    1  C   UNL     1      -5.314  12.282  67.755  1.00  0.00    -0.082 C  
HETATM    2  C   UNL     1      -6.364  12.912  68.660  1.00  0.00    -0.075 C  
ENDROOT
BRANCH   2   3
HETATM    3  N   UNL     1      -7.715  12.798  68.075  1.00  0.00    -0.124 NA 
HETATM    4  C   UNL     1      -8.457  11.633  68.225  1.00  0.00    -0.160 C  
HETATM    5  C   UNL     1      -9.686  11.404  67.738  1.00  0.00    -0.184 C  
HETATM    6  C   UNL     1     -10.346  10.112  68.009  1.00  0.00    -0.190 C  
HETATM    7  C   UNL     1     -10.305  12.495  66.961  1.00  0.00    -0.224 C  
HETATM    8  C   UNL     1      -9.588  13.784  66.863  1.00  0.00    -0.263 A  
HETATM    9  O   UNL     1     -11.406  12.325  66.438  1.00  0.00    -0.315 OA 
HETATM   10  O   UNL     1      -9.834   9.222  68.674  1.00  0.00    -0.155 OA 
HETATM   11  O   UNL     1     -11.578   9.987  67.470  1.00  0.00    -0.048 OA 
HETATM   12  C   UNL     1     -10.212  14.859  66.226  1.00  0.00    -0.306 A  
HETATM   13  C   UNL     1      -9.588  16.102  66.208  1.00  0.00    -0.306 A  
HETATM   14  F   UNL     1     -10.275  17.118  65.661  1.00  0.00    -0.306 F  
HETATM   15  C   UNL     1      -8.331  16.311  66.798  1.00  0.00    -0.253 A  
HETATM   16  C   UNL     1      -8.313  13.909  67.439  1.00  0.00    -0.198 A  
HETATM   17  C   UNL     1      -7.710  15.176  67.364  1.00  0.00    -0.225 A  
BRANCH  15  18
HETATM   18  N   UNL     1      -7.692  17.540  66.866  1.00  0.00    -0.203 NA 
HETATM   19  C   UNL     1      -6.311  17.760  66.408  1.00  0.00    -0.217 C  
HETATM   20  C   UNL     1      -6.251  18.863  65.326  1.00  0.00    -0.281 C  
HETATM   21  N   UNL     1      -6.915  20.137  65.694  1.00  0.00    -0.294 NA 
HETATM   22  C   UNL     1      -8.304  19.836  66.097  1.00  0.00    -0.345 C  
HETATM   23  C   UNL     1      -6.195  20.834  66.759  1.00  0.00    -0.242 C  
HETATM   24  C   UNL     1      -8.456  18.759  67.195  1.00  0.00    -0.272 C  
ENDBRANCH  15  18
ENDBRANCH   2   3
TORSDOF 2
ENDMDL
MODEL       89
REMARK 921   NORMALIZED FREE ENERGY PREDICTED BY IDOCK:   -4.71 KCAL/MOL
REMARK 922        TOTAL FREE ENERGY PREDICTED BY IDOCK:   -5.49 KCAL/MOL
REMARK 923 INTER-LIGAND FREE ENERGY PREDICTED BY IDOCK:   -4.97 KCAL/MOL
REMARK 924 INTRA-LIGAND FREE ENERGY PREDICTED BY IDOCK:   -0.53 KCAL/MOL
REMARK 927      BINDING AFFINITY PREDICTED BY RF-SCORE:    0.00 PKD
ROOT
HETATM    1  C   UNL     1      -9.255  10.406  69.345  1.00  0.00    -0.177 C  
HETATM    2  C   UNL     1     -10.264   9.687  68.460  1.00  0.00    -0.193 C  
ENDROOT
BRANCH   2   3
HETATM    3  N   UNL     1     -10.469  10.403  67.185  1.00  0.00    -0.242 NA 
HETATM    4  C   UNL     1     -11.139  11.620  67.154  1.00  0.00    -0.299 C  
HETATM    5  C   UNL     1     -11.393  12.361  66.066  1.00  0.00    -0.397 C  
HETATM    6  C   UNL     1     -12.102  13.647  66.212  1.00  0.00    -0.434 C  
HETATM    7  C   UNL     1     -10.921  11.826  64.774  1.00  0.00    -0.303 C  
HETATM    8  C   UNL     1     -10.119  10.584  64.778  1.00  0.00    -0.406 A  
HETATM    9  O   UNL     1     -11.175  12.429  63.732  1.00  0.00    -0.381 OA 
HETATM   10  O   UNL     1     -12.469  14.094  67.290  1.00  0.00    -0.253 OA 
HETATM   11  O   UNL     1     -12.308  14.309  65.052  1.00  0.00    -0.418 OA 
HETATM   12  C   UNL     1      -9.572  10.128  63.576  1.00  0.00    -0.249 A  
HETATM   13  C   UNL     1      -8.739   9.014  63.581  1.00  0.00    -0.077 A  
HETATM   14  F   UNL     1      -8.171   8.676  62.412  1.00  0.00    -0.142 F  
HETATM   15  C   UNL     1      -8.442   8.313  64.761  1.00  0.00    -0.070 A  
HETATM   16  C   UNL     1      -9.897   9.909  65.990  1.00  0.00    -0.264 A  
HETATM   17  C   UNL     1      -9.078   8.770  65.936  1.00  0.00    -0.271 A  
BRANCH  15  18
HETATM   18  N   UNL     1      -7.571   7.237  64.834  1.00  0.00    -0.095 NA 
HETATM   19  C   UNL     1      -6.106   7.377  64.788  1.00  0.00    -0.038 C  
HETATM   20  C   UNL     1      -5.447   6.768  66.048  1.00  0.00    -0.022 C  
HETATM   21  N   UNL     1      -5.854   5.376  66.357  1.00  0.00    -0.018 NA 
HETATM   22  C   UNL     1      -7.329   5.330  66.430  1.00  0.00    -0.082 C  
HETATM   23  C   UNL     1      -5.344   4.431  65.364  1.00  0.00    -0.009 C  
HETATM   24  C   UNL     1      -8.071   5.897  65.197  1.00  0.00    -0.131 C  
ENDBRANCH  15  18
ENDBRANCH   2   3
TORSDOF 2
ENDMDL
MODEL       90
REMARK 921   NORMALIZED FREE ENERGY PREDICTED BY IDOCK:   -4.67 KCAL/MOL
REMARK 922        TOTAL FREE ENERGY PREDICTED BY IDOCK:   -5.45 KCAL/MOL
REMARK 923 INTER-LIGAND FREE ENERGY PREDICTED BY IDOCK:   -4.96 KCAL/MOL
REMARK 924 INTRA-LIGAND FREE ENERGY PREDICTED BY IDOCK:   -0.49 KCAL/MOL
REMARK 927      BINDING AFFINITY PREDICTED BY RF-SCORE:    0.00 PKD
ROOT
HETATM    1  C   UNL     1      -8.620  11.339  68.519  1.00  0.00    -0.156 C  
HETATM    2  C   UNL     1      -8.724   9.830  68.344  1.00  0.00    -0.120 C  
ENDROOT
BRANCH   2   3
HETATM    3  N   UNL     1      -9.717   9.248  69.268  1.00  0.00    -0.165 NA 
HETATM    4  C   UNL     1     -10.674  10.049  69.877  1.00  0.00    -0.286 C  
HETATM    5  C   UNL     1     -11.621   9.644  70.736  1.00  0.00    -0.395 C  
HETATM    6  C   UNL     1     -12.579  10.627  71.279  1.00  0.00    -0.427 C  
HETATM    7  C   UNL     1     -11.640   8.207  71.073  1.00  0.00    -0.279 C  
HETATM    8  C   UNL     1     -10.701   7.308  70.370  1.00  0.00    -0.253 A  
HETATM    9  O   UNL     1     -12.446   7.784  71.901  1.00  0.00    -0.304 OA 
HETATM   10  O   UNL     1     -12.570  11.813  70.976  1.00  0.00    -0.374 OA 
HETATM   11  O   UNL     1     -13.487  10.112  72.136  1.00  0.00    -0.411 OA 
HETATM   12  C   UNL     1     -10.785   5.932  70.597  1.00  0.00    -0.353 A  
HETATM   13  C   UNL     1      -9.971   5.067  69.873  1.00  0.00    -0.251 A  
HETATM   14  F   UNL     1     -10.158   3.752  70.067  1.00  0.00    -0.246 F  
HETATM   15  C   UNL     1      -9.044   5.536  68.927  1.00  0.00    -0.118 A  
HETATM   16  C   UNL     1      -9.770   7.850  69.469  1.00  0.00    -0.173 A  
HETATM   17  C   UNL     1      -8.947   6.937  68.789  1.00  0.00    -0.130 A  
BRANCH  15  18
HETATM   18  N   UNL     1      -8.254   4.718  68.134  1.00  0.00    -0.088 NA 
HETATM   19  C   UNL     1      -7.198   3.845  68.672  1.00  0.00    -0.054 C  
HETATM   20  C   UNL     1      -7.444   2.368  68.283  1.00  0.00    -0.048 C  
HETATM   21  N   UNL     1      -7.666   2.131  66.836  1.00  0.00    -0.065 NA 
HETATM   22  C   UNL     1      -8.765   3.009  66.386  1.00  0.00    -0.133 C  
HETATM   23  C   UNL     1      -6.451   2.363  66.057  1.00  0.00    -0.028 C  
HETATM   24  C   UNL     1      -8.590   4.510  66.712  1.00  0.00    -0.104 C  
ENDBRANCH  15  18
ENDBRANCH   2   3
TORSDOF 2
ENDMDL
MODEL       91
REMARK 921   NORMALIZED FREE ENERGY PREDICTED BY IDOCK:   -4.67 KCAL/MOL
REMARK 922        TOTAL FREE ENERGY PREDICTED BY IDOCK:   -5.45 KCAL/MOL
REMARK 923 INTER-LIGAND FREE ENERGY PREDICTED BY IDOCK:   -4.92 KCAL/MOL
REMARK 924 INTRA-LIGAND FREE ENERGY PREDICTED BY IDOCK:   -0.53 KCAL/MOL
REMARK 927      BINDING AFFINITY PREDICTED BY RF-SCORE:    0.00 PKD
ROOT
HETATM    1  C   UNL     1     -12.022  11.133  69.218  1.00  0.00    -0.421 C  
HETATM    2  C   UNL     1     -11.358  11.694  67.969  1.00  0.00    -0.296 C  
ENDROOT
BRANCH   2   3
HETATM    3  N   UNL     1      -9.930  11.324  67.906  1.00  0.00    -0.172 NA 
HETATM    4  C   UNL     1      -9.545   9.992  67.814  1.00  0.00    -0.148 C  
HETATM    5  C   UNL     1      -8.288   9.529  67.758  1.00  0.00    -0.118 C  
HETATM    6  C   UNL     1      -8.053   8.076  67.640  1.00  0.00    -0.124 C  
HETATM    7  C   UNL     1      -7.208  10.534  67.808  1.00  0.00    -0.085 C  
HETATM    8  C   UNL     1      -7.579  11.965  67.806  1.00  0.00    -0.130 A  
HETATM    9  O   UNL     1      -6.034  10.169  67.821  1.00  0.00    -0.048 OA 
HETATM   10  O   UNL     1      -8.955   7.252  67.576  1.00  0.00    -0.122 OA 
HETATM   11  O   UNL     1      -6.751   7.720  67.595  1.00  0.00    -0.064 OA 
HETATM   12  C   UNL     1      -6.567  12.925  67.740  1.00  0.00    -0.140 A  
HETATM   13  C   UNL     1      -6.904  14.271  67.644  1.00  0.00    -0.182 A  
HETATM   14  F   UNL     1      -5.893  15.141  67.493  1.00  0.00    -0.150 F  
HETATM   15  C   UNL     1      -8.241  14.703  67.632  1.00  0.00    -0.171 A  
HETATM   16  C   UNL     1      -8.936  12.326  67.839  1.00  0.00    -0.186 A  
HETATM   17  C   UNL     1      -9.223  13.700  67.775  1.00  0.00    -0.214 A  
BRANCH  15  18
HETATM   18  N   UNL     1      -8.635  16.023  67.475  1.00  0.00    -0.174 NA 
HETATM   19  C   UNL     1      -8.962  16.621  66.170  1.00  0.00    -0.286 C  
HETATM   20  C   UNL     1     -10.400  17.191  66.162  1.00  0.00    -0.322 C  
HETATM   21  N   UNL     1     -10.714  18.113  67.280  1.00  0.00    -0.364 NA 
HETATM   22  C   UNL     1     -10.402  17.425  68.549  1.00  0.00    -0.378 C  
HETATM   23  C   UNL     1      -9.978  19.372  67.166  1.00  0.00    -0.360 C  
HETATM   24  C   UNL     1      -8.972  16.845  68.654  1.00  0.00    -0.266 C  
ENDBRANCH  15  18
ENDBRANCH   2   3
TORSDOF 2
ENDMDL
MODEL       92
REMARK 921   NORMALIZED FREE ENERGY PREDICTED BY IDOCK:   -4.65 KCAL/MOL
REMARK 922        TOTAL FREE ENERGY PREDICTED BY IDOCK:   -5.44 KCAL/MOL
REMARK 923 INTER-LIGAND FREE ENERGY PREDICTED BY IDOCK:   -4.96 KCAL/MOL
REMARK 924 INTRA-LIGAND FREE ENERGY PREDICTED BY IDOCK:   -0.48 KCAL/MOL
REMARK 927      BINDING AFFINITY PREDICTED BY RF-SCORE:    0.00 PKD
ROOT
HETATM    1  C   UNL     1      -5.905  12.445  67.528  1.00  0.00    -0.142 C  
HETATM    2  C   UNL     1      -6.934  12.812  68.589  1.00  0.00    -0.101 C  
ENDROOT
BRANCH   2   3
HETATM    3  N   UNL     1      -8.308  12.549  68.118  1.00  0.00    -0.169 NA 
HETATM    4  C   UNL     1      -8.922  13.399  67.207  1.00  0.00    -0.221 C  
HETATM    5  C   UNL     1     -10.162  13.273  66.712  1.00  0.00    -0.254 C  
HETATM    6  C   UNL     1     -10.656  14.259  65.730  1.00  0.00    -0.309 C  
HETATM    7  C   UNL     1     -10.953  12.122  67.189  1.00  0.00    -0.268 C  
HETATM    8  C   UNL     1     -10.300  11.142  68.081  1.00  0.00    -0.207 A  
HETATM    9  O   UNL     1     -12.118  11.985  66.817  1.00  0.00    -0.613 OA 
HETATM   10  O   UNL     1      -9.984  15.197  65.323  1.00  0.00    -0.338 OA 
HETATM   11  O   UNL     1     -11.917  14.038  65.299  1.00  0.00    -0.346 OA 
HETATM   12  C   UNL     1     -11.001   9.991  68.450  1.00  0.00    -0.266 A  
HETATM   13  C   UNL     1     -10.367   9.017  69.213  1.00  0.00    -0.219 A  
HETATM   14  F   UNL     1     -11.059   7.893  69.460  1.00  0.00    -0.222 F  
HETATM   15  C   UNL     1      -9.039   9.160  69.647  1.00  0.00    -0.160 A  
HETATM   16  C   UNL     1      -8.983  11.371  68.513  1.00  0.00    -0.158 A  
HETATM   17  C   UNL     1      -8.399  10.373  69.311  1.00  0.00    -0.161 A  
BRANCH  15  18
HETATM   18  N   UNL     1      -8.337   8.196  70.354  1.00  0.00    -0.117 NA 
HETATM   19  C   UNL     1      -8.028   8.310  71.789  1.00  0.00    -0.128 C  
HETATM   20  C   UNL     1      -8.594   7.108  72.580  1.00  0.00    -0.115 C  
HETATM   21  N   UNL     1      -8.223   5.775  72.044  1.00  0.00    -0.112 NA 
HETATM   22  C   UNL     1      -8.606   5.726  70.618  1.00  0.00    -0.132 C  
HETATM   23  C   UNL     1      -6.798   5.501  72.219  1.00  0.00    -0.079 C  
HETATM   24  C   UNL     1      -8.060   6.880  69.746  1.00  0.00    -0.126 C  
ENDBRANCH  15  18
ENDBRANCH   2   3
TORSDOF 2
ENDMDL
MODEL       93
REMARK 921   NORMALIZED FREE ENERGY PREDICTED BY IDOCK:   -4.61 KCAL/MOL
REMARK 922        TOTAL FREE ENERGY PREDICTED BY IDOCK:   -5.39 KCAL/MOL
REMARK 923 INTER-LIGAND FREE ENERGY PREDICTED BY IDOCK:   -4.89 KCAL/MOL
REMARK 924 INTRA-LIGAND FREE ENERGY PREDICTED BY IDOCK:   -0.50 KCAL/MOL
REMARK 927      BINDING AFFINITY PREDICTED BY RF-SCORE:    0.00 PKD
ROOT
HETATM    1  C   UNL     1     -12.886  14.090  65.766  1.00  0.00    -0.416 C  
HETATM    2  C   UNL     1     -12.109  12.943  66.397  1.00  0.00    -0.329 C  
ENDROOT
BRANCH   2   3
HETATM    3  N   UNL     1     -10.782  13.387  66.867  1.00  0.00    -0.272 NA 
HETATM    4  C   UNL     1     -10.396  14.716  66.752  1.00  0.00    -0.268 C  
HETATM    5  C   UNL     1      -9.222  15.240  67.132  1.00  0.00    -0.223 C  
HETATM    6  C   UNL     1      -8.979  16.685  66.957  1.00  0.00    -0.208 C  
HETATM    7  C   UNL     1      -8.241  14.309  67.723  1.00  0.00    -0.174 C  
HETATM    8  C   UNL     1      -8.651  12.907  67.953  1.00  0.00    -0.185 A  
HETATM    9  O   UNL     1      -7.123  14.716  68.038  1.00  0.00    -0.108 OA 
HETATM   10  O   UNL     1      -9.807  17.454  66.487  1.00  0.00    -0.278 OA 
HETATM   11  O   UNL     1      -7.764  17.105  67.371  1.00  0.00    -0.165 OA 
HETATM   12  C   UNL     1      -7.773  12.045  68.613  1.00  0.00    -0.099 A  
HETATM   13  C   UNL     1      -8.182  10.751  68.918  1.00  0.00    -0.149 A  
HETATM   14  F   UNL     1      -7.331   9.997  69.632  1.00  0.00    -0.071 F  
HETATM   15  C   UNL     1      -9.453  10.271  68.563  1.00  0.00    -0.158 A  
HETATM   16  C   UNL     1      -9.923  12.483  67.532  1.00  0.00    -0.201 A  
HETATM   17  C   UNL     1     -10.275  11.157  67.833  1.00  0.00    -0.202 A  
BRANCH  15  18
HETATM   18  N   UNL     1      -9.937   9.014  68.896  1.00  0.00    -0.183 NA 
HETATM   19  C   UNL     1      -9.397   7.765  68.334  1.00  0.00    -0.143 C  
HETATM   20  C   UNL     1      -8.902   6.819  69.453  1.00  0.00    -0.135 C  
HETATM   21  N   UNL     1      -9.886   6.554  70.530  1.00  0.00    -0.179 NA 
HETATM   22  C   UNL     1     -10.343   7.852  71.069  1.00  0.00    -0.201 C  
HETATM   23  C   UNL     1     -11.012   5.755  70.050  1.00  0.00    -0.311 C  
HETATM   24  C   UNL     1     -10.880   8.852  70.019  1.00  0.00    -0.227 C  
ENDBRANCH  15  18
ENDBRANCH   2   3
TORSDOF 2
ENDMDL
MODEL       94
REMARK 921   NORMALIZED FREE ENERGY PREDICTED BY IDOCK:   -4.59 KCAL/MOL
REMARK 922        TOTAL FREE ENERGY PREDICTED BY IDOCK:   -5.37 KCAL/MOL
REMARK 923 INTER-LIGAND FREE ENERGY PREDICTED BY IDOCK:   -5.26 KCAL/MOL
REMARK 924 INTRA-LIGAND FREE ENERGY PREDICTED BY IDOCK:   -0.11 KCAL/MOL
REMARK 927      BINDING AFFINITY PREDICTED BY RF-SCORE:    0.00 PKD
ROOT
HETATM    1  C   UNL     1     -11.957  13.947  68.252  1.00  0.00    -0.392 C  
HETATM    2  C   UNL     1     -11.520  14.918  67.163  1.00  0.00    -0.335 C  
ENDROOT
BRANCH   2   3
HETATM    3  N   UNL     1     -10.203  15.511  67.469  1.00  0.00    -0.250 NA 
HETATM    4  C   UNL     1     -10.094  16.844  67.846  1.00  0.00    -0.288 C  
HETATM    5  C   UNL     1      -8.961  17.497  68.142  1.00  0.00    -0.266 C  
HETATM    6  C   UNL     1      -9.024  18.915  68.547  1.00  0.00    -0.351 C  
HETATM    7  C   UNL     1      -7.706  16.726  68.048  1.00  0.00    -0.171 C  
HETATM    8  C   UNL     1      -7.790  15.281  67.746  1.00  0.00    -0.161 A  
HETATM    9  O   UNL     1      -6.628  17.284  68.248  1.00  0.00    -0.163 OA 
HETATM   10  O   UNL     1     -10.071  19.541  68.644  1.00  0.00    -0.421 OA 
HETATM   11  O   UNL     1      -7.825  19.476  68.818  1.00  0.00    -0.355 OA 
HETATM   12  C   UNL     1      -6.621  14.518  67.765  1.00  0.00    -0.189 A  
HETATM   13  C   UNL     1      -6.697  13.142  67.574  1.00  0.00    -0.152 A  
HETATM   14  F   UNL     1      -5.554  12.448  67.692  1.00  0.00    -0.071 F  
HETATM   15  C   UNL     1      -7.920  12.490  67.342  1.00  0.00    -0.180 A  
HETATM   16  C   UNL     1      -9.043  14.703  67.479  1.00  0.00    -0.190 A  
HETATM   17  C   UNL     1      -9.062  13.316  67.259  1.00  0.00    -0.221 A  
BRANCH  15  18
HETATM   18  N   UNL     1      -8.063  11.118  67.208  1.00  0.00    -0.131 NA 
HETATM   19  C   UNL     1      -7.957  10.179  68.337  1.00  0.00    -0.102 C  
HETATM   20  C   UNL     1      -9.245   9.336  68.485  1.00  0.00    -0.135 C  
HETATM   21  N   UNL     1      -9.692   8.654  67.247  1.00  0.00    -0.172 NA 
HETATM   22  C   UNL     1      -9.817   9.667  66.179  1.00  0.00    -0.265 C  
HETATM   23  C   UNL     1      -8.774   7.585  66.857  1.00  0.00    -0.129 C  
HETATM   24  C   UNL     1      -8.562  10.541  65.945  1.00  0.00    -0.164 C  
ENDBRANCH  15  18
ENDBRANCH   2   3
TORSDOF 2
ENDMDL
MODEL       95
REMARK 921   NORMALIZED FREE ENERGY PREDICTED BY IDOCK:   -4.57 KCAL/MOL
REMARK 922        TOTAL FREE ENERGY PREDICTED BY IDOCK:   -5.34 KCAL/MOL
REMARK 923 INTER-LIGAND FREE ENERGY PREDICTED BY IDOCK:   -5.28 KCAL/MOL
REMARK 924 INTRA-LIGAND FREE ENERGY PREDICTED BY IDOCK:   -0.06 KCAL/MOL
REMARK 927      BINDING AFFINITY PREDICTED BY RF-SCORE:    0.00 PKD
ROOT
HETATM    1  C   UNL     1      -9.675   8.528  70.623  1.00  0.00    -0.207 C  
HETATM    2  C   UNL     1     -10.517   8.590  69.356  1.00  0.00    -0.218 C  
ENDROOT
BRANCH   2   3
HETATM    3  N   UNL     1     -10.922   9.975  69.047  1.00  0.00    -0.225 NA 
HETATM    4  C   UNL     1     -11.567  10.756  69.999  1.00  0.00    -0.334 C  
HETATM    5  C   UNL     1     -11.989  12.018  69.839  1.00  0.00    -0.391 C  
HETATM    6  C   UNL     1     -12.642  12.715  70.966  1.00  0.00    -0.262 C  
HETATM    7  C   UNL     1     -11.753  12.635  68.519  1.00  0.00    -0.330 C  
HETATM    8  C   UNL     1     -10.982  11.872  67.515  1.00  0.00    -0.299 A  
HETATM    9  O   UNL     1     -12.170  13.770  68.291  1.00  0.00    -0.335 OA 
HETATM   10  O   UNL     1     -12.813  12.203  72.064  1.00  0.00    -0.289 OA 
HETATM   11  O   UNL     1     -13.030  13.980  70.694  1.00  0.00    -0.297 OA 
HETATM   12  C   UNL     1     -10.656  12.486  66.304  1.00  0.00    -0.273 A  
HETATM   13  C   UNL     1      -9.853  11.813  65.388  1.00  0.00    -0.233 A  
HETATM   14  F   UNL     1      -9.497  12.487  64.283  1.00  0.00    -0.051 F  
HETATM   15  C   UNL     1      -9.372  10.517  65.633  1.00  0.00    -0.200 A  
HETATM   16  C   UNL     1     -10.571  10.561  67.810  1.00  0.00    -0.243 A  
HETATM   17  C   UNL     1      -9.791   9.913  66.838  1.00  0.00    -0.252 A  
BRANCH  15  18
HETATM   18  N   UNL     1      -8.519   9.825  64.787  1.00  0.00    -0.152 NA 
HETATM   19  C   UNL     1      -7.836   8.579  65.169  1.00  0.00    -0.116 C  
HETATM   20  C   UNL     1      -8.185   7.429  64.195  1.00  0.00     0.038 C  
HETATM   21  N   UNL     1      -7.988   7.743  62.759  1.00  0.00    -0.138 NA 
HETATM   22  C   UNL     1      -8.739   8.977  62.448  1.00  0.00    -0.207 C  
HETATM   23  C   UNL     1      -6.572   7.889  62.427  1.00  0.00    -0.085 C  
HETATM   24  C   UNL     1      -8.432  10.188  63.359  1.00  0.00    -0.185 C  
ENDBRANCH  15  18
ENDBRANCH   2   3
TORSDOF 2
ENDMDL
MODEL       96
REMARK 921   NORMALIZED FREE ENERGY PREDICTED BY IDOCK:   -4.53 KCAL/MOL
REMARK 922        TOTAL FREE ENERGY PREDICTED BY IDOCK:   -5.29 KCAL/MOL
REMARK 923 INTER-LIGAND FREE ENERGY PREDICTED BY IDOCK:   -4.87 KCAL/MOL
REMARK 924 INTRA-LIGAND FREE ENERGY PREDICTED BY IDOCK:   -0.42 KCAL/MOL
REMARK 927      BINDING AFFINITY PREDICTED BY RF-SCORE:    0.00 PKD
ROOT
HETATM    1  C   UNL     1      -6.224  14.246  68.375  1.00  0.00    -0.103 C  
HETATM    2  C   UNL     1      -7.393  14.615  67.472  1.00  0.00    -0.197 C  
ENDROOT
BRANCH   2   3
HETATM    3  N   UNL     1      -8.668  14.095  68.003  1.00  0.00    -0.168 NA 
HETATM    4  C   UNL     1      -9.501  14.901  68.769  1.00  0.00    -0.214 C  
HETATM    5  C   UNL     1     -10.675  14.545  69.311  1.00  0.00    -0.241 C  
HETATM    6  C   UNL     1     -11.449  15.536  70.083  1.00  0.00    -0.327 C  
HETATM    7  C   UNL     1     -11.120  13.157  69.078  1.00  0.00    -0.234 C  
HETATM    8  C   UNL     1     -10.310  12.300  68.187  1.00  0.00    -0.221 A  
HETATM    9  O   UNL     1     -12.158  12.752  69.598  1.00  0.00    -0.289 OA 
HETATM   10  O   UNL     1     -11.083  16.691  70.252  1.00  0.00    -0.297 OA 
HETATM   11  O   UNL     1     -12.613  15.071  70.587  1.00  0.00    -0.329 OA 
HETATM   12  C   UNL     1     -10.778  11.022  67.869  1.00  0.00    -0.263 A  
HETATM   13  C   UNL     1     -10.073  10.241  66.959  1.00  0.00    -0.218 A  
HETATM   14  F   UNL     1     -10.617   9.061  66.624  1.00  0.00    -0.325 F  
HETATM   15  C   UNL     1      -8.885  10.688  66.359  1.00  0.00    -0.154 A  
HETATM   16  C   UNL     1      -9.107  12.797  67.656  1.00  0.00    -0.193 A  
HETATM   17  C   UNL     1      -8.416  11.954  66.769  1.00  0.00    -0.167 A  
BRANCH  15  18
HETATM   18  N   UNL     1      -8.176   9.979  65.401  1.00  0.00    -0.142 NA 
HETATM   19  C   UNL     1      -8.723   9.639  64.077  1.00  0.00    -0.219 C  
HETATM   20  C   UNL     1      -7.831  10.198  62.944  1.00  0.00    -0.147 C  
HETATM   21  N   UNL     1      -6.394   9.848  63.049  1.00  0.00    -0.114 NA 
HETATM   22  C   UNL     1      -5.912  10.260  64.383  1.00  0.00    -0.134 C  
HETATM   23  C   UNL     1      -6.167   8.421  62.823  1.00  0.00    -0.087 C  
HETATM   24  C   UNL     1      -6.734   9.724  65.578  1.00  0.00    -0.090 C  
ENDBRANCH  15  18
ENDBRANCH   2   3
TORSDOF 2
ENDMDL
MODEL       97
REMARK 921   NORMALIZED FREE ENERGY PREDICTED BY IDOCK:   -4.48 KCAL/MOL
REMARK 922        TOTAL FREE ENERGY PREDICTED BY IDOCK:   -5.24 KCAL/MOL
REMARK 923 INTER-LIGAND FREE ENERGY PREDICTED BY IDOCK:   -4.75 KCAL/MOL
REMARK 924 INTRA-LIGAND FREE ENERGY PREDICTED BY IDOCK:   -0.49 KCAL/MOL
REMARK 927      BINDING AFFINITY PREDICTED BY RF-SCORE:    0.00 PKD
ROOT
HETATM    1  C   UNL     1     -12.492  13.398  70.646  1.00  0.00    -0.385 C  
HETATM    2  C   UNL     1     -12.369  12.887  69.217  1.00  0.00     0.094 C  
ENDROOT
BRANCH   2   3
HETATM    3  N   UNL     1     -10.988  13.027  68.714  1.00  0.00    -0.255 NA 
HETATM    4  C   UNL     1     -10.534  14.240  68.211  1.00  0.00    -0.247 C  
HETATM    5  C   UNL     1      -9.312  14.491  67.721  1.00  0.00    -0.198 C  
HETATM    6  C   UNL     1      -8.984  15.849  67.244  1.00  0.00    -0.195 C  
HETATM    7  C   UNL     1      -8.359  13.364  67.706  1.00  0.00    -0.178 C  
HETATM    8  C   UNL     1      -8.772  12.085  68.322  1.00  0.00    -0.178 A  
HETATM    9  O   UNL     1      -7.241  13.514  67.214  1.00  0.00    -0.137 OA 
HETATM   10  O   UNL     1      -9.774  16.783  67.282  1.00  0.00    -0.242 OA 
HETATM   11  O   UNL     1      -7.728  15.989  66.769  1.00  0.00    -0.230 OA 
HETATM   12  C   UNL     1      -7.842  11.047  68.414  1.00  0.00    -0.127 A  
HETATM   13  C   UNL     1      -8.189   9.873  69.074  1.00  0.00    -0.124 A  
HETATM   14  F   UNL     1      -7.227   8.947  69.211  1.00  0.00    -0.060 F  
HETATM   15  C   UNL     1      -9.461   9.685  69.638  1.00  0.00    -0.210 A  
HETATM   16  C   UNL     1     -10.076  11.952  68.827  1.00  0.00    -0.120 A  
HETATM   17  C   UNL     1     -10.387  10.734  69.453  1.00  0.00    -0.207 A  
BRANCH  15  18
HETATM   18  N   UNL     1      -9.840   8.563  70.360  1.00  0.00    -0.176 NA 
HETATM   19  C   UNL     1      -9.669   8.442  71.816  1.00  0.00    -0.237 C  
HETATM   20  C   UNL     1     -11.021   8.171  72.517  1.00  0.00    -0.369 C  
HETATM   21  N   UNL     1     -11.798   7.037  71.961  1.00  0.00    -0.291 NA 
HETATM   22  C   UNL     1     -11.963   7.256  70.509  1.00  0.00    -0.160 C  
HETATM   23  C   UNL     1     -11.150   5.754  72.231  1.00  0.00    -0.276 C  
HETATM   24  C   UNL     1     -10.655   7.510  69.724  1.00  0.00    -0.241 C  
ENDBRANCH  15  18
ENDBRANCH   2   3
TORSDOF 2
ENDMDL
MODEL       98
REMARK 921   NORMALIZED FREE ENERGY PREDICTED BY IDOCK:   -4.47 KCAL/MOL
REMARK 922        TOTAL FREE ENERGY PREDICTED BY IDOCK:   -5.23 KCAL/MOL
REMARK 923 INTER-LIGAND FREE ENERGY PREDICTED BY IDOCK:   -4.71 KCAL/MOL
REMARK 924 INTRA-LIGAND FREE ENERGY PREDICTED BY IDOCK:   -0.53 KCAL/MOL
REMARK 927      BINDING AFFINITY PREDICTED BY RF-SCORE:    0.00 PKD
ROOT
HETATM    1  C   UNL     1      -6.063  15.408  70.530  1.00  0.00     0.016 C  
HETATM    2  C   UNL     1      -6.497  14.412  69.462  1.00  0.00    -0.133 C  
ENDROOT
BRANCH   2   3
HETATM    3  N   UNL     1      -7.532  14.987  68.580  1.00  0.00    -0.115 NA 
HETATM    4  C   UNL     1      -7.572  16.352  68.328  1.00  0.00    -0.163 C  
HETATM    5  C   UNL     1      -8.461  16.993  67.555  1.00  0.00    -0.208 C  
HETATM    6  C   UNL     1      -8.347  18.454  67.375  1.00  0.00    -0.252 C  
HETATM    7  C   UNL     1      -9.504  16.166  66.918  1.00  0.00    -0.230 C  
HETATM    8  C   UNL     1      -9.436  14.698  67.083  1.00  0.00    -0.234 A  
HETATM    9  O   UNL     1     -10.384  16.702  66.246  1.00  0.00    -0.311 OA 
HETATM   10  O   UNL     1      -7.465  19.128  67.888  1.00  0.00    -0.249 OA 
HETATM   11  O   UNL     1      -9.296  18.996  66.580  1.00  0.00    -0.320 OA 
HETATM   12  C   UNL     1     -10.350  13.898  66.395  1.00  0.00    -0.289 A  
HETATM   13  C   UNL     1     -10.239  12.513  66.468  1.00  0.00    -0.240 A  
HETATM   14  F   UNL     1     -11.087  11.796  65.715  1.00  0.00    -0.330 F  
HETATM   15  C   UNL     1      -9.242  11.886  67.233  1.00  0.00    -0.179 A  
HETATM   16  C   UNL     1      -8.438  14.142  67.900  1.00  0.00    -0.167 A  
HETATM   17  C   UNL     1      -8.390  12.739  67.968  1.00  0.00    -0.173 A  
BRANCH  15  18
HETATM   18  N   UNL     1      -9.045  10.515  67.292  1.00  0.00    -0.143 NA 
HETATM   19  C   UNL     1      -9.769   9.633  68.222  1.00  0.00    -0.146 C  
HETATM   20  C   UNL     1     -10.536   8.527  67.460  1.00  0.00    -0.258 C  
HETATM   21  N   UNL     1      -9.720   7.752  66.494  1.00  0.00    -0.212 NA 
HETATM   22  C   UNL     1      -9.065   8.703  65.572  1.00  0.00    -0.131 C  
HETATM   23  C   UNL     1      -8.735   6.910  67.171  1.00  0.00    -0.120 C  
HETATM   24  C   UNL     1      -8.254   9.831  66.251  1.00  0.00    -0.116 C  
ENDBRANCH  15  18
ENDBRANCH   2   3
TORSDOF 2
ENDMDL
MODEL       99
REMARK 921   NORMALIZED FREE ENERGY PREDICTED BY IDOCK:   -4.46 KCAL/MOL
REMARK 922        TOTAL FREE ENERGY PREDICTED BY IDOCK:   -5.22 KCAL/MOL
REMARK 923 INTER-LIGAND FREE ENERGY PREDICTED BY IDOCK:   -4.84 KCAL/MOL
REMARK 924 INTRA-LIGAND FREE ENERGY PREDICTED BY IDOCK:   -0.39 KCAL/MOL
REMARK 927      BINDING AFFINITY PREDICTED BY RF-SCORE:    0.00 PKD
ROOT
HETATM    1  C   UNL     1      -8.832  13.368  68.304  1.00  0.00    -0.172 C  
HETATM    2  C   UNL     1     -10.149  12.719  67.903  1.00  0.00    -0.231 C  
ENDROOT
BRANCH   2   3
HETATM    3  N   UNL     1     -10.396  11.483  68.672  1.00  0.00    -0.207 NA 
HETATM    4  C   UNL     1     -11.321  11.464  69.709  1.00  0.00    -0.255 C  
HETATM    5  C   UNL     1     -11.628  10.413  70.482  1.00  0.00    -0.433 C  
HETATM    6  C   UNL     1     -12.656  10.559  71.532  1.00  0.00    -0.424 C  
HETATM    7  C   UNL     1     -10.905   9.156  70.211  1.00  0.00    -0.246 C  
HETATM    8  C   UNL     1      -9.986   9.109  69.053  1.00  0.00    -0.189 A  
HETATM    9  O   UNL     1     -11.098   8.172  70.924  1.00  0.00    -0.249 OA 
HETATM   10  O   UNL     1     -13.267  11.599  71.735  1.00  0.00    -0.453 OA 
HETATM   11  O   UNL     1     -12.884   9.439  72.253  1.00  0.00    -0.392 OA 
HETATM   12  C   UNL     1      -9.382   7.895  68.719  1.00  0.00    -0.146 A  
HETATM   13  C   UNL     1      -8.588   7.816  67.579  1.00  0.00    -0.122 A  
HETATM   14  F   UNL     1      -8.108   6.605  67.257  1.00  0.00    -0.113 F  
HETATM   15  C   UNL     1      -8.356   8.930  66.756  1.00  0.00    -0.111 A  
HETATM   16  C   UNL     1      -9.765  10.274  68.300  1.00  0.00    -0.142 A  
HETATM   17  C   UNL     1      -8.928  10.149  67.179  1.00  0.00    -0.146 A  
BRANCH  15  18
HETATM   18  N   UNL     1      -7.627   8.895  65.577  1.00  0.00    -0.086 NA 
HETATM   19  C   UNL     1      -8.244   8.743  64.249  1.00  0.00    -0.163 C  
HETATM   20  C   UNL     1      -7.872   9.924  63.323  1.00  0.00    -0.146 C  
HETATM   21  N   UNL     1      -6.420  10.208  63.222  1.00  0.00    -0.136 NA 
HETATM   22  C   UNL     1      -5.888  10.391  64.589  1.00  0.00    -0.124 C  
HETATM   23  C   UNL     1      -5.708   9.143  62.516  1.00  0.00    -0.086 C  
HETATM   24  C   UNL     1      -6.193   9.242  65.577  1.00  0.00    -0.064 C  
ENDBRANCH  15  18
ENDBRANCH   2   3
TORSDOF 2
ENDMDL
MODEL      100
REMARK 921   NORMALIZED FREE ENERGY PREDICTED BY IDOCK:   -4.45 KCAL/MOL
REMARK 922        TOTAL FREE ENERGY PREDICTED BY IDOCK:   -5.21 KCAL/MOL
REMARK 923 INTER-LIGAND FREE ENERGY PREDICTED BY IDOCK:   -5.07 KCAL/MOL
REMARK 924 INTRA-LIGAND FREE ENERGY PREDICTED BY IDOCK:   -0.14 KCAL/MOL
REMARK 927      BINDING AFFINITY PREDICTED BY RF-SCORE:    0.00 PKD
ROOT
HETATM    1  C   UNL     1     -12.414   8.352  71.207  1.00  0.00    -0.264 C  
HETATM    2  C   UNL     1     -11.108   8.440  70.429  1.00  0.00    -0.231 C  
ENDROOT
BRANCH   2   3
HETATM    3  N   UNL     1     -11.103   9.600  69.517  1.00  0.00    -0.207 NA 
HETATM    4  C   UNL     1     -11.539  10.846  69.949  1.00  0.00    -0.331 C  
HETATM    5  C   UNL     1     -11.590  11.969  69.219  1.00  0.00    -0.380 C  
HETATM    6  C   UNL     1     -12.062  13.221  69.842  1.00  0.00    -0.308 C  
HETATM    7  C   UNL     1     -11.147  11.868  67.814  1.00  0.00    -0.239 C  
HETATM    8  C   UNL     1     -10.584  10.584  67.346  1.00  0.00    -0.313 A  
HETATM    9  O   UNL     1     -11.225  12.849  67.076  1.00  0.00    -0.266 OA 
HETATM   10  O   UNL     1     -12.406  13.301  71.013  1.00  0.00    -0.362 OA 
HETATM   11  O   UNL     1     -12.075  14.290  69.015  1.00  0.00    -0.326 OA 
HETATM   12  C   UNL     1     -10.059  10.507  66.054  1.00  0.00    -0.317 A  
HETATM   13  C   UNL     1      -9.443   9.333  65.633  1.00  0.00    -0.256 A  
HETATM   14  F   UNL     1      -8.877   9.347  64.416  1.00  0.00    -0.188 F  
HETATM   15  C   UNL     1      -9.348   8.205  66.463  1.00  0.00    -0.206 A  
HETATM   16  C   UNL     1     -10.561   9.482  68.217  1.00  0.00    -0.216 A  
HETATM   17  C   UNL     1      -9.959   8.309  67.731  1.00  0.00    -0.235 A  
BRANCH  15  18
HETATM   18  N   UNL     1      -8.691   7.032  66.120  1.00  0.00    -0.142 NA 
HETATM   19  C   UNL     1      -8.407   6.642  64.729  1.00  0.00    -0.006 C  
HETATM   20  C   UNL     1      -6.891   6.428  64.509  1.00  0.00    -0.043 C  
HETATM   21  N   UNL     1      -6.241   5.513  65.478  1.00  0.00    -0.033 NA 
HETATM   22  C   UNL     1      -6.536   5.998  66.842  1.00  0.00    -0.050 C  
HETATM   23  C   UNL     1      -6.686   4.132  65.300  1.00  0.00    -0.049 C  
HETATM   24  C   UNL     1      -8.034   6.215  67.158  1.00  0.00    -0.102 C  
ENDBRANCH  15  18
ENDBRANCH   2   3
TORSDOF 2
ENDMDL
MODEL      101
REMARK 921   NORMALIZED FREE ENERGY PREDICTED BY IDOCK:   -4.40 KCAL/MOL
REMARK 922        TOTAL FREE ENERGY PREDICTED BY IDOCK:   -5.16 KCAL/MOL
REMARK 923 INTER-LIGAND FREE ENERGY PREDICTED BY IDOCK:   -5.18 KCAL/MOL
REMARK 924 INTRA-LIGAND FREE ENERGY PREDICTED BY IDOCK:    0.02 KCAL/MOL
REMARK 927      BINDING AFFINITY PREDICTED BY RF-SCORE:    0.00 PKD
ROOT
HETATM    1  C   UNL     1      -5.463  11.446  68.051  1.00  0.00    -0.043 C  
HETATM    2  C   UNL     1      -6.299  11.589  69.315  1.00  0.00    -0.091 C  
ENDROOT
BRANCH   2   3
HETATM    3  N   UNL     1      -7.517  10.757  69.251  1.00  0.00    -0.130 NA 
HETATM    4  C   UNL     1      -7.530   9.474  69.783  1.00  0.00    -0.098 C  
HETATM    5  C   UNL     1      -8.566   8.622  69.781  1.00  0.00    -0.131 C  
HETATM    6  C   UNL     1      -8.417   7.296  70.412  1.00  0.00    -0.139 C  
HETATM    7  C   UNL     1      -9.810   9.092  69.142  1.00  0.00    -0.175 C  
HETATM    8  C   UNL     1      -9.866  10.486  68.653  1.00  0.00    -0.183 A  
HETATM    9  O   UNL     1     -10.777   8.336  69.055  1.00  0.00    -0.184 OA 
HETATM   10  O   UNL     1      -7.388   6.923  70.959  1.00  0.00    -0.075 OA 
HETATM   11  O   UNL     1      -9.520   6.518  70.350  1.00  0.00    -0.161 OA 
HETATM   12  C   UNL     1     -11.073  10.977  68.149  1.00  0.00    -0.329 A  
HETATM   13  C   UNL     1     -11.164  12.313  67.771  1.00  0.00    -0.276 A  
HETATM   14  F   UNL     1     -12.371  12.751  67.379  1.00  0.00    -0.336 F  
HETATM   15  C   UNL     1     -10.070  13.188  67.862  1.00  0.00    -0.232 A  
HETATM   16  C   UNL     1      -8.719  11.293  68.734  1.00  0.00    -0.103 A  
HETATM   17  C   UNL     1      -8.855  12.624  68.308  1.00  0.00    -0.172 A  
BRANCH  15  18
HETATM   18  N   UNL     1     -10.121  14.540  67.560  1.00  0.00    -0.228 NA 
HETATM   19  C   UNL     1      -8.986  15.456  67.755  1.00  0.00    -0.173 C  
HETATM   20  C   UNL     1      -8.596  16.153  66.430  1.00  0.00    -0.330 C  
HETATM   21  N   UNL     1      -9.716  16.813  65.717  1.00  0.00    -0.543 NA 
HETATM   22  C   UNL     1     -10.791  15.819  65.522  1.00  0.00    -0.332 C  
HETATM   23  C   UNL     1     -10.204  17.984  66.445  1.00  0.00    -0.393 C  
HETATM   24  C   UNL     1     -11.261  15.092  66.803  1.00  0.00    -0.322 C  
ENDBRANCH  15  18
ENDBRANCH   2   3
TORSDOF 2
ENDMDL
MODEL      102
REMARK 921   NORMALIZED FREE ENERGY PREDICTED BY IDOCK:   -4.35 KCAL/MOL
REMARK 922        TOTAL FREE ENERGY PREDICTED BY IDOCK:   -5.10 KCAL/MOL
REMARK 923 INTER-LIGAND FREE ENERGY PREDICTED BY IDOCK:   -4.69 KCAL/MOL
REMARK 924 INTRA-LIGAND FREE ENERGY PREDICTED BY IDOCK:   -0.41 KCAL/MOL
REMARK 927      BINDING AFFINITY PREDICTED BY RF-SCORE:    0.00 PKD
ROOT
HETATM    1  C   UNL     1      -9.699  10.560  63.784  1.00  0.00    -0.385 C  
HETATM    2  C   UNL     1     -10.544  11.077  64.941  1.00  0.00    -0.258 C  
ENDROOT
BRANCH   2   3
HETATM    3  N   UNL     1      -9.825  12.111  65.711  1.00  0.00    -0.246 NA 
HETATM    4  C   UNL     1     -10.065  13.460  65.486  1.00  0.00    -0.266 C  
HETATM    5  C   UNL     1      -9.475  14.489  66.111  1.00  0.00    -0.290 C  
HETATM    6  C   UNL     1      -9.864  15.871  65.764  1.00  0.00    -0.345 C  
HETATM    7  C   UNL     1      -8.465  14.153  67.133  1.00  0.00    -0.195 C  
HETATM    8  C   UNL     1      -8.253  12.730  67.471  1.00  0.00    -0.179 A  
HETATM    9  O   UNL     1      -7.845  15.053  67.700  1.00  0.00    -0.139 OA 
HETATM   10  O   UNL     1     -10.719  16.139  64.932  1.00  0.00    -0.612 OA 
HETATM   11  O   UNL     1      -9.205  16.829  66.452  1.00  0.00    -0.249 OA 
HETATM   12  C   UNL     1      -7.382  12.405  68.514  1.00  0.00    -0.105 A  
HETATM   13  C   UNL     1      -7.245  11.077  68.903  1.00  0.00    -0.103 A  
HETATM   14  F   UNL     1      -6.465  10.834  69.968  1.00  0.00    -0.088 F  
HETATM   15  C   UNL     1      -7.943  10.039  68.264  1.00  0.00    -0.097 A  
HETATM   16  C   UNL     1      -8.953  11.740  66.760  1.00  0.00    -0.196 A  
HETATM   17  C   UNL     1      -8.752  10.411  67.170  1.00  0.00    -0.130 A  
BRANCH  15  18
HETATM   18  N   UNL     1      -7.893   8.708  68.650  1.00  0.00    -0.105 NA 
HETATM   19  C   UNL     1      -8.375   8.224  69.953  1.00  0.00    -0.125 C  
HETATM   20  C   UNL     1      -9.463   7.139  69.779  1.00  0.00    -0.149 C  
HETATM   21  N   UNL     1      -9.091   6.018  68.883  1.00  0.00    -0.122 NA 
HETATM   22  C   UNL     1      -8.664   6.583  67.587  1.00  0.00    -0.114 C  
HETATM   23  C   UNL     1      -8.042   5.184  69.468  1.00  0.00    -0.083 C  
HETATM   24  C   UNL     1      -7.557   7.660  67.666  1.00  0.00    -0.109 C  
ENDBRANCH  15  18
ENDBRANCH   2   3
TORSDOF 2
ENDMDL
MODEL      103
REMARK 921   NORMALIZED FREE ENERGY PREDICTED BY IDOCK:   -4.34 KCAL/MOL
REMARK 922        TOTAL FREE ENERGY PREDICTED BY IDOCK:   -5.08 KCAL/MOL
REMARK 923 INTER-LIGAND FREE ENERGY PREDICTED BY IDOCK:   -4.61 KCAL/MOL
REMARK 924 INTRA-LIGAND FREE ENERGY PREDICTED BY IDOCK:   -0.47 KCAL/MOL
REMARK 927      BINDING AFFINITY PREDICTED BY RF-SCORE:    0.00 PKD
ROOT
HETATM    1  C   UNL     1     -11.874   9.053  71.919  1.00  0.00    -0.447 C  
HETATM    2  C   UNL     1     -10.402   8.712  71.731  1.00  0.00    -0.316 C  
ENDROOT
BRANCH   2   3
HETATM    3  N   UNL     1     -10.220   7.292  71.372  1.00  0.00    -0.189 NA 
HETATM    4  C   UNL     1     -10.404   6.291  72.318  1.00  0.00    -0.190 C  
HETATM    5  C   UNL     1     -10.263   4.973  72.118  1.00  0.00    -0.259 C  
HETATM    6  C   UNL     1     -10.518   4.038  73.232  1.00  0.00    -0.177 C  
HETATM    7  C   UNL     1      -9.865   4.545  70.763  1.00  0.00    -0.210 C  
HETATM    8  C   UNL     1      -9.756   5.572  69.705  1.00  0.00    -0.236 A  
HETATM    9  O   UNL     1      -9.661   3.354  70.532  1.00  0.00    -0.177 OA 
HETATM   10  O   UNL     1     -10.870   4.400  74.346  1.00  0.00    -0.262 OA 
HETATM   11  O   UNL     1     -10.344   2.735  72.922  1.00  0.00    -0.140 OA 
HETATM   12  C   UNL     1      -9.490   5.168  68.395  1.00  0.00    -0.168 A  
HETATM   13  C   UNL     1      -9.477   6.114  67.376  1.00  0.00    -0.114 A  
HETATM   14  F   UNL     1      -9.306   5.656  66.125  1.00  0.00    -0.149 F  
HETATM   15  C   UNL     1      -9.705   7.477  67.623  1.00  0.00    -0.147 A  
HETATM   16  C   UNL     1      -9.953   6.924  70.034  1.00  0.00    -0.180 A  
HETATM   17  C   UNL     1      -9.896   7.844  68.973  1.00  0.00    -0.171 A  
BRANCH  15  18
HETATM   18  N   UNL     1      -9.766   8.453  66.639  1.00  0.00    -0.229 NA 
HETATM   19  C   UNL     1     -10.896   9.384  66.493  1.00  0.00     0.202 C  
HETATM   20  C   UNL     1     -10.422  10.854  66.577  1.00  0.00    -0.253 C  
HETATM   21  N   UNL     1      -9.303  11.204  65.669  1.00  0.00    -0.214 NA 
HETATM   22  C   UNL     1      -8.197  10.254  65.909  1.00  0.00    -0.148 C  
HETATM   23  C   UNL     1      -9.719  11.188  64.267  1.00  0.00    -0.271 C  
HETATM   24  C   UNL     1      -8.578   8.758  65.819  1.00  0.00    -0.164 C  
ENDBRANCH  15  18
ENDBRANCH   2   3
TORSDOF 2
ENDMDL
MODEL      104
REMARK 921   NORMALIZED FREE ENERGY PREDICTED BY IDOCK:   -4.26 KCAL/MOL
REMARK 922        TOTAL FREE ENERGY PREDICTED BY IDOCK:   -4.99 KCAL/MOL
REMARK 923 INTER-LIGAND FREE ENERGY PREDICTED BY IDOCK:   -4.46 KCAL/MOL
REMARK 924 INTRA-LIGAND FREE ENERGY PREDICTED BY IDOCK:   -0.54 KCAL/MOL
REMARK 927      BINDING AFFINITY PREDICTED BY RF-SCORE:    0.00 PKD
ROOT
HETATM    1  C   UNL     1      -9.243   8.823  70.869  1.00  0.00    -0.261 C  
HETATM    2  C   UNL     1      -8.030   9.255  70.057  1.00  0.00    -0.121 C  
ENDROOT
BRANCH   2   3
HETATM    3  N   UNL     1      -8.253   9.060  68.611  1.00  0.00    -0.117 NA 
HETATM    4  C   UNL     1      -8.202   7.790  68.049  1.00  0.00    -0.123 C  
HETATM    5  C   UNL     1      -8.380   7.484  66.756  1.00  0.00    -0.126 C  
HETATM    6  C   UNL     1      -8.313   6.073  66.327  1.00  0.00    -0.122 C  
HETATM    7  C   UNL     1      -8.647   8.609  65.839  1.00  0.00    -0.157 C  
HETATM    8  C   UNL     1      -8.807   9.961  66.413  1.00  0.00    -0.159 A  
HETATM    9  O   UNL     1      -8.760   8.400  64.632  1.00  0.00    -0.085 OA 
HETATM   10  O   UNL     1      -8.114   5.144  67.099  1.00  0.00    -0.103 OA 
HETATM   11  O   UNL     1      -8.503   5.879  65.004  1.00  0.00    -0.150 OA 
HETATM   12  C   UNL     1      -9.170  11.015  65.571  1.00  0.00    -0.235 A  
HETATM   13  C   UNL     1      -9.414  12.272  66.113  1.00  0.00    -0.217 A  
HETATM   14  F   UNL     1      -9.847  13.223  65.269  1.00  0.00    -0.270 F  
HETATM   15  C   UNL     1      -9.287  12.527  67.488  1.00  0.00    -0.187 A  
HETATM   16  C   UNL     1      -8.621  10.152  67.793  1.00  0.00    -0.118 A  
HETATM   17  C   UNL     1      -8.846  11.448  68.285  1.00  0.00    -0.167 A  
BRANCH  15  18
HETATM   18  N   UNL     1      -9.578  13.742  68.090  1.00  0.00    -0.211 NA 
HETATM   19  C   UNL     1      -8.685  14.910  68.027  1.00  0.00    -0.165 C  
HETATM   20  C   UNL     1      -9.406  16.131  67.410  1.00  0.00    -0.217 C  
HETATM   21  N   UNL     1     -10.708  16.470  68.034  1.00  0.00    -0.333 NA 
HETATM   22  C   UNL     1     -11.558  15.262  68.018  1.00  0.00    -0.312 C  
HETATM   23  C   UNL     1     -10.539  16.980  69.394  1.00  0.00    -0.236 C  
HETATM   24  C   UNL     1     -10.923  13.997  68.640  1.00  0.00    -0.263 C  
ENDBRANCH  15  18
ENDBRANCH   2   3
TORSDOF 2
ENDMDL
MODEL      105
REMARK 921   NORMALIZED FREE ENERGY PREDICTED BY IDOCK:   -4.25 KCAL/MOL
REMARK 922        TOTAL FREE ENERGY PREDICTED BY IDOCK:   -4.99 KCAL/MOL
REMARK 923 INTER-LIGAND FREE ENERGY PREDICTED BY IDOCK:   -4.55 KCAL/MOL
REMARK 924 INTRA-LIGAND FREE ENERGY PREDICTED BY IDOCK:   -0.44 KCAL/MOL
REMARK 927      BINDING AFFINITY PREDICTED BY RF-SCORE:    0.00 PKD
ROOT
HETATM    1  C   UNL     1      -5.973   7.755  67.851  1.00  0.00    -0.041 C  
HETATM    2  C   UNL     1      -7.191   8.611  68.170  1.00  0.00    -0.087 C  
ENDROOT
BRANCH   2   3
HETATM    3  N   UNL     1      -7.877   8.137  69.387  1.00  0.00    -0.103 NA 
HETATM    4  C   UNL     1      -7.288   7.186  70.211  1.00  0.00    -0.083 C  
HETATM    5  C   UNL     1      -7.809   6.672  71.334  1.00  0.00    -0.099 C  
HETATM    6  C   UNL     1      -7.036   5.680  72.107  1.00  0.00    -0.087 C  
HETATM    7  C   UNL     1      -9.145   7.160  71.729  1.00  0.00    -0.139 C  
HETATM    8  C   UNL     1      -9.761   8.243  70.933  1.00  0.00    -0.204 A  
HETATM    9  O   UNL     1      -9.703   6.684  72.717  1.00  0.00    -0.153 OA 
HETATM   10  O   UNL     1      -5.920   5.299  71.784  1.00  0.00    -0.023 OA 
HETATM   11  O   UNL     1      -7.657   5.227  73.218  1.00  0.00    -0.094 OA 
HETATM   12  C   UNL     1     -10.973   8.790  71.361  1.00  0.00    -0.360 A  
HETATM   13  C   UNL     1     -11.517   9.871  70.675  1.00  0.00    -0.334 A  
HETATM   14  F   UNL     1     -12.636  10.412  71.184  1.00  0.00    -0.369 F  
HETATM   15  C   UNL     1     -10.894  10.423  69.544  1.00  0.00    -0.255 A  
HETATM   16  C   UNL     1      -9.103   8.718  69.787  1.00  0.00    -0.151 A  
HETATM   17  C   UNL     1      -9.711   9.788  69.110  1.00  0.00    -0.188 A  
BRANCH  15  18
HETATM   18  N   UNL     1     -11.357  11.537  68.860  1.00  0.00    -0.241 NA 
HETATM   19  C   UNL     1     -11.537  12.856  69.489  1.00  0.00    -0.282 C  
HETATM   20  C   UNL     1     -10.708  13.939  68.759  1.00  0.00    -0.262 C  
HETATM   21  N   UNL     1     -10.912  14.000  67.292  1.00  0.00    -0.290 NA 
HETATM   22  C   UNL     1     -10.670  12.654  66.734  1.00  0.00    -0.239 C  
HETATM   23  C   UNL     1     -12.250  14.481  66.952  1.00  0.00    -0.189 C  
HETATM   24  C   UNL     1     -11.479  11.511  67.390  1.00  0.00    -0.274 C  
ENDBRANCH  15  18
ENDBRANCH   2   3
TORSDOF 2
ENDMDL
MODEL      106
REMARK 921   NORMALIZED FREE ENERGY PREDICTED BY IDOCK:   -4.21 KCAL/MOL
REMARK 922        TOTAL FREE ENERGY PREDICTED BY IDOCK:   -4.94 KCAL/MOL
REMARK 923 INTER-LIGAND FREE ENERGY PREDICTED BY IDOCK:   -4.55 KCAL/MOL
REMARK 924 INTRA-LIGAND FREE ENERGY PREDICTED BY IDOCK:   -0.40 KCAL/MOL
REMARK 927      BINDING AFFINITY PREDICTED BY RF-SCORE:    0.00 PKD
ROOT
HETATM    1  C   UNL     1     -12.534  15.628  69.836  1.00  0.00    -0.192 C  
HETATM    2  C   UNL     1     -11.817  14.332  69.482  1.00  0.00    -0.329 C  
ENDROOT
BRANCH   2   3
HETATM    3  N   UNL     1     -11.361  14.337  68.078  1.00  0.00    -0.280 NA 
HETATM    4  C   UNL     1     -12.145  13.781  67.074  1.00  0.00    -0.397 C  
HETATM    5  C   UNL     1     -11.840  13.717  65.770  1.00  0.00    -0.392 C  
HETATM    6  C   UNL     1     -12.801  13.109  64.828  1.00  0.00    -0.229 C  
HETATM    7  C   UNL     1     -10.540  14.285  65.363  1.00  0.00    -0.354 C  
HETATM    8  C   UNL     1      -9.723  14.973  66.386  1.00  0.00    -0.305 A  
HETATM    9  O   UNL     1     -10.177  14.204  64.191  1.00  0.00     0.021 OA 
HETATM   10  O   UNL     1     -13.886  12.661  65.171  1.00  0.00     0.543 OA 
HETATM   11  O   UNL     1     -12.392  13.094  63.541  1.00  0.00    -0.680 OA 
HETATM   12  C   UNL     1      -8.545  15.611  65.992  1.00  0.00     0.027 A  
HETATM   13  C   UNL     1      -7.815  16.340  66.925  1.00  0.00    -0.243 A  
HETATM   14  F   UNL     1      -6.742  17.006  66.471  1.00  0.00    -0.209 F  
HETATM   15  C   UNL     1      -8.215  16.440  68.268  1.00  0.00    -0.177 A  
HETATM   16  C   UNL     1     -10.162  14.996  67.720  1.00  0.00    -0.236 A  
HETATM   17  C   UNL     1      -9.371  15.716  68.630  1.00  0.00    -0.201 A  
BRANCH  15  18
HETATM   18  N   UNL     1      -7.562  17.201  69.225  1.00  0.00    -0.111 NA 
HETATM   19  C   UNL     1      -6.364  16.742  69.945  1.00  0.00    -0.085 C  
HETATM   20  C   UNL     1      -5.182  17.719  69.743  1.00  0.00    -0.198 C  
HETATM   21  N   UNL     1      -5.487  19.140  70.038  1.00  0.00    -0.216 NA 
HETATM   22  C   UNL     1      -6.670  19.534  69.245  1.00  0.00    -0.341 C  
HETATM   23  C   UNL     1      -5.711  19.359  71.466  1.00  0.00    -0.172 C  
HETATM   24  C   UNL     1      -7.909  18.624  69.408  1.00  0.00     0.210 C  
ENDBRANCH  15  18
ENDBRANCH   2   3
TORSDOF 2
ENDMDL
MODEL      107
REMARK 921   NORMALIZED FREE ENERGY PREDICTED BY IDOCK:   -4.19 KCAL/MOL
REMARK 922        TOTAL FREE ENERGY PREDICTED BY IDOCK:   -4.92 KCAL/MOL
REMARK 923 INTER-LIGAND FREE ENERGY PREDICTED BY IDOCK:   -4.86 KCAL/MOL
REMARK 924 INTRA-LIGAND FREE ENERGY PREDICTED BY IDOCK:   -0.07 KCAL/MOL
REMARK 927      BINDING AFFINITY PREDICTED BY RF-SCORE:    0.00 PKD
ROOT
HETATM    1  C   UNL     1      -5.563  15.021  69.375  1.00  0.00    -0.092 C  
HETATM    2  C   UNL     1      -6.893  14.292  69.238  1.00  0.00    -0.124 C  
ENDROOT
BRANCH   2   3
HETATM    3  N   UNL     1      -7.848  15.067  68.421  1.00  0.00    -0.120 NA 
HETATM    4  C   UNL     1      -7.974  16.440  68.586  1.00  0.00    -0.220 C  
HETATM    5  C   UNL     1      -8.805  17.250  67.914  1.00  0.00    -0.235 C  
HETATM    6  C   UNL     1      -8.797  18.699  68.199  1.00  0.00    -0.311 C  
HETATM    7  C   UNL     1      -9.678  16.616  66.907  1.00  0.00    -0.254 C  
HETATM    8  C   UNL     1      -9.505  15.174  66.634  1.00  0.00    -0.285 A  
HETATM    9  O   UNL     1     -10.505  17.295  66.300  1.00  0.00    -0.328 OA 
HETATM   10  O   UNL     1      -8.053  19.218  69.019  1.00  0.00    -0.332 OA 
HETATM   11  O   UNL     1      -9.675  19.419  67.468  1.00  0.00    -0.313 OA 
HETATM   12  C   UNL     1     -10.246  14.586  65.606  1.00  0.00    -0.379 A  
HETATM   13  C   UNL     1     -10.026  13.253  65.278  1.00  0.00    -0.173 A  
HETATM   14  F   UNL     1     -10.701  12.768  64.224  1.00  0.00    -0.312 F  
HETATM   15  C   UNL     1      -9.088  12.464  65.963  1.00  0.00     0.030 A  
HETATM   16  C   UNL     1      -8.579  14.435  67.389  1.00  0.00    -0.202 A  
HETATM   17  C   UNL     1      -8.418  13.083  67.040  1.00  0.00    -0.142 A  
BRANCH  15  18
HETATM   18  N   UNL     1      -8.782  11.151  65.638  1.00  0.00    -0.163 NA 
HETATM   19  C   UNL     1      -9.431  10.417  64.540  1.00  0.00    -0.286 C  
HETATM   20  C   UNL     1      -8.389   9.906  63.517  1.00  0.00    -0.166 C  
HETATM   21  N   UNL     1      -7.265   9.135  64.102  1.00  0.00    -0.095 NA 
HETATM   22  C   UNL     1      -6.642   9.955  65.161  1.00  0.00    -0.105 C  
HETATM   23  C   UNL     1      -7.710   7.844  64.626  1.00  0.00    -0.120 C  
HETATM   24  C   UNL     1      -7.610  10.488  66.242  1.00  0.00    -0.133 C  
ENDBRANCH  15  18
ENDBRANCH   2   3
TORSDOF 2
ENDMDL
MODEL      108
REMARK 921   NORMALIZED FREE ENERGY PREDICTED BY IDOCK:   -4.10 KCAL/MOL
REMARK 922        TOTAL FREE ENERGY PREDICTED BY IDOCK:   -4.82 KCAL/MOL
REMARK 923 INTER-LIGAND FREE ENERGY PREDICTED BY IDOCK:   -4.31 KCAL/MOL
REMARK 924 INTRA-LIGAND FREE ENERGY PREDICTED BY IDOCK:   -0.51 KCAL/MOL
REMARK 927      BINDING AFFINITY PREDICTED BY RF-SCORE:    0.00 PKD
ROOT
HETATM    1  C   UNL     1      -6.074   7.006  62.911  1.00  0.00    -0.041 C  
HETATM    2  C   UNL     1      -6.989   7.952  63.676  1.00  0.00    -0.075 C  
ENDROOT
BRANCH   2   3
HETATM    3  N   UNL     1      -7.831   7.221  64.644  1.00  0.00    -0.119 NA 
HETATM    4  C   UNL     1      -7.690   5.850  64.814  1.00  0.00    -0.099 C  
HETATM    5  C   UNL     1      -8.394   5.075  65.651  1.00  0.00    -0.120 C  
HETATM    6  C   UNL     1      -8.101   3.630  65.725  1.00  0.00    -0.093 C  
HETATM    7  C   UNL     1      -9.427   5.745  66.465  1.00  0.00    -0.153 C  
HETATM    8  C   UNL     1      -9.540   7.217  66.384  1.00  0.00    -0.169 A  
HETATM    9  O   UNL     1     -10.148   5.080  67.208  1.00  0.00    -0.182 OA 
HETATM   10  O   UNL     1      -7.228   3.086  65.063  1.00  0.00    -0.063 OA 
HETATM   11  O   UNL     1      -8.872   2.945  66.597  1.00  0.00    -0.131 OA 
HETATM   12  C   UNL     1     -10.436   7.874  67.230  1.00  0.00    -0.390 A  
HETATM   13  C   UNL     1     -10.486   9.264  67.230  1.00  0.00    -0.264 A  
HETATM   14  F   UNL     1     -11.300   9.842  68.128  1.00  0.00    -0.279 F  
HETATM   15  C   UNL     1      -9.672  10.037  66.386  1.00  0.00    -0.210 A  
HETATM   16  C   UNL     1      -8.725   7.923  65.484  1.00  0.00    -0.081 A  
HETATM   17  C   UNL     1      -8.838   9.324  65.498  1.00  0.00    -0.224 A  
BRANCH  15  18
HETATM   18  N   UNL     1      -9.634  11.423  66.388  1.00  0.00    -0.200 NA 
HETATM   19  C   UNL     1     -10.732  12.263  65.885  1.00  0.00    -0.258 C  
HETATM   20  C   UNL     1     -11.244  13.229  66.979  1.00  0.00    -0.292 C  
HETATM   21  N   UNL     1     -10.192  14.040  67.639  1.00  0.00    -0.240 NA 
HETATM   22  C   UNL     1      -9.154  13.123  68.154  1.00  0.00    -0.200 C  
HETATM   23  C   UNL     1      -9.619  15.028  66.725  1.00  0.00    -0.245 C  
HETATM   24  C   UNL     1      -8.568  12.138  67.117  1.00  0.00    -0.185 C  
ENDBRANCH  15  18
ENDBRANCH   2   3
TORSDOF 2
ENDMDL
MODEL      109
REMARK 921   NORMALIZED FREE ENERGY PREDICTED BY IDOCK:   -4.10 KCAL/MOL
REMARK 922        TOTAL FREE ENERGY PREDICTED BY IDOCK:   -4.82 KCAL/MOL
REMARK 923 INTER-LIGAND FREE ENERGY PREDICTED BY IDOCK:   -4.45 KCAL/MOL
REMARK 924 INTRA-LIGAND FREE ENERGY PREDICTED BY IDOCK:   -0.37 KCAL/MOL
REMARK 927      BINDING AFFINITY PREDICTED BY RF-SCORE:    0.00 PKD
ROOT
HETATM    1  C   UNL     1     -12.446  11.779  71.159  1.00  0.00    -0.390 C  
HETATM    2  C   UNL     1     -12.374  11.434  69.678  1.00  0.00    -0.170 C  
ENDROOT
BRANCH   2   3
HETATM    3  N   UNL     1     -10.979  11.434  69.194  1.00  0.00    -0.231 NA 
HETATM    4  C   UNL     1     -10.430  12.569  68.610  1.00  0.00    -0.200 C  
HETATM    5  C   UNL     1      -9.185  12.693  68.128  1.00  0.00    -0.209 C  
HETATM    6  C   UNL     1      -8.752  13.983  67.557  1.00  0.00    -0.198 C  
HETATM    7  C   UNL     1      -8.317  11.503  68.218  1.00  0.00    -0.154 C  
HETATM    8  C   UNL     1      -8.833  10.308  68.921  1.00  0.00    -0.157 A  
HETATM    9  O   UNL     1      -7.184  11.534  67.739  1.00  0.00    -0.085 OA 
HETATM   10  O   UNL     1      -9.470  14.972  67.507  1.00  0.00    -0.200 OA 
HETATM   11  O   UNL     1      -7.481  13.996  67.098  1.00  0.00    -0.104 OA 
HETATM   12  C   UNL     1      -7.983   9.216  69.111  1.00  0.00    -0.097 A  
HETATM   13  C   UNL     1      -8.425   8.124  69.850  1.00  0.00    -0.125 A  
HETATM   14  F   UNL     1      -7.535   7.145  70.077  1.00  0.00    -0.077 F  
HETATM   15  C   UNL     1      -9.716   8.073  70.401  1.00  0.00    -0.178 A  
HETATM   16  C   UNL     1     -10.151  10.309  69.407  1.00  0.00    -0.235 A  
HETATM   17  C   UNL     1     -10.560   9.168  70.117  1.00  0.00    -0.258 A  
BRANCH  15  18
HETATM   18  N   UNL     1     -10.187   7.040  71.197  1.00  0.00    -0.195 NA 
HETATM   19  C   UNL     1     -10.395   5.669  70.705  1.00  0.00    -0.252 C  
HETATM   20  C   UNL     1      -9.574   4.649  71.528  1.00  0.00    -0.163 C  
HETATM   21  N   UNL     1      -9.759   4.737  72.997  1.00  0.00    -0.138 NA 
HETATM   22  C   UNL     1      -9.489   6.128  73.415  1.00  0.00    -0.139 C  
HETATM   23  C   UNL     1     -11.100   4.315  73.399  1.00  0.00    -0.280 C  
HETATM   24  C   UNL     1     -10.289   7.214  72.659  1.00  0.00    -0.215 C  
ENDBRANCH  15  18
ENDBRANCH   2   3
TORSDOF 2
ENDMDL
MODEL      110
REMARK 921   NORMALIZED FREE ENERGY PREDICTED BY IDOCK:   -4.05 KCAL/MOL
REMARK 922        TOTAL FREE ENERGY PREDICTED BY IDOCK:   -4.76 KCAL/MOL
REMARK 923 INTER-LIGAND FREE ENERGY PREDICTED BY IDOCK:   -4.22 KCAL/MOL
REMARK 924 INTRA-LIGAND FREE ENERGY PREDICTED BY IDOCK:   -0.54 KCAL/MOL
REMARK 927      BINDING AFFINITY PREDICTED BY RF-SCORE:    0.00 PKD
ROOT
HETATM    1  C   UNL     1     -11.850  12.268  67.116  1.00  0.00    -0.328 C  
HETATM    2  C   UNL     1     -10.382  11.994  67.410  1.00  0.00    -0.207 C  
ENDROOT
BRANCH   2   3
HETATM    3  N   UNL     1      -9.865  10.886  66.583  1.00  0.00    -0.192 NA 
HETATM    4  C   UNL     1      -9.404  11.118  65.293  1.00  0.00    -0.219 C  
HETATM    5  C   UNL     1      -8.920  10.200  64.443  1.00  0.00    -0.264 C  
HETATM    6  C   UNL     1      -8.450  10.621  63.109  1.00  0.00    -0.137 C  
HETATM    7  C   UNL     1      -8.883   8.805  64.924  1.00  0.00    -0.074 C  
HETATM    8  C   UNL     1      -9.272   8.534  66.325  1.00  0.00    -0.262 A  
HETATM    9  O   UNL     1      -8.506   7.908  64.172  1.00  0.00    -0.006 OA 
HETATM   10  O   UNL     1      -8.464  11.783  62.727  1.00  0.00     0.018 OA 
HETATM   11  O   UNL     1      -7.986   9.616  62.335  1.00  0.00    -0.114 OA 
HETATM   12  C   UNL     1      -9.135   7.237  66.825  1.00  0.00    -0.172 A  
HETATM   13  C   UNL     1      -9.409   6.987  68.166  1.00  0.00    -0.125 A  
HETATM   14  F   UNL     1      -9.173   5.744  68.612  1.00  0.00    -0.117 F  
HETATM   15  C   UNL     1      -9.843   8.000  69.037  1.00  0.00    -0.178 A  
HETATM   16  C   UNL     1      -9.740   9.588  67.127  1.00  0.00    -0.171 A  
HETATM   17  C   UNL     1     -10.037   9.276  68.465  1.00  0.00    -0.211 A  
BRANCH  15  18
HETATM   18  N   UNL     1     -10.070   7.822  70.393  1.00  0.00    -0.193 NA 
HETATM   19  C   UNL     1     -11.272   7.165  70.933  1.00  0.00    -0.276 C  
HETATM   20  C   UNL     1     -10.896   5.948  71.811  1.00  0.00    -0.260 C  
HETATM   21  N   UNL     1      -9.900   6.227  72.874  1.00  0.00    -0.166 NA 
HETATM   22  C   UNL     1      -8.712   6.842  72.247  1.00  0.00    -0.126 C  
HETATM   23  C   UNL     1     -10.452   7.089  73.918  1.00  0.00    -0.294 C  
HETATM   24  C   UNL     1      -8.995   8.084  71.369  1.00  0.00    -0.141 C  
ENDBRANCH  15  18
ENDBRANCH   2   3
TORSDOF 2
ENDMDL
MODEL      111
REMARK 921   NORMALIZED FREE ENERGY PREDICTED BY IDOCK:   -4.02 KCAL/MOL
REMARK 922        TOTAL FREE ENERGY PREDICTED BY IDOCK:   -4.73 KCAL/MOL
REMARK 923 INTER-LIGAND FREE ENERGY PREDICTED BY IDOCK:   -4.24 KCAL/MOL
REMARK 924 INTRA-LIGAND FREE ENERGY PREDICTED BY IDOCK:   -0.49 KCAL/MOL
REMARK 927      BINDING AFFINITY PREDICTED BY RF-SCORE:    0.00 PKD
ROOT
HETATM    1  C   UNL     1     -12.244  15.866  69.872  1.00  0.00    -0.189 C  
HETATM    2  C   UNL     1     -10.926  15.316  70.398  1.00  0.00    -0.290 C  
ENDROOT
BRANCH   2   3
HETATM    3  N   UNL     1      -9.824  15.562  69.447  1.00  0.00    -0.266 NA 
HETATM    4  C   UNL     1      -9.274  16.830  69.308  1.00  0.00    -0.047 C  
HETATM    5  C   UNL     1      -8.280  17.181  68.479  1.00  0.00    -0.261 C  
HETATM    6  C   UNL     1      -7.798  18.576  68.472  1.00  0.00    -0.318 C  
HETATM    7  C   UNL     1      -7.723  16.115  67.624  1.00  0.00    -0.142 C  
HETATM    8  C   UNL     1      -8.214  14.733  67.812  1.00  0.00    -0.167 A  
HETATM    9  O   UNL     1      -6.851  16.386  66.799  1.00  0.00    -0.210 OA 
HETATM   10  O   UNL     1      -8.250  19.448  69.201  1.00  0.00    -0.307 OA 
HETATM   11  O   UNL     1      -6.797  18.819  67.597  1.00  0.00    -0.203 OA 
HETATM   12  C   UNL     1      -7.616  13.699  67.088  1.00  0.00     0.048 A  
HETATM   13  C   UNL     1      -8.004  12.385  67.324  1.00  0.00    -0.178 A  
HETATM   14  F   UNL     1      -7.333  11.426  66.666  1.00  0.00    -0.132 F  
HETATM   15  C   UNL     1      -9.000  12.060  68.259  1.00  0.00    -0.186 A  
HETATM   16  C   UNL     1      -9.245  14.487  68.734  1.00  0.00    -0.162 A  
HETATM   17  C   UNL     1      -9.624  13.146  68.910  1.00  0.00     0.202 A  
BRANCH  15  18
HETATM   18  N   UNL     1      -9.382  10.766  68.580  1.00  0.00    -0.167 NA 
HETATM   19  C   UNL     1      -8.477   9.786  69.203  1.00  0.00    -0.143 C  
HETATM   20  C   UNL     1      -9.054   9.266  70.541  1.00  0.00    -0.259 C  
HETATM   21  N   UNL     1     -10.445   8.757  70.467  1.00  0.00    -0.201 NA 
HETATM   22  C   UNL     1     -11.293   9.811  69.874  1.00  0.00    -0.192 C  
HETATM   23  C   UNL     1     -10.526   7.517  69.696  1.00  0.00    -0.234 C  
HETATM   24  C   UNL     1     -10.803  10.372  68.519  1.00  0.00    -0.237 C  
ENDBRANCH  15  18
ENDBRANCH   2   3
TORSDOF 2
ENDMDL
MODEL      112
REMARK 921   NORMALIZED FREE ENERGY PREDICTED BY IDOCK:   -3.99 KCAL/MOL
REMARK 922        TOTAL FREE ENERGY PREDICTED BY IDOCK:   -4.69 KCAL/MOL
REMARK 923 INTER-LIGAND FREE ENERGY PREDICTED BY IDOCK:   -4.18 KCAL/MOL
REMARK 924 INTRA-LIGAND FREE ENERGY PREDICTED BY IDOCK:   -0.51 KCAL/MOL
REMARK 927      BINDING AFFINITY PREDICTED BY RF-SCORE:    0.00 PKD
ROOT
HETATM    1  C   UNL     1      -6.044  14.347  67.968  1.00  0.00    -0.157 C  
HETATM    2  C   UNL     1      -6.727  13.140  67.339  1.00  0.00    -0.096 C  
ENDROOT
BRANCH   2   3
HETATM    3  N   UNL     1      -8.165  13.105  67.667  1.00  0.00    -0.161 NA 
HETATM    4  C   UNL     1      -8.856  14.274  67.962  1.00  0.00    -0.178 C  
HETATM    5  C   UNL     1     -10.154  14.373  68.280  1.00  0.00    -0.239 C  
HETATM    6  C   UNL     1     -10.739  15.703  68.545  1.00  0.00    -0.264 C  
HETATM    7  C   UNL     1     -10.923  13.114  68.332  1.00  0.00    -0.262 C  
HETATM    8  C   UNL     1     -10.247  11.862  67.930  1.00  0.00    -0.203 A  
HETATM    9  O   UNL     1     -12.103  13.131  68.677  1.00  0.00    -0.315 OA 
HETATM   10  O   UNL     1     -10.100  16.743  68.477  1.00  0.00    -0.251 OA 
HETATM   11  O   UNL     1     -12.053  15.685  68.859  1.00  0.00    -0.319 OA 
HETATM   12  C   UNL     1     -10.993  10.682  67.867  1.00  0.00    -0.351 A  
HETATM   13  C   UNL     1     -10.393   9.516  67.401  1.00  0.00    -0.258 A  
HETATM   14  F   UNL     1     -11.181   8.436  67.277  1.00  0.00    -0.166 F  
HETATM   15  C   UNL     1      -9.046   9.480  67.007  1.00  0.00    -0.134 A  
HETATM   16  C   UNL     1      -8.885  11.891  67.590  1.00  0.00    -0.169 A  
HETATM   17  C   UNL     1      -8.318  10.679  67.159  1.00  0.00    -0.125 A  
BRANCH  15  18
HETATM   18  N   UNL     1      -8.415   8.365  66.477  1.00  0.00    -0.109 NA 
HETATM   19  C   UNL     1      -8.320   8.098  65.033  1.00  0.00    -0.136 C  
HETATM   20  C   UNL     1      -6.846   7.960  64.586  1.00  0.00    -0.062 C  
HETATM   21  N   UNL     1      -6.041   6.995  65.374  1.00  0.00    -0.036 NA 
HETATM   22  C   UNL     1      -6.152   7.357  66.802  1.00  0.00    -0.043 C  
HETATM   23  C   UNL     1      -6.471   5.617  65.143  1.00  0.00    -0.039 C  
HETATM   24  C   UNL     1      -7.595   7.492  67.341  1.00  0.00    -0.109 C  
ENDBRANCH  15  18
ENDBRANCH   2   3
TORSDOF 2
ENDMDL
MODEL      113
REMARK 921   NORMALIZED FREE ENERGY PREDICTED BY IDOCK:   -3.96 KCAL/MOL
REMARK 922        TOTAL FREE ENERGY PREDICTED BY IDOCK:   -4.66 KCAL/MOL
REMARK 923 INTER-LIGAND FREE ENERGY PREDICTED BY IDOCK:   -4.19 KCAL/MOL
REMARK 924 INTRA-LIGAND FREE ENERGY PREDICTED BY IDOCK:   -0.47 KCAL/MOL
REMARK 927      BINDING AFFINITY PREDICTED BY RF-SCORE:    0.00 PKD
ROOT
HETATM    1  C   UNL     1     -11.161   6.501  68.680  1.00  0.00    -0.348 C  
HETATM    2  C   UNL     1     -11.210   6.608  67.162  1.00  0.00    -0.234 C  
ENDROOT
BRANCH   2   3
HETATM    3  N   UNL     1      -9.857   6.541  66.575  1.00  0.00    -0.146 NA 
HETATM    4  C   UNL     1      -9.345   5.338  66.104  1.00  0.00    -0.156 C  
HETATM    5  C   UNL     1      -8.136   5.147  65.559  1.00  0.00    -0.117 C  
HETATM    6  C   UNL     1      -7.755   3.800  65.088  1.00  0.00    -0.085 C  
HETATM    7  C   UNL     1      -7.259   6.330  65.457  1.00  0.00    -0.070 C  
HETATM    8  C   UNL     1      -7.804   7.645  65.856  1.00  0.00    -0.103 A  
HETATM    9  O   UNL     1      -6.115   6.208  65.021  1.00  0.00    -0.028 OA 
HETATM   10  O   UNL     1      -8.497   2.830  65.156  1.00  0.00    -0.091 OA 
HETATM   11  O   UNL     1      -6.515   3.720  64.559  1.00  0.00    -0.035 OA 
HETATM   12  C   UNL     1      -7.024   8.787  65.660  1.00  0.00    -0.079 A  
HETATM   13  C   UNL     1      -7.559  10.039  65.944  1.00  0.00    -0.114 A  
HETATM   14  F   UNL     1      -6.798  11.105  65.652  1.00  0.00    -0.062 F  
HETATM   15  C   UNL     1      -8.862  10.194  66.445  1.00  0.00    -0.143 A  
HETATM   16  C   UNL     1      -9.100   7.721  66.392  1.00  0.00    -0.175 A  
HETATM   17  C   UNL     1      -9.581   9.006  66.695  1.00  0.00    -0.274 A  
BRANCH  15  18
HETATM   18  N   UNL     1      -9.468  11.418  66.686  1.00  0.00    -0.185 NA 
HETATM   19  C   UNL     1     -10.376  12.074  65.731  1.00  0.00    -0.254 C  
HETATM   20  C   UNL     1     -11.758  12.343  66.371  1.00  0.00    -0.391 C  
HETATM   21  N   UNL     1     -11.719  13.060  67.668  1.00  0.00    -0.354 NA 
HETATM   22  C   UNL     1     -10.825  12.317  68.581  1.00  0.00    -0.236 C  
HETATM   23  C   UNL     1     -11.277  14.445  67.507  1.00  0.00    -0.315 C  
HETATM   24  C   UNL     1      -9.410  12.026  68.030  1.00  0.00    -0.196 C  
ENDBRANCH  15  18
ENDBRANCH   2   3
TORSDOF 2
ENDMDL
MODEL      114
REMARK 921   NORMALIZED FREE ENERGY PREDICTED BY IDOCK:   -3.90 KCAL/MOL
REMARK 922        TOTAL FREE ENERGY PREDICTED BY IDOCK:   -4.59 KCAL/MOL
REMARK 923 INTER-LIGAND FREE ENERGY PREDICTED BY IDOCK:   -4.14 KCAL/MOL
REMARK 924 INTRA-LIGAND FREE ENERGY PREDICTED BY IDOCK:   -0.45 KCAL/MOL
REMARK 927      BINDING AFFINITY PREDICTED BY RF-SCORE:    0.00 PKD
ROOT
HETATM    1  C   UNL     1     -10.027   8.579  68.825  1.00  0.00    -0.197 C  
HETATM    2  C   UNL     1      -8.816   7.751  69.234  1.00  0.00    -0.139 C  
ENDROOT
BRANCH   2   3
HETATM    3  N   UNL     1      -9.216   6.558  70.005  1.00  0.00    -0.157 NA 
HETATM    4  C   UNL     1      -9.655   6.675  71.318  1.00  0.00    -0.169 C  
HETATM    5  C   UNL     1     -10.037   5.672  72.122  1.00  0.00    -0.227 C  
HETATM    6  C   UNL     1     -10.499   5.974  73.491  1.00  0.00    -0.262 C  
HETATM    7  C   UNL     1      -9.976   4.310  71.558  1.00  0.00    -0.173 C  
HETATM    8  C   UNL     1      -9.609   4.154  70.135  1.00  0.00    -0.272 A  
HETATM    9  O   UNL     1     -10.257   3.342  72.264  1.00  0.00    -0.162 OA 
HETATM   10  O   UNL     1     -10.568   7.109  73.943  1.00  0.00    -0.362 OA 
HETATM   11  O   UNL     1     -10.857   4.891  74.214  1.00  0.00    -0.320 OA 
HETATM   12  C   UNL     1      -9.656   2.882  69.560  1.00  0.00    -0.063 A  
HETATM   13  C   UNL     1      -9.403   2.735  68.200  1.00  0.00    -0.203 A  
HETATM   14  F   UNL     1      -9.551   1.504  67.685  1.00  0.00    -0.177 F  
HETATM   15  C   UNL     1      -9.079   3.829  67.381  1.00  0.00    -0.163 A  
HETATM   16  C   UNL     1      -9.252   5.288  69.386  1.00  0.00    -0.114 A  
HETATM   17  C   UNL     1      -8.971   5.081  68.025  1.00  0.00    -0.117 A  
BRANCH  15  18
HETATM   18  N   UNL     1      -8.879   3.750  66.011  1.00  0.00    -0.121 NA 
HETATM   19  C   UNL     1      -7.907   2.839  65.387  1.00  0.00    -0.081 C  
HETATM   20  C   UNL     1      -8.598   1.894  64.375  1.00  0.00    -0.093 C  
HETATM   21  N   UNL     1      -9.442   2.572  63.362  1.00  0.00    -0.097 NA 
HETATM   22  C   UNL     1     -10.416   3.429  64.069  1.00  0.00    -0.219 C  
HETATM   23  C   UNL     1      -8.638   3.350  62.421  1.00  0.00    -0.074 C  
HETATM   24  C   UNL     1      -9.807   4.425  65.083  1.00  0.00    -0.182 C  
ENDBRANCH  15  18
ENDBRANCH   2   3
TORSDOF 2
ENDMDL
MODEL      115
REMARK 921   NORMALIZED FREE ENERGY PREDICTED BY IDOCK:   -3.89 KCAL/MOL
REMARK 922        TOTAL FREE ENERGY PREDICTED BY IDOCK:   -4.59 KCAL/MOL
REMARK 923 INTER-LIGAND FREE ENERGY PREDICTED BY IDOCK:   -4.12 KCAL/MOL
REMARK 924 INTRA-LIGAND FREE ENERGY PREDICTED BY IDOCK:   -0.47 KCAL/MOL
REMARK 927      BINDING AFFINITY PREDICTED BY RF-SCORE:    0.00 PKD
ROOT
HETATM    1  C   UNL     1     -10.445   4.835  65.967  1.00  0.00    -0.332 C  
HETATM    2  C   UNL     1      -8.987   5.159  66.260  1.00  0.00    -0.130 C  
ENDROOT
BRANCH   2   3
HETATM    3  N   UNL     1      -8.738   6.613  66.202  1.00  0.00    -0.145 NA 
HETATM    4  C   UNL     1      -8.628   7.267  64.981  1.00  0.00     0.114 C  
HETATM    5  C   UNL     1      -8.397   8.574  64.796  1.00  0.00    -0.163 C  
HETATM    6  C   UNL     1      -8.330   9.114  63.424  1.00  0.00    -0.192 C  
HETATM    7  C   UNL     1      -8.235   9.398  66.011  1.00  0.00    -0.111 C  
HETATM    8  C   UNL     1      -8.443   8.757  67.327  1.00  0.00    -0.111 A  
HETATM    9  O   UNL     1      -7.962  10.593  65.908  1.00  0.00    -0.154 OA 
HETATM   10  O   UNL     1      -8.488   8.428  62.423  1.00  0.00    -0.196 OA 
HETATM   11  O   UNL     1      -8.090  10.442  63.354  1.00  0.00    -0.161 OA 
HETATM   12  C   UNL     1      -8.404   9.549  68.477  1.00  0.00    -0.118 A  
HETATM   13  C   UNL     1      -8.689   8.977  69.712  1.00  0.00    -0.147 A  
HETATM   14  F   UNL     1      -8.725   9.803  70.770  1.00  0.00    -0.224 F  
HETATM   15  C   UNL     1      -9.000   7.614  69.847  1.00  0.00    -0.144 A  
HETATM   16  C   UNL     1      -8.707   7.379  67.390  1.00  0.00    -0.121 A  
HETATM   17  C   UNL     1      -8.954   6.843  68.665  1.00  0.00    -0.129 A  
BRANCH  15  18
HETATM   18  N   UNL     1      -9.354   7.005  71.041  1.00  0.00    -0.159 NA 
HETATM   19  C   UNL     1      -8.479   6.976  72.224  1.00  0.00    -0.110 C  
HETATM   20  C   UNL     1      -9.176   7.613  73.450  1.00  0.00    -0.255 C  
HETATM   21  N   UNL     1     -10.524   7.075  73.752  1.00  0.00    -0.380 NA 
HETATM   22  C   UNL     1     -11.350   7.181  72.532  1.00  0.00    -0.279 C  
HETATM   23  C   UNL     1     -10.461   5.695  74.230  1.00  0.00    -0.232 C  
HETATM   24  C   UNL     1     -10.739   6.546  71.262  1.00  0.00    -0.237 C  
ENDBRANCH  15  18
ENDBRANCH   2   3
TORSDOF 2
ENDMDL
MODEL      116
REMARK 921   NORMALIZED FREE ENERGY PREDICTED BY IDOCK:   -3.89 KCAL/MOL
REMARK 922        TOTAL FREE ENERGY PREDICTED BY IDOCK:   -4.58 KCAL/MOL
REMARK 923 INTER-LIGAND FREE ENERGY PREDICTED BY IDOCK:   -4.32 KCAL/MOL
REMARK 924 INTRA-LIGAND FREE ENERGY PREDICTED BY IDOCK:   -0.26 KCAL/MOL
REMARK 927      BINDING AFFINITY PREDICTED BY RF-SCORE:    0.00 PKD
ROOT
HETATM    1  C   UNL     1      -5.524  14.530  68.200  1.00  0.00    -0.123 C  
HETATM    2  C   UNL     1      -5.870  15.891  68.787  1.00  0.00    -0.101 C  
ENDROOT
BRANCH   2   3
HETATM    3  N   UNL     1      -6.822  16.621  67.927  1.00  0.00    -0.140 NA 
HETATM    4  C   UNL     1      -6.388  17.646  67.096  1.00  0.00    -0.153 C  
HETATM    5  C   UNL     1      -7.151  18.384  66.278  1.00  0.00    -0.287 C  
HETATM    6  C   UNL     1      -6.523  19.426  65.441  1.00  0.00    -0.270 C  
HETATM    7  C   UNL     1      -8.596  18.084  66.267  1.00  0.00    -0.176 C  
HETATM    8  C   UNL     1      -9.081  16.937  67.063  1.00  0.00    -0.240 A  
HETATM    9  O   UNL     1      -9.358  18.766  65.583  1.00  0.00    -0.297 OA 
HETATM   10  O   UNL     1      -5.321  19.652  65.439  1.00  0.00    -0.157 OA 
HETATM   11  O   UNL     1      -7.384  20.111  64.657  1.00  0.00    -0.119 OA 
HETATM   12  C   UNL     1     -10.427  16.573  66.974  1.00  0.00    -0.289 A  
HETATM   13  C   UNL     1     -10.877  15.441  67.645  1.00  0.00    -0.304 A  
HETATM   14  F   UNL     1     -12.158  15.089  67.450  1.00  0.00    -0.346 F  
HETATM   15  C   UNL     1     -10.021  14.654  68.432  1.00  0.00    -0.227 A  
HETATM   16  C   UNL     1      -8.176  16.220  67.864  1.00  0.00    -0.150 A  
HETATM   17  C   UNL     1      -8.688  15.106  68.549  1.00  0.00    -0.172 A  
BRANCH  15  18
HETATM   18  N   UNL     1     -10.399  13.482  69.070  1.00  0.00    -0.082 NA 
HETATM   19  C   UNL     1     -11.205  13.456  70.301  1.00  0.00     0.436 C  
HETATM   20  C   UNL     1     -12.503  12.638  70.102  1.00  0.00    -0.029 C  
HETATM   21  N   UNL     1     -12.305  11.277  69.547  1.00  0.00    -0.238 NA 
HETATM   22  C   UNL     1     -11.530  11.394  68.295  1.00  0.00    -0.299 C  
HETATM   23  C   UNL     1     -11.636  10.396  70.503  1.00  0.00    -0.344 C  
HETATM   24  C   UNL     1     -10.202  12.177  68.410  1.00  0.00    -0.210 C  
ENDBRANCH  15  18
ENDBRANCH   2   3
TORSDOF 2
ENDMDL
MODEL      117
REMARK 921   NORMALIZED FREE ENERGY PREDICTED BY IDOCK:   -3.82 KCAL/MOL
REMARK 922        TOTAL FREE ENERGY PREDICTED BY IDOCK:   -4.51 KCAL/MOL
REMARK 923 INTER-LIGAND FREE ENERGY PREDICTED BY IDOCK:   -4.07 KCAL/MOL
REMARK 924 INTRA-LIGAND FREE ENERGY PREDICTED BY IDOCK:   -0.44 KCAL/MOL
REMARK 927      BINDING AFFINITY PREDICTED BY RF-SCORE:    0.00 PKD
ROOT
HETATM    1  C   UNL     1     -11.093   6.413  67.107  1.00  0.00    -0.422 C  
HETATM    2  C   UNL     1     -10.736   7.851  66.758  1.00  0.00    -0.027 C  
ENDROOT
BRANCH   2   3
HETATM    3  N   UNL     1      -9.302   7.986  66.435  1.00  0.00    -0.197 NA 
HETATM    4  C   UNL     1      -8.603   6.936  65.851  1.00  0.00    -0.145 C  
HETATM    5  C   UNL     1      -7.305   6.932  65.519  1.00  0.00    -0.079 C  
HETATM    6  C   UNL     1      -6.721   5.734  64.883  1.00  0.00    -0.047 C  
HETATM    7  C   UNL     1      -6.541   8.161  65.810  1.00  0.00    -0.052 C  
HETATM    8  C   UNL     1      -7.271   9.333  66.339  1.00  0.00    -0.088 A  
HETATM    9  O   UNL     1      -5.333   8.199  65.583  1.00  0.00    -0.028 OA 
HETATM   10  O   UNL     1      -7.367   4.728  64.624  1.00  0.00    -0.065 OA 
HETATM   11  O   UNL     1      -5.406   5.838  64.593  1.00  0.00    -0.015 OA 
HETATM   12  C   UNL     1      -6.582  10.535  66.514  1.00  0.00    -0.100 A  
HETATM   13  C   UNL     1      -7.276  11.669  66.923  1.00  0.00    -0.125 A  
HETATM   14  F   UNL     1      -6.581  12.816  66.986  1.00  0.00    -0.153 F  
HETATM   15  C   UNL     1      -8.655  11.642  67.188  1.00  0.00    -0.164 A  
HETATM   16  C   UNL     1      -8.642   9.221  66.625  1.00  0.00    -0.127 A  
HETATM   17  C   UNL     1      -9.289  10.386  67.068  1.00  0.00    -0.176 A  
BRANCH  15  18
HETATM   18  N   UNL     1      -9.408  12.753  67.537  1.00  0.00    -0.183 NA 
HETATM   19  C   UNL     1      -9.510  13.957  66.697  1.00  0.00    -0.285 C  
HETATM   20  C   UNL     1     -10.983  14.262  66.335  1.00  0.00    -0.311 C  
HETATM   21  N   UNL     1     -11.912  14.320  67.490  1.00  0.00    -0.393 NA 
HETATM   22  C   UNL     1     -11.781  13.061  68.253  1.00  0.00    -0.353 C  
HETATM   23  C   UNL     1     -11.649  15.481  68.338  1.00  0.00    -0.357 C  
HETATM   24  C   UNL     1     -10.341  12.691  68.678  1.00  0.00    -0.177 C  
ENDBRANCH  15  18
ENDBRANCH   2   3
TORSDOF 2
ENDMDL
MODEL      118
REMARK 921   NORMALIZED FREE ENERGY PREDICTED BY IDOCK:   -3.75 KCAL/MOL
REMARK 922        TOTAL FREE ENERGY PREDICTED BY IDOCK:   -4.43 KCAL/MOL
REMARK 923 INTER-LIGAND FREE ENERGY PREDICTED BY IDOCK:   -4.12 KCAL/MOL
REMARK 924 INTRA-LIGAND FREE ENERGY PREDICTED BY IDOCK:   -0.31 KCAL/MOL
REMARK 927      BINDING AFFINITY PREDICTED BY RF-SCORE:    0.00 PKD
ROOT
HETATM    1  C   UNL     1     -10.465  10.134  70.132  1.00  0.00    -0.311 C  
HETATM    2  C   UNL     1      -9.184   9.376  70.455  1.00  0.00    -0.257 C  
ENDROOT
BRANCH   2   3
HETATM    3  N   UNL     1      -9.388   7.917  70.370  1.00  0.00    -0.159 NA 
HETATM    4  C   UNL     1      -9.800   7.191  71.481  1.00  0.00    -0.171 C  
HETATM    5  C   UNL     1     -10.012   5.868  71.533  1.00  0.00    -0.221 C  
HETATM    6  C   UNL     1     -10.473   5.255  72.795  1.00  0.00    -0.217 C  
HETATM    7  C   UNL     1      -9.775   5.108  70.291  1.00  0.00    -0.203 C  
HETATM    8  C   UNL     1      -9.431   5.857  69.064  1.00  0.00    -0.149 A  
HETATM    9  O   UNL     1      -9.894   3.884  70.290  1.00  0.00    -0.198 OA 
HETATM   10  O   UNL     1     -10.689   5.896  73.814  1.00  0.00    -0.264 OA 
HETATM   11  O   UNL     1     -10.651   3.918  72.737  1.00  0.00    -0.171 OA 
HETATM   12  C   UNL     1      -9.313   5.162  67.858  1.00  0.00    -0.139 A  
HETATM   13  C   UNL     1      -9.081   5.866  66.681  1.00  0.00    -0.134 A  
HETATM   14  F   UNL     1      -9.068   5.155  65.542  1.00  0.00    -0.147 F  
HETATM   15  C   UNL     1      -8.940   7.263  66.665  1.00  0.00    -0.150 A  
HETATM   16  C   UNL     1      -9.260   7.250  69.130  1.00  0.00    -0.139 A  
HETATM   17  C   UNL     1      -8.994   7.910  67.919  1.00  0.00    -0.129 A  
BRANCH  15  18
HETATM   18  N   UNL     1      -8.771   8.021  65.516  1.00  0.00    -0.139 NA 
HETATM   19  C   UNL     1      -9.507   9.268  65.254  1.00  0.00    -0.164 C  
HETATM   20  C   UNL     1      -8.537  10.451  65.027  1.00  0.00    -0.181 C  
HETATM   21  N   UNL     1      -7.486  10.212  64.008  1.00  0.00    -0.137 NA 
HETATM   22  C   UNL     1      -6.768   8.971  64.367  1.00  0.00    -0.079 C  
HETATM   23  C   UNL     1      -8.048  10.126  62.661  1.00  0.00    -0.143 C  
HETATM   24  C   UNL     1      -7.661   7.729  64.589  1.00  0.00    -0.121 C  
ENDBRANCH  15  18
ENDBRANCH   2   3
TORSDOF 2
ENDMDL
MODEL      119
REMARK 921   NORMALIZED FREE ENERGY PREDICTED BY IDOCK:   -3.72 KCAL/MOL
REMARK 922        TOTAL FREE ENERGY PREDICTED BY IDOCK:   -4.40 KCAL/MOL
REMARK 923 INTER-LIGAND FREE ENERGY PREDICTED BY IDOCK:   -4.05 KCAL/MOL
REMARK 924 INTRA-LIGAND FREE ENERGY PREDICTED BY IDOCK:   -0.35 KCAL/MOL
REMARK 927      BINDING AFFINITY PREDICTED BY RF-SCORE:    0.00 PKD
ROOT
HETATM    1  C   UNL     1      -7.378   6.788  64.635  1.00  0.00    -0.089 C  
HETATM    2  C   UNL     1      -8.147   7.894  65.344  1.00  0.00    -0.130 C  
ENDROOT
BRANCH   2   3
HETATM    3  N   UNL     1      -8.525   7.493  66.713  1.00  0.00    -0.121 NA 
HETATM    4  C   UNL     1      -7.916   6.407  67.330  1.00  0.00    -0.112 C  
HETATM    5  C   UNL     1      -8.176   5.941  68.560  1.00  0.00    -0.109 C  
HETATM    6  C   UNL     1      -7.417   4.784  69.074  1.00  0.00    -0.057 C  
HETATM    7  C   UNL     1      -9.218   6.647  69.330  1.00  0.00    -0.142 C  
HETATM    8  C   UNL     1      -9.819   7.865  68.747  1.00  0.00    -0.171 A  
HETATM    9  O   UNL     1      -9.544   6.232  70.441  1.00  0.00    -0.163 OA 
HETATM   10  O   UNL     1      -6.539   4.219  68.437  1.00  0.00    -0.043 OA 
HETATM   11  O   UNL     1      -7.762   4.396  70.322  1.00  0.00    -0.052 OA 
HETATM   12  C   UNL     1     -10.725   8.605  69.512  1.00  0.00    -0.189 A  
HETATM   13  C   UNL     1     -11.226   9.802  69.012  1.00  0.00    -0.038 A  
HETATM   14  F   UNL     1     -12.021  10.514  69.827  1.00  0.00    -0.296 F  
HETATM   15  C   UNL     1     -10.866  10.288  67.745  1.00  0.00    -0.292 A  
HETATM   16  C   UNL     1      -9.445   8.269  67.455  1.00  0.00    -0.151 A  
HETATM   17  C   UNL     1     -10.007   9.467  66.983  1.00  0.00    -0.273 A  
BRANCH  15  18
HETATM   18  N   UNL     1     -11.285  11.502  67.223  1.00  0.00    -0.293 NA 
HETATM   19  C   UNL     1     -11.228  12.767  67.973  1.00  0.00    -0.270 C  
HETATM   20  C   UNL     1     -10.384  13.824  67.222  1.00  0.00    -0.253 C  
HETATM   21  N   UNL     1     -10.771  14.043  65.807  1.00  0.00    -0.286 NA 
HETATM   22  C   UNL     1     -10.760  12.737  65.116  1.00  0.00    -0.294 C  
HETATM   23  C   UNL     1     -12.079  14.688  65.698  1.00  0.00    -0.211 C  
HETATM   24  C   UNL     1     -11.601  11.626  65.787  1.00  0.00    -0.016 C  
ENDBRANCH  15  18
ENDBRANCH   2   3
TORSDOF 2
ENDMDL
MODEL      120
REMARK 921   NORMALIZED FREE ENERGY PREDICTED BY IDOCK:   -3.64 KCAL/MOL
REMARK 922        TOTAL FREE ENERGY PREDICTED BY IDOCK:   -4.31 KCAL/MOL
REMARK 923 INTER-LIGAND FREE ENERGY PREDICTED BY IDOCK:   -3.87 KCAL/MOL
REMARK 924 INTRA-LIGAND FREE ENERGY PREDICTED BY IDOCK:   -0.44 KCAL/MOL
REMARK 927      BINDING AFFINITY PREDICTED BY RF-SCORE:    0.00 PKD
ROOT
HETATM    1  C   UNL     1     -10.786   9.135  69.370  1.00  0.00    -0.210 C  
HETATM    2  C   UNL     1      -9.609   9.955  68.859  1.00  0.00    -0.172 C  
ENDROOT
BRANCH   2   3
HETATM    3  N   UNL     1      -9.659  10.111  67.392  1.00  0.00    -0.152 NA 
HETATM    4  C   UNL     1     -10.217  11.245  66.816  1.00  0.00    -0.226 C  
HETATM    5  C   UNL     1     -10.328  11.500  65.505  1.00  0.00    -0.322 C  
HETATM    6  C   UNL     1     -10.931  12.772  65.059  1.00  0.00    -0.289 C  
HETATM    7  C   UNL     1      -9.813  10.469  64.583  1.00  0.00    -0.340 C  
HETATM    8  C   UNL     1      -9.124   9.293  65.157  1.00  0.00    -0.263 A  
HETATM    9  O   UNL     1      -9.940  10.616  63.368  1.00  0.00    -0.320 OA 
HETATM   10  O   UNL     1     -11.334  13.631  65.831  1.00  0.00    -0.304 OA 
HETATM   11  O   UNL     1     -10.996  12.923  63.719  1.00  0.00    -0.413 OA 
HETATM   12  C   UNL     1      -8.535   8.367  64.293  1.00  0.00    -0.036 A  
HETATM   13  C   UNL     1      -7.805   7.307  64.820  1.00  0.00    -0.126 A  
HETATM   14  F   UNL     1      -7.186   6.500  63.943  1.00  0.00    -0.048 F  
HETATM   15  C   UNL     1      -7.654   7.124  66.205  1.00  0.00    -0.092 A  
HETATM   16  C   UNL     1      -9.049   9.151  66.552  1.00  0.00    -0.156 A  
HETATM   17  C   UNL     1      -8.330   8.044  67.034  1.00  0.00    -0.116 A  
BRANCH  15  18
HETATM   18  N   UNL     1      -6.887   6.124  66.783  1.00  0.00    -0.061 NA 
HETATM   19  C   UNL     1      -5.784   6.391  67.720  1.00  0.00    -0.009 C  
HETATM   20  C   UNL     1      -6.013   5.675  69.072  1.00  0.00    -0.024 C  
HETATM   21  N   UNL     1      -6.306   4.225  68.970  1.00  0.00    -0.031 NA 
HETATM   22  C   UNL     1      -7.449   4.046  68.051  1.00  0.00    -0.067 C  
HETATM   23  C   UNL     1      -5.140   3.468  68.517  1.00  0.00    -0.011 C  
HETATM   24  C   UNL     1      -7.293   4.710  66.663  1.00  0.00    -0.081 C  
ENDBRANCH  15  18
ENDBRANCH   2   3
TORSDOF 2
ENDMDL
MODEL      121
REMARK 921   NORMALIZED FREE ENERGY PREDICTED BY IDOCK:   -3.62 KCAL/MOL
REMARK 922        TOTAL FREE ENERGY PREDICTED BY IDOCK:   -4.28 KCAL/MOL
REMARK 923 INTER-LIGAND FREE ENERGY PREDICTED BY IDOCK:   -4.11 KCAL/MOL
REMARK 924 INTRA-LIGAND FREE ENERGY PREDICTED BY IDOCK:   -0.17 KCAL/MOL
REMARK 927      BINDING AFFINITY PREDICTED BY RF-SCORE:    0.00 PKD
ROOT
HETATM    1  C   UNL     1     -11.083   6.130  67.154  1.00  0.00    -0.335 C  
HETATM    2  C   UNL     1     -10.654   7.590  67.124  1.00  0.00    -0.345 C  
ENDROOT
BRANCH   2   3
HETATM    3  N   UNL     1      -9.287   7.760  67.655  1.00  0.00    -0.141 NA 
HETATM    4  C   UNL     1      -8.544   6.662  68.069  1.00  0.00    -0.118 C  
HETATM    5  C   UNL     1      -7.302   6.685  68.573  1.00  0.00    -0.087 C  
HETATM    6  C   UNL     1      -6.644   5.417  68.945  1.00  0.00    -0.051 C  
HETATM    7  C   UNL     1      -6.666   8.010  68.709  1.00  0.00    -0.057 C  
HETATM    8  C   UNL     1      -7.386   9.192  68.188  1.00  0.00    -0.079 A  
HETATM    9  O   UNL     1      -5.551   8.105  69.220  1.00  0.00    -0.029 OA 
HETATM   10  O   UNL     1      -7.170   4.322  68.808  1.00  0.00    -0.054 OA 
HETATM   11  O   UNL     1      -5.397   5.558  69.445  1.00  0.00    -0.003 OA 
HETATM   12  C   UNL     1      -6.749  10.435  68.209  1.00  0.00    -0.061 A  
HETATM   13  C   UNL     1      -7.377  11.537  67.638  1.00  0.00    -0.105 A  
HETATM   14  F   UNL     1      -6.680  12.684  67.607  1.00  0.00    -0.085 F  
HETATM   15  C   UNL     1      -8.651  11.446  67.054  1.00  0.00    -0.157 A  
HETATM   16  C   UNL     1      -8.677   9.035  67.657  1.00  0.00    -0.124 A  
HETATM   17  C   UNL     1      -9.282  10.186  67.125  1.00  0.00    -0.157 A  
BRANCH  15  18
HETATM   18  N   UNL     1      -9.296  12.495  66.416  1.00  0.00    -0.231 NA 
HETATM   19  C   UNL     1     -10.335  12.302  65.392  1.00  0.00    -0.269 C  
HETATM   20  C   UNL     1     -11.656  12.996  65.798  1.00  0.00    -0.356 C  
HETATM   21  N   UNL     1     -11.522  14.423  66.179  1.00  0.00    -0.351 NA 
HETATM   22  C   UNL     1     -10.497  14.525  67.239  1.00  0.00    -0.266 C  
HETATM   23  C   UNL     1     -11.179  15.260  65.030  1.00  0.00    -0.403 C  
HETATM   24  C   UNL     1      -9.133  13.878  66.905  1.00  0.00    -0.245 C  
ENDBRANCH  15  18
ENDBRANCH   2   3
TORSDOF 2
ENDMDL
MODEL      122
REMARK 921   NORMALIZED FREE ENERGY PREDICTED BY IDOCK:   -3.54 KCAL/MOL
REMARK 922        TOTAL FREE ENERGY PREDICTED BY IDOCK:   -4.19 KCAL/MOL
REMARK 923 INTER-LIGAND FREE ENERGY PREDICTED BY IDOCK:   -3.73 KCAL/MOL
REMARK 924 INTRA-LIGAND FREE ENERGY PREDICTED BY IDOCK:   -0.46 KCAL/MOL
REMARK 927      BINDING AFFINITY PREDICTED BY RF-SCORE:    0.00 PKD
ROOT
HETATM    1  C   UNL     1      -9.085  10.560  64.500  1.00  0.00    -0.251 C  
HETATM    2  C   UNL     1      -9.651  10.434  65.908  1.00  0.00    -0.206 C  
ENDROOT
BRANCH   2   3
HETATM    3  N   UNL     1      -8.850  11.204  66.880  1.00  0.00    -0.152 NA 
HETATM    4  C   UNL     1      -8.694  12.578  66.743  1.00  0.00    -0.147 C  
HETATM    5  C   UNL     1      -7.990  13.383  67.551  1.00  0.00    -0.186 C  
HETATM    6  C   UNL     1      -7.944  14.832  67.272  1.00  0.00    -0.205 C  
HETATM    7  C   UNL     1      -7.306  12.745  68.693  1.00  0.00    -0.099 C  
HETATM    8  C   UNL     1      -7.529  11.303  68.928  1.00  0.00    -0.123 A  
HETATM    9  O   UNL     1      -6.595  13.421  69.436  1.00  0.00    -0.108 OA 
HETATM   10  O   UNL     1      -8.533  15.356  66.337  1.00  0.00    -0.265 OA 
HETATM   11  O   UNL     1      -7.204  15.549  68.146  1.00  0.00    -0.108 OA 
HETATM   12  C   UNL     1      -6.978  10.711  70.068  1.00  0.00    -0.131 A  
HETATM   13  C   UNL     1      -7.256   9.378  70.350  1.00  0.00    -0.111 A  
HETATM   14  F   UNL     1      -6.775   8.889  71.504  1.00  0.00    -0.071 F  
HETATM   15  C   UNL     1      -8.063   8.593  69.510  1.00  0.00    -0.110 A  
HETATM   16  C   UNL     1      -8.311  10.568  68.022  1.00  0.00    -0.116 A  
HETATM   17  C   UNL     1      -8.534   9.217  68.335  1.00  0.00    -0.128 A  
BRANCH  15  18
HETATM   18  N   UNL     1      -8.424   7.281  69.775  1.00  0.00    -0.135 NA 
HETATM   19  C   UNL     1      -9.164   6.872  70.979  1.00  0.00    -0.156 C  
HETATM   20  C   UNL     1     -10.482   6.152  70.607  1.00  0.00    -0.236 C  
HETATM   21  N   UNL     1     -10.334   5.031  69.649  1.00  0.00    -0.246 NA 
HETATM   22  C   UNL     1      -9.624   5.532  68.454  1.00  0.00    -0.124 C  
HETATM   23  C   UNL     1      -9.628   3.899  70.247  1.00  0.00    -0.201 C  
HETATM   24  C   UNL     1      -8.281   6.245  68.733  1.00  0.00    -0.120 C  
ENDBRANCH  15  18
ENDBRANCH   2   3
TORSDOF 2
ENDMDL
MODEL      123
REMARK 921   NORMALIZED FREE ENERGY PREDICTED BY IDOCK:   -3.24 KCAL/MOL
REMARK 922        TOTAL FREE ENERGY PREDICTED BY IDOCK:   -3.86 KCAL/MOL
REMARK 923 INTER-LIGAND FREE ENERGY PREDICTED BY IDOCK:   -3.90 KCAL/MOL
REMARK 924 INTRA-LIGAND FREE ENERGY PREDICTED BY IDOCK:    0.04 KCAL/MOL
REMARK 927      BINDING AFFINITY PREDICTED BY RF-SCORE:    0.00 PKD
ROOT
HETATM    1  C   UNL     1     -10.028   6.874  69.232  1.00  0.00    -0.164 C  
HETATM    2  C   UNL     1      -9.829   8.364  69.475  1.00  0.00    -0.181 C  
ENDROOT
BRANCH   2   3
HETATM    3  N   UNL     1      -9.059   8.988  68.381  1.00  0.00    -0.133 NA 
HETATM    4  C   UNL     1      -8.201   8.231  67.594  1.00  0.00    -0.127 C  
HETATM    5  C   UNL     1      -7.446   8.679  66.580  1.00  0.00    -0.089 C  
HETATM    6  C   UNL     1      -6.601   7.731  65.828  1.00  0.00    -0.045 C  
HETATM    7  C   UNL     1      -7.529  10.122  66.279  1.00  0.00    -0.112 C  
HETATM    8  C   UNL     1      -8.504  10.942  67.030  1.00  0.00    -0.134 A  
HETATM    9  O   UNL     1      -6.816  10.605  65.401  1.00  0.00    -0.111 OA 
HETATM   10  O   UNL     1      -6.556   6.533  66.070  1.00  0.00    -0.045 OA 
HETATM   11  O   UNL     1      -5.880   8.290  64.832  1.00  0.00    -0.044 OA 
HETATM   12  C   UNL     1      -8.671  12.283  66.678  1.00  0.00    -0.132 A  
HETATM   13  C   UNL     1      -9.650  13.041  67.313  1.00  0.00    -0.225 A  
HETATM   14  F   UNL     1      -9.827  14.296  66.872  1.00  0.00    -0.238 F  
HETATM   15  C   UNL     1     -10.469  12.504  68.319  1.00  0.00    -0.234 A  
HETATM   16  C   UNL     1      -9.259  10.349  68.055  1.00  0.00    -0.140 A  
HETATM   17  C   UNL     1     -10.210  11.167  68.689  1.00  0.00    -0.216 A  
BRANCH  15  18
HETATM   18  N   UNL     1     -11.500  13.193  68.941  1.00  0.00    -0.278 NA 
HETATM   19  C   UNL     1     -12.152  12.731  70.176  1.00  0.00    -0.298 C  
HETATM   20  C   UNL     1     -12.049  13.795  71.294  1.00  0.00    -0.104 C  
HETATM   21  N   UNL     1     -12.505  15.153  70.909  1.00  0.00    -0.334 NA 
HETATM   22  C   UNL     1     -11.774  15.559  69.692  1.00  0.00    -0.357 C  
HETATM   23  C   UNL     1     -13.951  15.197  70.696  1.00  0.00     0.162 C  
HETATM   24  C   UNL     1     -11.845  14.562  68.512  1.00  0.00    -0.320 C  
ENDBRANCH  15  18
ENDBRANCH   2   3
TORSDOF 2
ENDMDL
MODEL      124
REMARK 921   NORMALIZED FREE ENERGY PREDICTED BY IDOCK:   -3.21 KCAL/MOL
REMARK 922        TOTAL FREE ENERGY PREDICTED BY IDOCK:   -3.83 KCAL/MOL
REMARK 923 INTER-LIGAND FREE ENERGY PREDICTED BY IDOCK:   -3.30 KCAL/MOL
REMARK 924 INTRA-LIGAND FREE ENERGY PREDICTED BY IDOCK:   -0.53 KCAL/MOL
REMARK 927      BINDING AFFINITY PREDICTED BY RF-SCORE:    0.00 PKD
ROOT
HETATM    1  C   UNL     1      -8.729   7.492  66.076  1.00  0.00    -0.178 C  
HETATM    2  C   UNL     1      -8.033   6.895  67.291  1.00  0.00    -0.114 C  
ENDROOT
BRANCH   2   3
HETATM    3  N   UNL     1      -7.620   7.944  68.244  1.00  0.00    -0.113 NA 
HETATM    4  C   UNL     1      -7.168   9.177  67.791  1.00  0.00    -0.080 C  
HETATM    5  C   UNL     1      -6.761  10.203  68.552  1.00  0.00    -0.057 C  
HETATM    6  C   UNL     1      -6.328  11.459  67.907  1.00  0.00    -0.055 C  
HETATM    7  C   UNL     1      -6.788   9.998  70.013  1.00  0.00    -0.126 C  
HETATM    8  C   UNL     1      -7.355   8.737  70.535  1.00  0.00    -0.066 A  
HETATM    9  O   UNL     1      -6.370  10.879  70.763  1.00  0.00    -0.346 OA 
HETATM   10  O   UNL     1      -6.331  11.628  66.696  1.00  0.00    -0.137 OA 
HETATM   11  O   UNL     1      -5.936  12.425  68.767  1.00  0.00    -0.061 OA 
HETATM   12  C   UNL     1      -7.490   8.577  71.917  1.00  0.00    -0.127 A  
HETATM   13  C   UNL     1      -8.106   7.435  72.417  1.00  0.00    -0.101 A  
HETATM   14  F   UNL     1      -8.289   7.377  73.746  1.00  0.00    -0.139 F  
HETATM   15  C   UNL     1      -8.585   6.418  71.575  1.00  0.00    -0.130 A  
HETATM   16  C   UNL     1      -7.774   7.743  69.635  1.00  0.00    -0.101 A  
HETATM   17  C   UNL     1      -8.359   6.594  70.193  1.00  0.00    -0.135 A  
BRANCH  15  18
HETATM   18  N   UNL     1      -9.263   5.291  72.014  1.00  0.00    -0.137 NA 
HETATM   19  C   UNL     1      -8.595   4.138  72.638  1.00  0.00    -0.104 C  
HETATM   20  C   UNL     1      -9.165   3.858  74.048  1.00  0.00    -0.092 C  
HETATM   21  N   UNL     1     -10.642   3.736  74.113  1.00  0.00    -0.205 NA 
HETATM   22  C   UNL     1     -11.233   4.948  73.510  1.00  0.00    -0.298 C  
HETATM   23  C   UNL     1     -11.114   2.526  73.441  1.00  0.00    -0.188 C  
HETATM   24  C   UNL     1     -10.737   5.289  72.086  1.00  0.00    -0.209 C  
ENDBRANCH  15  18
ENDBRANCH   2   3
TORSDOF 2
ENDMDL
MODEL      125
REMARK 921   NORMALIZED FREE ENERGY PREDICTED BY IDOCK:   -3.16 KCAL/MOL
REMARK 922        TOTAL FREE ENERGY PREDICTED BY IDOCK:   -3.77 KCAL/MOL
REMARK 923 INTER-LIGAND FREE ENERGY PREDICTED BY IDOCK:   -3.32 KCAL/MOL
REMARK 924 INTRA-LIGAND FREE ENERGY PREDICTED BY IDOCK:   -0.45 KCAL/MOL
REMARK 927      BINDING AFFINITY PREDICTED BY RF-SCORE:    0.00 PKD
ROOT
HETATM    1  C   UNL     1     -10.426   9.146  67.940  1.00  0.00    -0.293 C  
HETATM    2  C   UNL     1      -9.194   8.885  68.797  1.00  0.00    -0.140 C  
ENDROOT
BRANCH   2   3
HETATM    3  N   UNL     1      -9.333   7.637  69.571  1.00  0.00    -0.153 NA 
HETATM    4  C   UNL     1     -10.000   7.627  70.790  1.00  0.00    -0.181 C  
HETATM    5  C   UNL     1     -10.186   6.565  71.587  1.00  0.00    -0.216 C  
HETATM    6  C   UNL     1     -10.941   6.724  72.846  1.00  0.00    -0.263 C  
HETATM    7  C   UNL     1      -9.618   5.282  71.127  1.00  0.00    -0.163 C  
HETATM    8  C   UNL     1      -8.988   5.232  69.791  1.00  0.00    -0.138 A  
HETATM    9  O   UNL     1      -9.703   4.284  71.841  1.00  0.00    -0.149 OA 
HETATM   10  O   UNL     1     -11.428   7.786  73.208  1.00  0.00    -0.295 OA 
HETATM   11  O   UNL     1     -11.065   5.591  73.572  1.00  0.00    -0.276 OA 
HETATM   12  C   UNL     1      -8.547   4.002  69.298  1.00  0.00    -0.111 A  
HETATM   13  C   UNL     1      -8.037   3.924  68.006  1.00  0.00    -0.088 A  
HETATM   14  F   UNL     1      -7.713   2.703  67.553  1.00  0.00    -0.059 F  
HETATM   15  C   UNL     1      -7.931   5.055  67.180  1.00  0.00    -0.100 A  
HETATM   16  C   UNL     1      -8.875   6.411  69.036  1.00  0.00    -0.129 A  
HETATM   17  C   UNL     1      -8.321   6.285  67.751  1.00  0.00    -0.117 A  
BRANCH  15  18
HETATM   18  N   UNL     1      -7.490   5.026  65.865  1.00  0.00    -0.081 NA 
HETATM   19  C   UNL     1      -6.131   4.616  65.476  1.00  0.00    -0.026 C  
HETATM   20  C   UNL     1      -6.169   3.429  64.484  1.00  0.00    -0.023 C  
HETATM   21  N   UNL     1      -7.040   3.630  63.301  1.00  0.00    -0.047 NA 
HETATM   22  C   UNL     1      -8.390   3.994  63.776  1.00  0.00    -0.094 C  
HETATM   23  C   UNL     1      -6.503   4.651  62.402  1.00  0.00    -0.026 C  
HETATM   24  C   UNL     1      -8.448   5.190  64.755  1.00  0.00    -0.150 C  
ENDBRANCH  15  18
ENDBRANCH   2   3
TORSDOF 2
ENDMDL
MODEL      126
REMARK 921   NORMALIZED FREE ENERGY PREDICTED BY IDOCK:   -3.04 KCAL/MOL
REMARK 922        TOTAL FREE ENERGY PREDICTED BY IDOCK:   -3.63 KCAL/MOL
REMARK 923 INTER-LIGAND FREE ENERGY PREDICTED BY IDOCK:   -3.16 KCAL/MOL
REMARK 924 INTRA-LIGAND FREE ENERGY PREDICTED BY IDOCK:   -0.47 KCAL/MOL
REMARK 927      BINDING AFFINITY PREDICTED BY RF-SCORE:    0.00 PKD
ROOT
HETATM    1  C   UNL     1     -11.298  14.304  64.411  1.00  0.00    -0.284 C  
HETATM    2  C   UNL     1     -10.388  13.266  65.053  1.00  0.00    -0.340 C  
ENDROOT
BRANCH   2   3
HETATM    3  N   UNL     1     -10.548  13.245  66.521  1.00  0.00    -0.283 NA 
HETATM    4  C   UNL     1     -10.958  14.381  67.207  1.00  0.00    -0.297 C  
HETATM    5  C   UNL     1     -11.133  14.491  68.532  1.00  0.00    -0.271 C  
HETATM    6  C   UNL     1     -11.595  15.773  69.100  1.00  0.00    -0.392 C  
HETATM    7  C   UNL     1     -10.854  13.288  69.340  1.00  0.00     0.064 C  
HETATM    8  C   UNL     1     -10.512  12.033  68.637  1.00  0.00    -0.238 A  
HETATM    9  O   UNL     1     -10.938  13.341  70.566  1.00  0.00     0.850 OA 
HETATM   10  O   UNL     1     -11.846  16.758  68.420  1.00  0.00     0.173 OA 
HETATM   11  O   UNL     1     -11.735  15.773  70.444  1.00  0.00    -0.320 OA 
HETATM   12  C   UNL     1     -10.356  10.862  69.383  1.00  0.00    -0.174 A  
HETATM   13  C   UNL     1     -10.126   9.658  68.726  1.00  0.00    -0.179 A  
HETATM   14  F   UNL     1     -10.075   8.552  69.486  1.00  0.00    -0.182 F  
HETATM   15  C   UNL     1     -10.025   9.581  67.328  1.00  0.00    -0.189 A  
HETATM   16  C   UNL     1     -10.383  12.038  67.238  1.00  0.00    -0.212 A  
HETATM   17  C   UNL     1     -10.116  10.802  66.627  1.00  0.00    -0.265 A  
BRANCH  15  18
HETATM   18  N   UNL     1      -9.859   8.401  66.618  1.00  0.00    -0.252 NA 
HETATM   19  C   UNL     1      -8.586   8.001  65.999  1.00  0.00    -0.145 C  
HETATM   20  C   UNL     1      -8.114   6.627  66.530  1.00  0.00    -0.111 C  
HETATM   21  N   UNL     1      -9.124   5.545  66.451  1.00  0.00    -0.139 NA 
HETATM   22  C   UNL     1     -10.352   6.006  67.131  1.00  0.00    -0.230 C  
HETATM   23  C   UNL     1      -9.399   5.162  65.067  1.00  0.00     0.044 C  
HETATM   24  C   UNL     1     -10.909   7.363  66.643  1.00  0.00     0.214 C  
ENDBRANCH  15  18
ENDBRANCH   2   3
TORSDOF 2
ENDMDL
MODEL      127
REMARK 921   NORMALIZED FREE ENERGY PREDICTED BY IDOCK:   -3.00 KCAL/MOL
REMARK 922        TOTAL FREE ENERGY PREDICTED BY IDOCK:   -3.58 KCAL/MOL
REMARK 923 INTER-LIGAND FREE ENERGY PREDICTED BY IDOCK:   -3.12 KCAL/MOL
REMARK 924 INTRA-LIGAND FREE ENERGY PREDICTED BY IDOCK:   -0.46 KCAL/MOL
REMARK 927      BINDING AFFINITY PREDICTED BY RF-SCORE:    0.00 PKD
ROOT
HETATM    1  C   UNL     1      -9.816   8.806  66.141  1.00  0.00    -0.297 C  
HETATM    2  C   UNL     1      -9.198   8.012  67.284  1.00  0.00    -0.139 C  
ENDROOT
BRANCH   2   3
HETATM    3  N   UNL     1      -8.466   8.892  68.216  1.00  0.00    -0.129 NA 
HETATM    4  C   UNL     1      -8.338  10.251  67.957  1.00  0.00    -0.114 C  
HETATM    5  C   UNL     1      -7.696  11.149  68.717  1.00  0.00    -0.136 C  
HETATM    6  C   UNL     1      -7.673  12.566  68.306  1.00  0.00    -0.141 C  
HETATM    7  C   UNL     1      -7.054  10.640  69.945  1.00  0.00    -0.129 C  
HETATM    8  C   UNL     1      -7.252   9.220  70.305  1.00  0.00    -0.087 A  
HETATM    9  O   UNL     1      -6.399  11.403  70.654  1.00  0.00    -0.310 OA 
HETATM   10  O   UNL     1      -8.227  12.983  67.298  1.00  0.00    -0.180 OA 
HETATM   11  O   UNL     1      -6.996  13.383  69.143  1.00  0.00    -0.104 OA 
HETATM   12  C   UNL     1      -6.744   8.754  71.520  1.00  0.00    -0.082 A  
HETATM   13  C   UNL     1      -7.003   7.445  71.914  1.00  0.00    -0.062 A  
HETATM   14  F   UNL     1      -6.568   7.079  73.130  1.00  0.00    -0.064 F  
HETATM   15  C   UNL     1      -7.746   6.561  71.114  1.00  0.00    -0.098 A  
HETATM   16  C   UNL     1      -7.969   8.381  69.436  1.00  0.00    -0.112 A  
HETATM   17  C   UNL     1      -8.173   7.059  69.864  1.00  0.00    -0.130 A  
BRANCH  15  18
HETATM   18  N   UNL     1      -8.087   5.269  71.484  1.00  0.00    -0.114 NA 
HETATM   19  C   UNL     1      -8.934   4.956  72.646  1.00  0.00    -0.127 C  
HETATM   20  C   UNL     1     -10.180   4.142  72.227  1.00  0.00    -0.164 C  
HETATM   21  N   UNL     1      -9.894   2.933  71.417  1.00  0.00    -0.150 NA 
HETATM   22  C   UNL     1      -9.082   3.338  70.251  1.00  0.00    -0.126 C  
HETATM   23  C   UNL     1      -9.215   1.904  72.203  1.00  0.00    -0.079 C  
HETATM   24  C   UNL     1      -7.800   4.137  70.582  1.00  0.00    -0.052 C  
ENDBRANCH  15  18
ENDBRANCH   2   3
TORSDOF 2
ENDMDL
MODEL      128
REMARK 921   NORMALIZED FREE ENERGY PREDICTED BY IDOCK:   -2.82 KCAL/MOL
REMARK 922        TOTAL FREE ENERGY PREDICTED BY IDOCK:   -3.39 KCAL/MOL
REMARK 923 INTER-LIGAND FREE ENERGY PREDICTED BY IDOCK:   -3.34 KCAL/MOL
REMARK 924 INTRA-LIGAND FREE ENERGY PREDICTED BY IDOCK:   -0.05 KCAL/MOL
REMARK 927      BINDING AFFINITY PREDICTED BY RF-SCORE:    0.00 PKD
ROOT
HETATM    1  C   UNL     1     -11.531  12.840  64.968  1.00  0.00    -0.356 C  
HETATM    2  C   UNL     1     -10.112  12.395  65.295  1.00  0.00    -0.265 C  
ENDROOT
BRANCH   2   3
HETATM    3  N   UNL     1      -9.564  13.147  66.441  1.00  0.00    -0.267 NA 
HETATM    4  C   UNL     1     -10.124  14.357  66.830  1.00  0.00    -0.266 C  
HETATM    5  C   UNL     1      -9.715  15.135  67.843  1.00  0.00    -0.208 C  
HETATM    6  C   UNL     1     -10.440  16.387  68.137  1.00  0.00    -0.302 C  
HETATM    7  C   UNL     1      -8.550  14.660  68.615  1.00  0.00    -0.172 C  
HETATM    8  C   UNL     1      -7.988  13.331  68.294  1.00  0.00    -0.144 A  
HETATM    9  O   UNL     1      -8.090  15.357  69.518  1.00  0.00    -0.236 OA 
HETATM   10  O   UNL     1     -11.419  16.760  67.507  1.00  0.00     0.109 OA 
HETATM   11  O   UNL     1      -9.942  17.093  69.175  1.00  0.00    -0.272 OA 
HETATM   12  C   UNL     1      -6.958  12.823  69.089  1.00  0.00    -0.015 A  
HETATM   13  C   UNL     1      -6.484  11.536  68.856  1.00  0.00    -0.065 A  
HETATM   14  F   UNL     1      -5.557  11.068  69.707  1.00  0.00    -0.041 F  
HETATM   15  C   UNL     1      -6.997  10.730  67.827  1.00  0.00    -0.077 A  
HETATM   16  C   UNL     1      -8.521  12.597  67.221  1.00  0.00    -0.193 A  
HETATM   17  C   UNL     1      -7.984  11.317  67.006  1.00  0.00    -0.150 A  
BRANCH  15  18
HETATM   18  N   UNL     1      -6.607   9.420  67.590  1.00  0.00    -0.063 NA 
HETATM   19  C   UNL     1      -5.653   8.693  68.442  1.00  0.00    -0.038 C  
HETATM   20  C   UNL     1      -6.282   7.395  69.002  1.00  0.00    -0.035 C  
HETATM   21  N   UNL     1      -6.894   6.507  67.984  1.00  0.00    -0.071 NA 
HETATM   22  C   UNL     1      -7.867   7.298  67.203  1.00  0.00    -0.110 C  
HETATM   23  C   UNL     1      -5.884   5.905  67.115  1.00  0.00    -0.017 C  
HETATM   24  C   UNL     1      -7.314   8.603  66.584  1.00  0.00    -0.081 C  
ENDBRANCH  15  18
ENDBRANCH   2   3
TORSDOF 2
ENDMDL
MODEL      129
REMARK 921   NORMALIZED FREE ENERGY PREDICTED BY IDOCK:   -2.72 KCAL/MOL
REMARK 922        TOTAL FREE ENERGY PREDICTED BY IDOCK:   -3.28 KCAL/MOL
REMARK 923 INTER-LIGAND FREE ENERGY PREDICTED BY IDOCK:   -2.75 KCAL/MOL
REMARK 924 INTRA-LIGAND FREE ENERGY PREDICTED BY IDOCK:   -0.53 KCAL/MOL
REMARK 927      BINDING AFFINITY PREDICTED BY RF-SCORE:    0.00 PKD
ROOT
HETATM    1  C   UNL     1     -10.183  10.742  64.376  1.00  0.00    -0.432 C  
HETATM    2  C   UNL     1      -8.749  10.256  64.541  1.00  0.00    -0.192 C  
ENDROOT
BRANCH   2   3
HETATM    3  N   UNL     1      -8.228  10.565  65.887  1.00  0.00    -0.148 NA 
HETATM    4  C   UNL     1      -8.076  11.881  66.305  1.00  0.00     0.189 C  
HETATM    5  C   UNL     1      -7.609  12.290  67.493  1.00  0.00    -0.155 C  
HETATM    6  C   UNL     1      -7.532  13.735  67.786  1.00  0.00    -0.163 C  
HETATM    7  C   UNL     1      -7.210  11.237  68.447  1.00  0.00    -0.085 C  
HETATM    8  C   UNL     1      -7.449   9.826  68.077  1.00  0.00    -0.082 A  
HETATM    9  O   UNL     1      -6.719  11.548  69.531  1.00  0.00    -0.117 OA 
HETATM   10  O   UNL     1      -7.886  14.601  66.998  1.00  0.00    -0.174 OA 
HETATM   11  O   UNL     1      -7.045  14.034  69.010  1.00  0.00    -0.109 OA 
HETATM   12  C   UNL     1      -7.180   8.826  69.015  1.00  0.00    -0.072 A  
HETATM   13  C   UNL     1      -7.487   7.504  68.713  1.00  0.00    -0.097 A  
HETATM   14  F   UNL     1      -7.291   6.598  69.685  1.00  0.00    -0.073 F  
HETATM   15  C   UNL     1      -8.046   7.133  67.479  1.00  0.00    -0.113 A  
HETATM   16  C   UNL     1      -7.969   9.524  66.807  1.00  0.00    -0.109 A  
HETATM   17  C   UNL     1      -8.229   8.170  66.540  1.00  0.00    -0.107 A  
BRANCH  15  18
HETATM   18  N   UNL     1      -8.429   5.842  67.150  1.00  0.00    -0.108 NA 
HETATM   19  C   UNL     1      -9.703   5.242  67.577  1.00  0.00    -0.146 C  
HETATM   20  C   UNL     1     -10.537   4.777  66.360  1.00  0.00    -0.153 C  
HETATM   21  N   UNL     1      -9.815   3.903  65.403  1.00  0.00    -0.184 NA 
HETATM   22  C   UNL     1      -8.576   4.593  64.991  1.00  0.00    -0.138 C  
HETATM   23  C   UNL     1      -9.523   2.593  65.983  1.00  0.00     0.110 C  
HETATM   24  C   UNL     1      -7.667   5.071  66.147  1.00  0.00    -0.091 C  
ENDBRANCH  15  18
ENDBRANCH   2   3
TORSDOF 2
ENDMDL
MODEL      130
REMARK 921   NORMALIZED FREE ENERGY PREDICTED BY IDOCK:   -2.50 KCAL/MOL
REMARK 922        TOTAL FREE ENERGY PREDICTED BY IDOCK:   -3.03 KCAL/MOL
REMARK 923 INTER-LIGAND FREE ENERGY PREDICTED BY IDOCK:   -2.50 KCAL/MOL
REMARK 924 INTRA-LIGAND FREE ENERGY PREDICTED BY IDOCK:   -0.53 KCAL/MOL
REMARK 927      BINDING AFFINITY PREDICTED BY RF-SCORE:    0.00 PKD
ROOT
HETATM    1  C   UNL     1      -9.344   9.943  64.715  1.00  0.00    -0.339 C  
HETATM    2  C   UNL     1      -8.175   8.969  64.688  1.00  0.00    -0.160 C  
ENDROOT
BRANCH   2   3
HETATM    3  N   UNL     1      -7.796   8.546  66.051  1.00  0.00    -0.096 NA 
HETATM    4  C   UNL     1      -7.483   9.486  67.025  1.00  0.00    -0.091 C  
HETATM    5  C   UNL     1      -7.120   9.230  68.290  1.00  0.00    -0.076 C  
HETATM    6  C   UNL     1      -6.842  10.353  69.208  1.00  0.00    -0.073 C  
HETATM    7  C   UNL     1      -7.035   7.810  68.682  1.00  0.00    -0.067 C  
HETATM    8  C   UNL     1      -7.454   6.784  67.703  1.00  0.00    -0.098 A  
HETATM    9  O   UNL     1      -6.649   7.508  69.811  1.00  0.00    -0.038 OA 
HETATM   10  O   UNL     1      -6.938  11.528  68.881  1.00  0.00    -0.085 OA 
HETATM   11  O   UNL     1      -6.482   9.981  70.456  1.00  0.00    -0.105 OA 
HETATM   12  C   UNL     1      -7.485   5.445  68.099  1.00  0.00    -0.076 A  
HETATM   13  C   UNL     1      -7.965   4.481  67.218  1.00  0.00    -0.101 A  
HETATM   14  F   UNL     1      -8.056   3.225  67.683  1.00  0.00    -0.077 F  
HETATM   15  C   UNL     1      -8.406   4.809  65.925  1.00  0.00    -0.116 A  
HETATM   16  C   UNL     1      -7.841   7.180  66.412  1.00  0.00    -0.109 A  
HETATM   17  C   UNL     1      -8.285   6.164  65.549  1.00  0.00    -0.144 A  
BRANCH  15  18
HETATM   18  N   UNL     1      -8.952   3.902  65.030  1.00  0.00    -0.125 NA 
HETATM   19  C   UNL     1     -10.399   3.759  64.804  1.00  0.00    -0.124 C  
HETATM   20  C   UNL     1     -10.756   3.985  63.316  1.00  0.00    -0.051 C  
HETATM   21  N   UNL     1      -9.970   3.176  62.354  1.00  0.00    -0.093 NA 
HETATM   22  C   UNL     1      -8.535   3.409  62.617  1.00  0.00    -0.077 C  
HETATM   23  C   UNL     1     -10.300   1.755  62.446  1.00  0.00    -0.097 C  
HETATM   24  C   UNL     1      -8.084   3.180  64.079  1.00  0.00    -0.082 C  
ENDBRANCH  15  18
ENDBRANCH   2   3
TORSDOF 2
ENDMDL
MODEL      131
REMARK 921   NORMALIZED FREE ENERGY PREDICTED BY IDOCK:   -2.37 KCAL/MOL
REMARK 922        TOTAL FREE ENERGY PREDICTED BY IDOCK:   -2.88 KCAL/MOL
REMARK 923 INTER-LIGAND FREE ENERGY PREDICTED BY IDOCK:   -3.87 KCAL/MOL
REMARK 924 INTRA-LIGAND FREE ENERGY PREDICTED BY IDOCK:    0.98 KCAL/MOL
REMARK 927      BINDING AFFINITY PREDICTED BY RF-SCORE:    0.00 PKD
ROOT
HETATM    1  C   UNL     1      -7.836   5.880  66.660  1.00  0.00    -0.101 C  
HETATM    2  C   UNL     1      -8.939   5.385  67.585  1.00  0.00    -0.108 C  
ENDROOT
BRANCH   2   3
HETATM    3  N   UNL     1      -9.609   6.507  68.272  1.00  0.00    -0.131 NA 
HETATM    4  C   UNL     1     -10.265   6.310  69.481  1.00  0.00    -0.194 C  
HETATM    5  C   UNL     1     -10.913   7.242  70.195  1.00  0.00    -0.280 C  
HETATM    6  C   UNL     1     -11.542   6.867  71.477  1.00  0.00    -0.290 C  
HETATM    7  C   UNL     1     -10.938   8.608  69.637  1.00  0.00    -0.091 C  
HETATM    8  C   UNL     1     -10.168   8.878  68.405  1.00  0.00    -0.231 A  
HETATM    9  O   UNL     1     -11.566   9.493  70.215  1.00  0.00    -0.245 OA 
HETATM   10  O   UNL     1     -11.497   5.737  71.943  1.00  0.00    -0.253 OA 
HETATM   11  O   UNL     1     -12.170   7.881  72.112  1.00  0.00    -0.309 OA 
HETATM   12  C   UNL     1     -10.092  10.189  67.929  1.00  0.00    -0.207 A  
HETATM   13  C   UNL     1      -9.295  10.472  66.824  1.00  0.00    -0.157 A  
HETATM   14  F   UNL     1      -9.189  11.761  66.467  1.00  0.00    -0.179 F  
HETATM   15  C   UNL     1      -8.574   9.472  66.152  1.00  0.00    -0.131 A  
HETATM   16  C   UNL     1      -9.506   7.820  67.759  1.00  0.00    -0.143 A  
HETATM   17  C   UNL     1      -8.743   8.153  66.627  1.00  0.00    -0.152 A  
BRANCH  15  18
HETATM   18  N   UNL     1      -7.717   9.705  65.087  1.00  0.00    -0.112 NA 
HETATM   19  C   UNL     1      -6.405  10.356  65.231  1.00  0.00    -0.114 C  
HETATM   20  C   UNL     1      -5.270   9.447  64.704  1.00  0.00    -0.049 C  
HETATM   21  N   UNL     1      -5.474   8.925  63.331  1.00  0.00    -0.067 NA 
HETATM   22  C   UNL     1      -6.787   8.250  63.282  1.00  0.00    -0.085 C  
HETATM   23  C   UNL     1      -5.387   9.987  62.330  1.00  0.00    -0.091 C  
HETATM   24  C   UNL     1      -7.986   9.098  63.769  1.00  0.00    -0.146 C  
ENDBRANCH  15  18
ENDBRANCH   2   3
TORSDOF 2
ENDMDL
MODEL      132
REMARK 921   NORMALIZED FREE ENERGY PREDICTED BY IDOCK:   -2.34 KCAL/MOL
REMARK 922        TOTAL FREE ENERGY PREDICTED BY IDOCK:   -2.85 KCAL/MOL
REMARK 923 INTER-LIGAND FREE ENERGY PREDICTED BY IDOCK:   -2.67 KCAL/MOL
REMARK 924 INTRA-LIGAND FREE ENERGY PREDICTED BY IDOCK:   -0.19 KCAL/MOL
REMARK 927      BINDING AFFINITY PREDICTED BY RF-SCORE:    0.00 PKD
ROOT
HETATM    1  C   UNL     1      -7.997   9.874  64.403  1.00  0.00    -0.146 C  
HETATM    2  C   UNL     1      -8.452   8.957  65.530  1.00  0.00    -0.159 C  
ENDROOT
BRANCH   2   3
HETATM    3  N   UNL     1      -8.003   9.457  66.845  1.00  0.00    -0.108 NA 
HETATM    4  C   UNL     1      -7.792  10.814  67.054  1.00  0.00    -0.121 C  
HETATM    5  C   UNL     1      -7.380  11.389  68.193  1.00  0.00    -0.092 C  
HETATM    6  C   UNL     1      -7.226  12.856  68.252  1.00  0.00    -0.112 C  
HETATM    7  C   UNL     1      -7.117  10.490  69.333  1.00  0.00    -0.110 C  
HETATM    8  C   UNL     1      -7.425   9.052  69.179  1.00  0.00    -0.072 A  
HETATM    9  O   UNL     1      -6.680  10.949  70.387  1.00  0.00    -0.278 OA 
HETATM   10  O   UNL     1      -7.468  13.597  67.309  1.00  0.00    -0.150 OA 
HETATM   11  O   UNL     1      -6.803  13.328  69.445  1.00  0.00    -0.075 OA 
HETATM   12  C   UNL     1      -7.286   8.209  70.285  1.00  0.00    -0.059 A  
HETATM   13  C   UNL     1      -7.660   6.874  70.179  1.00  0.00    -0.099 A  
HETATM   14  F   UNL     1      -7.591   6.134  71.297  1.00  0.00    -0.086 F  
HETATM   15  C   UNL     1      -8.158   6.333  68.982  1.00  0.00    -0.110 A  
HETATM   16  C   UNL     1      -7.877   8.572  67.939  1.00  0.00    -0.103 A  
HETATM   17  C   UNL     1      -8.209   7.208  67.875  1.00  0.00    -0.119 A  
BRANCH  15  18
HETATM   18  N   UNL     1      -8.604   5.028  68.838  1.00  0.00    -0.086 NA 
HETATM   19  C   UNL     1      -8.225   4.164  67.708  1.00  0.00    -0.094 C  
HETATM   20  C   UNL     1      -7.547   2.865  68.203  1.00  0.00    -0.056 C  
HETATM   21  N   UNL     1      -8.306   2.116  69.234  1.00  0.00    -0.048 NA 
HETATM   22  C   UNL     1      -8.607   3.039  70.348  1.00  0.00    -0.063 C  
HETATM   23  C   UNL     1      -9.529   1.531  68.687  1.00  0.00    -0.165 C  
HETATM   24  C   UNL     1      -9.310   4.356  69.946  1.00  0.00    -0.155 C  
ENDBRANCH  15  18
ENDBRANCH   2   3
TORSDOF 2
ENDMDL
MODEL      133
REMARK 921   NORMALIZED FREE ENERGY PREDICTED BY IDOCK:   -2.24 KCAL/MOL
REMARK 922        TOTAL FREE ENERGY PREDICTED BY IDOCK:   -2.74 KCAL/MOL
REMARK 923 INTER-LIGAND FREE ENERGY PREDICTED BY IDOCK:   -2.72 KCAL/MOL
REMARK 924 INTRA-LIGAND FREE ENERGY PREDICTED BY IDOCK:   -0.02 KCAL/MOL
REMARK 927      BINDING AFFINITY PREDICTED BY RF-SCORE:    0.00 PKD
ROOT
HETATM    1  C   UNL     1     -10.991   5.757  66.601  1.00  0.00    -0.208 C  
HETATM    2  C   UNL     1      -9.539   5.324  66.751  1.00  0.00    -0.148 C  
ENDROOT
BRANCH   2   3
HETATM    3  N   UNL     1      -8.660   6.477  67.029  1.00  0.00    -0.112 NA 
HETATM    4  C   UNL     1      -8.302   7.357  66.016  1.00  0.00    -0.143 C  
HETATM    5  C   UNL     1      -7.510   8.432  66.139  1.00  0.00    -0.088 C  
HETATM    6  C   UNL     1      -7.246   9.280  64.959  1.00  0.00    -0.098 C  
HETATM    7  C   UNL     1      -6.957   8.699  67.481  1.00  0.00    -0.078 C  
HETATM    8  C   UNL     1      -7.393   7.842  68.604  1.00  0.00    -0.090 A  
HETATM    9  O   UNL     1      -6.175   9.634  67.646  1.00  0.00    -0.052 OA 
HETATM   10  O   UNL     1      -7.728   9.064  63.855  1.00  0.00    -0.114 OA 
HETATM   11  O   UNL     1      -6.433  10.332  65.195  1.00  0.00    -0.116 OA 
HETATM   12  C   UNL     1      -6.965   8.153  69.897  1.00  0.00    -0.048 A  
HETATM   13  C   UNL     1      -7.442   7.412  70.973  1.00  0.00    -0.074 A  
HETATM   14  F   UNL     1      -7.068   7.812  72.199  1.00  0.00    -0.059 F  
HETATM   15  C   UNL     1      -8.332   6.339  70.801  1.00  0.00    -0.126 A  
HETATM   16  C   UNL     1      -8.250   6.758  68.352  1.00  0.00    -0.119 A  
HETATM   17  C   UNL     1      -8.676   6.020  69.470  1.00  0.00    -0.125 A  
BRANCH  15  18
HETATM   18  N   UNL     1      -8.888   5.608  71.840  1.00  0.00    -0.135 NA 
HETATM   19  C   UNL     1      -9.919   4.577  71.643  1.00  0.00    -0.196 C  
HETATM   20  C   UNL     1      -9.457   3.210  72.200  1.00  0.00    -0.129 C  
HETATM   21  N   UNL     1      -8.971   3.237  73.601  1.00  0.00    -0.083 NA 
HETATM   22  C   UNL     1      -7.912   4.262  73.704  1.00  0.00    -0.090 C  
HETATM   23  C   UNL     1     -10.057   3.503  74.544  1.00  0.00    -0.172 C  
HETATM   24  C   UNL     1      -8.298   5.668  73.192  1.00  0.00    -0.118 C  
ENDBRANCH  15  18
ENDBRANCH   2   3
TORSDOF 2
ENDMDL
MODEL      134
REMARK 921   NORMALIZED FREE ENERGY PREDICTED BY IDOCK:   -2.02 KCAL/MOL
REMARK 922        TOTAL FREE ENERGY PREDICTED BY IDOCK:   -2.49 KCAL/MOL
REMARK 923 INTER-LIGAND FREE ENERGY PREDICTED BY IDOCK:   -2.53 KCAL/MOL
REMARK 924 INTRA-LIGAND FREE ENERGY PREDICTED BY IDOCK:    0.04 KCAL/MOL
REMARK 927      BINDING AFFINITY PREDICTED BY RF-SCORE:    0.00 PKD
ROOT
HETATM    1  C   UNL     1      -6.286  20.132  70.727  1.00  0.00    -0.202 C  
HETATM    2  C   UNL     1      -6.900  18.796  70.329  1.00  0.00     0.644 C  
ENDROOT
BRANCH   2   3
HETATM    3  N   UNL     1      -7.425  18.835  68.950  1.00  0.00    -0.310 NA 
HETATM    4  C   UNL     1      -6.719  19.475  67.939  1.00  0.00    -0.237 C  
HETATM    5  C   UNL     1      -7.091  19.585  66.656  1.00  0.00    -0.226 C  
HETATM    6  C   UNL     1      -6.209  20.283  65.700  1.00  0.00    -0.221 C  
HETATM    7  C   UNL     1      -8.381  18.972  66.284  1.00  0.00    -0.283 C  
HETATM    8  C   UNL     1      -9.113  18.198  67.309  1.00  0.00    -0.252 A  
HETATM    9  O   UNL     1      -8.806  19.090  65.136  1.00  0.00     0.864 OA 
HETATM   10  O   UNL     1      -5.130  20.768  66.012  1.00  0.00    -0.166 OA 
HETATM   11  O   UNL     1      -6.682  20.338  64.436  1.00  0.00    -0.243 OA 
HETATM   12  C   UNL     1     -10.278  17.520  66.941  1.00  0.00    -0.329 A  
HETATM   13  C   UNL     1     -10.925  16.714  67.871  1.00  0.00    -0.276 A  
HETATM   14  F   UNL     1     -11.986  16.017  67.436  1.00  0.00     0.115 F  
HETATM   15  C   UNL     1     -10.454  16.571  69.187  1.00  0.00    -0.317 A  
HETATM   16  C   UNL     1      -8.607  18.134  68.618  1.00  0.00    -0.267 A  
HETATM   17  C   UNL     1      -9.316  17.334  69.529  1.00  0.00     0.416 A  
BRANCH  15  18
HETATM   18  N   UNL     1     -11.021  15.734  70.135  1.00  0.00    -0.323 NA 
HETATM   19  C   UNL     1     -10.551  15.653  71.527  1.00  0.00     0.643 C  
HETATM   20  C   UNL     1     -11.692  15.973  72.521  1.00  0.00    -0.442 C  
HETATM   21  N   UNL     1     -12.936  15.193  72.318  1.00  0.00    -0.328 NA 
HETATM   22  C   UNL     1     -13.365  15.362  70.914  1.00  0.00    -0.418 C  
HETATM   23  C   UNL     1     -12.749  13.781  72.647  1.00  0.00    -0.098 C  
HETATM   24  C   UNL     1     -12.291  15.038  69.850  1.00  0.00    -0.275 C  
ENDBRANCH  15  18
ENDBRANCH   2   3
TORSDOF 2
ENDMDL
MODEL      135
REMARK 921   NORMALIZED FREE ENERGY PREDICTED BY IDOCK:   -2.00 KCAL/MOL
REMARK 922        TOTAL FREE ENERGY PREDICTED BY IDOCK:   -2.47 KCAL/MOL
REMARK 923 INTER-LIGAND FREE ENERGY PREDICTED BY IDOCK:   -2.46 KCAL/MOL
REMARK 924 INTRA-LIGAND FREE ENERGY PREDICTED BY IDOCK:   -0.01 KCAL/MOL
REMARK 927      BINDING AFFINITY PREDICTED BY RF-SCORE:    0.00 PKD
ROOT
HETATM    1  C   UNL     1      -7.668   8.472  71.187  1.00  0.00    -0.115 C  
HETATM    2  C   UNL     1      -6.409   7.794  70.667  1.00  0.00    -0.037 C  
ENDROOT
BRANCH   2   3
HETATM    3  N   UNL     1      -6.732   6.742  69.682  1.00  0.00    -0.048 NA 
HETATM    4  C   UNL     1      -6.551   5.400  69.991  1.00  0.00    -0.046 C  
HETATM    5  C   UNL     1      -6.799   4.358  69.185  1.00  0.00    -0.046 C  
HETATM    6  C   UNL     1      -6.571   2.986  69.680  1.00  0.00    -0.033 C  
HETATM    7  C   UNL     1      -7.307   4.669  67.834  1.00  0.00    -0.066 C  
HETATM    8  C   UNL     1      -7.606   6.079  67.504  1.00  0.00    -0.090 A  
HETATM    9  O   UNL     1      -7.497   3.760  67.028  1.00  0.00    -0.070 OA 
HETATM   10  O   UNL     1      -6.172   2.736  70.809  1.00  0.00    -0.018 OA 
HETATM   11  O   UNL     1      -6.850   2.013  68.785  1.00  0.00    -0.035 OA 
HETATM   12  C   UNL     1      -8.191   6.374  66.270  1.00  0.00    -0.118 A  
HETATM   13  C   UNL     1      -8.562   7.683  65.984  1.00  0.00    -0.151 A  
HETATM   14  F   UNL     1      -9.202   7.893  64.822  1.00  0.00     0.208 F  
HETATM   15  C   UNL     1      -8.349   8.732  66.893  1.00  0.00    -0.108 A  
HETATM   16  C   UNL     1      -7.325   7.083  68.445  1.00  0.00    -0.100 A  
HETATM   17  C   UNL     1      -7.688   8.394  68.093  1.00  0.00    -0.103 A  
BRANCH  15  18
HETATM   18  N   UNL     1      -8.754  10.042  66.687  1.00  0.00    -0.128 NA 
HETATM   19  C   UNL     1      -8.407  10.817  65.485  1.00  0.00    -0.129 C  
HETATM   20  C   UNL     1      -9.677  11.319  64.758  1.00  0.00    -0.256 C  
HETATM   21  N   UNL     1     -10.644  12.044  65.616  1.00  0.00    -0.255 NA 
HETATM   22  C   UNL     1     -10.974  11.184  66.771  1.00  0.00    -0.249 C  
HETATM   23  C   UNL     1     -10.117  13.336  66.053  1.00  0.00    -0.299 C  
HETATM   24  C   UNL     1      -9.762  10.658  67.573  1.00  0.00    -0.166 C  
ENDBRANCH  15  18
ENDBRANCH   2   3
TORSDOF 2
ENDMDL
MODEL      136
REMARK 921   NORMALIZED FREE ENERGY PREDICTED BY IDOCK:   -1.91 KCAL/MOL
REMARK 922        TOTAL FREE ENERGY PREDICTED BY IDOCK:   -2.37 KCAL/MOL
REMARK 923 INTER-LIGAND FREE ENERGY PREDICTED BY IDOCK:   -3.65 KCAL/MOL
REMARK 924 INTRA-LIGAND FREE ENERGY PREDICTED BY IDOCK:    1.28 KCAL/MOL
REMARK 927      BINDING AFFINITY PREDICTED BY RF-SCORE:    0.00 PKD
ROOT
HETATM    1  C   UNL     1      -8.531   4.607  66.825  1.00  0.00    -0.105 C  
HETATM    2  C   UNL     1      -9.165   3.794  67.945  1.00  0.00    -0.172 C  
ENDROOT
BRANCH   2   3
HETATM    3  N   UNL     1      -9.573   4.658  69.071  1.00  0.00    -0.159 NA 
HETATM    4  C   UNL     1      -9.900   4.109  70.305  1.00  0.00    -0.169 C  
HETATM    5  C   UNL     1     -10.291   4.782  71.397  1.00  0.00    -0.192 C  
HETATM    6  C   UNL     1     -10.582   4.043  72.641  1.00  0.00    -0.108 C  
HETATM    7  C   UNL     1     -10.390   6.250  71.271  1.00  0.00    -0.212 C  
HETATM    8  C   UNL     1      -9.956   6.878  70.006  1.00  0.00    -0.190 A  
HETATM    9  O   UNL     1     -10.800   6.918  72.219  1.00  0.00    -0.218 OA 
HETATM   10  O   UNL     1     -10.474   2.829  72.742  1.00  0.00    -0.158 OA 
HETATM   11  O   UNL     1     -10.969   4.819  73.677  1.00  0.00    -0.281 OA 
HETATM   12  C   UNL     1      -9.940   8.272  69.914  1.00  0.00    -0.190 A  
HETATM   13  C   UNL     1      -9.446   8.877  68.763  1.00  0.00    -0.144 A  
HETATM   14  F   UNL     1      -9.371  10.217  68.766  1.00  0.00    -0.138 F  
HETATM   15  C   UNL     1      -8.978   8.128  67.671  1.00  0.00    -0.132 A  
HETATM   16  C   UNL     1      -9.541   6.065  68.938  1.00  0.00    -0.126 A  
HETATM   17  C   UNL     1      -9.084   6.725  67.785  1.00  0.00    -0.117 A  
BRANCH  15  18
HETATM   18  N   UNL     1      -8.418   8.676  66.527  1.00  0.00    -0.111 NA 
HETATM   19  C   UNL     1      -7.297   8.060  65.799  1.00  0.00    -0.079 C  
HETATM   20  C   UNL     1      -7.675   7.780  64.326  1.00  0.00    -0.124 C  
HETATM   21  N   UNL     1      -8.231   8.942  63.591  1.00  0.00    -0.169 NA 
HETATM   22  C   UNL     1      -9.375   9.473  64.362  1.00  0.00    -0.054 C  
HETATM   23  C   UNL     1      -7.220   9.974  63.367  1.00  0.00    -0.135 C  
HETATM   24  C   UNL     1      -9.078   9.804  65.843  1.00  0.00    -0.168 C  
ENDBRANCH  15  18
ENDBRANCH   2   3
TORSDOF 2
ENDMDL
MODEL      137
REMARK 921   NORMALIZED FREE ENERGY PREDICTED BY IDOCK:   -0.90 KCAL/MOL
REMARK 922        TOTAL FREE ENERGY PREDICTED BY IDOCK:   -1.25 KCAL/MOL
REMARK 923 INTER-LIGAND FREE ENERGY PREDICTED BY IDOCK:   -1.80 KCAL/MOL
REMARK 924 INTRA-LIGAND FREE ENERGY PREDICTED BY IDOCK:    0.56 KCAL/MOL
REMARK 927      BINDING AFFINITY PREDICTED BY RF-SCORE:    0.00 PKD
ROOT
HETATM    1  C   UNL     1      -7.611   9.007  70.140  1.00  0.00    -0.082 C  
HETATM    2  C   UNL     1      -6.635   8.275  71.050  1.00  0.00    -0.040 C  
ENDROOT
BRANCH   2   3
HETATM    3  N   UNL     1      -6.771   6.811  70.916  1.00  0.00    -0.053 NA 
HETATM    4  C   UNL     1      -6.761   5.991  72.037  1.00  0.00    -0.064 C  
HETATM    5  C   UNL     1      -6.868   4.654  72.047  1.00  0.00    -0.054 C  
HETATM    6  C   UNL     1      -6.860   3.934  73.335  1.00  0.00    -0.049 C  
HETATM    7  C   UNL     1      -7.000   3.990  70.736  1.00  0.00    -0.033 C  
HETATM    8  C   UNL     1      -7.114   4.835  69.528  1.00  0.00    -0.054 A  
HETATM    9  O   UNL     1      -7.042   2.762  70.673  1.00  0.00    -0.033 OA 
HETATM   10  O   UNL     1      -6.773   4.494  74.419  1.00  0.00    -0.061 OA 
HETATM   11  O   UNL     1      -6.971   2.591  73.228  1.00  0.00    -0.026 OA 
HETATM   12  C   UNL     1      -7.352   4.223  68.295  1.00  0.00    -0.064 A  
HETATM   13  C   UNL     1      -7.553   5.011  67.167  1.00  0.00    -0.088 A  
HETATM   14  F   UNL     1      -7.867   4.372  66.028  1.00  0.00    -0.090 F  
HETATM   15  C   UNL     1      -7.505   6.414  67.221  1.00  0.00    -0.088 A  
HETATM   16  C   UNL     1      -7.012   6.231  69.650  1.00  0.00    -0.071 A  
HETATM   17  C   UNL     1      -7.189   6.980  68.474  1.00  0.00    -0.091 A  
BRANCH  15  18
HETATM   18  N   UNL     1      -7.760   7.248  66.143  1.00  0.00    -0.097 NA 
HETATM   19  C   UNL     1      -9.080   7.838  65.871  1.00  0.00    -0.072 C  
HETATM   20  C   UNL     1      -9.003   9.382  65.822  1.00  0.00    -0.186 C  
HETATM   21  N   UNL     1      -7.963   9.928  64.918  1.00  0.00    -0.132 NA 
HETATM   22  C   UNL     1      -6.666   9.323  65.284  1.00  0.00    -0.074 C  
HETATM   23  C   UNL     1      -8.284   9.680  63.513  1.00  0.00    -0.158 C  
HETATM   24  C   UNL     1      -6.646   7.778  65.332  1.00  0.00    -0.044 C  
ENDBRANCH  15  18
ENDBRANCH   2   3
TORSDOF 2
ENDMDL
MODEL      138
REMARK 921   NORMALIZED FREE ENERGY PREDICTED BY IDOCK:   -0.22 KCAL/MOL
REMARK 922        TOTAL FREE ENERGY PREDICTED BY IDOCK:   -0.48 KCAL/MOL
REMARK 923 INTER-LIGAND FREE ENERGY PREDICTED BY IDOCK:   -1.87 KCAL/MOL
REMARK 924 INTRA-LIGAND FREE ENERGY PREDICTED BY IDOCK:    1.38 KCAL/MOL
REMARK 927      BINDING AFFINITY PREDICTED BY RF-SCORE:    0.00 PKD
ROOT
HETATM    1  C   UNL     1      -8.300   5.091  67.251  1.00  0.00    -0.106 C  
HETATM    2  C   UNL     1      -8.639   4.041  68.300  1.00  0.00    -0.095 C  
ENDROOT
BRANCH   2   3
HETATM    3  N   UNL     1      -8.336   4.525  69.662  1.00  0.00    -0.069 NA 
HETATM    4  C   UNL     1      -8.549   3.712  70.768  1.00  0.00    -0.071 C  
HETATM    5  C   UNL     1      -8.321   4.035  72.049  1.00  0.00    -0.101 C  
HETATM    6  C   UNL     1      -8.582   3.040  73.108  1.00  0.00    -0.080 C  
HETATM    7  C   UNL     1      -7.803   5.393  72.308  1.00  0.00    -0.103 C  
HETATM    8  C   UNL     1      -7.472   6.252  71.152  1.00  0.00    -0.085 A  
HETATM    9  O   UNL     1      -7.631   5.771  73.466  1.00  0.00    -0.100 OA 
HETATM   10  O   UNL     1      -8.990   1.909  72.881  1.00  0.00    -0.062 OA 
HETATM   11  O   UNL     1      -8.322   3.472  74.361  1.00  0.00    -0.080 OA 
HETATM   12  C   UNL     1      -6.876   7.494  71.381  1.00  0.00    -0.050 A  
HETATM   13  C   UNL     1      -6.475   8.272  70.300  1.00  0.00    -0.036 A  
HETATM   14  F   UNL     1      -5.828   9.414  70.581  1.00  0.00    -0.038 F  
HETATM   15  C   UNL     1      -6.667   7.855  68.972  1.00  0.00    -0.049 A  
HETATM   16  C   UNL     1      -7.732   5.789  69.851  1.00  0.00    -0.087 A  
HETATM   17  C   UNL     1      -7.339   6.627  68.794  1.00  0.00    -0.090 A  
BRANCH  15  18
HETATM   18  N   UNL     1      -6.232   8.559  67.860  1.00  0.00    -0.054 NA 
HETATM   19  C   UNL     1      -5.859   7.915  66.590  1.00  0.00    -0.044 C  
HETATM   20  C   UNL     1      -6.705   8.462  65.417  1.00  0.00    -0.056 C  
HETATM   21  N   UNL     1      -6.725   9.940  65.295  1.00  0.00    -0.100 NA 
HETATM   22  C   UNL     1      -7.151  10.505  66.592  1.00  0.00    -0.118 C  
HETATM   23  C   UNL     1      -5.423  10.466  64.891  1.00  0.00    -0.136 C  
HETATM   24  C   UNL     1      -6.339  10.030  67.820  1.00  0.00    -0.058 C  
ENDBRANCH  15  18
ENDBRANCH   2   3
TORSDOF 2
ENDMDL
MODEL      139
REMARK 921   NORMALIZED FREE ENERGY PREDICTED BY IDOCK:    1.09 KCAL/MOL
REMARK 922        TOTAL FREE ENERGY PREDICTED BY IDOCK:    0.98 KCAL/MOL
REMARK 923 INTER-LIGAND FREE ENERGY PREDICTED BY IDOCK:    1.12 KCAL/MOL
REMARK 924 INTRA-LIGAND FREE ENERGY PREDICTED BY IDOCK:   -0.14 KCAL/MOL
REMARK 927      BINDING AFFINITY PREDICTED BY RF-SCORE:    0.00 PKD
ROOT
HETATM    1  C   UNL     1      -7.763   8.002  72.039  1.00  0.00    -0.124 C  
HETATM    2  C   UNL     1      -6.366   7.400  72.109  1.00  0.00    -0.043 C  
ENDROOT
BRANCH   2   3
HETATM    3  N   UNL     1      -6.218   6.272  71.169  1.00  0.00    -0.042 NA 
HETATM    4  C   UNL     1      -6.135   4.966  71.635  1.00  0.00    -0.021 C  
HETATM    5  C   UNL     1      -5.994   3.861  70.888  1.00  0.00    -0.014 C  
HETATM    6  C   UNL     1      -5.944   2.540  71.545  1.00  0.00    -0.014 C  
HETATM    7  C   UNL     1      -5.909   4.056  69.427  1.00  0.00    -0.018 C  
HETATM    8  C   UNL     1      -6.092   5.420  68.887  1.00  0.00    -0.025 A  
HETATM    9  O   UNL     1      -5.719   3.088  68.691  1.00  0.00    -0.021 OA 
HETATM   10  O   UNL     1      -6.038   2.387  72.754  1.00  0.00    -0.008 OA 
HETATM   11  O   UNL     1      -5.796   1.498  70.698  1.00  0.00    -0.015 OA 
HETATM   12  C   UNL     1      -6.125   5.600  67.503  1.00  0.00    -0.026 A  
HETATM   13  C   UNL     1      -6.389   6.862  66.982  1.00  0.00    -0.045 A  
HETATM   14  F   UNL     1      -6.498   6.958  65.647  1.00  0.00    -0.044 F  
HETATM   15  C   UNL     1      -6.605   7.977  67.809  1.00  0.00    -0.057 A  
HETATM   16  C   UNL     1      -6.259   6.496  69.774  1.00  0.00    -0.037 A  
HETATM   17  C   UNL     1      -6.488   7.757  69.198  1.00  0.00    -0.036 A  
BRANCH  15  18
HETATM   18  N   UNL     1      -6.934   9.243  67.347  1.00  0.00    -0.077 NA 
HETATM   19  C   UNL     1      -5.939  10.303  67.116  1.00  0.00    -0.050 C  
HETATM   20  C   UNL     1      -5.985  10.802  65.652  1.00  0.00    -0.108 C  
HETATM   21  N   UNL     1      -7.329  11.197  65.167  1.00  0.00     0.441 NA 
HETATM   22  C   UNL     1      -8.254  10.068  65.393  1.00  0.00    -0.149 C  
HETATM   23  C   UNL     1      -7.806  12.411  65.828  1.00  0.00     1.770 C  
HETATM   24  C   UNL     1      -8.291   9.521  66.839  1.00  0.00    -0.116 C  
ENDBRANCH  15  18
ENDBRANCH   2   3
TORSDOF 2
ENDMDL
MODEL      140
REMARK 921   NORMALIZED FREE ENERGY PREDICTED BY IDOCK:    1.91 KCAL/MOL
REMARK 922        TOTAL FREE ENERGY PREDICTED BY IDOCK:    1.89 KCAL/MOL
REMARK 923 INTER-LIGAND FREE ENERGY PREDICTED BY IDOCK:    2.43 KCAL/MOL
REMARK 924 INTRA-LIGAND FREE ENERGY PREDICTED BY IDOCK:   -0.53 KCAL/MOL
REMARK 927      BINDING AFFINITY PREDICTED BY RF-SCORE:    0.00 PKD
ROOT
HETATM    1  C   UNL     1      -7.701   6.002  64.923  1.00  0.00    -0.099 C  
HETATM    2  C   UNL     1      -7.305   6.705  66.214  1.00  0.00    -0.073 C  
ENDROOT
BRANCH   2   3
HETATM    3  N   UNL     1      -8.443   7.443  66.796  1.00  0.00    -0.121 NA 
HETATM    4  C   UNL     1      -9.225   8.279  66.008  1.00  0.00    -0.166 C  
HETATM    5  C   UNL     1     -10.276   9.004  66.417  1.00  0.00    -0.297 C  
HETATM    6  C   UNL     1     -11.015   9.828  65.440  1.00  0.00     1.727 C  
HETATM    7  C   UNL     1     -10.631   8.911  67.846  1.00  0.00    -0.183 C  
HETATM    8  C   UNL     1      -9.885   7.957  68.695  1.00  0.00    -0.177 A  
HETATM    9  O   UNL     1     -11.547   9.598  68.296  1.00  0.00     0.202 OA 
HETATM   10  O   UNL     1     -10.728   9.881  64.252  1.00  0.00     1.183 OA 
HETATM   11  O   UNL     1     -12.053  10.519  65.960  1.00  0.00     1.827 OA 
HETATM   12  C   UNL     1     -10.283   7.778  70.022  1.00  0.00    -0.210 A  
HETATM   13  C   UNL     1      -9.650   6.818  70.804  1.00  0.00    -0.168 A  
HETATM   14  F   UNL     1     -10.135   6.627  72.041  1.00  0.00    -0.182 F  
HETATM   15  C   UNL     1      -8.601   6.028  70.307  1.00  0.00    -0.143 A  
HETATM   16  C   UNL     1      -8.816   7.232  68.143  1.00  0.00    -0.126 A  
HETATM   17  C   UNL     1      -8.187   6.300  68.985  1.00  0.00    -0.114 A  
BRANCH  15  18
HETATM   18  N   UNL     1      -7.977   5.016  71.019  1.00  0.00    -0.091 NA 
HETATM   19  C   UNL     1      -6.743   5.214  71.796  1.00  0.00    -0.048 C  
HETATM   20  C   UNL     1      -6.948   4.827  73.279  1.00  0.00    -0.074 C  
HETATM   21  N   UNL     1      -7.522   3.477  73.500  1.00  0.00    -0.060 NA 
HETATM   22  C   UNL     1      -8.776   3.375  72.725  1.00  0.00    -0.085 C  
HETATM   23  C   UNL     1      -6.581   2.422  73.125  1.00  0.00    -0.018 C  
HETATM   24  C   UNL     1      -8.656   3.721  71.223  1.00  0.00    -0.080 C  
ENDBRANCH  15  18
ENDBRANCH   2   3
TORSDOF 2
ENDMDL
MODEL      141
REMARK 921   NORMALIZED FREE ENERGY PREDICTED BY IDOCK:    2.67 KCAL/MOL
REMARK 922        TOTAL FREE ENERGY PREDICTED BY IDOCK:    2.75 KCAL/MOL
REMARK 923 INTER-LIGAND FREE ENERGY PREDICTED BY IDOCK:    2.42 KCAL/MOL
REMARK 924 INTRA-LIGAND FREE ENERGY PREDICTED BY IDOCK:    0.33 KCAL/MOL
REMARK 927      BINDING AFFINITY PREDICTED BY RF-SCORE:    0.00 PKD
ROOT
HETATM    1  C   UNL     1     -10.454   8.438  72.123  1.00  0.00    -0.396 C  
HETATM    2  C   UNL     1      -9.945   7.143  72.742  1.00  0.00    -0.185 C  
ENDROOT
BRANCH   2   3
HETATM    3  N   UNL     1      -9.605   6.150  71.705  1.00  0.00    -0.152 NA 
HETATM    4  C   UNL     1     -10.124   4.862  71.757  1.00  0.00    -0.202 C  
HETATM    5  C   UNL     1      -9.886   3.872  70.884  1.00  0.00    -0.213 C  
HETATM    6  C   UNL     1     -10.539   2.562  71.075  1.00  0.00     1.494 C  
HETATM    7  C   UNL     1      -8.977   4.180  69.763  1.00  0.00    -0.096 C  
HETATM    8  C   UNL     1      -8.483   5.566  69.618  1.00  0.00    -0.101 A  
HETATM    9  O   UNL     1      -8.672   3.298  68.962  1.00  0.00    -0.074 OA 
HETATM   10  O   UNL     1     -11.309   2.323  71.995  1.00  0.00     1.047 OA 
HETATM   11  O   UNL     1     -10.227   1.638  70.140  1.00  0.00     0.333 OA 
HETATM   12  C   UNL     1      -7.713   5.897  68.501  1.00  0.00    -0.094 A  
HETATM   13  C   UNL     1      -7.321   7.217  68.305  1.00  0.00    -0.100 A  
HETATM   14  F   UNL     1      -6.660   7.491  67.169  1.00  0.00    -0.053 F  
HETATM   15  C   UNL     1      -7.658   8.235  69.211  1.00  0.00    -0.094 A  
HETATM   16  C   UNL     1      -8.824   6.525  70.588  1.00  0.00    -0.144 A  
HETATM   17  C   UNL     1      -8.373   7.836  70.361  1.00  0.00    -0.123 A  
BRANCH  15  18
HETATM   18  N   UNL     1      -7.348   9.575  69.035  1.00  0.00    -0.071 NA 
HETATM   19  C   UNL     1      -8.312  10.569  68.536  1.00  0.00    -0.129 C  
HETATM   20  C   UNL     1      -8.489  11.729  69.544  1.00  0.00     1.048 C  
HETATM   21  N   UNL     1      -7.227  12.367  69.992  1.00  0.00     0.750 NA 
HETATM   22  C   UNL     1      -6.336  11.312  70.518  1.00  0.00     0.123 C  
HETATM   23  C   UNL     1      -6.584  13.112  68.911  1.00  0.00    -0.104 C  
HETATM   24  C   UNL     1      -6.083  10.123  69.562  1.00  0.00    -0.043 C  
ENDBRANCH  15  18
ENDBRANCH   2   3
TORSDOF 2
ENDMDL
MODEL      142
REMARK 921   NORMALIZED FREE ENERGY PREDICTED BY IDOCK:    3.17 KCAL/MOL
REMARK 922        TOTAL FREE ENERGY PREDICTED BY IDOCK:    3.30 KCAL/MOL
REMARK 923 INTER-LIGAND FREE ENERGY PREDICTED BY IDOCK:    1.73 KCAL/MOL
REMARK 924 INTRA-LIGAND FREE ENERGY PREDICTED BY IDOCK:    1.57 KCAL/MOL
REMARK 927      BINDING AFFINITY PREDICTED BY RF-SCORE:    0.00 PKD
ROOT
HETATM    1  C   UNL     1      -7.340   8.075  68.969  1.00  0.00    -0.084 C  
HETATM    2  C   UNL     1      -6.599   9.266  68.375  1.00  0.00    -0.058 C  
ENDROOT
BRANCH   2   3
HETATM    3  N   UNL     1      -7.396  10.503  68.484  1.00  0.00    -0.084 NA 
HETATM    4  C   UNL     1      -6.991  11.668  67.844  1.00  0.00    -0.080 C  
HETATM    5  C   UNL     1      -7.620  12.852  67.871  1.00  0.00    -0.138 C  
HETATM    6  C   UNL     1      -7.062  13.989  67.114  1.00  0.00     0.314 C  
HETATM    7  C   UNL     1      -8.861  12.925  68.667  1.00  0.00     0.066 C  
HETATM    8  C   UNL     1      -9.377  11.683  69.280  1.00  0.00     0.454 A  
HETATM    9  O   UNL     1      -9.453  13.998  68.780  1.00  0.00    -0.175 OA 
HETATM   10  O   UNL     1      -6.045  13.913  66.439  1.00  0.00     2.251 OA 
HETATM   11  O   UNL     1      -7.774  15.133  67.214  1.00  0.00    -0.185 OA 
HETATM   12  C   UNL     1     -10.608  11.716  69.941  1.00  0.00     0.562 A  
HETATM   13  C   UNL     1     -11.148  10.536  70.442  1.00  0.00    -0.244 A  
HETATM   14  F   UNL     1     -12.373  10.613  70.986  1.00  0.00    -0.367 F  
HETATM   15  C   UNL     1     -10.484   9.305  70.323  1.00  0.00    -0.228 A  
HETATM   16  C   UNL     1      -8.637  10.495  69.160  1.00  0.00    -0.150 A  
HETATM   17  C   UNL     1      -9.211   9.338  69.713  1.00  0.00    -0.191 A  
BRANCH  15  18
HETATM   18  N   UNL     1     -11.003   8.091  70.746  1.00  0.00    -0.244 NA 
HETATM   19  C   UNL     1     -10.454   6.788  70.335  1.00  0.00    -0.206 C  
HETATM   20  C   UNL     1     -10.032   5.948  71.563  1.00  0.00    -0.180 C  
HETATM   21  N   UNL     1     -11.075   5.797  72.607  1.00  0.00    -0.264 NA 
HETATM   22  C   UNL     1     -11.540   7.145  72.995  1.00  0.00     0.030 C  
HETATM   23  C   UNL     1     -12.186   4.968  72.144  1.00  0.00     1.230 C  
HETATM   24  C   UNL     1     -12.006   8.046  71.828  1.00  0.00    -0.301 C  
ENDBRANCH  15  18
ENDBRANCH   2   3
TORSDOF 2
ENDMDL
MODEL      143
REMARK 921   NORMALIZED FREE ENERGY PREDICTED BY IDOCK:    4.20 KCAL/MOL
REMARK 922        TOTAL FREE ENERGY PREDICTED BY IDOCK:    4.45 KCAL/MOL
REMARK 923 INTER-LIGAND FREE ENERGY PREDICTED BY IDOCK:    4.94 KCAL/MOL
REMARK 924 INTRA-LIGAND FREE ENERGY PREDICTED BY IDOCK:   -0.49 KCAL/MOL
REMARK 927      BINDING AFFINITY PREDICTED BY RF-SCORE:    0.00 PKD
ROOT
HETATM    1  C   UNL     1     -10.647  13.722  63.882  1.00  0.00     0.562 C  
HETATM    2  C   UNL     1     -10.115  13.622  65.306  1.00  0.00    -0.275 C  
ENDROOT
BRANCH   2   3
HETATM    3  N   UNL     1      -9.428  12.336  65.533  1.00  0.00    -0.093 NA 
HETATM    4  C   UNL     1      -9.716  11.227  64.748  1.00  0.00    -0.256 C  
HETATM    5  C   UNL     1      -9.168  10.009  64.859  1.00  0.00    -0.291 C  
HETATM    6  C   UNL     1      -9.574   8.941  63.923  1.00  0.00     1.603 C  
HETATM    7  C   UNL     1      -8.167   9.826  65.928  1.00  0.00    -0.117 C  
HETATM    8  C   UNL     1      -7.762  11.007  66.720  1.00  0.00    -0.146 A  
HETATM    9  O   UNL     1      -7.672   8.717  66.120  1.00  0.00    -0.094 OA 
HETATM   10  O   UNL     1     -10.388   9.107  63.025  1.00  0.00     3.155 OA 
HETATM   11  O   UNL     1      -8.962   7.754  64.127  1.00  0.00     0.589 OA 
HETATM   12  C   UNL     1      -6.736  10.871  67.658  1.00  0.00    -0.069 A  
HETATM   13  C   UNL     1      -6.282  11.993  68.344  1.00  0.00    -0.051 A  
HETATM   14  F   UNL     1      -5.234  11.820  69.166  1.00  0.00    -0.048 F  
HETATM   15  C   UNL     1      -6.838  13.266  68.138  1.00  0.00    -0.114 A  
HETATM   16  C   UNL     1      -8.393  12.241  66.492  1.00  0.00     0.064 A  
HETATM   17  C   UNL     1      -7.921  13.336  67.235  1.00  0.00    -0.134 A  
BRANCH  15  18
HETATM   18  N   UNL     1      -6.385  14.427  68.745  1.00  0.00    -0.082 NA 
HETATM   19  C   UNL     1      -5.903  15.598  67.995  1.00  0.00    -0.140 C  
HETATM   20  C   UNL     1      -6.713  16.865  68.356  1.00  0.00    -0.164 C  
HETATM   21  N   UNL     1      -6.817  17.150  69.807  1.00  0.00     0.033 NA 
HETATM   22  C   UNL     1      -7.348  15.946  70.479  1.00  0.00     1.406 C  
HETATM   23  C   UNL     1      -5.528  17.546  70.373  1.00  0.00    -0.253 C  
HETATM   24  C   UNL     1      -6.579  14.635  70.194  1.00  0.00    -0.143 C  
ENDBRANCH  15  18
ENDBRANCH   2   3
TORSDOF 2
ENDMDL
MODEL      144
REMARK 921   NORMALIZED FREE ENERGY PREDICTED BY IDOCK:    4.81 KCAL/MOL
REMARK 922        TOTAL FREE ENERGY PREDICTED BY IDOCK:    5.13 KCAL/MOL
REMARK 923 INTER-LIGAND FREE ENERGY PREDICTED BY IDOCK:    5.01 KCAL/MOL
REMARK 924 INTRA-LIGAND FREE ENERGY PREDICTED BY IDOCK:    0.12 KCAL/MOL
REMARK 927      BINDING AFFINITY PREDICTED BY RF-SCORE:    0.00 PKD
ROOT
HETATM    1  C   UNL     1      -7.645   8.099  72.574  1.00  0.00    -0.157 C  
HETATM    2  C   UNL     1      -7.153   6.919  71.748  1.00  0.00    -0.074 C  
ENDROOT
BRANCH   2   3
HETATM    3  N   UNL     1      -8.277   6.082  71.283  1.00  0.00    -0.121 NA 
HETATM    4  C   UNL     1      -8.360   4.742  71.640  1.00  0.00    -0.110 C  
HETATM    5  C   UNL     1      -9.322   3.881  71.278  1.00  0.00    -0.213 C  
HETATM    6  C   UNL     1      -9.271   2.488  71.765  1.00  0.00    -0.098 C  
HETATM    7  C   UNL     1     -10.391   4.407  70.408  1.00  0.00     0.177 C  
HETATM    8  C   UNL     1     -10.390   5.851  70.088  1.00  0.00    -0.305 A  
HETATM    9  O   UNL     1     -11.270   3.652  69.993  1.00  0.00     4.086 OA 
HETATM   10  O   UNL     1      -8.393   2.066  72.505  1.00  0.00    -0.053 OA 
HETATM   11  O   UNL     1     -10.286   1.707  71.338  1.00  0.00    -0.018 OA 
HETATM   12  C   UNL     1     -11.457   6.382  69.359  1.00  0.00    -0.374 A  
HETATM   13  C   UNL     1     -11.516   7.753  69.131  1.00  0.00     0.643 A  
HETATM   14  F   UNL     1     -12.608   8.218  68.504  1.00  0.00     3.596 F  
HETATM   15  C   UNL     1     -10.520   8.627  69.596  1.00  0.00    -0.220 A  
HETATM   16  C   UNL     1      -9.338   6.659  70.549  1.00  0.00    -0.166 A  
HETATM   17  C   UNL     1      -9.427   8.032  70.262  1.00  0.00    -0.167 A  
BRANCH  15  18
HETATM   18  N   UNL     1     -10.558  10.006  69.453  1.00  0.00    -0.218 NA 
HETATM   19  C   UNL     1      -9.872  10.726  68.368  1.00  0.00    -0.169 C  
HETATM   20  C   UNL     1     -10.869  11.571  67.541  1.00  0.00    -0.237 C  
HETATM   21  N   UNL     1     -11.735  12.475  68.336  1.00  0.00    -0.313 NA 
HETATM   22  C   UNL     1     -12.419  11.671  69.369  1.00  0.00     0.098 C  
HETATM   23  C   UNL     1     -10.968  13.566  68.937  1.00  0.00    -0.252 C  
HETATM   24  C   UNL     1     -11.492  10.813  70.262  1.00  0.00    -0.319 C  
ENDBRANCH  15  18
ENDBRANCH   2   3
TORSDOF 2
ENDMDL
MODEL      145
REMARK 921   NORMALIZED FREE ENERGY PREDICTED BY IDOCK:    7.32 KCAL/MOL
REMARK 922        TOTAL FREE ENERGY PREDICTED BY IDOCK:    7.93 KCAL/MOL
REMARK 923 INTER-LIGAND FREE ENERGY PREDICTED BY IDOCK:    8.40 KCAL/MOL
REMARK 924 INTRA-LIGAND FREE ENERGY PREDICTED BY IDOCK:   -0.47 KCAL/MOL
REMARK 927      BINDING AFFINITY PREDICTED BY RF-SCORE:    0.00 PKD
ROOT
HETATM    1  C   UNL     1      -9.509  14.689  71.864  1.00  0.00     5.081 C  
HETATM    2  C   UNL     1      -9.858  14.519  70.392  1.00  0.00     1.221 C  
ENDROOT
BRANCH   2   3
HETATM    3  N   UNL     1      -9.039  15.403  69.540  1.00  0.00    -0.259 NA 
HETATM    4  C   UNL     1      -7.984  16.130  70.077  1.00  0.00     0.905 C  
HETATM    5  C   UNL     1      -7.175  16.968  69.413  1.00  0.00    -0.068 C  
HETATM    6  C   UNL     1      -6.082  17.649  70.136  1.00  0.00    -0.027 C  
HETATM    7  C   UNL     1      -7.437  17.141  67.971  1.00  0.00    -0.195 C  
HETATM    8  C   UNL     1      -8.487  16.310  67.343  1.00  0.00    -0.190 A  
HETATM    9  O   UNL     1      -6.768  17.941  67.319  1.00  0.00    -0.168 OA 
HETATM   10  O   UNL     1      -5.858  17.482  71.327  1.00  0.00     0.436 OA 
HETATM   11  O   UNL     1      -5.331  18.472  69.372  1.00  0.00    -0.194 OA 
HETATM   12  C   UNL     1      -8.669  16.383  65.960  1.00  0.00    -0.274 A  
HETATM   13  C   UNL     1      -9.589  15.540  65.345  1.00  0.00    -0.115 A  
HETATM   14  F   UNL     1      -9.657  15.590  64.006  1.00  0.00     1.965 F  
HETATM   15  C   UNL     1     -10.362  14.624  66.076  1.00  0.00    -0.305 A  
HETATM   16  C   UNL     1      -9.254  15.447  68.143  1.00  0.00    -0.186 A  
HETATM   17  C   UNL     1     -10.194  14.642  67.478  1.00  0.00    -0.225 A  
BRANCH  15  18
HETATM   18  N   UNL     1     -11.246  13.718  65.510  1.00  0.00    -0.297 NA 
HETATM   19  C   UNL     1     -12.708  13.888  65.538  1.00  0.00    -0.499 C  
HETATM   20  C   UNL     1     -13.296  13.897  64.107  1.00  0.00     1.829 C  
HETATM   21  N   UNL     1     -12.895  12.749  63.259  1.00  0.00    -0.559 NA 
HETATM   22  C   UNL     1     -11.420  12.674  63.247  1.00  0.00    -0.306 C  
HETATM   23  C   UNL     1     -13.484  11.497  63.730  1.00  0.00     1.159 C  
HETATM   24  C   UNL     1     -10.748  12.635  64.639  1.00  0.00    -0.326 C  
ENDBRANCH  15  18
ENDBRANCH   2   3
TORSDOF 2
ENDMDL
MODEL      146
REMARK 921   NORMALIZED FREE ENERGY PREDICTED BY IDOCK:   10.64 KCAL/MOL
REMARK 922        TOTAL FREE ENERGY PREDICTED BY IDOCK:   11.65 KCAL/MOL
REMARK 923 INTER-LIGAND FREE ENERGY PREDICTED BY IDOCK:   12.12 KCAL/MOL
REMARK 924 INTRA-LIGAND FREE ENERGY PREDICTED BY IDOCK:   -0.47 KCAL/MOL
REMARK 927      BINDING AFFINITY PREDICTED BY RF-SCORE:    0.00 PKD
ROOT
HETATM    1  C   UNL     1     -12.801   9.779  66.685  1.00  0.00    12.267 C  
HETATM    2  C   UNL     1     -11.531   8.946  66.794  1.00  0.00     2.364 C  
ENDROOT
BRANCH   2   3
HETATM    3  N   UNL     1     -10.325   9.795  66.749  1.00  0.00    -0.232 NA 
HETATM    4  C   UNL     1     -10.432  11.177  66.659  1.00  0.00    -0.250 C  
HETATM    5  C   UNL     1      -9.418  12.053  66.605  1.00  0.00    -0.222 C  
HETATM    6  C   UNL     1      -9.709  13.498  66.533  1.00  0.00    -0.283 C  
HETATM    7  C   UNL     1      -8.054  11.490  66.634  1.00  0.00    -0.139 C  
HETATM    8  C   UNL     1      -7.899  10.033  66.829  1.00  0.00    -0.110 A  
HETATM    9  O   UNL     1      -7.082  12.237  66.527  1.00  0.00     0.198 OA 
HETATM   10  O   UNL     1     -10.843  13.957  66.532  1.00  0.00    -0.292 OA 
HETATM   11  O   UNL     1      -8.614  14.289  66.479  1.00  0.00    -0.083 OA 
HETATM   12  C   UNL     1      -6.614   9.503  66.970  1.00  0.00    -0.068 A  
HETATM   13  C   UNL     1      -6.458   8.149  67.246  1.00  0.00    -0.057 A  
HETATM   14  F   UNL     1      -5.206   7.714  67.461  1.00  0.00    -0.025 F  
HETATM   15  C   UNL     1      -7.557   7.284  67.368  1.00  0.00    -0.105 A  
HETATM   16  C   UNL     1      -9.042   9.220  66.898  1.00  0.00    -0.131 A  
HETATM   17  C   UNL     1      -8.829   7.853  67.143  1.00  0.00    -0.137 A  
BRANCH  15  18
HETATM   18  N   UNL     1      -7.464   5.941  67.703  1.00  0.00    -0.077 NA 
HETATM   19  C   UNL     1      -6.980   5.465  69.009  1.00  0.00    -0.056 C  
HETATM   20  C   UNL     1      -8.040   4.581  69.708  1.00  0.00    -0.060 C  
HETATM   21  N   UNL     1      -8.571   3.470  68.882  1.00  0.00    -0.081 NA 
HETATM   22  C   UNL     1      -9.075   4.034  67.614  1.00  0.00    -0.145 C  
HETATM   23  C   UNL     1      -7.556   2.445  68.639  1.00  0.00    -0.047 C  
HETATM   24  C   UNL     1      -8.069   4.913  66.834  1.00  0.00    -0.107 C  
ENDBRANCH  15  18
ENDBRANCH   2   3
TORSDOF 2
ENDMDL
MODEL      147
REMARK 921   NORMALIZED FREE ENERGY PREDICTED BY IDOCK:   40.05 KCAL/MOL
REMARK 922        TOTAL FREE ENERGY PREDICTED BY IDOCK:   44.50 KCAL/MOL
REMARK 923 INTER-LIGAND FREE ENERGY PREDICTED BY IDOCK:   44.56 KCAL/MOL
REMARK 924 INTRA-LIGAND FREE ENERGY PREDICTED BY IDOCK:   -0.06 KCAL/MOL
REMARK 927      BINDING AFFINITY PREDICTED BY RF-SCORE:    0.00 PKD
ROOT
HETATM    1  C   UNL     1     -12.564  16.727  68.568  1.00  0.00     2.655 C  
HETATM    2  C   UNL     1     -11.439  16.678  69.593  1.00  0.00     0.200 C  
ENDROOT
BRANCH   2   3
HETATM    3  N   UNL     1     -10.312  15.854  69.116  1.00  0.00    -0.221 NA 
HETATM    4  C   UNL     1     -10.479  14.965  68.061  1.00  0.00    -0.246 C  
HETATM    5  C   UNL     1      -9.540  14.160  67.543  1.00  0.00    -0.223 C  
HETATM    6  C   UNL     1      -9.880  13.286  66.403  1.00  0.00    -0.281 C  
HETATM    7  C   UNL     1      -8.201  14.219  68.161  1.00  0.00    -0.146 C  
HETATM    8  C   UNL     1      -7.958  15.222  69.219  1.00  0.00    -0.223 A  
HETATM    9  O   UNL     1      -7.313  13.462  67.770  1.00  0.00    -0.124 OA 
HETATM   10  O   UNL     1     -10.987  13.261  65.882  1.00  0.00    -0.274 OA 
HETATM   11  O   UNL     1      -8.862  12.516  65.962  1.00  0.00     0.054 OA 
HETATM   12  C   UNL     1      -6.667  15.364  69.733  1.00  0.00    -0.170 A  
HETATM   13  C   UNL     1      -6.406  16.366  70.661  1.00  0.00     0.761 A  
HETATM   14  F   UNL     1      -5.130  16.513  71.052  1.00  0.00    -0.185 F  
HETATM   15  C   UNL     1      -7.409  17.235  71.120  1.00  0.00     5.375 A  
HETATM   16  C   UNL     1      -9.020  16.029  69.661  1.00  0.00     0.065 A  
HETATM   17  C   UNL     1      -8.710  17.003  70.626  1.00  0.00     4.437 A  
BRANCH  15  18
HETATM   18  N   UNL     1      -7.193  18.289  71.994  1.00  0.00     6.126 NA 
HETATM   19  C   UNL     1      -5.899  18.546  72.648  1.00  0.00     2.365 C  
HETATM   20  C   UNL     1      -5.380  19.965  72.320  1.00  0.00     0.204 C  
HETATM   21  N   UNL     1      -6.348  21.060  72.574  1.00  0.00     1.314 NA 
HETATM   22  C   UNL     1      -7.598  20.750  71.850  1.00  0.00     2.663 C  
HETATM   23  C   UNL     1      -6.596  21.242  74.004  1.00  0.00    15.223 C  
HETATM   24  C   UNL     1      -8.202  19.356  72.139  1.00  0.00     5.209 C  
ENDBRANCH  15  18
ENDBRANCH   2   3
TORSDOF 2
ENDMDL
MODEL      148
REMARK 921   NORMALIZED FREE ENERGY PREDICTED BY IDOCK:   52.73 KCAL/MOL
REMARK 922        TOTAL FREE ENERGY PREDICTED BY IDOCK:   58.66 KCAL/MOL
REMARK 923 INTER-LIGAND FREE ENERGY PREDICTED BY IDOCK:   57.93 KCAL/MOL
REMARK 924 INTRA-LIGAND FREE ENERGY PREDICTED BY IDOCK:    0.72 KCAL/MOL
REMARK 927      BINDING AFFINITY PREDICTED BY RF-SCORE:    0.00 PKD
ROOT
HETATM    1  C   UNL     1     -12.354  17.328  68.624  1.00  0.00     3.189 C  
HETATM    2  C   UNL     1     -11.633  18.521  69.237  1.00  0.00     4.151 C  
ENDROOT
BRANCH   2   3
HETATM    3  N   UNL     1     -10.450  18.095  70.011  1.00  0.00     0.859 NA 
HETATM    4  C   UNL     1     -10.221  18.588  71.289  1.00  0.00     3.422 C  
HETATM    5  C   UNL     1      -9.186  18.285  72.086  1.00  0.00    11.479 C  
HETATM    6  C   UNL     1      -9.105  18.885  73.432  1.00  0.00     7.331 C  
HETATM    7  C   UNL     1      -8.187  17.342  71.546  1.00  0.00    10.203 C  
HETATM    8  C   UNL     1      -8.447  16.721  70.230  1.00  0.00     2.550 A  
HETATM    9  O   UNL     1      -7.184  17.071  72.204  1.00  0.00     7.428 OA 
HETATM   10  O   UNL     1      -9.950  19.648  73.880  1.00  0.00     2.882 OA 
HETATM   11  O   UNL     1      -8.021  18.514  74.147  1.00  0.00     6.503 OA 
HETATM   12  C   UNL     1      -7.567  15.744  69.758  1.00  0.00     0.042 A  
HETATM   13  C   UNL     1      -7.848  15.085  68.566  1.00  0.00    -0.137 A  
HETATM   14  F   UNL     1      -7.016  14.094  68.209  1.00  0.00    -0.077 F  
HETATM   15  C   UNL     1      -8.988  15.386  67.802  1.00  0.00    -0.173 A  
HETATM   16  C   UNL     1      -9.584  17.102  69.499  1.00  0.00     0.249 A  
HETATM   17  C   UNL     1      -9.805  16.431  68.284  1.00  0.00    -0.229 A  
BRANCH  15  18
HETATM   18  N   UNL     1      -9.351  14.720  66.642  1.00  0.00    -0.254 NA 
HETATM   19  C   UNL     1      -9.032  13.306  66.387  1.00  0.00     0.029 C  
HETATM   20  C   UNL     1     -10.315  12.483  66.121  1.00  0.00    -0.253 C  
HETATM   21  N   UNL     1     -11.210  13.039  65.077  1.00  0.00    -0.291 NA 
HETATM   22  C   UNL     1     -11.517  14.441  65.429  1.00  0.00    -0.344 C  
HETATM   23  C   UNL     1     -10.611  12.947  63.747  1.00  0.00    -0.251 C  
HETATM   24  C   UNL     1     -10.288  15.343  65.687  1.00  0.00    -0.372 C  
ENDBRANCH  15  18
ENDBRANCH   2   3
TORSDOF 2
ENDMDL
MODEL      149
REMARK 921   NORMALIZED FREE ENERGY PREDICTED BY IDOCK:   64.20 KCAL/MOL
REMARK 922        TOTAL FREE ENERGY PREDICTED BY IDOCK:   71.47 KCAL/MOL
REMARK 923 INTER-LIGAND FREE ENERGY PREDICTED BY IDOCK:   71.31 KCAL/MOL
REMARK 924 INTRA-LIGAND FREE ENERGY PREDICTED BY IDOCK:    0.16 KCAL/MOL
REMARK 927      BINDING AFFINITY PREDICTED BY RF-SCORE:    0.00 PKD
ROOT
HETATM    1  C   UNL     1     -11.505   7.478  71.901  1.00  0.00    -0.307 C  
HETATM    2  C   UNL     1     -11.243   6.010  72.206  1.00  0.00    -0.293 C  
ENDROOT
BRANCH   2   3
HETATM    3  N   UNL     1     -11.048   5.230  70.968  1.00  0.00     0.032 NA 
HETATM    4  C   UNL     1     -11.859   4.140  70.679  1.00  0.00     7.333 C  
HETATM    5  C   UNL     1     -11.777   3.352  69.597  1.00  0.00    11.806 C  
HETATM    6  C   UNL     1     -12.737   2.242  69.433  1.00  0.00    23.467 C  
HETATM    7  C   UNL     1     -10.716   3.670  68.622  1.00  0.00     2.998 C  
HETATM    8  C   UNL     1      -9.897   4.881  68.845  1.00  0.00    -0.241 A  
HETATM    9  O   UNL     1     -10.551   2.949  67.639  1.00  0.00     2.394 OA 
HETATM   10  O   UNL     1     -13.628   1.999  70.235  1.00  0.00    13.187 OA 
HETATM   11  O   UNL     1     -12.562   1.511  68.310  1.00  0.00    12.263 OA 
HETATM   12  C   UNL     1      -8.966   5.255  67.874  1.00  0.00    -0.112 A  
HETATM   13  C   UNL     1      -8.255   6.441  68.027  1.00  0.00    -0.116 A  
HETATM   14  F   UNL     1      -7.441   6.795  67.020  1.00  0.00    -0.079 F  
HETATM   15  C   UNL     1      -8.430   7.273  69.145  1.00  0.00    -0.133 A  
HETATM   16  C   UNL     1     -10.095   5.643  70.009  1.00  0.00    -0.228 A  
HETATM   17  C   UNL     1      -9.328   6.814  70.132  1.00  0.00    -0.159 A  
BRANCH  15  18
HETATM   18  N   UNL     1      -7.796   8.495  69.318  1.00  0.00    -0.097 NA 
HETATM   19  C   UNL     1      -6.442   8.632  69.878  1.00  0.00    -0.034 C  
HETATM   20  C   UNL     1      -5.503   9.367  68.893  1.00  0.00    -0.037 C  
HETATM   21  N   UNL     1      -6.018  10.661  68.384  1.00  0.00    -0.046 NA 
HETATM   22  C   UNL     1      -7.356  10.430  67.802  1.00  0.00    -0.087 C  
HETATM   23  C   UNL     1      -6.068  11.674  69.438  1.00  0.00    -0.088 C  
HETATM   24  C   UNL     1      -8.369   9.721  68.730  1.00  0.00    -0.113 C  
ENDBRANCH  15  18
ENDBRANCH   2   3
TORSDOF 2
ENDMDL
