MODEL        1
REMARK 921   NORMALIZED FREE ENERGY PREDICTED BY IDOCK:   -5.26 KCAL/MOL
REMARK 922        TOTAL FREE ENERGY PREDICTED BY IDOCK:  -10.49 KCAL/MOL
REMARK 923 INTER-LIGAND FREE ENERGY PREDICTED BY IDOCK:   -9.56 KCAL/MOL
REMARK 924 INTRA-LIGAND FREE ENERGY PREDICTED BY IDOCK:   -0.93 KCAL/MOL
REMARK 927      BINDING AFFINITY PREDICTED BY RF-SCORE:    0.00 PKD
ROOT
HETATM    1  C   UNK     1      -9.908  19.294  68.146  1.00  0.00    -0.379 C  
HETATM    2  O   UNK     1     -10.608  19.916  67.079  1.00  0.00    -0.449 OA 
ENDROOT
BRANCH   2   3
HETATM    3  C   UNK     1     -10.747  19.037  65.962  1.00  0.00    -0.337 C  
BRANCH   3   4
HETATM    4  C   UNK     1     -10.264  17.647  66.359  1.00  0.00    -0.364 C  
BRANCH   4   5
HETATM    5  O   UNK     1     -10.517  16.736  65.291  1.00  0.00    -0.630 OA 
BRANCH   5   6
HETATM    6  C   UNK     1     -10.233  15.391  65.672  1.00  0.00    -0.376 C  
BRANCH   6   7
HETATM    7  C   UNK     1     -11.541  14.624  65.810  1.00  0.00    -0.328 C  
BRANCH   7   8
HETATM    8  C   UNK     1     -11.815  14.194  67.255  1.00  0.00    -0.452 C  
BRANCH   8   9
HETATM    9  C   UNK     1     -11.892  12.673  67.357  1.00  0.00    -0.393 C  
BRANCH   9  10
HETATM   10  C   UNK     1     -10.589  12.058  67.863  1.00  0.00    -0.227 C  
BRANCH  10  11
HETATM   11  C   UNK     1     -10.844  11.147  69.049  1.00  0.00    -0.231 C  
HETATM   12  O   UNK     1     -10.020  10.345  69.478  1.00  0.00    -0.227 OA 
HETATM   13  N   UNK     1     -12.095  11.305  69.601  1.00  0.00    -0.326 N  
HETATM   14  H   UNK     1     -12.752  11.958  69.174  1.00  0.00     0.000 HD 
BRANCH  13  15
HETATM   15  C   UNK     1     -12.494  10.558  70.777  1.00  0.00    -0.378 C  
BRANCH  15  16
HETATM   16  C   UNK     1     -13.222  11.424  71.808  1.00  0.00    -0.472 C  
BRANCH  16  17
HETATM   17  C   UNK     1     -13.106  12.910  71.471  1.00  0.00    -0.390 C  
BRANCH  17  18
HETATM   18  C   UNK     1     -14.147  13.764  72.210  1.00  0.00    -0.627 C  
BRANCH  18  19
HETATM   19  C   UNK     1     -14.044  15.263  71.894  1.00  0.00    -0.557 C  
HETATM   20  N   UNK     1     -13.622  15.490  70.481  1.00  0.00    -0.825 NA 
HETATM   21  C   UNK     1     -13.021  15.938  72.822  1.00  0.00    -0.483 C  
HETATM   22  O   UNK     1     -13.224  16.267  73.975  1.00  0.00    -0.651 OA 
HETATM   23  O   UNK     1     -11.819  16.083  72.197  1.00  0.00    -0.453 OA 
HETATM   24  H1  UNK     1     -13.554  16.485  70.271  1.00  0.00     0.000 HD 
HETATM   25  H2  UNK     1     -14.238  15.010  69.824  1.00  0.00     0.000 HD 
ENDBRANCH  18  19
ENDBRANCH  17  18
ENDBRANCH  16  17
ENDBRANCH  15  16
ENDBRANCH  13  15
ENDBRANCH  10  11
ENDBRANCH   9  10
ENDBRANCH   8   9
ENDBRANCH   7   8
ENDBRANCH   6   7
ENDBRANCH   5   6
ENDBRANCH   4   5
ENDBRANCH   3   4
ENDBRANCH   2   3
TORSDOF 14
ENDMDL
MODEL        2
REMARK 921   NORMALIZED FREE ENERGY PREDICTED BY IDOCK:   -5.20 KCAL/MOL
REMARK 922        TOTAL FREE ENERGY PREDICTED BY IDOCK:  -10.39 KCAL/MOL
REMARK 923 INTER-LIGAND FREE ENERGY PREDICTED BY IDOCK:   -9.64 KCAL/MOL
REMARK 924 INTRA-LIGAND FREE ENERGY PREDICTED BY IDOCK:   -0.76 KCAL/MOL
REMARK 927      BINDING AFFINITY PREDICTED BY RF-SCORE:    0.00 PKD
ROOT
HETATM    1  C   UNK     1     -10.298   9.258  71.195  1.00  0.00    -0.322 C  
HETATM    2  O   UNK     1     -10.832   9.792  69.992  1.00  0.00    -0.239 OA 
ENDROOT
BRANCH   2   3
HETATM    3  C   UNK     1     -11.888  10.717  70.253  1.00  0.00    -0.342 C  
BRANCH   3   4
HETATM    4  C   UNK     1     -12.803  10.139  71.326  1.00  0.00    -0.410 C  
BRANCH   4   5
HETATM    5  O   UNK     1     -13.368  11.202  72.089  1.00  0.00    -0.452 OA 
BRANCH   5   6
HETATM    6  C   UNK     1     -12.992  12.476  71.570  1.00  0.00    -0.280 C  
BRANCH   6   7
HETATM    7  C   UNK     1     -13.812  13.558  72.261  1.00  0.00    -0.680 C  
BRANCH   7   8
HETATM    8  C   UNK     1     -12.946  14.726  72.743  1.00  0.00    -0.553 C  
BRANCH   8   9
HETATM    9  C   UNK     1     -12.689  15.710  71.606  1.00  0.00    -0.522 C  
BRANCH   9  10
HETATM   10  C   UNK     1     -11.257  15.631  71.082  1.00  0.00    -0.409 C  
BRANCH  10  11
HETATM   11  C   UNK     1     -11.239  15.367  69.588  1.00  0.00    -0.283 C  
HETATM   12  O   UNK     1     -12.005  15.904  68.794  1.00  0.00    -0.368 OA 
HETATM   13  N   UNK     1     -10.277  14.460  69.205  1.00  0.00    -0.415 N  
HETATM   14  H   UNK     1      -9.696  14.015  69.916  1.00  0.00     0.000 HD 
BRANCH  13  15
HETATM   15  C   UNK     1     -10.075  14.128  67.809  1.00  0.00    -0.239 C  
BRANCH  15  16
HETATM   16  C   UNK     1     -10.378  12.659  67.501  1.00  0.00    -0.220 C  
BRANCH  16  17
HETATM   17  C   UNK     1     -11.765  12.493  66.882  1.00  0.00    -0.447 C  
BRANCH  17  18
HETATM   18  C   UNK     1     -12.185  13.710  66.044  1.00  0.00    -0.492 C  
BRANCH  18  19
HETATM   19  C   UNK     1     -11.696  13.650  64.589  1.00  0.00    -0.388 C  
HETATM   20  N   UNK     1     -12.475  14.578  63.719  1.00  0.00    -1.065 NA 
HETATM   21  C   UNK     1     -11.840  12.224  64.033  1.00  0.00    -0.444 C  
HETATM   22  O   UNK     1     -11.079  11.301  64.253  1.00  0.00    -0.333 OA 
HETATM   23  O   UNK     1     -12.974  12.106  63.287  1.00  0.00    -0.735 OA 
HETATM   24  H1  UNK     1     -12.150  14.539  62.753  1.00  0.00     0.000 HD 
HETATM   25  H2  UNK     1     -12.460  15.532  64.080  1.00  0.00     0.000 HD 
ENDBRANCH  18  19
ENDBRANCH  17  18
ENDBRANCH  16  17
ENDBRANCH  15  16
ENDBRANCH  13  15
ENDBRANCH  10  11
ENDBRANCH   9  10
ENDBRANCH   8   9
ENDBRANCH   7   8
ENDBRANCH   6   7
ENDBRANCH   5   6
ENDBRANCH   4   5
ENDBRANCH   3   4
ENDBRANCH   2   3
TORSDOF 14
ENDMDL
MODEL        3
REMARK 921   NORMALIZED FREE ENERGY PREDICTED BY IDOCK:   -5.04 KCAL/MOL
REMARK 922        TOTAL FREE ENERGY PREDICTED BY IDOCK:  -10.10 KCAL/MOL
REMARK 923 INTER-LIGAND FREE ENERGY PREDICTED BY IDOCK:   -8.71 KCAL/MOL
REMARK 924 INTRA-LIGAND FREE ENERGY PREDICTED BY IDOCK:   -1.38 KCAL/MOL
REMARK 927      BINDING AFFINITY PREDICTED BY RF-SCORE:    0.00 PKD
ROOT
HETATM    1  C   UNK     1     -14.380  14.768  71.822  1.00  0.00    -0.569 C  
HETATM    2  O   UNK     1     -13.628  15.723  71.087  1.00  0.00    -0.576 OA 
ENDROOT
BRANCH   2   3
HETATM    3  C   UNK     1     -12.547  15.108  70.385  1.00  0.00    -0.359 C  
BRANCH   3   4
HETATM    4  C   UNK     1     -12.535  13.616  70.695  1.00  0.00    -0.347 C  
BRANCH   4   5
HETATM    5  O   UNK     1     -11.732  12.939  69.731  1.00  0.00    -0.307 OA 
BRANCH   5   6
HETATM    6  C   UNK     1     -10.971  13.855  68.947  1.00  0.00    -0.263 C  
BRANCH   6   7
HETATM    7  C   UNK     1     -10.590  13.189  67.631  1.00  0.00    -0.235 C  
BRANCH   7   8
HETATM    8  C   UNK     1      -9.198  13.611  67.148  1.00  0.00    -0.244 C  
BRANCH   8   9
HETATM    9  C   UNK     1      -9.254  14.982  66.480  1.00  0.00    -0.320 C  
BRANCH   9  10
HETATM   10  C   UNK     1     -10.279  15.037  65.350  1.00  0.00    -0.411 C  
BRANCH  10  11
HETATM   11  C   UNK     1     -10.720  16.464  65.085  1.00  0.00    -0.291 C  
HETATM   12  O   UNK     1     -11.361  16.804  64.096  1.00  0.00    -1.194 OA 
HETATM   13  N   UNK     1     -10.327  17.348  66.065  1.00  0.00    -0.349 N  
HETATM   14  H   UNK     1      -9.758  17.013  66.844  1.00  0.00     0.000 HD 
BRANCH  13  15
HETATM   15  C   UNK     1     -10.707  18.746  66.009  1.00  0.00    -0.276 C  
BRANCH  15  16
HETATM   16  C   UNK     1     -10.786  19.393  67.394  1.00  0.00    -0.594 C  
BRANCH  16  17
HETATM   17  C   UNK     1      -9.583  20.300  67.655  1.00  0.00    -0.530 C  
BRANCH  17  18
HETATM   18  C   UNK     1      -8.402  19.545  68.281  1.00  0.00    -0.375 C  
BRANCH  18  19
HETATM   19  C   UNK     1      -7.159  19.498  67.380  1.00  0.00    -0.213 C  
HETATM   20  N   UNK     1      -7.280  20.457  66.243  1.00  0.00    -0.396 NA 
HETATM   21  C   UNK     1      -6.965  18.085  66.807  1.00  0.00    -0.195 C  
HETATM   22  O   UNK     1      -6.481  17.142  67.404  1.00  0.00    -0.130 OA 
HETATM   23  O   UNK     1      -7.455  18.003  65.538  1.00  0.00    -0.538 OA 
HETATM   24  H1  UNK     1      -6.455  20.426  65.645  1.00  0.00     0.000 HD 
HETATM   25  H2  UNK     1      -7.470  21.404  66.571  1.00  0.00     0.000 HD 
ENDBRANCH  18  19
ENDBRANCH  17  18
ENDBRANCH  16  17
ENDBRANCH  15  16
ENDBRANCH  13  15
ENDBRANCH  10  11
ENDBRANCH   9  10
ENDBRANCH   8   9
ENDBRANCH   7   8
ENDBRANCH   6   7
ENDBRANCH   5   6
ENDBRANCH   4   5
ENDBRANCH   3   4
ENDBRANCH   2   3
TORSDOF 14
ENDMDL
MODEL        4
REMARK 921   NORMALIZED FREE ENERGY PREDICTED BY IDOCK:   -5.00 KCAL/MOL
REMARK 922        TOTAL FREE ENERGY PREDICTED BY IDOCK:  -10.02 KCAL/MOL
REMARK 923 INTER-LIGAND FREE ENERGY PREDICTED BY IDOCK:   -8.85 KCAL/MOL
REMARK 924 INTRA-LIGAND FREE ENERGY PREDICTED BY IDOCK:   -1.17 KCAL/MOL
REMARK 927      BINDING AFFINITY PREDICTED BY RF-SCORE:    0.00 PKD
ROOT
HETATM    1  C   UNK     1     -12.545  13.596  65.280  1.00  0.00    -0.469 C  
HETATM    2  O   UNK     1     -12.686  13.153  63.938  1.00  0.00    -0.667 OA 
ENDROOT
BRANCH   2   3
HETATM    3  C   UNK     1     -11.548  12.403  63.513  1.00  0.00    -0.497 C  
BRANCH   3   4
HETATM    4  C   UNK     1     -10.678  12.087  64.724  1.00  0.00    -0.306 C  
BRANCH   4   5
HETATM    5  O   UNK     1     -10.346  10.700  64.719  1.00  0.00    -0.335 OA 
BRANCH   5   6
HETATM    6  C   UNK     1      -9.921  10.259  66.007  1.00  0.00    -0.245 C  
BRANCH   6   7
HETATM    7  C   UNK     1     -10.697  11.018  67.075  1.00  0.00    -0.319 C  
BRANCH   7   8
HETATM    8  C   UNK     1     -10.802  10.232  68.387  1.00  0.00    -0.288 C  
BRANCH   8   9
HETATM    9  C   UNK     1     -11.514  11.060  69.453  1.00  0.00    -0.364 C  
BRANCH   9  10
HETATM   10  C   UNK     1     -11.825  10.247  70.707  1.00  0.00    -0.459 C  
BRANCH  10  11
HETATM   11  C   UNK     1     -12.897  10.924  71.542  1.00  0.00    -0.454 C  
HETATM   12  O   UNK     1     -13.732  10.312  72.200  1.00  0.00    -0.259 OA 
HETATM   13  N   UNK     1     -12.844  12.298  71.487  1.00  0.00    -0.340 N  
HETATM   14  H   UNK     1     -12.152  12.750  70.888  1.00  0.00     0.000 HD 
BRANCH  13  15
HETATM   15  C   UNK     1     -13.755  13.114  72.266  1.00  0.00    -0.551 C  
BRANCH  15  16
HETATM   16  C   UNK     1     -13.106  14.405  72.772  1.00  0.00    -0.595 C  
BRANCH  16  17
HETATM   17  C   UNK     1     -13.175  15.513  71.722  1.00  0.00    -0.567 C  
BRANCH  17  18
HETATM   18  C   UNK     1     -11.798  15.847  71.130  1.00  0.00    -0.483 C  
BRANCH  18  19
HETATM   19  C   UNK     1     -11.747  15.734  69.598  1.00  0.00    -0.355 C  
HETATM   20  N   UNK     1     -12.435  14.497  69.125  1.00  0.00    -0.575 NA 
HETATM   21  C   UNK     1     -10.290  15.698  69.111  1.00  0.00    -0.241 C  
HETATM   22  O   UNK     1      -9.561  16.665  68.993  1.00  0.00    -0.258 OA 
HETATM   23  O   UNK     1      -9.890  14.418  68.867  1.00  0.00    -0.218 OA 
HETATM   24  H1  UNK     1     -12.402  14.423  68.109  1.00  0.00     0.000 HD 
HETATM   25  H2  UNK     1     -13.393  14.444  69.474  1.00  0.00     0.000 HD 
ENDBRANCH  18  19
ENDBRANCH  17  18
ENDBRANCH  16  17
ENDBRANCH  15  16
ENDBRANCH  13  15
ENDBRANCH  10  11
ENDBRANCH   9  10
ENDBRANCH   8   9
ENDBRANCH   7   8
ENDBRANCH   6   7
ENDBRANCH   5   6
ENDBRANCH   4   5
ENDBRANCH   3   4
ENDBRANCH   2   3
TORSDOF 14
ENDMDL
MODEL        5
REMARK 921   NORMALIZED FREE ENERGY PREDICTED BY IDOCK:   -4.91 KCAL/MOL
REMARK 922        TOTAL FREE ENERGY PREDICTED BY IDOCK:   -9.86 KCAL/MOL
REMARK 923 INTER-LIGAND FREE ENERGY PREDICTED BY IDOCK:   -9.11 KCAL/MOL
REMARK 924 INTRA-LIGAND FREE ENERGY PREDICTED BY IDOCK:   -0.74 KCAL/MOL
REMARK 927      BINDING AFFINITY PREDICTED BY RF-SCORE:    0.00 PKD
ROOT
HETATM    1  C   UNK     1      -8.783  17.908  68.338  1.00  0.00    -0.293 C  
HETATM    2  O   UNK     1     -10.049  18.117  68.948  1.00  0.00    -0.381 OA 
ENDROOT
BRANCH   2   3
HETATM    3  C   UNK     1     -10.881  16.962  68.832  1.00  0.00    -0.274 C  
BRANCH   3   4
HETATM    4  C   UNK     1     -10.661  16.064  70.043  1.00  0.00    -0.296 C  
BRANCH   4   5
HETATM    5  O   UNK     1     -11.624  16.379  71.047  1.00  0.00    -0.380 OA 
BRANCH   5   6
HETATM    6  C   UNK     1     -12.863  15.714  70.810  1.00  0.00    -0.404 C  
BRANCH   6   7
HETATM    7  C   UNK     1     -13.562  15.473  72.141  1.00  0.00    -0.596 C  
BRANCH   7   8
HETATM    8  C   UNK     1     -13.475  14.009  72.587  1.00  0.00    -0.650 C  
BRANCH   8   9
HETATM    9  C   UNK     1     -12.859  13.149  71.487  1.00  0.00    -0.401 C  
BRANCH   9  10
HETATM   10  C   UNK     1     -13.058  11.656  71.738  1.00  0.00    -0.487 C  
BRANCH  10  11
HETATM   11  C   UNK     1     -11.932  10.846  71.121  1.00  0.00    -0.212 C  
HETATM   12  O   UNK     1     -11.451   9.846  71.643  1.00  0.00    -0.329 OA 
HETATM   13  N   UNK     1     -11.499  11.346  69.914  1.00  0.00    -0.400 N  
HETATM   14  H   UNK     1     -11.910  12.206  69.550  1.00  0.00     0.000 HD 
BRANCH  13  15
HETATM   15  C   UNK     1     -10.467  10.670  69.151  1.00  0.00    -0.222 C  
BRANCH  15  16
HETATM   16  C   UNK     1     -10.745  10.678  67.646  1.00  0.00    -0.315 C  
BRANCH  16  17
HETATM   17  C   UNK     1     -10.372  12.020  67.016  1.00  0.00    -0.235 C  
BRANCH  17  18
HETATM   18  C   UNK     1     -11.511  12.609  66.171  1.00  0.00    -0.413 C  
BRANCH  18  19
HETATM   19  C   UNK     1     -11.093  12.946  64.732  1.00  0.00    -0.309 C  
HETATM   20  N   UNK     1     -10.333  14.230  64.677  1.00  0.00    -0.594 NA 
HETATM   21  C   UNK     1     -12.331  13.075  63.830  1.00  0.00    -0.375 C  
HETATM   22  O   UNK     1     -12.958  12.147  63.356  1.00  0.00    -0.776 OA 
HETATM   23  O   UNK     1     -12.677  14.383  63.663  1.00  0.00    -0.773 OA 
HETATM   24  H1  UNK     1     -10.055  14.453  63.722  1.00  0.00     0.000 HD 
HETATM   25  H2  UNK     1      -9.530  14.217  65.307  1.00  0.00     0.000 HD 
ENDBRANCH  18  19
ENDBRANCH  17  18
ENDBRANCH  16  17
ENDBRANCH  15  16
ENDBRANCH  13  15
ENDBRANCH  10  11
ENDBRANCH   9  10
ENDBRANCH   8   9
ENDBRANCH   7   8
ENDBRANCH   6   7
ENDBRANCH   5   6
ENDBRANCH   4   5
ENDBRANCH   3   4
ENDBRANCH   2   3
TORSDOF 14
ENDMDL
MODEL        6
REMARK 921   NORMALIZED FREE ENERGY PREDICTED BY IDOCK:   -4.90 KCAL/MOL
REMARK 922        TOTAL FREE ENERGY PREDICTED BY IDOCK:   -9.84 KCAL/MOL
REMARK 923 INTER-LIGAND FREE ENERGY PREDICTED BY IDOCK:   -9.05 KCAL/MOL
REMARK 924 INTRA-LIGAND FREE ENERGY PREDICTED BY IDOCK:   -0.79 KCAL/MOL
REMARK 927      BINDING AFFINITY PREDICTED BY RF-SCORE:    0.00 PKD
ROOT
HETATM    1  C   UNK     1     -12.357  15.357  74.428  1.00  0.00    -0.616 C  
HETATM    2  O   UNK     1     -12.644  16.003  73.196  1.00  0.00    -0.436 OA 
ENDROOT
BRANCH   2   3
HETATM    3  C   UNK     1     -14.004  15.808  72.808  1.00  0.00    -0.466 C  
BRANCH   3   4
HETATM    4  C   UNK     1     -14.153  14.422  72.193  1.00  0.00    -0.535 C  
BRANCH   4   5
HETATM    5  O   UNK     1     -13.520  14.400  70.915  1.00  0.00    -0.329 OA 
BRANCH   5   6
HETATM    6  C   UNK     1     -12.517  13.389  70.845  1.00  0.00    -0.359 C  
BRANCH   6   7
HETATM    7  C   UNK     1     -12.868  12.269  71.816  1.00  0.00    -0.359 C  
BRANCH   7   8
HETATM    8  C   UNK     1     -12.763  10.884  71.169  1.00  0.00    -0.530 C  
BRANCH   8   9
HETATM    9  C   UNK     1     -11.507  10.787  70.307  1.00  0.00    -0.406 C  
BRANCH   9  10
HETATM   10  C   UNK     1     -10.630   9.599  70.692  1.00  0.00    -0.386 C  
BRANCH  10  11
HETATM   11  C   UNK     1     -10.262   8.777  69.470  1.00  0.00    -0.208 C  
HETATM   12  O   UNK     1      -9.610   7.739  69.521  1.00  0.00    -0.160 OA 
HETATM   13  N   UNK     1     -10.731   9.312  68.291  1.00  0.00    -0.393 N  
HETATM   14  H   UNK     1     -11.231  10.201  68.308  1.00  0.00     0.000 HD 
BRANCH  13  15
HETATM   15  C   UNK     1     -10.524   8.633  67.027  1.00  0.00    -0.284 C  
BRANCH  15  16
HETATM   16  C   UNK     1      -9.703   9.464  66.038  1.00  0.00    -0.345 C  
BRANCH  16  17
HETATM   17  C   UNK     1     -10.263  10.878  65.895  1.00  0.00    -0.314 C  
BRANCH  17  18
HETATM   18  C   UNK     1     -10.130  11.422  64.465  1.00  0.00    -0.337 C  
BRANCH  18  19
HETATM   19  C   UNK     1     -10.702  12.837  64.293  1.00  0.00    -0.394 C  
HETATM   20  N   UNK     1      -9.920  13.835  65.081  1.00  0.00    -0.579 NA 
HETATM   21  C   UNK     1     -12.165  12.886  64.762  1.00  0.00    -0.445 C  
HETATM   22  O   UNK     1     -13.124  12.497  64.122  1.00  0.00    -0.751 OA 
HETATM   23  O   UNK     1     -12.255  13.383  66.027  1.00  0.00    -0.420 OA 
HETATM   24  H1  UNK     1     -10.300  14.775  64.966  1.00  0.00     0.000 HD 
HETATM   25  H2  UNK     1      -8.927  13.801  64.849  1.00  0.00     0.000 HD 
ENDBRANCH  18  19
ENDBRANCH  17  18
ENDBRANCH  16  17
ENDBRANCH  15  16
ENDBRANCH  13  15
ENDBRANCH  10  11
ENDBRANCH   9  10
ENDBRANCH   8   9
ENDBRANCH   7   8
ENDBRANCH   6   7
ENDBRANCH   5   6
ENDBRANCH   4   5
ENDBRANCH   3   4
ENDBRANCH   2   3
TORSDOF 14
ENDMDL
MODEL        7
REMARK 921   NORMALIZED FREE ENERGY PREDICTED BY IDOCK:   -4.89 KCAL/MOL
REMARK 922        TOTAL FREE ENERGY PREDICTED BY IDOCK:   -9.83 KCAL/MOL
REMARK 923 INTER-LIGAND FREE ENERGY PREDICTED BY IDOCK:   -9.04 KCAL/MOL
REMARK 924 INTRA-LIGAND FREE ENERGY PREDICTED BY IDOCK:   -0.79 KCAL/MOL
REMARK 927      BINDING AFFINITY PREDICTED BY RF-SCORE:    0.00 PKD
ROOT
HETATM    1  C   UNK     1     -12.676  15.715  71.467  1.00  0.00    -0.457 C  
HETATM    2  O   UNK     1     -14.048  15.363  71.574  1.00  0.00    -0.502 OA 
ENDROOT
BRANCH   2   3
HETATM    3  C   UNK     1     -14.212  14.086  72.191  1.00  0.00    -0.535 C  
BRANCH   3   4
HETATM    4  C   UNK     1     -13.085  13.165  71.742  1.00  0.00    -0.383 C  
BRANCH   4   5
HETATM    5  O   UNK     1     -13.382  11.826  72.134  1.00  0.00    -0.497 OA 
BRANCH   5   6
HETATM    6  C   UNK     1     -12.885  10.881  71.189  1.00  0.00    -0.409 C  
BRANCH   6   7
HETATM    7  C   UNK     1     -11.799  11.540  70.348  1.00  0.00    -0.413 C  
BRANCH   7   8
HETATM    8  C   UNK     1     -11.878  11.134  68.872  1.00  0.00    -0.406 C  
BRANCH   8   9
HETATM    9  C   UNK     1     -11.732  12.356  67.970  1.00  0.00    -0.414 C  
BRANCH   9  10
HETATM   10  C   UNK     1     -11.635  11.979  66.494  1.00  0.00    -0.384 C  
BRANCH  10  11
HETATM   11  C   UNK     1     -12.044  13.143  65.609  1.00  0.00    -0.449 C  
HETATM   12  O   UNK     1     -13.141  13.230  65.066  1.00  0.00    -0.737 OA 
HETATM   13  N   UNK     1     -11.060  14.095  65.471  1.00  0.00    -0.302 N  
HETATM   14  H   UNK     1     -10.152  13.947  65.913  1.00  0.00     0.000 HD 
BRANCH  13  15
HETATM   15  C   UNK     1     -11.292  15.305  64.707  1.00  0.00    -0.391 C  
BRANCH  15  16
HETATM   16  C   UNK     1     -10.690  16.547  65.369  1.00  0.00    -0.273 C  
BRANCH  16  17
HETATM   17  C   UNK     1      -9.356  16.229  66.044  1.00  0.00    -0.361 C  
BRANCH  17  18
HETATM   18  C   UNK     1      -8.468  17.472  66.206  1.00  0.00    -0.247 C  
BRANCH  18  19
HETATM   19  C   UNK     1      -9.240  18.721  66.657  1.00  0.00    -0.329 C  
HETATM   20  N   UNK     1      -8.569  19.969  66.188  1.00  0.00    -0.519 NA 
HETATM   21  C   UNK     1      -9.337  18.767  68.190  1.00  0.00    -0.316 C  
HETATM   22  O   UNK     1     -10.119  18.126  68.867  1.00  0.00    -0.381 OA 
HETATM   23  O   UNK     1      -8.389  19.594  68.713  1.00  0.00    -0.333 OA 
HETATM   24  H1  UNK     1      -9.081  20.798  66.487  1.00  0.00     0.000 HD 
HETATM   25  H2  UNK     1      -8.426  19.961  65.178  1.00  0.00     0.000 HD 
ENDBRANCH  18  19
ENDBRANCH  17  18
ENDBRANCH  16  17
ENDBRANCH  15  16
ENDBRANCH  13  15
ENDBRANCH  10  11
ENDBRANCH   9  10
ENDBRANCH   8   9
ENDBRANCH   7   8
ENDBRANCH   6   7
ENDBRANCH   5   6
ENDBRANCH   4   5
ENDBRANCH   3   4
ENDBRANCH   2   3
TORSDOF 14
ENDMDL
MODEL        8
REMARK 921   NORMALIZED FREE ENERGY PREDICTED BY IDOCK:   -4.86 KCAL/MOL
REMARK 922        TOTAL FREE ENERGY PREDICTED BY IDOCK:   -9.76 KCAL/MOL
REMARK 923 INTER-LIGAND FREE ENERGY PREDICTED BY IDOCK:   -9.23 KCAL/MOL
REMARK 924 INTRA-LIGAND FREE ENERGY PREDICTED BY IDOCK:   -0.53 KCAL/MOL
REMARK 927      BINDING AFFINITY PREDICTED BY RF-SCORE:    0.00 PKD
ROOT
HETATM    1  C   UNK     1     -11.358   6.436  69.477  1.00  0.00    -0.393 C  
HETATM    2  O   UNK     1     -11.046   7.297  70.563  1.00  0.00    -0.254 OA 
ENDROOT
BRANCH   2   3
HETATM    3  C   UNK     1     -12.048   7.240  71.578  1.00  0.00    -0.331 C  
BRANCH   3   4
HETATM    4  C   UNK     1     -12.247   8.634  72.161  1.00  0.00    -0.386 C  
BRANCH   4   5
HETATM    5  O   UNK     1     -11.606   9.593  71.323  1.00  0.00    -0.334 OA 
BRANCH   5   6
HETATM    6  C   UNK     1     -12.551  10.469  70.712  1.00  0.00    -0.382 C  
BRANCH   6   7
HETATM    7  C   UNK     1     -13.271  11.261  71.795  1.00  0.00    -0.480 C  
BRANCH   7   8
HETATM    8  C   UNK     1     -12.826  12.727  71.839  1.00  0.00    -0.306 C  
BRANCH   8   9
HETATM    9  C   UNK     1     -14.021  13.644  72.087  1.00  0.00    -0.609 C  
BRANCH   9  10
HETATM   10  C   UNK     1     -13.596  15.062  72.459  1.00  0.00    -0.569 C  
BRANCH  10  11
HETATM   11  C   UNK     1     -12.424  15.519  71.610  1.00  0.00    -0.406 C  
HETATM   12  O   UNK     1     -11.329  15.825  72.072  1.00  0.00    -0.371 OA 
HETATM   13  N   UNK     1     -12.709  15.559  70.263  1.00  0.00    -0.602 N  
HETATM   14  H   UNK     1     -13.651  15.333  69.943  1.00  0.00     0.000 HD 
BRANCH  13  15
HETATM   15  C   UNK     1     -11.692  15.918  69.294  1.00  0.00    -0.353 C  
BRANCH  15  16
HETATM   16  C   UNK     1     -11.828  15.144  67.981  1.00  0.00    -0.225 C  
BRANCH  16  17
HETATM   17  C   UNK     1     -10.467  14.909  67.326  1.00  0.00    -0.263 C  
BRANCH  17  18
HETATM   18  C   UNK     1     -10.579  14.168  65.986  1.00  0.00    -0.297 C  
BRANCH  18  19
HETATM   19  C   UNK     1     -12.005  13.694  65.666  1.00  0.00    -0.395 C  
HETATM   20  N   UNK     1     -12.155  12.230  65.915  1.00  0.00    -0.620 NA 
HETATM   21  C   UNK     1     -12.346  13.974  64.194  1.00  0.00    -0.332 C  
HETATM   22  O   UNK     1     -12.679  15.053  63.740  1.00  0.00    -0.741 OA 
HETATM   23  O   UNK     1     -12.180  12.855  63.434  1.00  0.00    -0.582 OA 
HETATM   24  H1  UNK     1     -13.102  11.915  65.704  1.00  0.00     0.000 HD 
HETATM   25  H2  UNK     1     -11.882  11.982  66.867  1.00  0.00     0.000 HD 
ENDBRANCH  18  19
ENDBRANCH  17  18
ENDBRANCH  16  17
ENDBRANCH  15  16
ENDBRANCH  13  15
ENDBRANCH  10  11
ENDBRANCH   9  10
ENDBRANCH   8   9
ENDBRANCH   7   8
ENDBRANCH   6   7
ENDBRANCH   5   6
ENDBRANCH   4   5
ENDBRANCH   3   4
ENDBRANCH   2   3
TORSDOF 14
ENDMDL
MODEL        9
REMARK 921   NORMALIZED FREE ENERGY PREDICTED BY IDOCK:   -4.85 KCAL/MOL
REMARK 922        TOTAL FREE ENERGY PREDICTED BY IDOCK:   -9.74 KCAL/MOL
REMARK 923 INTER-LIGAND FREE ENERGY PREDICTED BY IDOCK:   -8.41 KCAL/MOL
REMARK 924 INTRA-LIGAND FREE ENERGY PREDICTED BY IDOCK:   -1.33 KCAL/MOL
REMARK 927      BINDING AFFINITY PREDICTED BY RF-SCORE:    0.00 PKD
ROOT
HETATM    1  C   UNK     1     -12.910  13.906  65.075  1.00  0.00    -0.268 C  
HETATM    2  O   UNK     1     -12.672  13.731  63.686  1.00  0.00    -0.718 OA 
ENDROOT
BRANCH   2   3
HETATM    3  C   UNK     1     -12.099  12.452  63.411  1.00  0.00    -0.524 C  
BRANCH   3   4
HETATM    4  C   UNK     1     -10.748  12.350  64.109  1.00  0.00    -0.379 C  
BRANCH   4   5
HETATM    5  O   UNK     1     -10.688  11.133  64.849  1.00  0.00    -0.302 OA 
BRANCH   5   6
HETATM    6  C   UNK     1     -10.011  11.308  66.092  1.00  0.00    -0.228 C  
BRANCH   6   7
HETATM    7  C   UNK     1     -11.039  11.550  67.190  1.00  0.00    -0.355 C  
BRANCH   7   8
HETATM    8  C   UNK     1     -11.158  10.359  68.148  1.00  0.00    -0.344 C  
BRANCH   8   9
HETATM    9  C   UNK     1     -10.786  10.774  69.568  1.00  0.00    -0.288 C  
BRANCH   9  10
HETATM   10  C   UNK     1     -11.846  10.365  70.588  1.00  0.00    -0.445 C  
BRANCH  10  11
HETATM   11  C   UNK     1     -12.548  11.583  71.160  1.00  0.00    -0.359 C  
HETATM   12  O   UNK     1     -13.377  11.528  72.062  1.00  0.00    -0.476 OA 
HETATM   13  N   UNK     1     -12.166  12.764  70.563  1.00  0.00    -0.419 N  
HETATM   14  H   UNK     1     -11.502  12.742  69.788  1.00  0.00     0.000 HD 
BRANCH  13  15
HETATM   15  C   UNK     1     -12.690  14.036  71.018  1.00  0.00    -0.361 C  
BRANCH  15  16
HETATM   16  C   UNK     1     -12.079  15.227  70.276  1.00  0.00    -0.388 C  
BRANCH  16  17
HETATM   17  C   UNK     1     -11.066  14.771  69.227  1.00  0.00    -0.283 C  
BRANCH  17  18
HETATM   18  C   UNK     1     -11.105  15.633  67.957  1.00  0.00    -0.335 C  
BRANCH  18  19
HETATM   19  C   UNK     1     -10.112  15.178  66.877  1.00  0.00    -0.255 C  
HETATM   20  N   UNK     1      -8.776  14.872  67.467  1.00  0.00    -0.178 NA 
HETATM   21  C   UNK     1      -9.935  16.275  65.814  1.00  0.00    -0.323 C  
HETATM   22  O   UNK     1     -10.708  16.507  64.905  1.00  0.00    -0.702 OA 
HETATM   23  O   UNK     1      -8.806  17.001  66.048  1.00  0.00    -0.477 OA 
HETATM   24  H1  UNK     1      -8.117  14.569  66.750  1.00  0.00     0.000 HD 
HETATM   25  H2  UNK     1      -8.848  14.189  68.222  1.00  0.00     0.000 HD 
ENDBRANCH  18  19
ENDBRANCH  17  18
ENDBRANCH  16  17
ENDBRANCH  15  16
ENDBRANCH  13  15
ENDBRANCH  10  11
ENDBRANCH   9  10
ENDBRANCH   8   9
ENDBRANCH   7   8
ENDBRANCH   6   7
ENDBRANCH   5   6
ENDBRANCH   4   5
ENDBRANCH   3   4
ENDBRANCH   2   3
TORSDOF 14
ENDMDL
MODEL       10
REMARK 921   NORMALIZED FREE ENERGY PREDICTED BY IDOCK:   -4.84 KCAL/MOL
REMARK 922        TOTAL FREE ENERGY PREDICTED BY IDOCK:   -9.74 KCAL/MOL
REMARK 923 INTER-LIGAND FREE ENERGY PREDICTED BY IDOCK:   -8.64 KCAL/MOL
REMARK 924 INTRA-LIGAND FREE ENERGY PREDICTED BY IDOCK:   -1.10 KCAL/MOL
REMARK 927      BINDING AFFINITY PREDICTED BY RF-SCORE:    0.00 PKD
ROOT
HETATM    1  C   UNK     1     -12.150  13.410  63.590  1.00  0.00    -0.450 C  
HETATM    2  O   UNK     1     -12.419  12.411  64.563  1.00  0.00    -0.466 OA 
ENDROOT
BRANCH   2   3
HETATM    3  C   UNK     1     -11.889  12.769  65.840  1.00  0.00    -0.437 C  
BRANCH   3   4
HETATM    4  C   UNK     1     -10.953  11.666  66.320  1.00  0.00    -0.289 C  
BRANCH   4   5
HETATM    5  O   UNK     1     -11.544  10.994  67.430  1.00  0.00    -0.525 OA 
BRANCH   5   6
HETATM    6  C   UNK     1     -10.902  11.344  68.655  1.00  0.00    -0.208 C  
BRANCH   6   7
HETATM    7  C   UNK     1     -10.944  10.150  69.599  1.00  0.00    -0.305 C  
BRANCH   7   8
HETATM    8  C   UNK     1     -11.723  10.451  70.884  1.00  0.00    -0.455 C  
BRANCH   8   9
HETATM    9  C   UNK     1     -12.632  11.661  70.690  1.00  0.00    -0.319 C  
BRANCH   9  10
HETATM   10  C   UNK     1     -13.312  12.091  71.988  1.00  0.00    -0.447 C  
BRANCH  10  11
HETATM   11  C   UNK     1     -13.234  13.596  72.170  1.00  0.00    -0.449 C  
HETATM   12  O   UNK     1     -14.099  14.257  72.735  1.00  0.00    -0.575 OA 
HETATM   13  N   UNK     1     -12.094  14.152  71.634  1.00  0.00    -0.320 N  
HETATM   14  H   UNK     1     -11.431  13.556  71.138  1.00  0.00     0.000 HD 
BRANCH  13  15
HETATM   15  C   UNK     1     -11.822  15.570  71.763  1.00  0.00    -0.428 C  
BRANCH  15  16
HETATM   16  C   UNK     1     -11.234  16.177  70.487  1.00  0.00    -0.381 C  
BRANCH  16  17
HETATM   17  C   UNK     1     -11.118  15.136  69.374  1.00  0.00    -0.283 C  
BRANCH  17  18
HETATM   18  C   UNK     1     -11.487  15.704  67.996  1.00  0.00    -0.294 C  
BRANCH  18  19
HETATM   19  C   UNK     1     -10.364  16.535  67.356  1.00  0.00    -0.290 C  
HETATM   20  N   UNK     1     -10.666  17.995  67.427  1.00  0.00    -0.366 NA 
HETATM   21  C   UNK     1     -10.183  16.146  65.880  1.00  0.00    -0.360 C  
HETATM   22  O   UNK     1      -9.590  15.163  65.478  1.00  0.00    -0.313 OA 
HETATM   23  O   UNK     1     -10.823  17.028  65.063  1.00  0.00    -0.678 OA 
HETATM   24  H1  UNK     1      -9.920  18.546  67.003  1.00  0.00     0.000 HD 
HETATM   25  H2  UNK     1     -10.853  18.293  68.384  1.00  0.00     0.000 HD 
ENDBRANCH  18  19
ENDBRANCH  17  18
ENDBRANCH  16  17
ENDBRANCH  15  16
ENDBRANCH  13  15
ENDBRANCH  10  11
ENDBRANCH   9  10
ENDBRANCH   8   9
ENDBRANCH   7   8
ENDBRANCH   6   7
ENDBRANCH   5   6
ENDBRANCH   4   5
ENDBRANCH   3   4
ENDBRANCH   2   3
TORSDOF 14
ENDMDL
MODEL       11
REMARK 921   NORMALIZED FREE ENERGY PREDICTED BY IDOCK:   -4.82 KCAL/MOL
REMARK 922        TOTAL FREE ENERGY PREDICTED BY IDOCK:   -9.70 KCAL/MOL
REMARK 923 INTER-LIGAND FREE ENERGY PREDICTED BY IDOCK:   -9.02 KCAL/MOL
REMARK 924 INTRA-LIGAND FREE ENERGY PREDICTED BY IDOCK:   -0.68 KCAL/MOL
REMARK 927      BINDING AFFINITY PREDICTED BY RF-SCORE:    0.00 PKD
ROOT
HETATM    1  C   UNK     1      -8.721   7.017  66.447  1.00  0.00    -0.142 C  
HETATM    2  O   UNK     1     -10.038   7.420  66.793  1.00  0.00    -0.234 OA 
ENDROOT
BRANCH   2   3
HETATM    3  C   UNK     1     -10.807   6.323  67.287  1.00  0.00    -0.375 C  
BRANCH   3   4
HETATM    4  C   UNK     1     -10.550   6.164  68.781  1.00  0.00    -0.273 C  
BRANCH   4   5
HETATM    5  O   UNK     1     -11.785   6.258  69.487  1.00  0.00    -0.360 OA 
BRANCH   5   6
HETATM    6  C   UNK     1     -11.576   6.418  70.888  1.00  0.00    -0.331 C  
BRANCH   6   7
HETATM    7  C   UNK     1     -12.632   7.364  71.446  1.00  0.00    -0.405 C  
BRANCH   7   8
HETATM    8  C   UNK     1     -12.035   8.703  71.892  1.00  0.00    -0.424 C  
BRANCH   8   9
HETATM    9  C   UNK     1     -11.498   9.478  70.693  1.00  0.00    -0.362 C  
BRANCH   9  10
HETATM   10  C   UNK     1     -12.204  10.819  70.505  1.00  0.00    -0.457 C  
BRANCH  10  11
HETATM   11  C   UNK     1     -11.710  11.523  69.255  1.00  0.00    -0.330 C  
HETATM   12  O   UNK     1     -11.684  10.998  68.146  1.00  0.00    -0.497 OA 
HETATM   13  N   UNK     1     -11.288  12.813  69.484  1.00  0.00    -0.448 N  
HETATM   14  H   UNK     1     -11.293  13.180  70.436  1.00  0.00     0.000 HD 
BRANCH  13  15
HETATM   15  C   UNK     1     -10.835  13.657  68.396  1.00  0.00    -0.256 C  
BRANCH  15  16
HETATM   16  C   UNK     1     -11.986  14.384  67.695  1.00  0.00    -0.378 C  
BRANCH  16  17
HETATM   17  C   UNK     1     -12.276  13.778  66.323  1.00  0.00    -0.489 C  
BRANCH  17  18
HETATM   18  C   UNK     1     -11.011  13.631  65.465  1.00  0.00    -0.297 C  
BRANCH  18  19
HETATM   19  C   UNK     1     -11.301  13.524  63.960  1.00  0.00    -0.274 C  
HETATM   20  N   UNK     1     -12.365  14.485  63.546  1.00  0.00    -1.090 NA 
HETATM   21  C   UNK     1     -11.761  12.103  63.602  1.00  0.00    -0.498 C  
HETATM   22  O   UNK     1     -11.031  11.140  63.458  1.00  0.00    -0.336 OA 
HETATM   23  O   UNK     1     -13.119  12.039  63.511  1.00  0.00    -0.764 OA 
HETATM   24  H1  UNK     1     -12.557  14.414  62.547  1.00  0.00     0.000 HD 
HETATM   25  H2  UNK     1     -12.134  15.441  63.817  1.00  0.00     0.000 HD 
ENDBRANCH  18  19
ENDBRANCH  17  18
ENDBRANCH  16  17
ENDBRANCH  15  16
ENDBRANCH  13  15
ENDBRANCH  10  11
ENDBRANCH   9  10
ENDBRANCH   8   9
ENDBRANCH   7   8
ENDBRANCH   6   7
ENDBRANCH   5   6
ENDBRANCH   4   5
ENDBRANCH   3   4
ENDBRANCH   2   3
TORSDOF 14
ENDMDL
MODEL       12
REMARK 921   NORMALIZED FREE ENERGY PREDICTED BY IDOCK:   -4.79 KCAL/MOL
REMARK 922        TOTAL FREE ENERGY PREDICTED BY IDOCK:   -9.64 KCAL/MOL
REMARK 923 INTER-LIGAND FREE ENERGY PREDICTED BY IDOCK:   -8.37 KCAL/MOL
REMARK 924 INTRA-LIGAND FREE ENERGY PREDICTED BY IDOCK:   -1.26 KCAL/MOL
REMARK 927      BINDING AFFINITY PREDICTED BY RF-SCORE:    0.00 PKD
ROOT
HETATM    1  C   UNK     1     -13.310  14.686  72.311  1.00  0.00    -0.392 C  
HETATM    2  O   UNK     1     -14.037  13.509  72.634  1.00  0.00    -0.762 OA 
ENDROOT
BRANCH   2   3
HETATM    3  C   UNK     1     -13.436  12.349  72.059  1.00  0.00    -0.360 C  
BRANCH   3   4
HETATM    4  C   UNK     1     -12.488  12.778  70.945  1.00  0.00    -0.283 C  
BRANCH   4   5
HETATM    5  O   UNK     1     -11.813  11.633  70.430  1.00  0.00    -0.343 OA 
BRANCH   5   6
HETATM    6  C   UNK     1     -12.094  10.468  71.204  1.00  0.00    -0.370 C  
BRANCH   6   7
HETATM    7  C   UNK     1     -10.899   9.526  71.138  1.00  0.00    -0.425 C  
BRANCH   7   8
HETATM    8  C   UNK     1     -11.046   8.475  70.032  1.00  0.00    -0.152 C  
BRANCH   8   9
HETATM    9  C   UNK     1     -10.183   8.839  68.827  1.00  0.00    -0.224 C  
BRANCH   9  10
HETATM   10  C   UNK     1      -9.133   9.895  69.164  1.00  0.00    -0.175 C  
BRANCH  10  11
HETATM   11  C   UNK     1      -9.150  11.021  68.146  1.00  0.00    -0.155 C  
HETATM   12  O   UNK     1      -8.994  10.850  66.941  1.00  0.00    -0.148 OA 
HETATM   13  N   UNK     1      -9.356  12.261  68.708  1.00  0.00    -0.402 N  
HETATM   14  H   UNK     1      -9.437  12.346  69.721  1.00  0.00     0.000 HD 
BRANCH  13  15
HETATM   15  C   UNK     1      -9.459  13.449  67.882  1.00  0.00    -0.216 C  
BRANCH  15  16
HETATM   16  C   UNK     1     -10.680  14.304  68.227  1.00  0.00    -0.253 C  
BRANCH  16  17
HETATM   17  C   UNK     1     -11.458  14.699  66.973  1.00  0.00    -0.379 C  
BRANCH  17  18
HETATM   18  C   UNK     1     -11.840  13.486  66.111  1.00  0.00    -0.426 C  
BRANCH  18  19
HETATM   19  C   UNK     1     -11.526  13.672  64.619  1.00  0.00    -0.365 C  
HETATM   20  N   UNK     1     -12.357  14.759  64.024  1.00  0.00    -1.010 NA 
HETATM   21  C   UNK     1     -11.799  12.372  63.847  1.00  0.00    -0.466 C  
HETATM   22  O   UNK     1     -11.061  11.406  63.809  1.00  0.00    -0.392 OA 
HETATM   23  O   UNK     1     -13.016  12.416  63.236  1.00  0.00    -0.675 OA 
HETATM   24  H1  UNK     1     -12.148  14.884  63.034  1.00  0.00     0.000 HD 
HETATM   25  H2  UNK     1     -12.257  15.634  64.540  1.00  0.00     0.000 HD 
ENDBRANCH  18  19
ENDBRANCH  17  18
ENDBRANCH  16  17
ENDBRANCH  15  16
ENDBRANCH  13  15
ENDBRANCH  10  11
ENDBRANCH   9  10
ENDBRANCH   8   9
ENDBRANCH   7   8
ENDBRANCH   6   7
ENDBRANCH   5   6
ENDBRANCH   4   5
ENDBRANCH   3   4
ENDBRANCH   2   3
TORSDOF 14
ENDMDL
MODEL       13
REMARK 921   NORMALIZED FREE ENERGY PREDICTED BY IDOCK:   -4.78 KCAL/MOL
REMARK 922        TOTAL FREE ENERGY PREDICTED BY IDOCK:   -9.62 KCAL/MOL
REMARK 923 INTER-LIGAND FREE ENERGY PREDICTED BY IDOCK:   -8.71 KCAL/MOL
REMARK 924 INTRA-LIGAND FREE ENERGY PREDICTED BY IDOCK:   -0.91 KCAL/MOL
REMARK 927      BINDING AFFINITY PREDICTED BY RF-SCORE:    0.00 PKD
ROOT
HETATM    1  C   UNK     1     -10.013  16.841  66.129  1.00  0.00    -0.327 C  
HETATM    2  O   UNK     1     -10.122  15.863  65.105  1.00  0.00    -0.451 OA 
ENDROOT
BRANCH   2   3
HETATM    3  C   UNK     1     -11.344  16.003  64.378  1.00  0.00    -0.245 C  
BRANCH   3   4
HETATM    4  C   UNK     1     -11.923  14.620  64.106  1.00  0.00    -0.292 C  
BRANCH   4   5
HETATM    5  O   UNK     1     -13.035  14.394  64.970  1.00  0.00    -0.643 OA 
BRANCH   5   6
HETATM    6  C   UNK     1     -12.635  13.766  66.185  1.00  0.00    -0.371 C  
BRANCH   6   7
HETATM    7  C   UNK     1     -11.906  12.469  65.861  1.00  0.00    -0.489 C  
BRANCH   7   8
HETATM    8  C   UNK     1     -11.597  11.645  67.115  1.00  0.00    -0.291 C  
BRANCH   8   9
HETATM    9  C   UNK     1     -10.633  10.508  66.787  1.00  0.00    -0.284 C  
BRANCH   9  10
HETATM   10  C   UNK     1     -10.843   9.291  67.684  1.00  0.00    -0.188 C  
BRANCH  10  11
HETATM   11  C   UNK     1     -10.716   9.667  69.149  1.00  0.00    -0.217 C  
HETATM   12  O   UNK     1      -9.707  10.168  69.636  1.00  0.00    -0.228 OA 
HETATM   13  N   UNK     1     -11.846   9.389  69.884  1.00  0.00    -0.439 N  
HETATM   14  H   UNK     1     -12.639   8.933  69.432  1.00  0.00     0.000 HD 
BRANCH  13  15
HETATM   15  C   UNK     1     -11.927   9.732  71.290  1.00  0.00    -0.386 C  
BRANCH  15  16
HETATM   16  C   UNK     1     -13.086  10.683  71.600  1.00  0.00    -0.555 C  
BRANCH  16  17
HETATM   17  C   UNK     1     -12.746  12.123  71.216  1.00  0.00    -0.363 C  
BRANCH  17  18
HETATM   18  C   UNK     1     -13.580  13.151  71.994  1.00  0.00    -0.554 C  
BRANCH  18  19
HETATM   19  C   UNK     1     -13.607  14.540  71.337  1.00  0.00    -0.381 C  
HETATM   20  N   UNK     1     -12.686  14.600  70.164  1.00  0.00    -0.544 NA 
HETATM   21  C   UNK     1     -13.181  15.619  72.345  1.00  0.00    -0.474 C  
HETATM   22  O   UNK     1     -13.891  16.093  73.212  1.00  0.00    -0.559 OA 
HETATM   23  O   UNK     1     -11.871  15.952  72.177  1.00  0.00    -0.430 OA 
HETATM   24  H1  UNK     1     -12.705  15.521  69.727  1.00  0.00     0.000 HD 
HETATM   25  H2  UNK     1     -12.890  13.862  69.489  1.00  0.00     0.000 HD 
ENDBRANCH  18  19
ENDBRANCH  17  18
ENDBRANCH  16  17
ENDBRANCH  15  16
ENDBRANCH  13  15
ENDBRANCH  10  11
ENDBRANCH   9  10
ENDBRANCH   8   9
ENDBRANCH   7   8
ENDBRANCH   6   7
ENDBRANCH   5   6
ENDBRANCH   4   5
ENDBRANCH   3   4
ENDBRANCH   2   3
TORSDOF 14
ENDMDL
MODEL       14
REMARK 921   NORMALIZED FREE ENERGY PREDICTED BY IDOCK:   -4.77 KCAL/MOL
REMARK 922        TOTAL FREE ENERGY PREDICTED BY IDOCK:   -9.60 KCAL/MOL
REMARK 923 INTER-LIGAND FREE ENERGY PREDICTED BY IDOCK:   -8.51 KCAL/MOL
REMARK 924 INTRA-LIGAND FREE ENERGY PREDICTED BY IDOCK:   -1.09 KCAL/MOL
REMARK 927      BINDING AFFINITY PREDICTED BY RF-SCORE:    0.00 PKD
ROOT
HETATM    1  C   UNK     1     -12.257  12.231  63.944  1.00  0.00    -0.515 C  
HETATM    2  O   UNK     1     -13.188  12.935  64.753  1.00  0.00    -0.764 OA 
ENDROOT
BRANCH   2   3
HETATM    3  C   UNK     1     -12.554  13.982  65.489  1.00  0.00    -0.516 C  
BRANCH   3   4
HETATM    4  C   UNK     1     -11.919  13.395  66.744  1.00  0.00    -0.394 C  
BRANCH   4   5
HETATM    5  O   UNK     1     -11.262  14.431  67.471  1.00  0.00    -0.291 OA 
BRANCH   5   6
HETATM    6  C   UNK     1     -11.942  14.729  68.689  1.00  0.00    -0.257 C  
BRANCH   6   7
HETATM    7  C   UNK     1     -11.735  13.582  69.669  1.00  0.00    -0.378 C  
BRANCH   7   8
HETATM    8  C   UNK     1     -12.617  13.715  70.915  1.00  0.00    -0.421 C  
BRANCH   8   9
HETATM    9  C   UNK     1     -12.913  12.343  71.513  1.00  0.00    -0.385 C  
BRANCH   9  10
HETATM   10  C   UNK     1     -12.410  11.204  70.629  1.00  0.00    -0.482 C  
BRANCH  10  11
HETATM   11  C   UNK     1     -12.486   9.876  71.359  1.00  0.00    -0.398 C  
HETATM   12  O   UNK     1     -13.274   9.646  72.270  1.00  0.00    -0.433 OA 
HETATM   13  N   UNK     1     -11.577   8.949  70.900  1.00  0.00    -0.283 N  
HETATM   14  H   UNK     1     -10.918   9.212  70.167  1.00  0.00     0.000 HD 
BRANCH  13  15
HETATM   15  C   UNK     1     -11.542   7.604  71.441  1.00  0.00    -0.274 C  
BRANCH  15  16
HETATM   16  C   UNK     1     -11.858   6.536  70.391  1.00  0.00    -0.378 C  
BRANCH  16  17
HETATM   17  C   UNK     1     -10.653   5.631  70.134  1.00  0.00    -0.380 C  
BRANCH  17  18
HETATM   18  C   UNK     1     -10.117   5.758  68.701  1.00  0.00    -0.227 C  
BRANCH  18  19
HETATM   19  C   UNK     1     -11.032   6.574  67.775  1.00  0.00    -0.316 C  
HETATM   20  N   UNK     1     -11.242   5.876  66.472  1.00  0.00    -0.741 NA 
HETATM   21  C   UNK     1     -10.418   7.954  67.495  1.00  0.00    -0.262 C  
HETATM   22  O   UNK     1     -10.451   8.907  68.250  1.00  0.00    -0.215 OA 
HETATM   23  O   UNK     1      -9.777   7.967  66.292  1.00  0.00    -0.202 OA 
HETATM   24  H1  UNK     1     -11.849   6.417  65.858  1.00  0.00     0.000 HD 
HETATM   25  H2  UNK     1     -11.594   4.928  66.608  1.00  0.00     0.000 HD 
ENDBRANCH  18  19
ENDBRANCH  17  18
ENDBRANCH  16  17
ENDBRANCH  15  16
ENDBRANCH  13  15
ENDBRANCH  10  11
ENDBRANCH   9  10
ENDBRANCH   8   9
ENDBRANCH   7   8
ENDBRANCH   6   7
ENDBRANCH   5   6
ENDBRANCH   4   5
ENDBRANCH   3   4
ENDBRANCH   2   3
TORSDOF 14
ENDMDL
MODEL       15
REMARK 921   NORMALIZED FREE ENERGY PREDICTED BY IDOCK:   -4.77 KCAL/MOL
REMARK 922        TOTAL FREE ENERGY PREDICTED BY IDOCK:   -9.60 KCAL/MOL
REMARK 923 INTER-LIGAND FREE ENERGY PREDICTED BY IDOCK:   -8.53 KCAL/MOL
REMARK 924 INTRA-LIGAND FREE ENERGY PREDICTED BY IDOCK:   -1.07 KCAL/MOL
REMARK 927      BINDING AFFINITY PREDICTED BY RF-SCORE:    0.00 PKD
ROOT
HETATM    1  C   UNK     1     -10.042  11.033  65.569  1.00  0.00    -0.261 C  
HETATM    2  O   UNK     1     -10.074  11.721  64.327  1.00  0.00    -0.264 OA 
ENDROOT
BRANCH   2   3
HETATM    3  C   UNK     1     -11.274  11.439  63.605  1.00  0.00    -0.276 C  
BRANCH   3   4
HETATM    4  C   UNK     1     -12.138  12.693  63.563  1.00  0.00    -0.561 C  
BRANCH   4   5
HETATM    5  O   UNK     1     -12.920  12.769  64.753  1.00  0.00    -0.768 OA 
BRANCH   5   6
HETATM    6  C   UNK     1     -12.685  13.985  65.458  1.00  0.00    -0.486 C  
BRANCH   6   7
HETATM    7  C   UNK     1     -12.221  13.660  66.872  1.00  0.00    -0.398 C  
BRANCH   7   8
HETATM    8  C   UNK     1     -11.481  14.833  67.526  1.00  0.00    -0.369 C  
BRANCH   8   9
HETATM    9  C   UNK     1     -11.274  14.573  69.015  1.00  0.00    -0.289 C  
BRANCH   9  10
HETATM   10  C   UNK     1     -11.918  15.648  69.887  1.00  0.00    -0.376 C  
BRANCH  10  11
HETATM   11  C   UNK     1     -12.620  15.030  71.082  1.00  0.00    -0.348 C  
HETATM   12  O   UNK     1     -13.028  15.678  72.040  1.00  0.00    -0.403 OA 
HETATM   13  N   UNK     1     -12.754  13.663  70.989  1.00  0.00    -0.343 N  
HETATM   14  H   UNK     1     -12.357  13.173  70.187  1.00  0.00     0.000 HD 
BRANCH  13  15
HETATM   15  C   UNK     1     -13.450  12.908  72.013  1.00  0.00    -0.473 C  
BRANCH  15  16
HETATM   16  C   UNK     1     -13.042  11.433  72.039  1.00  0.00    -0.423 C  
BRANCH  16  17
HETATM   17  C   UNK     1     -12.749  10.909  70.633  1.00  0.00    -0.396 C  
BRANCH  17  18
HETATM   18  C   UNK     1     -11.264  10.577  70.427  1.00  0.00    -0.378 C  
BRANCH  18  19
HETATM   19  C   UNK     1     -10.944   9.083  70.582  1.00  0.00    -0.257 C  
HETATM   20  N   UNK     1     -12.190   8.262  70.595  1.00  0.00    -0.489 NA 
HETATM   21  C   UNK     1     -10.181   8.830  71.892  1.00  0.00    -0.345 C  
HETATM   22  O   UNK     1      -8.994   9.031  72.067  1.00  0.00    -0.374 OA 
HETATM   23  O   UNK     1     -11.023   8.391  72.869  1.00  0.00    -0.248 OA 
HETATM   24  H1  UNK     1     -11.977   7.270  70.697  1.00  0.00     0.000 HD 
HETATM   25  H2  UNK     1     -12.764   8.439  69.770  1.00  0.00     0.000 HD 
ENDBRANCH  18  19
ENDBRANCH  17  18
ENDBRANCH  16  17
ENDBRANCH  15  16
ENDBRANCH  13  15
ENDBRANCH  10  11
ENDBRANCH   9  10
ENDBRANCH   8   9
ENDBRANCH   7   8
ENDBRANCH   6   7
ENDBRANCH   5   6
ENDBRANCH   4   5
ENDBRANCH   3   4
ENDBRANCH   2   3
TORSDOF 14
ENDMDL
MODEL       16
REMARK 921   NORMALIZED FREE ENERGY PREDICTED BY IDOCK:   -4.76 KCAL/MOL
REMARK 922        TOTAL FREE ENERGY PREDICTED BY IDOCK:   -9.59 KCAL/MOL
REMARK 923 INTER-LIGAND FREE ENERGY PREDICTED BY IDOCK:   -8.81 KCAL/MOL
REMARK 924 INTRA-LIGAND FREE ENERGY PREDICTED BY IDOCK:   -0.78 KCAL/MOL
REMARK 927      BINDING AFFINITY PREDICTED BY RF-SCORE:    0.00 PKD
ROOT
HETATM    1  C   UNK     1     -14.303  15.167  71.950  1.00  0.00    -0.596 C  
HETATM    2  O   UNK     1     -14.323  13.880  72.551  1.00  0.00    -0.661 OA 
ENDROOT
BRANCH   2   3
HETATM    3  C   UNK     1     -13.342  13.019  71.973  1.00  0.00    -0.492 C  
BRANCH   3   4
HETATM    4  C   UNK     1     -12.528  13.803  70.950  1.00  0.00    -0.377 C  
BRANCH   4   5
HETATM    5  O   UNK     1     -12.010  12.908  69.970  1.00  0.00    -0.334 OA 
BRANCH   5   6
HETATM    6  C   UNK     1     -11.953  13.517  68.682  1.00  0.00    -0.343 C  
BRANCH   6   7
HETATM    7  C   UNK     1     -11.243  12.578  67.716  1.00  0.00    -0.318 C  
BRANCH   7   8
HETATM    8  C   UNK     1     -12.026  12.383  66.412  1.00  0.00    -0.346 C  
BRANCH   8   9
HETATM    9  C   UNK     1     -11.210  12.872  65.218  1.00  0.00    -0.319 C  
BRANCH   9  10
HETATM   10  C   UNK     1     -11.917  13.985  64.450  1.00  0.00    -0.480 C  
BRANCH  10  11
HETATM   11  C   UNK     1     -11.199  15.310  64.631  1.00  0.00    -0.356 C  
HETATM   12  O   UNK     1     -11.449  16.314  63.970  1.00  0.00    -0.919 OA 
HETATM   13  N   UNK     1     -10.233  15.278  65.611  1.00  0.00    -0.341 N  
HETATM   14  H   UNK     1     -10.042  14.402  66.098  1.00  0.00     0.000 HD 
BRANCH  13  15
HETATM   15  C   UNK     1      -9.484  16.469  65.963  1.00  0.00    -0.282 C  
BRANCH  15  16
HETATM   16  C   UNK     1      -8.183  16.151  66.703  1.00  0.00    -0.321 C  
BRANCH  16  17
HETATM   17  C   UNK     1      -7.671  17.364  67.479  1.00  0.00    -0.205 C  
BRANCH  17  18
HETATM   18  C   UNK     1      -7.845  18.676  66.701  1.00  0.00    -0.271 C  
BRANCH  18  19
HETATM   19  C   UNK     1      -8.695  19.719  67.443  1.00  0.00    -0.326 C  
HETATM   20  N   UNK     1      -8.829  19.377  68.889  1.00  0.00    -0.345 NA 
HETATM   21  C   UNK     1     -10.102  19.800  66.829  1.00  0.00    -0.444 C  
HETATM   22  O   UNK     1     -10.393  20.393  65.808  1.00  0.00    -0.290 OA 
HETATM   23  O   UNK     1     -10.993  19.071  67.558  1.00  0.00    -0.443 OA 
HETATM   24  H1  UNK     1      -9.393  20.069  69.382  1.00  0.00     0.000 HD 
HETATM   25  H2  UNK     1      -7.918  19.253  69.331  1.00  0.00     0.000 HD 
ENDBRANCH  18  19
ENDBRANCH  17  18
ENDBRANCH  16  17
ENDBRANCH  15  16
ENDBRANCH  13  15
ENDBRANCH  10  11
ENDBRANCH   9  10
ENDBRANCH   8   9
ENDBRANCH   7   8
ENDBRANCH   6   7
ENDBRANCH   5   6
ENDBRANCH   4   5
ENDBRANCH   3   4
ENDBRANCH   2   3
TORSDOF 14
ENDMDL
MODEL       17
REMARK 921   NORMALIZED FREE ENERGY PREDICTED BY IDOCK:   -4.76 KCAL/MOL
REMARK 922        TOTAL FREE ENERGY PREDICTED BY IDOCK:   -9.59 KCAL/MOL
REMARK 923 INTER-LIGAND FREE ENERGY PREDICTED BY IDOCK:   -8.36 KCAL/MOL
REMARK 924 INTRA-LIGAND FREE ENERGY PREDICTED BY IDOCK:   -1.22 KCAL/MOL
REMARK 927      BINDING AFFINITY PREDICTED BY RF-SCORE:    0.00 PKD
ROOT
HETATM    1  C   UNK     1     -10.522  19.557  66.024  1.00  0.00    -0.516 C  
HETATM    2  O   UNK     1     -10.701  18.307  65.374  1.00  0.00    -0.610 OA 
ENDROOT
BRANCH   2   3
HETATM    3  C   UNK     1     -10.254  17.224  66.191  1.00  0.00    -0.331 C  
BRANCH   3   4
HETATM    4  C   UNK     1     -10.223  15.949  65.357  1.00  0.00    -0.323 C  
BRANCH   4   5
HETATM    5  O   UNK     1     -11.346  15.931  64.479  1.00  0.00    -0.444 OA 
BRANCH   5   6
HETATM    6  C   UNK     1     -11.900  14.622  64.365  1.00  0.00    -0.390 C  
BRANCH   6   7
HETATM    7  C   UNK     1     -12.440  14.189  65.722  1.00  0.00    -0.490 C  
BRANCH   7   8
HETATM    8  C   UNK     1     -11.903  12.819  66.151  1.00  0.00    -0.484 C  
BRANCH   8   9
HETATM    9  C   UNK     1     -11.716  12.766  67.665  1.00  0.00    -0.422 C  
BRANCH   9  10
HETATM   10  C   UNK     1     -11.572  14.155  68.281  1.00  0.00    -0.356 C  
BRANCH  10  11
HETATM   11  C   UNK     1     -12.178  14.198  69.672  1.00  0.00    -0.326 C  
HETATM   12  O   UNK     1     -12.663  15.209  70.169  1.00  0.00    -0.311 OA 
HETATM   13  N   UNK     1     -12.127  12.989  70.327  1.00  0.00    -0.421 N  
HETATM   14  H   UNK     1     -11.673  12.193  69.878  1.00  0.00     0.000 HD 
BRANCH  13  15
HETATM   15  C   UNK     1     -12.709  12.827  71.645  1.00  0.00    -0.188 C  
BRANCH  15  16
HETATM   16  C   UNK     1     -13.254  11.415  71.881  1.00  0.00    -0.485 C  
BRANCH  16  17
HETATM   17  C   UNK     1     -12.649  10.412  70.899  1.00  0.00    -0.478 C  
BRANCH  17  18
HETATM   18  C   UNK     1     -11.704   9.415  71.585  1.00  0.00    -0.468 C  
BRANCH  18  19
HETATM   19  C   UNK     1     -10.337   9.293  70.894  1.00  0.00    -0.296 C  
HETATM   20  N   UNK     1     -10.112  10.420  69.941  1.00  0.00    -0.421 NA 
HETATM   21  C   UNK     1     -10.246   7.971  70.115  1.00  0.00    -0.203 C  
HETATM   22  O   UNK     1     -10.017   6.880  70.602  1.00  0.00    -0.186 OA 
HETATM   23  O   UNK     1     -10.504   8.167  68.791  1.00  0.00    -0.211 OA 
HETATM   24  H1  UNK     1      -9.205  10.339  69.482  1.00  0.00     0.000 HD 
HETATM   25  H2  UNK     1     -10.221  11.325  70.398  1.00  0.00     0.000 HD 
ENDBRANCH  18  19
ENDBRANCH  17  18
ENDBRANCH  16  17
ENDBRANCH  15  16
ENDBRANCH  13  15
ENDBRANCH  10  11
ENDBRANCH   9  10
ENDBRANCH   8   9
ENDBRANCH   7   8
ENDBRANCH   6   7
ENDBRANCH   5   6
ENDBRANCH   4   5
ENDBRANCH   3   4
ENDBRANCH   2   3
TORSDOF 14
ENDMDL
MODEL       18
REMARK 921   NORMALIZED FREE ENERGY PREDICTED BY IDOCK:   -4.76 KCAL/MOL
REMARK 922        TOTAL FREE ENERGY PREDICTED BY IDOCK:   -9.59 KCAL/MOL
REMARK 923 INTER-LIGAND FREE ENERGY PREDICTED BY IDOCK:   -8.67 KCAL/MOL
REMARK 924 INTRA-LIGAND FREE ENERGY PREDICTED BY IDOCK:   -0.91 KCAL/MOL
REMARK 927      BINDING AFFINITY PREDICTED BY RF-SCORE:    0.00 PKD
ROOT
HETATM    1  C   UNK     1     -12.321  12.311  63.487  1.00  0.00    -0.565 C  
HETATM    2  O   UNK     1     -12.568  13.696  63.291  1.00  0.00    -0.816 OA 
ENDROOT
BRANCH   2   3
HETATM    3  C   UNK     1     -12.090  14.473  64.389  1.00  0.00    -0.472 C  
BRANCH   3   4
HETATM    4  C   UNK     1     -10.646  14.085  64.684  1.00  0.00    -0.395 C  
BRANCH   4   5
HETATM    5  O   UNK     1     -10.479  13.913  66.089  1.00  0.00    -0.286 OA 
BRANCH   5   6
HETATM    6  C   UNK     1     -11.618  14.374  66.812  1.00  0.00    -0.385 C  
BRANCH   6   7
HETATM    7  C   UNK     1     -11.876  13.440  67.987  1.00  0.00    -0.392 C  
BRANCH   7   8
HETATM    8  C   UNK     1     -11.571  11.978  67.646  1.00  0.00    -0.392 C  
BRANCH   8   9
HETATM    9  C   UNK     1     -11.789  11.085  68.865  1.00  0.00    -0.378 C  
BRANCH   9  10
HETATM   10  C   UNK     1     -11.959  11.890  70.151  1.00  0.00    -0.413 C  
BRANCH  10  11
HETATM   11  C   UNK     1     -12.836  11.150  71.143  1.00  0.00    -0.374 C  
HETATM   12  O   UNK     1     -13.232  11.640  72.196  1.00  0.00    -0.504 OA 
HETATM   13  N   UNK     1     -13.144   9.867  70.749  1.00  0.00    -0.578 N  
HETATM   14  H   UNK     1     -12.750   9.501  69.882  1.00  0.00     0.000 HD 
BRANCH  13  15
HETATM   15  C   UNK     1     -14.019   9.030  71.545  1.00  0.00    -0.277 C  
BRANCH  15  16
HETATM   16  C   UNK     1     -13.562   7.569  71.588  1.00  0.00    -0.442 C  
BRANCH  16  17
HETATM   17  C   UNK     1     -12.057   7.462  71.836  1.00  0.00    -0.341 C  
BRANCH  17  18
HETATM   18  C   UNK     1     -11.411   6.317  71.043  1.00  0.00    -0.378 C  
BRANCH  18  19
HETATM   19  C   UNK     1     -10.450   6.800  69.946  1.00  0.00    -0.211 C  
HETATM   20  N   UNK     1     -10.892   8.108  69.378  1.00  0.00    -0.400 NA 
HETATM   21  C   UNK     1     -10.379   5.773  68.804  1.00  0.00    -0.224 C  
HETATM   22  O   UNK     1      -9.731   4.744  68.821  1.00  0.00    -0.155 OA 
HETATM   23  O   UNK     1     -11.186   6.140  67.769  1.00  0.00    -0.294 OA 
HETATM   24  H1  UNK     1     -10.254   8.429  68.651  1.00  0.00     0.000 HD 
HETATM   25  H2  UNK     1     -11.012   8.811  70.108  1.00  0.00     0.000 HD 
ENDBRANCH  18  19
ENDBRANCH  17  18
ENDBRANCH  16  17
ENDBRANCH  15  16
ENDBRANCH  13  15
ENDBRANCH  10  11
ENDBRANCH   9  10
ENDBRANCH   8   9
ENDBRANCH   7   8
ENDBRANCH   6   7
ENDBRANCH   5   6
ENDBRANCH   4   5
ENDBRANCH   3   4
ENDBRANCH   2   3
TORSDOF 14
ENDMDL
MODEL       19
REMARK 921   NORMALIZED FREE ENERGY PREDICTED BY IDOCK:   -4.75 KCAL/MOL
REMARK 922        TOTAL FREE ENERGY PREDICTED BY IDOCK:   -9.57 KCAL/MOL
REMARK 923 INTER-LIGAND FREE ENERGY PREDICTED BY IDOCK:   -8.72 KCAL/MOL
REMARK 924 INTRA-LIGAND FREE ENERGY PREDICTED BY IDOCK:   -0.85 KCAL/MOL
REMARK 927      BINDING AFFINITY PREDICTED BY RF-SCORE:    0.00 PKD
ROOT
HETATM    1  C   UNK     1     -12.504  14.057  66.242  1.00  0.00    -0.400 C  
HETATM    2  O   UNK     1     -12.990  13.675  64.964  1.00  0.00    -0.724 OA 
ENDROOT
BRANCH   2   3
HETATM    3  C   UNK     1     -11.923  13.490  64.033  1.00  0.00    -0.449 C  
BRANCH   3   4
HETATM    4  C   UNK     1     -12.023  12.095  63.429  1.00  0.00    -0.481 C  
BRANCH   4   5
HETATM    5  O   UNK     1     -10.727  11.503  63.389  1.00  0.00    -0.385 OA 
BRANCH   5   6
HETATM    6  C   UNK     1     -10.450  10.768  64.579  1.00  0.00    -0.281 C  
BRANCH   6   7
HETATM    7  C   UNK     1      -8.945  10.565  64.701  1.00  0.00    -0.229 C  
BRANCH   7   8
HETATM    8  C   UNK     1      -8.407  11.010  66.066  1.00  0.00    -0.147 C  
BRANCH   8   9
HETATM    9  C   UNK     1      -9.523  11.619  66.910  1.00  0.00    -0.195 C  
BRANCH   9  10
HETATM   10  C   UNK     1      -9.279  11.446  68.407  1.00  0.00    -0.183 C  
BRANCH  10  11
HETATM   11  C   UNK     1     -10.410  10.670  69.056  1.00  0.00    -0.218 C  
HETATM   12  O   UNK     1     -10.909   9.660  68.567  1.00  0.00    -0.215 OA 
HETATM   13  N   UNK     1     -10.829  11.211  70.250  1.00  0.00    -0.352 N  
HETATM   14  H   UNK     1     -10.405  12.077  70.585  1.00  0.00     0.000 HD 
BRANCH  13  15
HETATM   15  C   UNK     1     -11.863  10.572  71.040  1.00  0.00    -0.340 C  
BRANCH  15  16
HETATM   16  C   UNK     1     -13.106  11.450  71.208  1.00  0.00    -0.297 C  
BRANCH  16  17
HETATM   17  C   UNK     1     -12.734  12.928  71.328  1.00  0.00    -0.371 C  
BRANCH  17  18
HETATM   18  C   UNK     1     -13.554  13.655  72.404  1.00  0.00    -0.703 C  
BRANCH  18  19
HETATM   19  C   UNK     1     -13.724  15.157  72.133  1.00  0.00    -0.477 C  
HETATM   20  N   UNK     1     -13.870  15.429  70.672  1.00  0.00    -0.837 NA 
HETATM   21  C   UNK     1     -12.507  15.937  72.654  1.00  0.00    -0.477 C  
HETATM   22  O   UNK     1     -12.309  16.242  73.814  1.00  0.00    -0.504 OA 
HETATM   23  O   UNK     1     -11.635  16.212  71.643  1.00  0.00    -0.453 OA 
HETATM   24  H1  UNK     1     -13.984  16.426  70.492  1.00  0.00     0.000 HD 
HETATM   25  H2  UNK     1     -14.632  14.885  70.265  1.00  0.00     0.000 HD 
ENDBRANCH  18  19
ENDBRANCH  17  18
ENDBRANCH  16  17
ENDBRANCH  15  16
ENDBRANCH  13  15
ENDBRANCH  10  11
ENDBRANCH   9  10
ENDBRANCH   8   9
ENDBRANCH   7   8
ENDBRANCH   6   7
ENDBRANCH   5   6
ENDBRANCH   4   5
ENDBRANCH   3   4
ENDBRANCH   2   3
TORSDOF 14
ENDMDL
MODEL       20
REMARK 921   NORMALIZED FREE ENERGY PREDICTED BY IDOCK:   -4.75 KCAL/MOL
REMARK 922        TOTAL FREE ENERGY PREDICTED BY IDOCK:   -9.56 KCAL/MOL
REMARK 923 INTER-LIGAND FREE ENERGY PREDICTED BY IDOCK:   -8.22 KCAL/MOL
REMARK 924 INTRA-LIGAND FREE ENERGY PREDICTED BY IDOCK:   -1.34 KCAL/MOL
REMARK 927      BINDING AFFINITY PREDICTED BY RF-SCORE:    0.00 PKD
ROOT
HETATM    1  C   UNK     1     -11.909  13.378  68.451  1.00  0.00    -0.366 C  
HETATM    2  O   UNK     1     -12.047  13.086  67.068  1.00  0.00    -0.362 OA 
ENDROOT
BRANCH   2   3
HETATM    3  C   UNK     1     -12.404  14.249  66.321  1.00  0.00    -0.373 C  
BRANCH   3   4
HETATM    4  C   UNK     1     -12.431  13.902  64.838  1.00  0.00    -0.391 C  
BRANCH   4   5
HETATM    5  O   UNK     1     -13.146  12.682  64.651  1.00  0.00    -0.821 OA 
BRANCH   5   6
HETATM    6  C   UNK     1     -12.609  11.920  63.572  1.00  0.00    -0.459 C  
BRANCH   6   7
HETATM    7  C   UNK     1     -11.121  12.220  63.442  1.00  0.00    -0.487 C  
BRANCH   7   8
HETATM    8  C   UNK     1     -10.250  11.012  63.803  1.00  0.00    -0.425 C  
BRANCH   8   9
HETATM    9  C   UNK     1     -10.169  10.842  65.318  1.00  0.00    -0.351 C  
BRANCH   9  10
HETATM   10  C   UNK     1      -8.756  11.059  65.852  1.00  0.00    -0.182 C  
BRANCH  10  11
HETATM   11  C   UNK     1      -8.716  12.219  66.830  1.00  0.00    -0.175 C  
HETATM   12  O   UNK     1      -8.517  12.086  68.033  1.00  0.00    -0.152 OA 
HETATM   13  N   UNK     1      -8.928  13.442  66.235  1.00  0.00    -0.458 N  
HETATM   14  H   UNK     1      -9.130  13.485  65.236  1.00  0.00     0.000 HD 
BRANCH  13  15
HETATM   15  C   UNK     1      -8.870  14.669  67.005  1.00  0.00    -0.241 C  
BRANCH  15  16
HETATM   16  C   UNK     1      -9.048  15.919  66.139  1.00  0.00    -0.385 C  
BRANCH  16  17
HETATM   17  C   UNK     1      -7.825  16.831  66.217  1.00  0.00    -0.334 C  
BRANCH  17  18
HETATM   18  C   UNK     1      -8.173  18.240  66.720  1.00  0.00    -0.269 C  
BRANCH  18  19
HETATM   19  C   UNK     1      -9.640  18.629  66.485  1.00  0.00    -0.337 C  
HETATM   20  N   UNK     1      -9.748  19.994  65.892  1.00  0.00    -0.521 NA 
HETATM   21  C   UNK     1     -10.419  18.609  67.809  1.00  0.00    -0.411 C  
HETATM   22  O   UNK     1     -10.846  17.613  68.362  1.00  0.00    -0.294 OA 
HETATM   23  O   UNK     1     -10.535  19.866  68.324  1.00  0.00    -0.426 OA 
HETATM   24  H1  UNK     1     -10.722  20.252  65.736  1.00  0.00     0.000 HD 
HETATM   25  H2  UNK     1      -9.197  20.077  65.038  1.00  0.00     0.000 HD 
ENDBRANCH  18  19
ENDBRANCH  17  18
ENDBRANCH  16  17
ENDBRANCH  15  16
ENDBRANCH  13  15
ENDBRANCH  10  11
ENDBRANCH   9  10
ENDBRANCH   8   9
ENDBRANCH   7   8
ENDBRANCH   6   7
ENDBRANCH   5   6
ENDBRANCH   4   5
ENDBRANCH   3   4
ENDBRANCH   2   3
TORSDOF 14
ENDMDL
MODEL       21
REMARK 921   NORMALIZED FREE ENERGY PREDICTED BY IDOCK:   -4.74 KCAL/MOL
REMARK 922        TOTAL FREE ENERGY PREDICTED BY IDOCK:   -9.54 KCAL/MOL
REMARK 923 INTER-LIGAND FREE ENERGY PREDICTED BY IDOCK:   -8.54 KCAL/MOL
REMARK 924 INTRA-LIGAND FREE ENERGY PREDICTED BY IDOCK:   -1.00 KCAL/MOL
REMARK 927      BINDING AFFINITY PREDICTED BY RF-SCORE:    0.00 PKD
ROOT
HETATM    1  C   UNK     1     -12.386  15.323  74.165  1.00  0.00    -0.625 C  
HETATM    2  O   UNK     1     -12.276  16.143  73.011  1.00  0.00    -0.466 OA 
ENDROOT
BRANCH   2   3
HETATM    3  C   UNK     1     -12.906  15.541  71.880  1.00  0.00    -0.427 C  
BRANCH   3   4
HETATM    4  C   UNK     1     -13.472  14.186  72.286  1.00  0.00    -0.482 C  
BRANCH   4   5
HETATM    5  O   UNK     1     -12.966  13.181  71.410  1.00  0.00    -0.354 OA 
BRANCH   5   6
HETATM    6  C   UNK     1     -12.172  13.745  70.369  1.00  0.00    -0.363 C  
BRANCH   6   7
HETATM    7  C   UNK     1     -11.746  12.640  69.411  1.00  0.00    -0.387 C  
BRANCH   7   8
HETATM    8  C   UNK     1     -11.764  11.257  70.073  1.00  0.00    -0.428 C  
BRANCH   8   9
HETATM    9  C   UNK     1     -11.278  10.189  69.097  1.00  0.00    -0.234 C  
BRANCH   9  10
HETATM   10  C   UNK     1      -9.756  10.163  68.976  1.00  0.00    -0.212 C  
BRANCH  10  11
HETATM   11  C   UNK     1      -9.328  10.106  67.521  1.00  0.00    -0.151 C  
HETATM   12  O   UNK     1      -8.661   9.192  67.045  1.00  0.00    -0.122 OA 
HETATM   13  N   UNK     1      -9.759  11.184  66.782  1.00  0.00    -0.190 N  
HETATM   14  H   UNK     1     -10.274  11.934  67.244  1.00  0.00     0.000 HD 
BRANCH  13  15
HETATM   15  C   UNK     1      -9.492  11.272  65.360  1.00  0.00    -0.225 C  
BRANCH  15  16
HETATM   16  C   UNK     1     -10.771  11.327  64.521  1.00  0.00    -0.390 C  
BRANCH  16  17
HETATM   17  C   UNK     1     -11.624  12.543  64.882  1.00  0.00    -0.386 C  
BRANCH  17  18
HETATM   18  C   UNK     1     -11.013  13.859  64.379  1.00  0.00    -0.322 C  
BRANCH  18  19
HETATM   19  C   UNK     1     -11.742  15.109  64.895  1.00  0.00    -0.290 C  
HETATM   20  N   UNK     1     -11.991  16.083  63.792  1.00  0.00    -1.339 NA 
HETATM   21  C   UNK     1     -10.909  15.806  65.982  1.00  0.00    -0.255 C  
HETATM   22  O   UNK     1     -10.832  15.458  67.144  1.00  0.00    -0.314 OA 
HETATM   23  O   UNK     1     -10.213  16.857  65.462  1.00  0.00    -0.580 OA 
HETATM   24  H1  UNK     1     -12.476  16.912  64.135  1.00  0.00     0.000 HD 
HETATM   25  H2  UNK     1     -12.492  15.650  63.016  1.00  0.00     0.000 HD 
ENDBRANCH  18  19
ENDBRANCH  17  18
ENDBRANCH  16  17
ENDBRANCH  15  16
ENDBRANCH  13  15
ENDBRANCH  10  11
ENDBRANCH   9  10
ENDBRANCH   8   9
ENDBRANCH   7   8
ENDBRANCH   6   7
ENDBRANCH   5   6
ENDBRANCH   4   5
ENDBRANCH   3   4
ENDBRANCH   2   3
TORSDOF 14
ENDMDL
MODEL       22
REMARK 921   NORMALIZED FREE ENERGY PREDICTED BY IDOCK:   -4.74 KCAL/MOL
REMARK 922        TOTAL FREE ENERGY PREDICTED BY IDOCK:   -9.54 KCAL/MOL
REMARK 923 INTER-LIGAND FREE ENERGY PREDICTED BY IDOCK:   -8.77 KCAL/MOL
REMARK 924 INTRA-LIGAND FREE ENERGY PREDICTED BY IDOCK:   -0.77 KCAL/MOL
REMARK 927      BINDING AFFINITY PREDICTED BY RF-SCORE:    0.00 PKD
ROOT
HETATM    1  C   UNK     1     -10.940   6.234  70.210  1.00  0.00    -0.337 C  
HETATM    2  O   UNK     1     -11.803   7.360  70.141  1.00  0.00    -0.085 OA 
ENDROOT
BRANCH   2   3
HETATM    3  C   UNK     1     -12.086   7.881  71.440  1.00  0.00    -0.307 C  
BRANCH   3   4
HETATM    4  C   UNK     1     -11.677   9.348  71.490  1.00  0.00    -0.394 C  
BRANCH   4   5
HETATM    5  O   UNK     1     -12.800  10.140  71.871  1.00  0.00    -0.413 OA 
BRANCH   5   6
HETATM    6  C   UNK     1     -12.668  11.487  71.422  1.00  0.00    -0.364 C  
BRANCH   6   7
HETATM    7  C   UNK     1     -13.826  12.311  71.969  1.00  0.00     0.042 C  
BRANCH   7   8
HETATM    8  C   UNK     1     -13.351  13.586  72.675  1.00  0.00    -0.546 C  
BRANCH   8   9
HETATM    9  C   UNK     1     -13.941  14.823  72.005  1.00  0.00    -0.582 C  
BRANCH   9  10
HETATM   10  C   UNK     1     -12.887  15.890  71.725  1.00  0.00    -0.441 C  
BRANCH  10  11
HETATM   11  C   UNK     1     -11.975  15.468  70.587  1.00  0.00    -0.378 C  
HETATM   12  O   UNK     1     -10.795  15.169  70.738  1.00  0.00    -0.258 OA 
HETATM   13  N   UNK     1     -12.603  15.454  69.362  1.00  0.00    -0.596 N  
HETATM   14  H   UNK     1     -13.576  15.753  69.293  1.00  0.00     0.000 HD 
BRANCH  13  15
HETATM   15  C   UNK     1     -11.903  15.021  68.168  1.00  0.00    -0.260 C  
BRANCH  15  16
HETATM   16  C   UNK     1     -11.697  13.505  68.121  1.00  0.00    -0.396 C  
BRANCH  16  17
HETATM   17  C   UNK     1     -11.763  12.976  66.688  1.00  0.00    -0.438 C  
BRANCH  17  18
HETATM   18  C   UNK     1     -12.378  13.992  65.715  1.00  0.00    -0.506 C  
BRANCH  18  19
HETATM   19  C   UNK     1     -11.418  14.427  64.597  1.00  0.00    -0.387 C  
HETATM   20  N   UNK     1     -10.214  13.546  64.546  1.00  0.00    -0.605 NA 
HETATM   21  C   UNK     1     -10.953  15.874  64.823  1.00  0.00    -0.375 C  
HETATM   22  O   UNK     1     -11.598  16.872  64.560  1.00  0.00    -0.754 OA 
HETATM   23  O   UNK     1      -9.723  15.905  65.410  1.00  0.00    -0.397 OA 
HETATM   24  H1  UNK     1      -9.577  13.835  63.804  1.00  0.00     0.000 HD 
HETATM   25  H2  UNK     1     -10.472  12.563  64.457  1.00  0.00     0.000 HD 
ENDBRANCH  18  19
ENDBRANCH  17  18
ENDBRANCH  16  17
ENDBRANCH  15  16
ENDBRANCH  13  15
ENDBRANCH  10  11
ENDBRANCH   9  10
ENDBRANCH   8   9
ENDBRANCH   7   8
ENDBRANCH   6   7
ENDBRANCH   5   6
ENDBRANCH   4   5
ENDBRANCH   3   4
ENDBRANCH   2   3
TORSDOF 14
ENDMDL
MODEL       23
REMARK 921   NORMALIZED FREE ENERGY PREDICTED BY IDOCK:   -4.74 KCAL/MOL
REMARK 922        TOTAL FREE ENERGY PREDICTED BY IDOCK:   -9.54 KCAL/MOL
REMARK 923 INTER-LIGAND FREE ENERGY PREDICTED BY IDOCK:   -8.86 KCAL/MOL
REMARK 924 INTRA-LIGAND FREE ENERGY PREDICTED BY IDOCK:   -0.68 KCAL/MOL
REMARK 927      BINDING AFFINITY PREDICTED BY RF-SCORE:    0.00 PKD
ROOT
HETATM    1  C   UNK     1      -8.839   8.490  71.118  1.00  0.00    -0.179 C  
HETATM    2  O   UNK     1     -10.202   8.265  71.448  1.00  0.00    -0.191 OA 
ENDROOT
BRANCH   2   3
HETATM    3  C   UNK     1     -11.046   9.283  70.909  1.00  0.00    -0.306 C  
BRANCH   3   4
HETATM    4  C   UNK     1     -12.482   9.027  71.350  1.00  0.00    -0.317 C  
BRANCH   4   5
HETATM    5  O   UNK     1     -13.273  10.182  71.081  1.00  0.00    -0.380 OA 
BRANCH   5   6
HETATM    6  C   UNK     1     -13.065  11.198  72.059  1.00  0.00    -0.328 C  
BRANCH   6   7
HETATM    7  C   UNK     1     -12.859  12.534  71.357  1.00  0.00    -0.359 C  
BRANCH   7   8
HETATM    8  C   UNK     1     -13.549  13.690  72.088  1.00  0.00    -0.632 C  
BRANCH   8   9
HETATM    9  C   UNK     1     -13.587  14.936  71.208  1.00  0.00    -0.504 C  
BRANCH   9  10
HETATM   10  C   UNK     1     -12.345  15.807  71.382  1.00  0.00    -0.505 C  
BRANCH  10  11
HETATM   11  C   UNK     1     -11.569  15.911  70.081  1.00  0.00    -0.351 C  
HETATM   12  O   UNK     1     -11.581  15.045  69.213  1.00  0.00    -0.281 OA 
HETATM   13  N   UNK     1     -10.845  17.077  69.970  1.00  0.00    -0.271 N  
HETATM   14  H   UNK     1     -10.842  17.741  70.745  1.00  0.00     0.000 HD 
BRANCH  13  15
HETATM   15  C   UNK     1     -10.088  17.375  68.771  1.00  0.00    -0.346 C  
BRANCH  15  16
HETATM   16  C   UNK     1     -10.967  17.891  67.629  1.00  0.00    -0.104 C  
BRANCH  16  17
HETATM   17  C   UNK     1     -10.434  17.444  66.268  1.00  0.00    -0.276 C  
BRANCH  17  18
HETATM   18  C   UNK     1     -10.344  15.917  66.144  1.00  0.00    -0.341 C  
BRANCH  18  19
HETATM   19  C   UNK     1     -10.784  15.387  64.771  1.00  0.00    -0.314 C  
HETATM   20  N   UNK     1     -11.639  16.381  64.057  1.00  0.00    -1.542 NA 
HETATM   21  C   UNK     1     -11.583  14.084  64.929  1.00  0.00    -0.367 C  
HETATM   22  O   UNK     1     -11.105  12.982  65.122  1.00  0.00    -0.285 OA 
HETATM   23  O   UNK     1     -12.924  14.324  64.875  1.00  0.00    -0.682 OA 
HETATM   24  H1  UNK     1     -11.930  16.030  63.146  1.00  0.00     0.000 HD 
HETATM   25  H2  UNK     1     -11.174  17.286  63.979  1.00  0.00     0.000 HD 
ENDBRANCH  18  19
ENDBRANCH  17  18
ENDBRANCH  16  17
ENDBRANCH  15  16
ENDBRANCH  13  15
ENDBRANCH  10  11
ENDBRANCH   9  10
ENDBRANCH   8   9
ENDBRANCH   7   8
ENDBRANCH   6   7
ENDBRANCH   5   6
ENDBRANCH   4   5
ENDBRANCH   3   4
ENDBRANCH   2   3
TORSDOF 14
ENDMDL
MODEL       24
REMARK 921   NORMALIZED FREE ENERGY PREDICTED BY IDOCK:   -4.73 KCAL/MOL
REMARK 922        TOTAL FREE ENERGY PREDICTED BY IDOCK:   -9.53 KCAL/MOL
REMARK 923 INTER-LIGAND FREE ENERGY PREDICTED BY IDOCK:   -8.72 KCAL/MOL
REMARK 924 INTRA-LIGAND FREE ENERGY PREDICTED BY IDOCK:   -0.81 KCAL/MOL
REMARK 927      BINDING AFFINITY PREDICTED BY RF-SCORE:    0.00 PKD
ROOT
HETATM    1  C   UNK     1     -10.230   4.542  66.041  1.00  0.00    -0.260 C  
HETATM    2  O   UNK     1      -9.891   5.919  66.114  1.00  0.00    -0.118 OA 
ENDROOT
BRANCH   2   3
HETATM    3  C   UNK     1     -10.905   6.673  66.778  1.00  0.00    -0.252 C  
BRANCH   3   4
HETATM    4  C   UNK     1     -10.267   7.503  67.885  1.00  0.00    -0.194 C  
BRANCH   4   5
HETATM    5  O   UNK     1     -11.134   7.531  69.016  1.00  0.00    -0.038 OA 
BRANCH   5   6
HETATM    6  C   UNK     1     -11.256   6.242  69.613  1.00  0.00    -0.437 C  
BRANCH   6   7
HETATM    7  C   UNK     1     -11.354   6.399  71.125  1.00  0.00    -0.376 C  
BRANCH   7   8
HETATM    8  C   UNK     1     -12.623   7.146  71.552  1.00  0.00    -0.427 C  
BRANCH   8   9
HETATM    9  C   UNK     1     -12.267   8.477  72.208  1.00  0.00    -0.454 C  
BRANCH   9  10
HETATM   10  C   UNK     1     -13.380   9.512  72.061  1.00  0.00    -0.535 C  
BRANCH  10  11
HETATM   11  C   UNK     1     -12.893  10.728  71.294  1.00  0.00    -0.438 C  
HETATM   12  O   UNK     1     -12.924  11.870  71.741  1.00  0.00    -0.414 OA 
HETATM   13  N   UNK     1     -12.412  10.426  70.040  1.00  0.00    -0.529 N  
HETATM   14  H   UNK     1     -12.451   9.462  69.707  1.00  0.00     0.000 HD 
BRANCH  13  15
HETATM   15  C   UNK     1     -11.853  11.454  69.185  1.00  0.00    -0.345 C  
BRANCH  15  16
HETATM   16  C   UNK     1     -11.327  10.899  67.859  1.00  0.00    -0.380 C  
BRANCH  16  17
HETATM   17  C   UNK     1     -11.199  11.998  66.805  1.00  0.00    -0.376 C  
BRANCH  17  18
HETATM   18  C   UNK     1     -10.620  11.479  65.481  1.00  0.00    -0.334 C  
BRANCH  18  19
HETATM   19  C   UNK     1     -10.861  12.424  64.294  1.00  0.00    -0.355 C  
HETATM   20  N   UNK     1     -10.174  13.733  64.498  1.00  0.00    -0.675 NA 
HETATM   21  C   UNK     1     -12.365  12.686  64.115  1.00  0.00    -0.436 C  
HETATM   22  O   UNK     1     -13.154  11.930  63.581  1.00  0.00    -0.696 OA 
HETATM   23  O   UNK     1     -12.723  13.874  64.680  1.00  0.00    -0.648 OA 
HETATM   24  H1  UNK     1     -10.334  14.360  63.710  1.00  0.00     0.000 HD 
HETATM   25  H2  UNK     1      -9.178  13.608  64.682  1.00  0.00     0.000 HD 
ENDBRANCH  18  19
ENDBRANCH  17  18
ENDBRANCH  16  17
ENDBRANCH  15  16
ENDBRANCH  13  15
ENDBRANCH  10  11
ENDBRANCH   9  10
ENDBRANCH   8   9
ENDBRANCH   7   8
ENDBRANCH   6   7
ENDBRANCH   5   6
ENDBRANCH   4   5
ENDBRANCH   3   4
ENDBRANCH   2   3
TORSDOF 14
ENDMDL
MODEL       25
REMARK 921   NORMALIZED FREE ENERGY PREDICTED BY IDOCK:   -4.72 KCAL/MOL
REMARK 922        TOTAL FREE ENERGY PREDICTED BY IDOCK:   -9.52 KCAL/MOL
REMARK 923 INTER-LIGAND FREE ENERGY PREDICTED BY IDOCK:   -8.99 KCAL/MOL
REMARK 924 INTRA-LIGAND FREE ENERGY PREDICTED BY IDOCK:   -0.53 KCAL/MOL
REMARK 927      BINDING AFFINITY PREDICTED BY RF-SCORE:    0.00 PKD
ROOT
HETATM    1  C   UNK     1     -13.234   7.205  71.234  1.00  0.00    -0.272 C  
HETATM    2  O   UNK     1     -12.488   8.248  71.845  1.00  0.00    -0.306 OA 
ENDROOT
BRANCH   2   3
HETATM    3  C   UNK     1     -13.339   9.297  72.308  1.00  0.00    -0.477 C  
BRANCH   3   4
HETATM    4  C   UNK     1     -13.103  10.542  71.461  1.00  0.00    -0.430 C  
BRANCH   4   5
HETATM    5  O   UNK     1     -13.409  11.702  72.231  1.00  0.00    -0.443 OA 
BRANCH   5   6
HETATM    6  C   UNK     1     -13.283  12.893  71.456  1.00  0.00    -0.257 C  
BRANCH   6   7
HETATM    7  C   UNK     1     -13.388  14.101  72.377  1.00  0.00    -0.591 C  
BRANCH   7   8
HETATM    8  C   UNK     1     -13.401  15.424  71.602  1.00  0.00    -0.578 C  
BRANCH   8   9
HETATM    9  C   UNK     1     -12.604  15.295  70.307  1.00  0.00    -0.388 C  
BRANCH   9  10
HETATM   10  C   UNK     1     -11.149  15.726  70.475  1.00  0.00    -0.383 C  
BRANCH  10  11
HETATM   11  C   UNK     1     -10.613  16.340  69.195  1.00  0.00    -0.292 C  
HETATM   12  O   UNK     1      -9.749  17.211  69.171  1.00  0.00    -0.238 OA 
HETATM   13  N   UNK     1     -11.193  15.825  68.058  1.00  0.00    -0.349 N  
HETATM   14  H   UNK     1     -11.936  15.132  68.144  1.00  0.00     0.000 HD 
BRANCH  13  15
HETATM   15  C   UNK     1     -10.765  16.253  66.741  1.00  0.00    -0.204 C  
BRANCH  15  16
HETATM   16  C   UNK     1      -9.535  15.489  66.243  1.00  0.00    -0.356 C  
BRANCH  16  17
HETATM   17  C   UNK     1      -9.823  13.995  66.104  1.00  0.00    -0.319 C  
BRANCH  17  18
HETATM   18  C   UNK     1     -10.115  13.584  64.654  1.00  0.00    -0.246 C  
BRANCH  18  19
HETATM   19  C   UNK     1     -11.517  12.988  64.458  1.00  0.00    -0.347 C  
HETATM   20  N   UNK     1     -12.305  13.777  63.466  1.00  0.00    -1.032 NA 
HETATM   21  C   UNK     1     -12.286  12.973  65.789  1.00  0.00    -0.453 C  
HETATM   22  O   UNK     1     -12.141  12.156  66.678  1.00  0.00    -0.622 OA 
HETATM   23  O   UNK     1     -13.133  14.037  65.873  1.00  0.00    -0.411 OA 
HETATM   24  H1  UNK     1     -13.236  13.382  63.335  1.00  0.00     0.000 HD 
HETATM   25  H2  UNK     1     -11.808  13.867  62.579  1.00  0.00     0.000 HD 
ENDBRANCH  18  19
ENDBRANCH  17  18
ENDBRANCH  16  17
ENDBRANCH  15  16
ENDBRANCH  13  15
ENDBRANCH  10  11
ENDBRANCH   9  10
ENDBRANCH   8   9
ENDBRANCH   7   8
ENDBRANCH   6   7
ENDBRANCH   5   6
ENDBRANCH   4   5
ENDBRANCH   3   4
ENDBRANCH   2   3
TORSDOF 14
ENDMDL
MODEL       26
REMARK 921   NORMALIZED FREE ENERGY PREDICTED BY IDOCK:   -4.72 KCAL/MOL
REMARK 922        TOTAL FREE ENERGY PREDICTED BY IDOCK:   -9.50 KCAL/MOL
REMARK 923 INTER-LIGAND FREE ENERGY PREDICTED BY IDOCK:   -8.41 KCAL/MOL
REMARK 924 INTRA-LIGAND FREE ENERGY PREDICTED BY IDOCK:   -1.10 KCAL/MOL
REMARK 927      BINDING AFFINITY PREDICTED BY RF-SCORE:    0.00 PKD
ROOT
HETATM    1  C   UNK     1     -12.388  12.248  63.656  1.00  0.00    -0.562 C  
HETATM    2  O   UNK     1     -12.508  13.545  64.223  1.00  0.00    -0.602 OA 
ENDROOT
BRANCH   2   3
HETATM    3  C   UNK     1     -12.411  13.503  65.647  1.00  0.00    -0.476 C  
BRANCH   3   4
HETATM    4  C   UNK     1     -11.360  12.474  66.046  1.00  0.00    -0.344 C  
BRANCH   4   5
HETATM    5  O   UNK     1     -11.751  11.846  67.264  1.00  0.00    -0.518 OA 
BRANCH   5   6
HETATM    6  C   UNK     1     -10.677  11.105  67.840  1.00  0.00    -0.216 C  
BRANCH   6   7
HETATM    7  C   UNK     1     -11.211  10.268  68.995  1.00  0.00    -0.260 C  
BRANCH   7   8
HETATM    8  C   UNK     1     -12.491  10.857  69.598  1.00  0.00    -0.198 C  
BRANCH   8   9
HETATM    9  C   UNK     1     -12.231  11.375  71.010  1.00  0.00    -0.391 C  
BRANCH   9  10
HETATM   10  C   UNK     1     -13.080  12.598  71.345  1.00  0.00    -0.308 C  
BRANCH  10  11
HETATM   11  C   UNK     1     -12.402  13.874  70.880  1.00  0.00    -0.377 C  
HETATM   12  O   UNK     1     -11.933  14.711  71.644  1.00  0.00    -0.344 OA 
HETATM   13  N   UNK     1     -12.365  14.004  69.510  1.00  0.00    -0.426 N  
HETATM   14  H   UNK     1     -12.810  13.294  68.927  1.00  0.00     0.000 HD 
BRANCH  13  15
HETATM   15  C   UNK     1     -11.706  15.132  68.883  1.00  0.00    -0.333 C  
BRANCH  15  16
HETATM   16  C   UNK     1     -10.225  14.871  68.602  1.00  0.00    -0.236 C  
BRANCH  16  17
HETATM   17  C   UNK     1      -9.439  16.176  68.486  1.00  0.00    -0.216 C  
BRANCH  17  18
HETATM   18  C   UNK     1     -10.343  17.415  68.559  1.00  0.00    -0.378 C  
BRANCH  18  19
HETATM   19  C   UNK     1      -9.608  18.728  68.246  1.00  0.00    -0.353 C  
HETATM   20  N   UNK     1     -10.310  19.897  68.853  1.00  0.00    -0.586 NA 
HETATM   21  C   UNK     1      -9.523  18.946  66.727  1.00  0.00    -0.326 C  
HETATM   22  O   UNK     1      -8.729  18.407  65.981  1.00  0.00    -0.499 OA 
HETATM   23  O   UNK     1     -10.497  19.800  66.303  1.00  0.00    -0.461 OA 
HETATM   24  H1  UNK     1      -9.823  20.768  68.646  1.00  0.00     0.000 HD 
HETATM   25  H2  UNK     1     -10.445  19.773  69.857  1.00  0.00     0.000 HD 
ENDBRANCH  18  19
ENDBRANCH  17  18
ENDBRANCH  16  17
ENDBRANCH  15  16
ENDBRANCH  13  15
ENDBRANCH  10  11
ENDBRANCH   9  10
ENDBRANCH   8   9
ENDBRANCH   7   8
ENDBRANCH   6   7
ENDBRANCH   5   6
ENDBRANCH   4   5
ENDBRANCH   3   4
ENDBRANCH   2   3
TORSDOF 14
ENDMDL
MODEL       27
REMARK 921   NORMALIZED FREE ENERGY PREDICTED BY IDOCK:   -4.71 KCAL/MOL
REMARK 922        TOTAL FREE ENERGY PREDICTED BY IDOCK:   -9.49 KCAL/MOL
REMARK 923 INTER-LIGAND FREE ENERGY PREDICTED BY IDOCK:   -8.74 KCAL/MOL
REMARK 924 INTRA-LIGAND FREE ENERGY PREDICTED BY IDOCK:   -0.76 KCAL/MOL
REMARK 927      BINDING AFFINITY PREDICTED BY RF-SCORE:    0.00 PKD
ROOT
HETATM    1  C   UNK     1     -10.775   5.864  68.580  1.00  0.00    -0.255 C  
HETATM    2  O   UNK     1     -11.490   6.265  69.739  1.00  0.00    -0.430 OA 
ENDROOT
BRANCH   2   3
HETATM    3  C   UNK     1     -10.616   6.456  70.852  1.00  0.00    -0.236 C  
BRANCH   3   4
HETATM    4  C   UNK     1     -11.370   7.179  71.961  1.00  0.00    -0.258 C  
BRANCH   4   5
HETATM    5  O   UNK     1     -12.619   7.646  71.457  1.00  0.00    -0.322 OA 
BRANCH   5   6
HETATM    6  C   UNK     1     -12.993   8.886  72.053  1.00  0.00    -0.399 C  
BRANCH   6   7
HETATM    7  C   UNK     1     -12.171  10.007  71.431  1.00  0.00    -0.510 C  
BRANCH   7   8
HETATM    8  C   UNK     1     -13.029  10.964  70.596  1.00  0.00    -0.266 C  
BRANCH   8   9
HETATM    9  C   UNK     1     -12.267  12.255  70.308  1.00  0.00    -0.342 C  
BRANCH   9  10
HETATM   10  C   UNK     1     -12.679  13.393  71.239  1.00  0.00    -0.424 C  
BRANCH  10  11
HETATM   11  C   UNK     1     -12.337  14.741  70.633  1.00  0.00    -0.337 C  
HETATM   12  O   UNK     1     -12.208  15.768  71.292  1.00  0.00    -0.380 OA 
HETATM   13  N   UNK     1     -12.189  14.703  69.265  1.00  0.00    -0.533 N  
HETATM   14  H   UNK     1     -12.351  13.827  68.767  1.00  0.00     0.000 HD 
BRANCH  13  15
HETATM   15  C   UNK     1     -11.806  15.887  68.520  1.00  0.00    -0.188 C  
BRANCH  15  16
HETATM   16  C   UNK     1     -10.444  15.741  67.837  1.00  0.00    -0.270 C  
BRANCH  16  17
HETATM   17  C   UNK     1     -10.555  15.927  66.324  1.00  0.00    -0.301 C  
BRANCH  17  18
HETATM   18  C   UNK     1     -10.248  14.637  65.550  1.00  0.00    -0.395 C  
BRANCH  18  19
HETATM   19  C   UNK     1     -11.332  14.264  64.527  1.00  0.00    -0.334 C  
HETATM   20  N   UNK     1     -12.054  15.476  64.040  1.00  0.00    -0.931 NA 
HETATM   21  C   UNK     1     -12.357  13.307  65.157  1.00  0.00    -0.466 C  
HETATM   22  O   UNK     1     -12.199  12.112  65.319  1.00  0.00    -0.484 OA 
HETATM   23  O   UNK     1     -13.468  13.983  65.563  1.00  0.00    -0.677 OA 
HETATM   24  H1  UNK     1     -12.773  15.229  63.361  1.00  0.00     0.000 HD 
HETATM   25  H2  UNK     1     -11.408  16.171  63.665  1.00  0.00     0.000 HD 
ENDBRANCH  18  19
ENDBRANCH  17  18
ENDBRANCH  16  17
ENDBRANCH  15  16
ENDBRANCH  13  15
ENDBRANCH  10  11
ENDBRANCH   9  10
ENDBRANCH   8   9
ENDBRANCH   7   8
ENDBRANCH   6   7
ENDBRANCH   5   6
ENDBRANCH   4   5
ENDBRANCH   3   4
ENDBRANCH   2   3
TORSDOF 14
ENDMDL
MODEL       28
REMARK 921   NORMALIZED FREE ENERGY PREDICTED BY IDOCK:   -4.71 KCAL/MOL
REMARK 922        TOTAL FREE ENERGY PREDICTED BY IDOCK:   -9.49 KCAL/MOL
REMARK 923 INTER-LIGAND FREE ENERGY PREDICTED BY IDOCK:   -8.56 KCAL/MOL
REMARK 924 INTRA-LIGAND FREE ENERGY PREDICTED BY IDOCK:   -0.93 KCAL/MOL
REMARK 927      BINDING AFFINITY PREDICTED BY RF-SCORE:    0.00 PKD
ROOT
HETATM    1  C   UNK     1     -12.691  13.786  65.330  1.00  0.00    -0.472 C  
HETATM    2  O   UNK     1     -13.102  12.576  64.709  1.00  0.00    -0.853 OA 
ENDROOT
BRANCH   2   3
HETATM    3  C   UNK     1     -12.504  12.421  63.421  1.00  0.00    -0.446 C  
BRANCH   3   4
HETATM    4  C   UNK     1     -10.999  12.249  63.587  1.00  0.00    -0.471 C  
BRANCH   4   5
HETATM    5  O   UNK     1     -10.718  10.914  64.000  1.00  0.00    -0.353 OA 
BRANCH   5   6
HETATM    6  C   UNK     1      -9.964  10.888  65.210  1.00  0.00    -0.273 C  
BRANCH   6   7
HETATM    7  C   UNK     1      -9.504   9.462  65.481  1.00  0.00    -0.328 C  
BRANCH   7   8
HETATM    8  C   UNK     1      -9.937   8.963  66.864  1.00  0.00    -0.315 C  
BRANCH   8   9
HETATM    9  C   UNK     1      -9.394   9.878  67.958  1.00  0.00    -0.140 C  
BRANCH   9  10
HETATM   10  C   UNK     1     -10.447  10.211  69.012  1.00  0.00    -0.239 C  
BRANCH  10  11
HETATM   11  C   UNK     1     -11.206  11.472  68.641  1.00  0.00    -0.248 C  
HETATM   12  O   UNK     1     -12.147  11.492  67.855  1.00  0.00    -0.630 OA 
HETATM   13  N   UNK     1     -10.733  12.599  69.274  1.00  0.00    -0.442 N  
HETATM   14  H   UNK     1      -9.919  12.527  69.886  1.00  0.00     0.000 HD 
BRANCH  13  15
HETATM   15  C   UNK     1     -11.371  13.887  69.085  1.00  0.00    -0.286 C  
BRANCH  15  16
HETATM   16  C   UNK     1     -10.493  14.875  68.313  1.00  0.00    -0.239 C  
BRANCH  16  17
HETATM   17  C   UNK     1     -11.143  16.255  68.232  1.00  0.00    -0.346 C  
BRANCH  17  18
HETATM   18  C   UNK     1     -10.110  17.390  68.177  1.00  0.00    -0.328 C  
BRANCH  18  19
HETATM   19  C   UNK     1     -10.272  18.307  66.955  1.00  0.00    -0.375 C  
HETATM   20  N   UNK     1     -10.364  17.514  65.693  1.00  0.00    -0.633 NA 
HETATM   21  C   UNK     1      -9.077  19.266  66.841  1.00  0.00    -0.316 C  
HETATM   22  O   UNK     1      -8.922  20.281  67.494  1.00  0.00    -0.339 OA 
HETATM   23  O   UNK     1      -8.168  18.806  65.935  1.00  0.00    -0.488 OA 
HETATM   24  H1  UNK     1     -10.472  18.123  64.882  1.00  0.00     0.000 HD 
HETATM   25  H2  UNK     1     -11.108  16.818  65.742  1.00  0.00     0.000 HD 
ENDBRANCH  18  19
ENDBRANCH  17  18
ENDBRANCH  16  17
ENDBRANCH  15  16
ENDBRANCH  13  15
ENDBRANCH  10  11
ENDBRANCH   9  10
ENDBRANCH   8   9
ENDBRANCH   7   8
ENDBRANCH   6   7
ENDBRANCH   5   6
ENDBRANCH   4   5
ENDBRANCH   3   4
ENDBRANCH   2   3
TORSDOF 14
ENDMDL
MODEL       29
REMARK 921   NORMALIZED FREE ENERGY PREDICTED BY IDOCK:   -4.70 KCAL/MOL
REMARK 922        TOTAL FREE ENERGY PREDICTED BY IDOCK:   -9.48 KCAL/MOL
REMARK 923 INTER-LIGAND FREE ENERGY PREDICTED BY IDOCK:   -8.53 KCAL/MOL
REMARK 924 INTRA-LIGAND FREE ENERGY PREDICTED BY IDOCK:   -0.95 KCAL/MOL
REMARK 927      BINDING AFFINITY PREDICTED BY RF-SCORE:    0.00 PKD
ROOT
HETATM    1  C   UNK     1     -13.549  15.704  71.781  1.00  0.00    -0.418 C  
HETATM    2  O   UNK     1     -12.999  15.516  70.485  1.00  0.00    -0.427 OA 
ENDROOT
BRANCH   2   3
HETATM    3  C   UNK     1     -12.529  14.180  70.305  1.00  0.00    -0.353 C  
BRANCH   3   4
HETATM    4  C   UNK     1     -12.940  13.340  71.509  1.00  0.00    -0.337 C  
BRANCH   4   5
HETATM    5  O   UNK     1     -12.550  11.985  71.296  1.00  0.00    -0.347 OA 
BRANCH   5   6
HETATM    6  C   UNK     1     -11.965  11.805  70.008  1.00  0.00    -0.344 C  
BRANCH   6   7
HETATM    7  C   UNK     1     -11.184  10.497  69.993  1.00  0.00    -0.386 C  
BRANCH   7   8
HETATM    8  C   UNK     1      -9.922  10.583  69.127  1.00  0.00    -0.236 C  
BRANCH   8   9
HETATM    9  C   UNK     1     -10.257  10.317  67.662  1.00  0.00    -0.247 C  
BRANCH   9  10
HETATM   10  C   UNK     1      -9.109   9.638  66.919  1.00  0.00    -0.160 C  
BRANCH  10  11
HETATM   11  C   UNK     1      -8.992  10.167  65.501  1.00  0.00    -0.172 C  
HETATM   12  O   UNK     1      -7.928  10.258  64.896  1.00  0.00    -0.151 OA 
HETATM   13  N   UNK     1     -10.200  10.540  64.956  1.00  0.00    -0.317 N  
HETATM   14  H   UNK     1     -11.046  10.480  65.523  1.00  0.00     0.000 HD 
BRANCH  13  15
HETATM   15  C   UNK     1     -10.289  11.016  63.589  1.00  0.00    -0.352 C  
BRANCH  15  16
HETATM   16  C   UNK     1     -11.373  12.080  63.404  1.00  0.00    -0.484 C  
BRANCH  16  17
HETATM   17  C   UNK     1     -11.541  12.932  64.662  1.00  0.00    -0.392 C  
BRANCH  17  18
HETATM   18  C   UNK     1     -10.598  14.143  64.683  1.00  0.00    -0.391 C  
BRANCH  18  19
HETATM   19  C   UNK     1     -11.279  15.441  65.142  1.00  0.00    -0.350 C  
HETATM   20  N   UNK     1     -11.397  16.416  64.018  1.00  0.00    -1.539 NA 
HETATM   21  C   UNK     1     -10.474  16.098  66.274  1.00  0.00    -0.315 C  
HETATM   22  O   UNK     1     -10.492  15.759  67.442  1.00  0.00    -0.283 OA 
HETATM   23  O   UNK     1      -9.683  17.098  65.792  1.00  0.00    -0.527 OA 
HETATM   24  H1  UNK     1     -11.849  17.277  64.323  1.00  0.00     0.000 HD 
HETATM   25  H2  UNK     1     -11.874  16.006  63.215  1.00  0.00     0.000 HD 
ENDBRANCH  18  19
ENDBRANCH  17  18
ENDBRANCH  16  17
ENDBRANCH  15  16
ENDBRANCH  13  15
ENDBRANCH  10  11
ENDBRANCH   9  10
ENDBRANCH   8   9
ENDBRANCH   7   8
ENDBRANCH   6   7
ENDBRANCH   5   6
ENDBRANCH   4   5
ENDBRANCH   3   4
ENDBRANCH   2   3
TORSDOF 14
ENDMDL
MODEL       30
REMARK 921   NORMALIZED FREE ENERGY PREDICTED BY IDOCK:   -4.70 KCAL/MOL
REMARK 922        TOTAL FREE ENERGY PREDICTED BY IDOCK:   -9.47 KCAL/MOL
REMARK 923 INTER-LIGAND FREE ENERGY PREDICTED BY IDOCK:   -8.30 KCAL/MOL
REMARK 924 INTRA-LIGAND FREE ENERGY PREDICTED BY IDOCK:   -1.17 KCAL/MOL
REMARK 927      BINDING AFFINITY PREDICTED BY RF-SCORE:    0.00 PKD
ROOT
HETATM    1  C   UNK     1     -12.509  14.998  73.340  1.00  0.00    -0.484 C  
HETATM    2  O   UNK     1     -13.861  14.810  72.945  1.00  0.00    -0.503 OA 
ENDROOT
BRANCH   2   3
HETATM    3  C   UNK     1     -14.028  13.590  72.222  1.00  0.00    -0.539 C  
BRANCH   3   4
HETATM    4  C   UNK     1     -12.825  13.380  71.311  1.00  0.00    -0.323 C  
BRANCH   4   5
HETATM    5  O   UNK     1     -12.674  11.989  71.038  1.00  0.00    -0.334 OA 
BRANCH   5   6
HETATM    6  C   UNK     1     -13.317  11.189  72.028  1.00  0.00    -0.278 C  
BRANCH   6   7
HETATM    7  C   UNK     1     -13.642   9.825  71.433  1.00  0.00    -0.322 C  
BRANCH   7   8
HETATM    8  C   UNK     1     -12.734   8.719  71.982  1.00  0.00    -0.444 C  
BRANCH   8   9
HETATM    9  C   UNK     1     -11.736   8.268  70.919  1.00  0.00    -0.256 C  
BRANCH   9  10
HETATM   10  C   UNK     1     -10.356   8.889  71.118  1.00  0.00    -0.338 C  
BRANCH  10  11
HETATM   11  C   UNK     1      -9.948   9.706  69.906  1.00  0.00    -0.241 C  
HETATM   12  O   UNK     1      -8.799  10.081  69.695  1.00  0.00    -0.194 OA 
HETATM   13  N   UNK     1     -10.998   9.992  69.062  1.00  0.00    -0.280 N  
HETATM   14  H   UNK     1     -11.940   9.689  69.313  1.00  0.00     0.000 HD 
BRANCH  13  15
HETATM   15  C   UNK     1     -10.787  10.716  67.825  1.00  0.00    -0.286 C  
BRANCH  15  16
HETATM   16  C   UNK     1     -11.113  12.207  67.949  1.00  0.00    -0.295 C  
BRANCH  16  17
HETATM   17  C   UNK     1     -11.766  12.744  66.675  1.00  0.00    -0.459 C  
BRANCH  17  18
HETATM   18  C   UNK     1     -11.198  12.095  65.405  1.00  0.00    -0.381 C  
BRANCH  18  19
HETATM   19  C   UNK     1     -10.720  13.114  64.359  1.00  0.00    -0.407 C  
HETATM   20  N   UNK     1      -9.825  14.139  64.973  1.00  0.00    -0.566 NA 
HETATM   21  C   UNK     1     -11.920  13.833  63.723  1.00  0.00    -0.321 C  
HETATM   22  O   UNK     1     -12.633  13.377  62.849  1.00  0.00    -0.576 OA 
HETATM   23  O   UNK     1     -12.121  15.050  64.302  1.00  0.00    -0.471 OA 
HETATM   24  H1  UNK     1      -9.507  14.815  64.279  1.00  0.00     0.000 HD 
HETATM   25  H2  UNK     1      -9.041  13.707  65.462  1.00  0.00     0.000 HD 
ENDBRANCH  18  19
ENDBRANCH  17  18
ENDBRANCH  16  17
ENDBRANCH  15  16
ENDBRANCH  13  15
ENDBRANCH  10  11
ENDBRANCH   9  10
ENDBRANCH   8   9
ENDBRANCH   7   8
ENDBRANCH   6   7
ENDBRANCH   5   6
ENDBRANCH   4   5
ENDBRANCH   3   4
ENDBRANCH   2   3
TORSDOF 14
ENDMDL
MODEL       31
REMARK 921   NORMALIZED FREE ENERGY PREDICTED BY IDOCK:   -4.69 KCAL/MOL
REMARK 922        TOTAL FREE ENERGY PREDICTED BY IDOCK:   -9.46 KCAL/MOL
REMARK 923 INTER-LIGAND FREE ENERGY PREDICTED BY IDOCK:   -8.68 KCAL/MOL
REMARK 924 INTRA-LIGAND FREE ENERGY PREDICTED BY IDOCK:   -0.79 KCAL/MOL
REMARK 927      BINDING AFFINITY PREDICTED BY RF-SCORE:    0.00 PKD
ROOT
HETATM    1  C   UNK     1      -9.655   5.751  66.345  1.00  0.00    -0.153 C  
HETATM    2  O   UNK     1     -10.320   6.723  67.139  1.00  0.00    -0.199 OA 
ENDROOT
BRANCH   2   3
HETATM    3  C   UNK     1      -9.948   6.617  68.514  1.00  0.00    -0.150 C  
BRANCH   3   4
HETATM    4  C   UNK     1     -11.167   6.207  69.331  1.00  0.00    -0.396 C  
BRANCH   4   5
HETATM    5  O   UNK     1     -11.273   7.047  70.478  1.00  0.00    -0.269 OA 
BRANCH   5   6
HETATM    6  C   UNK     1     -10.090   7.818  70.673  1.00  0.00    -0.191 C  
BRANCH   6   7
HETATM    7  C   UNK     1     -10.446   9.098  71.418  1.00  0.00    -0.414 C  
BRANCH   7   8
HETATM    8  C   UNK     1     -11.959   9.277  71.578  1.00  0.00    -0.439 C  
BRANCH   8   9
HETATM    9  C   UNK     1     -12.397  10.643  71.055  1.00  0.00    -0.507 C  
BRANCH   9  10
HETATM   10  C   UNK     1     -13.325  11.366  72.027  1.00  0.00    -0.388 C  
BRANCH  10  11
HETATM   11  C   UNK     1     -13.227  12.871  71.855  1.00  0.00    -0.423 C  
HETATM   12  O   UNK     1     -13.931  13.671  72.462  1.00  0.00    -0.681 OA 
HETATM   13  N   UNK     1     -12.267  13.254  70.946  1.00  0.00    -0.455 N  
HETATM   14  H   UNK     1     -11.741  12.540  70.441  1.00  0.00     0.000 HD 
BRANCH  13  15
HETATM   15  C   UNK     1     -11.992  14.655  70.694  1.00  0.00    -0.315 C  
BRANCH  15  16
HETATM   16  C   UNK     1     -11.505  14.914  69.266  1.00  0.00    -0.324 C  
BRANCH  16  17
HETATM   17  C   UNK     1     -12.035  13.860  68.294  1.00  0.00    -0.392 C  
BRANCH  17  18
HETATM   18  C   UNK     1     -12.023  14.345  66.837  1.00  0.00    -0.425 C  
BRANCH  18  19
HETATM   19  C   UNK     1     -12.417  13.257  65.827  1.00  0.00    -0.417 C  
HETATM   20  N   UNK     1     -11.809  11.941  66.187  1.00  0.00    -0.508 NA 
HETATM   21  C   UNK     1     -11.946  13.640  64.415  1.00  0.00    -0.437 C  
HETATM   22  O   UNK     1     -12.504  14.428  63.676  1.00  0.00    -0.805 OA 
HETATM   23  O   UNK     1     -10.778  13.012  64.104  1.00  0.00    -0.389 OA 
HETATM   24  H1  UNK     1     -12.071  11.219  65.517  1.00  0.00     0.000 HD 
HETATM   25  H2  UNK     1     -12.044  11.669  67.142  1.00  0.00     0.000 HD 
ENDBRANCH  18  19
ENDBRANCH  17  18
ENDBRANCH  16  17
ENDBRANCH  15  16
ENDBRANCH  13  15
ENDBRANCH  10  11
ENDBRANCH   9  10
ENDBRANCH   8   9
ENDBRANCH   7   8
ENDBRANCH   6   7
ENDBRANCH   5   6
ENDBRANCH   4   5
ENDBRANCH   3   4
ENDBRANCH   2   3
TORSDOF 14
ENDMDL
MODEL       32
REMARK 921   NORMALIZED FREE ENERGY PREDICTED BY IDOCK:   -4.69 KCAL/MOL
REMARK 922        TOTAL FREE ENERGY PREDICTED BY IDOCK:   -9.46 KCAL/MOL
REMARK 923 INTER-LIGAND FREE ENERGY PREDICTED BY IDOCK:   -8.41 KCAL/MOL
REMARK 924 INTRA-LIGAND FREE ENERGY PREDICTED BY IDOCK:   -1.04 KCAL/MOL
REMARK 927      BINDING AFFINITY PREDICTED BY RF-SCORE:    0.00 PKD
ROOT
HETATM    1  C   UNK     1     -10.287  11.013  63.945  1.00  0.00    -0.372 C  
HETATM    2  O   UNK     1     -10.082   9.945  64.858  1.00  0.00    -0.268 OA 
ENDROOT
BRANCH   2   3
HETATM    3  C   UNK     1      -9.520  10.409  66.086  1.00  0.00    -0.181 C  
BRANCH   3   4
HETATM    4  C   UNK     1     -10.647  10.780  67.042  1.00  0.00    -0.260 C  
BRANCH   4   5
HETATM    5  O   UNK     1     -10.586   9.940  68.193  1.00  0.00    -0.200 OA 
BRANCH   5   6
HETATM    6  C   UNK     1     -10.212  10.674  69.357  1.00  0.00    -0.192 C  
BRANCH   6   7
HETATM    7  C   UNK     1     -10.270   9.752  70.568  1.00  0.00    -0.321 C  
BRANCH   7   8
HETATM    8  C   UNK     1     -11.594   9.873  71.329  1.00  0.00    -0.456 C  
BRANCH   8   9
HETATM    9  C   UNK     1     -12.420  11.037  70.789  1.00  0.00    -0.491 C  
BRANCH   9  10
HETATM   10  C   UNK     1     -13.128  11.811  71.898  1.00  0.00    -0.482 C  
BRANCH  10  11
HETATM   11  C   UNK     1     -13.225  13.286  71.554  1.00  0.00    -0.299 C  
HETATM   12  O   UNK     1     -13.904  14.088  72.187  1.00  0.00    -0.444 OA 
HETATM   13  N   UNK     1     -12.476  13.640  70.454  1.00  0.00    -0.318 N  
HETATM   14  H   UNK     1     -11.964  12.921  69.943  1.00  0.00     0.000 HD 
BRANCH  13  15
HETATM   15  C   UNK     1     -12.402  15.019  70.012  1.00  0.00    -0.309 C  
BRANCH  15  16
HETATM   16  C   UNK     1     -11.304  15.248  68.970  1.00  0.00    -0.311 C  
BRANCH  16  17
HETATM   17  C   UNK     1     -11.294  14.140  67.917  1.00  0.00    -0.318 C  
BRANCH  17  18
HETATM   18  C   UNK     1     -11.951  14.576  66.599  1.00  0.00    -0.358 C  
BRANCH  18  19
HETATM   19  C   UNK     1     -10.967  14.655  65.422  1.00  0.00    -0.353 C  
HETATM   20  N   UNK     1      -9.643  14.069  65.784  1.00  0.00    -0.515 NA 
HETATM   21  C   UNK     1     -10.754  16.117  64.998  1.00  0.00    -0.337 C  
HETATM   22  O   UNK     1     -11.516  16.771  64.313  1.00  0.00    -1.125 OA 
HETATM   23  O   UNK     1      -9.605  16.616  65.534  1.00  0.00    -0.502 OA 
HETATM   24  H1  UNK     1      -8.991  14.121  65.003  1.00  0.00     0.000 HD 
HETATM   25  H2  UNK     1      -9.738  13.114  66.130  1.00  0.00     0.000 HD 
ENDBRANCH  18  19
ENDBRANCH  17  18
ENDBRANCH  16  17
ENDBRANCH  15  16
ENDBRANCH  13  15
ENDBRANCH  10  11
ENDBRANCH   9  10
ENDBRANCH   8   9
ENDBRANCH   7   8
ENDBRANCH   6   7
ENDBRANCH   5   6
ENDBRANCH   4   5
ENDBRANCH   3   4
ENDBRANCH   2   3
TORSDOF 14
ENDMDL
MODEL       33
REMARK 921   NORMALIZED FREE ENERGY PREDICTED BY IDOCK:   -4.68 KCAL/MOL
REMARK 922        TOTAL FREE ENERGY PREDICTED BY IDOCK:   -9.44 KCAL/MOL
REMARK 923 INTER-LIGAND FREE ENERGY PREDICTED BY IDOCK:   -8.06 KCAL/MOL
REMARK 924 INTRA-LIGAND FREE ENERGY PREDICTED BY IDOCK:   -1.38 KCAL/MOL
REMARK 927      BINDING AFFINITY PREDICTED BY RF-SCORE:    0.00 PKD
ROOT
HETATM    1  C   UNK     1      -8.988  15.048  66.747  1.00  0.00    -0.265 C  
HETATM    2  O   UNK     1      -9.925  14.134  66.195  1.00  0.00    -0.292 OA 
ENDROOT
BRANCH   2   3
HETATM    3  C   UNK     1     -11.265  14.601  66.352  1.00  0.00    -0.336 C  
BRANCH   3   4
HETATM    4  C   UNK     1     -12.231  13.496  65.941  1.00  0.00    -0.460 C  
BRANCH   4   5
HETATM    5  O   UNK     1     -12.936  13.896  64.768  1.00  0.00    -0.686 OA 
BRANCH   5   6
HETATM    6  C   UNK     1     -12.264  13.476  63.583  1.00  0.00    -0.375 C  
BRANCH   6   7
HETATM    7  C   UNK     1     -11.823  12.027  63.747  1.00  0.00    -0.581 C  
BRANCH   7   8
HETATM    8  C   UNK     1     -10.355  11.818  63.357  1.00  0.00    -0.481 C  
BRANCH   8   9
HETATM    9  C   UNK     1      -9.788  10.582  64.048  1.00  0.00    -0.387 C  
BRANCH   9  10
HETATM   10  C   UNK     1     -10.040  10.591  65.554  1.00  0.00    -0.349 C  
BRANCH  10  11
HETATM   11  C   UNK     1      -9.884   9.199  66.140  1.00  0.00    -0.293 C  
HETATM   12  O   UNK     1      -9.082   8.372  65.718  1.00  0.00    -0.185 OA 
HETATM   13  N   UNK     1     -10.735   8.952  67.193  1.00  0.00    -0.358 N  
HETATM   14  H   UNK     1     -11.409   9.666  67.471  1.00  0.00     0.000 HD 
BRANCH  13  15
HETATM   15  C   UNK     1     -10.688   7.695  67.914  1.00  0.00    -0.108 C  
BRANCH  15  16
HETATM   16  C   UNK     1     -10.640   7.885  69.432  1.00  0.00    -0.209 C  
BRANCH  16  17
HETATM   17  C   UNK     1     -10.172   9.292  69.804  1.00  0.00    -0.225 C  
BRANCH  17  18
HETATM   18  C   UNK     1     -11.096   9.966  70.830  1.00  0.00    -0.417 C  
BRANCH  18  19
HETATM   19  C   UNK     1     -12.299  10.679  70.194  1.00  0.00    -0.295 C  
HETATM   20  N   UNK     1     -12.007  11.080  68.787  1.00  0.00    -0.632 NA 
HETATM   21  C   UNK     1     -12.660  11.940  70.995  1.00  0.00    -0.283 C  
HETATM   22  O   UNK     1     -13.289  11.958  72.036  1.00  0.00    -0.487 OA 
HETATM   23  O   UNK     1     -12.137  13.054  70.410  1.00  0.00    -0.359 OA 
HETATM   24  H1  UNK     1     -12.806  11.553  68.365  1.00  0.00     0.000 HD 
HETATM   25  H2  UNK     1     -11.703  10.284  68.225  1.00  0.00     0.000 HD 
ENDBRANCH  18  19
ENDBRANCH  17  18
ENDBRANCH  16  17
ENDBRANCH  15  16
ENDBRANCH  13  15
ENDBRANCH  10  11
ENDBRANCH   9  10
ENDBRANCH   8   9
ENDBRANCH   7   8
ENDBRANCH   6   7
ENDBRANCH   5   6
ENDBRANCH   4   5
ENDBRANCH   3   4
ENDBRANCH   2   3
TORSDOF 14
ENDMDL
MODEL       34
REMARK 921   NORMALIZED FREE ENERGY PREDICTED BY IDOCK:   -4.67 KCAL/MOL
REMARK 922        TOTAL FREE ENERGY PREDICTED BY IDOCK:   -9.41 KCAL/MOL
REMARK 923 INTER-LIGAND FREE ENERGY PREDICTED BY IDOCK:   -8.38 KCAL/MOL
REMARK 924 INTRA-LIGAND FREE ENERGY PREDICTED BY IDOCK:   -1.03 KCAL/MOL
REMARK 927      BINDING AFFINITY PREDICTED BY RF-SCORE:    0.00 PKD
ROOT
HETATM    1  C   UNK     1     -10.166  19.065  68.213  1.00  0.00    -0.386 C  
HETATM    2  O   UNK     1     -10.450  19.976  67.161  1.00  0.00    -0.427 OA 
ENDROOT
BRANCH   2   3
HETATM    3  C   UNK     1     -10.624  19.298  65.916  1.00  0.00    -0.435 C  
BRANCH   3   4
HETATM    4  C   UNK     1     -10.244  17.832  66.089  1.00  0.00    -0.339 C  
BRANCH   4   5
HETATM    5  O   UNK     1     -10.855  17.061  65.057  1.00  0.00    -0.678 OA 
BRANCH   5   6
HETATM    6  C   UNK     1     -10.794  15.665  65.341  1.00  0.00    -0.381 C  
BRANCH   6   7
HETATM    7  C   UNK     1     -11.868  14.944  64.537  1.00  0.00    -0.404 C  
BRANCH   7   8
HETATM    8  C   UNK     1     -12.640  13.923  65.381  1.00  0.00    -0.538 C  
BRANCH   8   9
HETATM    9  C   UNK     1     -12.640  12.556  64.702  1.00  0.00    -0.507 C  
BRANCH   9  10
HETATM   10  C   UNK     1     -11.677  12.495  63.519  1.00  0.00    -0.595 C  
BRANCH  10  11
HETATM   11  C   UNK     1     -10.495  11.595  63.828  1.00  0.00    -0.402 C  
HETATM   12  O   UNK     1      -9.716  11.182  62.975  1.00  0.00    -0.324 OA 
HETATM   13  N   UNK     1     -10.380  11.283  65.163  1.00  0.00    -0.281 N  
HETATM   14  H   UNK     1     -11.084  11.622  65.820  1.00  0.00     0.000 HD 
BRANCH  13  15
HETATM   15  C   UNK     1      -9.277  10.479  65.652  1.00  0.00    -0.186 C  
BRANCH  15  16
HETATM   16  C   UNK     1      -9.693   9.043  65.983  1.00  0.00    -0.339 C  
BRANCH  16  17
HETATM   17  C   UNK     1     -10.219   8.930  67.414  1.00  0.00    -0.313 C  
BRANCH  17  18
HETATM   18  C   UNK     1      -9.562   9.942  68.363  1.00  0.00    -0.157 C  
BRANCH  18  19
HETATM   19  C   UNK     1     -10.563  10.652  69.287  1.00  0.00    -0.233 C  
HETATM   20  N   UNK     1     -11.758   9.797  69.548  1.00  0.00    -0.450 NA 
HETATM   21  C   UNK     1     -11.036  11.970  68.654  1.00  0.00    -0.250 C  
HETATM   22  O   UNK     1     -10.411  13.013  68.646  1.00  0.00    -0.241 OA 
HETATM   23  O   UNK     1     -12.246  11.812  68.047  1.00  0.00    -0.518 OA 
HETATM   24  H1  UNK     1     -12.422  10.268  70.162  1.00  0.00     0.000 HD 
HETATM   25  H2  UNK     1     -11.492   8.883  69.916  1.00  0.00     0.000 HD 
ENDBRANCH  18  19
ENDBRANCH  17  18
ENDBRANCH  16  17
ENDBRANCH  15  16
ENDBRANCH  13  15
ENDBRANCH  10  11
ENDBRANCH   9  10
ENDBRANCH   8   9
ENDBRANCH   7   8
ENDBRANCH   6   7
ENDBRANCH   5   6
ENDBRANCH   4   5
ENDBRANCH   3   4
ENDBRANCH   2   3
TORSDOF 14
ENDMDL
MODEL       35
REMARK 921   NORMALIZED FREE ENERGY PREDICTED BY IDOCK:   -4.66 KCAL/MOL
REMARK 922        TOTAL FREE ENERGY PREDICTED BY IDOCK:   -9.40 KCAL/MOL
REMARK 923 INTER-LIGAND FREE ENERGY PREDICTED BY IDOCK:   -7.83 KCAL/MOL
REMARK 924 INTRA-LIGAND FREE ENERGY PREDICTED BY IDOCK:   -1.57 KCAL/MOL
REMARK 927      BINDING AFFINITY PREDICTED BY RF-SCORE:    0.00 PKD
ROOT
HETATM    1  C   UNK     1      -8.648   7.201  67.501  1.00  0.00    -0.122 C  
HETATM    2  O   UNK     1      -9.987   7.206  67.975  1.00  0.00    -0.148 OA 
ENDROOT
BRANCH   2   3
HETATM    3  C   UNK     1     -10.260   6.062  68.784  1.00  0.00    -0.188 C  
BRANCH   3   4
HETATM    4  C   UNK     1     -11.479   6.344  69.653  1.00  0.00    -0.378 C  
BRANCH   4   5
HETATM    5  O   UNK     1     -11.167   6.056  71.014  1.00  0.00    -0.297 OA 
BRANCH   5   6
HETATM    6  C   UNK     1     -12.094   6.672  71.906  1.00  0.00    -0.340 C  
BRANCH   6   7
HETATM    7  C   UNK     1     -11.641   8.098  72.190  1.00  0.00    -0.417 C  
BRANCH   7   8
HETATM    8  C   UNK     1     -12.808   9.091  72.183  1.00  0.00    -0.478 C  
BRANCH   8   9
HETATM    9  C   UNK     1     -12.498  10.277  71.273  1.00  0.00    -0.514 C  
BRANCH   9  10
HETATM   10  C   UNK     1     -11.319  10.002  70.343  1.00  0.00    -0.392 C  
BRANCH  10  11
HETATM   11  C   UNK     1     -11.547  10.625  68.978  1.00  0.00    -0.261 C  
HETATM   12  O   UNK     1     -12.243  11.618  68.793  1.00  0.00    -0.416 OA 
HETATM   13  N   UNK     1     -10.896   9.964  67.961  1.00  0.00    -0.347 N  
HETATM   14  H   UNK     1     -10.365   9.118  68.172  1.00  0.00     0.000 HD 
BRANCH  13  15
HETATM   15  C   UNK     1     -10.953  10.449  66.596  1.00  0.00     0.003 C  
BRANCH  15  16
HETATM   16  C   UNK     1      -9.663  11.151  66.165  1.00  0.00    -0.253 C  
BRANCH  16  17
HETATM   17  C   UNK     1      -9.663  12.623  66.576  1.00  0.00    -0.256 C  
BRANCH  17  18
HETATM   18  C   UNK     1     -10.060  13.556  65.422  1.00  0.00    -0.279 C  
BRANCH  18  19
HETATM   19  C   UNK     1     -11.459  14.170  65.585  1.00  0.00    -0.325 C  
HETATM   20  N   UNK     1     -12.047  13.828  66.913  1.00  0.00    -0.421 NA 
HETATM   21  C   UNK     1     -12.403  13.653  64.487  1.00  0.00    -0.356 C  
HETATM   22  O   UNK     1     -12.437  14.055  63.340  1.00  0.00    -0.826 OA 
HETATM   23  O   UNK     1     -13.180  12.635  64.953  1.00  0.00    -0.819 OA 
HETATM   24  H1  UNK     1     -12.975  14.236  67.022  1.00  0.00     0.000 HD 
HETATM   25  H2  UNK     1     -11.427  14.098  67.678  1.00  0.00     0.000 HD 
ENDBRANCH  18  19
ENDBRANCH  17  18
ENDBRANCH  16  17
ENDBRANCH  15  16
ENDBRANCH  13  15
ENDBRANCH  10  11
ENDBRANCH   9  10
ENDBRANCH   8   9
ENDBRANCH   7   8
ENDBRANCH   6   7
ENDBRANCH   5   6
ENDBRANCH   4   5
ENDBRANCH   3   4
ENDBRANCH   2   3
TORSDOF 14
ENDMDL
MODEL       36
REMARK 921   NORMALIZED FREE ENERGY PREDICTED BY IDOCK:   -4.65 KCAL/MOL
REMARK 922        TOTAL FREE ENERGY PREDICTED BY IDOCK:   -9.40 KCAL/MOL
REMARK 923 INTER-LIGAND FREE ENERGY PREDICTED BY IDOCK:   -8.11 KCAL/MOL
REMARK 924 INTRA-LIGAND FREE ENERGY PREDICTED BY IDOCK:   -1.29 KCAL/MOL
REMARK 927      BINDING AFFINITY PREDICTED BY RF-SCORE:    0.00 PKD
ROOT
HETATM    1  C   UNK     1     -14.291  15.321  72.032  1.00  0.00    -0.589 C  
HETATM    2  O   UNK     1     -13.470  15.699  70.936  1.00  0.00    -0.569 OA 
ENDROOT
BRANCH   2   3
HETATM    3  C   UNK     1     -12.466  14.718  70.673  1.00  0.00    -0.345 C  
BRANCH   3   4
HETATM    4  C   UNK     1     -11.140  15.421  70.408  1.00  0.00    -0.328 C  
BRANCH   4   5
HETATM    5  O   UNK     1     -11.165  16.005  69.108  1.00  0.00    -0.298 OA 
BRANCH   5   6
HETATM    6  C   UNK     1      -9.899  16.558  68.757  1.00  0.00    -0.254 C  
BRANCH   6   7
HETATM    7  C   UNK     1     -10.025  17.292  67.429  1.00  0.00    -0.278 C  
BRANCH   7   8
HETATM    8  C   UNK     1      -9.057  16.751  66.371  1.00  0.00    -0.321 C  
BRANCH   8   9
HETATM    9  C   UNK     1      -9.573  15.437  65.792  1.00  0.00    -0.368 C  
BRANCH   9  10
HETATM   10  C   UNK     1     -11.020  15.541  65.317  1.00  0.00    -0.391 C  
BRANCH  10  11
HETATM   11  C   UNK     1     -11.865  14.422  65.898  1.00  0.00    -0.367 C  
HETATM   12  O   UNK     1     -12.945  14.073  65.432  1.00  0.00    -0.726 OA 
HETATM   13  N   UNK     1     -11.301  13.833  67.008  1.00  0.00    -0.314 N  
HETATM   14  H   UNK     1     -10.420  14.194  67.375  1.00  0.00     0.000 HD 
BRANCH  13  15
HETATM   15  C   UNK     1     -11.939  12.708  67.663  1.00  0.00    -0.247 C  
BRANCH  15  16
HETATM   16  C   UNK     1     -10.987  11.943  68.586  1.00  0.00    -0.271 C  
BRANCH  16  17
HETATM   17  C   UNK     1     -11.753  11.113  69.615  1.00  0.00    -0.410 C  
BRANCH  17  18
HETATM   18  C   UNK     1     -11.002   9.834  70.015  1.00  0.00    -0.319 C  
BRANCH  18  19
HETATM   19  C   UNK     1     -11.179   9.458  71.494  1.00  0.00    -0.386 C  
HETATM   20  N   UNK     1      -9.985   8.727  72.011  1.00  0.00    -0.329 NA 
HETATM   21  C   UNK     1     -12.415   8.563  71.676  1.00  0.00    -0.330 C  
HETATM   22  O   UNK     1     -13.567   8.950  71.710  1.00  0.00    -0.371 OA 
HETATM   23  O   UNK     1     -12.058   7.249  71.748  1.00  0.00    -0.292 OA 
HETATM   24  H1  UNK     1     -10.102   8.477  72.993  1.00  0.00     0.000 HD 
HETATM   25  H2  UNK     1      -9.126   9.256  71.859  1.00  0.00     0.000 HD 
ENDBRANCH  18  19
ENDBRANCH  17  18
ENDBRANCH  16  17
ENDBRANCH  15  16
ENDBRANCH  13  15
ENDBRANCH  10  11
ENDBRANCH   9  10
ENDBRANCH   8   9
ENDBRANCH   7   8
ENDBRANCH   6   7
ENDBRANCH   5   6
ENDBRANCH   4   5
ENDBRANCH   3   4
ENDBRANCH   2   3
TORSDOF 14
ENDMDL
MODEL       37
REMARK 921   NORMALIZED FREE ENERGY PREDICTED BY IDOCK:   -4.64 KCAL/MOL
REMARK 922        TOTAL FREE ENERGY PREDICTED BY IDOCK:   -9.38 KCAL/MOL
REMARK 923 INTER-LIGAND FREE ENERGY PREDICTED BY IDOCK:   -8.45 KCAL/MOL
REMARK 924 INTRA-LIGAND FREE ENERGY PREDICTED BY IDOCK:   -0.92 KCAL/MOL
REMARK 927      BINDING AFFINITY PREDICTED BY RF-SCORE:    0.00 PKD
ROOT
HETATM    1  C   UNK     1     -12.644  15.983  73.797  1.00  0.00    -0.610 C  
HETATM    2  O   UNK     1     -13.975  16.068  73.310  1.00  0.00    -0.449 OA 
ENDROOT
BRANCH   2   3
HETATM    3  C   UNK     1     -14.168  15.234  72.167  1.00  0.00    -0.571 C  
BRANCH   3   4
HETATM    4  C   UNK     1     -12.851  15.114  71.410  1.00  0.00    -0.385 C  
BRANCH   4   5
HETATM    5  O   UNK     1     -12.761  13.819  70.820  1.00  0.00    -0.322 OA 
BRANCH   5   6
HETATM    6  C   UNK     1     -13.179  12.801  71.726  1.00  0.00    -0.374 C  
BRANCH   6   7
HETATM    7  C   UNK     1     -12.884  11.437  71.115  1.00  0.00    -0.440 C  
BRANCH   7   8
HETATM    8  C   UNK     1     -13.269  10.285  72.049  1.00  0.00    -0.516 C  
BRANCH   8   9
HETATM    9  C   UNK     1     -12.676   8.969  71.553  1.00  0.00    -0.399 C  
BRANCH   9  10
HETATM   10  C   UNK     1     -11.407   8.583  72.308  1.00  0.00    -0.441 C  
BRANCH  10  11
HETATM   11  C   UNK     1     -10.170   8.893  71.485  1.00  0.00    -0.328 C  
HETATM   12  O   UNK     1      -9.047   9.013  71.966  1.00  0.00    -0.375 OA 
HETATM   13  N   UNK     1     -10.429   9.030  70.140  1.00  0.00    -0.204 N  
HETATM   14  H   UNK     1     -11.390   8.961  69.805  1.00  0.00     0.000 HD 
BRANCH  13  15
HETATM   15  C   UNK     1      -9.358   9.271  69.193  1.00  0.00    -0.157 C  
BRANCH  15  16
HETATM   16  C   UNK     1      -9.855   9.348  67.747  1.00  0.00    -0.207 C  
BRANCH  16  17
HETATM   17  C   UNK     1     -10.941  10.411  67.585  1.00  0.00    -0.374 C  
BRANCH  17  18
HETATM   18  C   UNK     1     -10.873  11.118  66.223  1.00  0.00    -0.266 C  
BRANCH  18  19
HETATM   19  C   UNK     1     -11.564  12.489  66.210  1.00  0.00    -0.394 C  
HETATM   20  N   UNK     1     -12.593  12.565  65.132  1.00  0.00    -0.650 NA 
HETATM   21  C   UNK     1     -10.535  13.607  65.981  1.00  0.00    -0.300 C  
HETATM   22  O   UNK     1      -9.793  14.068  66.827  1.00  0.00    -0.257 OA 
HETATM   23  O   UNK     1     -10.520  13.994  64.674  1.00  0.00    -0.434 OA 
HETATM   24  H1  UNK     1     -13.053  13.475  65.124  1.00  0.00     0.000 HD 
HETATM   25  H2  UNK     1     -13.269  11.805  65.205  1.00  0.00     0.000 HD 
ENDBRANCH  18  19
ENDBRANCH  17  18
ENDBRANCH  16  17
ENDBRANCH  15  16
ENDBRANCH  13  15
ENDBRANCH  10  11
ENDBRANCH   9  10
ENDBRANCH   8   9
ENDBRANCH   7   8
ENDBRANCH   6   7
ENDBRANCH   5   6
ENDBRANCH   4   5
ENDBRANCH   3   4
ENDBRANCH   2   3
TORSDOF 14
ENDMDL
MODEL       38
REMARK 921   NORMALIZED FREE ENERGY PREDICTED BY IDOCK:   -4.64 KCAL/MOL
REMARK 922        TOTAL FREE ENERGY PREDICTED BY IDOCK:   -9.36 KCAL/MOL
REMARK 923 INTER-LIGAND FREE ENERGY PREDICTED BY IDOCK:   -8.21 KCAL/MOL
REMARK 924 INTRA-LIGAND FREE ENERGY PREDICTED BY IDOCK:   -1.15 KCAL/MOL
REMARK 927      BINDING AFFINITY PREDICTED BY RF-SCORE:    0.00 PKD
ROOT
HETATM    1  C   UNK     1     -13.053  10.734  71.683  1.00  0.00    -0.446 C  
HETATM    2  O   UNK     1     -11.803  10.363  71.119  1.00  0.00    -0.356 OA 
ENDROOT
BRANCH   2   3
HETATM    3  C   UNK     1     -11.228   9.252  71.807  1.00  0.00    -0.343 C  
BRANCH   3   4
HETATM    4  C   UNK     1     -10.328   8.482  70.849  1.00  0.00    -0.199 C  
BRANCH   4   5
HETATM    5  O   UNK     1     -10.968   7.265  70.472  1.00  0.00    -0.247 OA 
BRANCH   5   6
HETATM    6  C   UNK     1     -10.200   6.546  69.510  1.00  0.00    -0.186 C  
BRANCH   6   7
HETATM    7  C   UNK     1     -10.916   6.591  68.166  1.00  0.00    -0.365 C  
BRANCH   7   8
HETATM    8  C   UNK     1     -10.077   7.278  67.083  1.00  0.00    -0.306 C  
BRANCH   8   9
HETATM    9  C   UNK     1     -10.660   8.646  66.740  1.00  0.00    -0.223 C  
BRANCH   9  10
HETATM   10  C   UNK     1      -9.671   9.780  66.999  1.00  0.00    -0.233 C  
BRANCH  10  11
HETATM   11  C   UNK     1      -9.508  10.651  65.767  1.00  0.00    -0.200 C  
HETATM   12  O   UNK     1      -8.570  11.424  65.601  1.00  0.00    -0.097 OA 
HETATM   13  N   UNK     1     -10.520  10.491  64.847  1.00  0.00    -0.242 N  
HETATM   14  H   UNK     1     -11.296   9.863  65.059  1.00  0.00     0.000 HD 
BRANCH  13  15
HETATM   15  C   UNK     1     -10.501  11.200  63.583  1.00  0.00    -0.376 C  
BRANCH  15  16
HETATM   16  C   UNK     1     -11.603  12.257  63.481  1.00  0.00    -0.570 C  
BRANCH  16  17
HETATM   17  C   UNK     1     -12.296  12.473  64.826  1.00  0.00    -0.544 C  
BRANCH  17  18
HETATM   18  C   UNK     1     -11.874  13.786  65.501  1.00  0.00    -0.378 C  
BRANCH  18  19
HETATM   19  C   UNK     1     -10.657  14.451  64.840  1.00  0.00    -0.434 C  
HETATM   20  N   UNK     1      -9.417  14.219  65.636  1.00  0.00    -0.535 NA 
HETATM   21  C   UNK     1     -10.877  15.967  64.711  1.00  0.00    -0.324 C  
HETATM   22  O   UNK     1     -11.550  16.512  63.857  1.00  0.00    -1.175 OA 
HETATM   23  O   UNK     1     -10.253  16.636  65.721  1.00  0.00    -0.424 OA 
HETATM   24  H1  UNK     1      -8.609  14.660  65.198  1.00  0.00     0.000 HD 
HETATM   25  H2  UNK     1      -9.258  13.225  65.801  1.00  0.00     0.000 HD 
ENDBRANCH  18  19
ENDBRANCH  17  18
ENDBRANCH  16  17
ENDBRANCH  15  16
ENDBRANCH  13  15
ENDBRANCH  10  11
ENDBRANCH   9  10
ENDBRANCH   8   9
ENDBRANCH   7   8
ENDBRANCH   6   7
ENDBRANCH   5   6
ENDBRANCH   4   5
ENDBRANCH   3   4
ENDBRANCH   2   3
TORSDOF 14
ENDMDL
MODEL       39
REMARK 921   NORMALIZED FREE ENERGY PREDICTED BY IDOCK:   -4.63 KCAL/MOL
REMARK 922        TOTAL FREE ENERGY PREDICTED BY IDOCK:   -9.35 KCAL/MOL
REMARK 923 INTER-LIGAND FREE ENERGY PREDICTED BY IDOCK:   -8.03 KCAL/MOL
REMARK 924 INTRA-LIGAND FREE ENERGY PREDICTED BY IDOCK:   -1.33 KCAL/MOL
REMARK 927      BINDING AFFINITY PREDICTED BY RF-SCORE:    0.00 PKD
ROOT
HETATM    1  C   UNK     1     -13.208  10.661  71.666  1.00  0.00    -0.392 C  
HETATM    2  O   UNK     1     -13.652   9.555  72.439  1.00  0.00    -0.452 OA 
ENDROOT
BRANCH   2   3
HETATM    3  C   UNK     1     -13.773   8.376  71.643  1.00  0.00    -0.364 C  
BRANCH   3   4
HETATM    4  C   UNK     1     -12.383   7.813  71.371  1.00  0.00    -0.323 C  
BRANCH   4   5
HETATM    5  O   UNK     1     -11.661   7.722  72.597  1.00  0.00    -0.354 OA 
BRANCH   5   6
HETATM    6  C   UNK     1     -10.310   8.150  72.442  1.00  0.00    -0.311 C  
BRANCH   6   7
HETATM    7  C   UNK     1     -10.131   8.744  71.051  1.00  0.00    -0.301 C  
BRANCH   7   8
HETATM    8  C   UNK     1      -8.700   9.235  70.807  1.00  0.00    -0.272 C  
BRANCH   8   9
HETATM    9  C   UNK     1      -8.439   9.411  69.314  1.00  0.00    -0.141 C  
BRANCH   9  10
HETATM   10  C   UNK     1      -8.299  10.878  68.918  1.00  0.00    -0.139 C  
BRANCH  10  11
HETATM   11  C   UNK     1      -9.571  11.389  68.265  1.00  0.00    -0.192 C  
HETATM   12  O   UNK     1      -9.762  11.381  67.054  1.00  0.00    -0.187 OA 
HETATM   13  N   UNK     1     -10.494  11.866  69.168  1.00  0.00    -0.421 N  
HETATM   14  H   UNK     1     -10.260  11.885  70.161  1.00  0.00     0.000 HD 
BRANCH  13  15
HETATM   15  C   UNK     1     -11.791  12.342  68.731  1.00  0.00    -0.311 C  
BRANCH  15  16
HETATM   16  C   UNK     1     -11.943  13.859  68.873  1.00  0.00    -0.393 C  
BRANCH  16  17
HETATM   17  C   UNK     1     -11.537  14.584  67.591  1.00  0.00    -0.402 C  
BRANCH  17  18
HETATM   18  C   UNK     1     -12.155  13.951  66.336  1.00  0.00    -0.489 C  
BRANCH  18  19
HETATM   19  C   UNK     1     -11.294  14.125  65.076  1.00  0.00    -0.350 C  
HETATM   20  N   UNK     1      -9.844  13.954  65.385  1.00  0.00    -0.544 NA 
HETATM   21  C   UNK     1     -11.502  15.523  64.472  1.00  0.00    -0.308 C  
HETATM   22  O   UNK     1     -12.448  15.861  63.787  1.00  0.00    -0.735 OA 
HETATM   23  O   UNK     1     -10.501  16.368  64.846  1.00  0.00    -0.643 OA 
HETATM   24  H1  UNK     1      -9.272  14.069  64.548  1.00  0.00     0.000 HD 
HETATM   25  H2  UNK     1      -9.661  13.062  65.844  1.00  0.00     0.000 HD 
ENDBRANCH  18  19
ENDBRANCH  17  18
ENDBRANCH  16  17
ENDBRANCH  15  16
ENDBRANCH  13  15
ENDBRANCH  10  11
ENDBRANCH   9  10
ENDBRANCH   8   9
ENDBRANCH   7   8
ENDBRANCH   6   7
ENDBRANCH   5   6
ENDBRANCH   4   5
ENDBRANCH   3   4
ENDBRANCH   2   3
TORSDOF 14
ENDMDL
MODEL       40
REMARK 921   NORMALIZED FREE ENERGY PREDICTED BY IDOCK:   -4.63 KCAL/MOL
REMARK 922        TOTAL FREE ENERGY PREDICTED BY IDOCK:   -9.34 KCAL/MOL
REMARK 923 INTER-LIGAND FREE ENERGY PREDICTED BY IDOCK:   -8.39 KCAL/MOL
REMARK 924 INTRA-LIGAND FREE ENERGY PREDICTED BY IDOCK:   -0.95 KCAL/MOL
REMARK 927      BINDING AFFINITY PREDICTED BY RF-SCORE:    0.00 PKD
ROOT
HETATM    1  C   UNK     1     -12.521  12.105  63.426  1.00  0.00    -0.512 C  
HETATM    2  O   UNK     1     -12.725  13.444  63.852  1.00  0.00    -0.670 OA 
ENDROOT
BRANCH   2   3
HETATM    3  C   UNK     1     -11.890  13.771  64.963  1.00  0.00    -0.366 C  
BRANCH   3   4
HETATM    4  C   UNK     1     -11.742  12.544  65.854  1.00  0.00    -0.426 C  
BRANCH   4   5
HETATM    5  O   UNK     1     -10.635  12.728  66.734  1.00  0.00    -0.249 OA 
BRANCH   5   6
HETATM    6  C   UNK     1      -9.666  11.694  66.581  1.00  0.00    -0.202 C  
BRANCH   6   7
HETATM    7  C   UNK     1     -10.304  10.515  65.857  1.00  0.00    -0.275 C  
BRANCH   7   8
HETATM    8  C   UNK     1     -10.116   9.196  66.615  1.00  0.00    -0.343 C  
BRANCH   8   9
HETATM    9  C   UNK     1     -10.644   9.317  68.042  1.00  0.00    -0.262 C  
BRANCH   9  10
HETATM   10  C   UNK     1      -9.689   8.712  69.067  1.00  0.00    -0.173 C  
BRANCH  10  11
HETATM   11  C   UNK     1     -10.409   8.414  70.370  1.00  0.00    -0.205 C  
HETATM   12  O   UNK     1      -9.896   7.807  71.305  1.00  0.00    -0.171 OA 
HETATM   13  N   UNK     1     -11.700   8.889  70.401  1.00  0.00    -0.460 N  
HETATM   14  H   UNK     1     -12.085   9.350  69.576  1.00  0.00     0.000 HD 
BRANCH  13  15
HETATM   15  C   UNK     1     -12.521   8.747  71.588  1.00  0.00    -0.339 C  
BRANCH  15  16
HETATM   16  C   UNK     1     -13.385   9.981  71.861  1.00  0.00    -0.516 C  
BRANCH  16  17
HETATM   17  C   UNK     1     -12.736  11.250  71.309  1.00  0.00    -0.510 C  
BRANCH  17  18
HETATM   18  C   UNK     1     -13.215  12.517  72.032  1.00  0.00    -0.524 C  
BRANCH  18  19
HETATM   19  C   UNK     1     -12.981  13.805  71.229  1.00  0.00    -0.334 C  
HETATM   20  N   UNK     1     -11.747  13.706  70.395  1.00  0.00    -0.521 NA 
HETATM   21  C   UNK     1     -12.834  15.008  72.175  1.00  0.00    -0.335 C  
HETATM   22  O   UNK     1     -13.751  15.596  72.716  1.00  0.00    -0.543 OA 
HETATM   23  O   UNK     1     -11.521  15.312  72.375  1.00  0.00    -0.454 OA 
HETATM   24  H1  UNK     1     -11.592  14.561  69.862  1.00  0.00     0.000 HD 
HETATM   25  H2  UNK     1     -11.769  12.885  69.790  1.00  0.00     0.000 HD 
ENDBRANCH  18  19
ENDBRANCH  17  18
ENDBRANCH  16  17
ENDBRANCH  15  16
ENDBRANCH  13  15
ENDBRANCH  10  11
ENDBRANCH   9  10
ENDBRANCH   8   9
ENDBRANCH   7   8
ENDBRANCH   6   7
ENDBRANCH   5   6
ENDBRANCH   4   5
ENDBRANCH   3   4
ENDBRANCH   2   3
TORSDOF 14
ENDMDL
MODEL       41
REMARK 921   NORMALIZED FREE ENERGY PREDICTED BY IDOCK:   -4.62 KCAL/MOL
REMARK 922        TOTAL FREE ENERGY PREDICTED BY IDOCK:   -9.34 KCAL/MOL
REMARK 923 INTER-LIGAND FREE ENERGY PREDICTED BY IDOCK:   -7.83 KCAL/MOL
REMARK 924 INTRA-LIGAND FREE ENERGY PREDICTED BY IDOCK:   -1.50 KCAL/MOL
REMARK 927      BINDING AFFINITY PREDICTED BY RF-SCORE:    0.00 PKD
ROOT
HETATM    1  C   UNK     1     -10.270   9.154  71.788  1.00  0.00    -0.235 C  
HETATM    2  O   UNK     1     -10.452   9.849  70.563  1.00  0.00    -0.284 OA 
ENDROOT
BRANCH   2   3
HETATM    3  C   UNK     1     -11.762  10.409  70.470  1.00  0.00    -0.344 C  
BRANCH   3   4
HETATM    4  C   UNK     1     -12.590   9.943  71.661  1.00  0.00    -0.424 C  
BRANCH   4   5
HETATM    5  O   UNK     1     -13.300  11.052  72.208  1.00  0.00    -0.390 OA 
BRANCH   5   6
HETATM    6  C   UNK     1     -12.882  12.282  71.620  1.00  0.00    -0.273 C  
BRANCH   6   7
HETATM    7  C   UNK     1     -13.609  13.434  72.302  1.00  0.00    -0.703 C  
BRANCH   7   8
HETATM    8  C   UNK     1     -12.865  14.765  72.147  1.00  0.00    -0.407 C  
BRANCH   8   9
HETATM    9  C   UNK     1     -13.176  15.400  70.794  1.00  0.00    -0.440 C  
BRANCH   9  10
HETATM   10  C   UNK     1     -11.913  15.777  70.026  1.00  0.00    -0.352 C  
BRANCH  10  11
HETATM   11  C   UNK     1     -11.736  14.894  68.804  1.00  0.00    -0.325 C  
HETATM   12  O   UNK     1     -11.927  13.682  68.809  1.00  0.00    -0.345 OA 
HETATM   13  N   UNK     1     -11.336  15.586  67.683  1.00  0.00    -0.301 N  
HETATM   14  H   UNK     1     -11.153  16.588  67.751  1.00  0.00     0.000 HD 
BRANCH  13  15
HETATM   15  C   UNK     1     -11.172  14.916  66.409  1.00  0.00    -0.331 C  
BRANCH  15  16
HETATM   16  C   UNK     1      -9.877  15.312  65.695  1.00  0.00    -0.383 C  
BRANCH  16  17
HETATM   17  C   UNK     1      -8.758  15.609  66.693  1.00  0.00    -0.333 C  
BRANCH  17  18
HETATM   18  C   UNK     1      -8.026  16.923  66.381  1.00  0.00    -0.352 C  
BRANCH  18  19
HETATM   19  C   UNK     1      -8.404  18.073  67.327  1.00  0.00    -0.229 C  
HETATM   20  N   UNK     1      -8.971  17.556  68.607  1.00  0.00    -0.278 NA 
HETATM   21  C   UNK     1      -9.448  18.988  66.667  1.00  0.00    -0.342 C  
HETATM   22  O   UNK     1      -9.212  19.844  65.836  1.00  0.00    -0.343 OA 
HETATM   23  O   UNK     1     -10.704  18.686  67.101  1.00  0.00    -0.421 OA 
HETATM   24  H1  UNK     1      -9.221  18.319  69.235  1.00  0.00     0.000 HD 
HETATM   25  H2  UNK     1      -8.337  16.894  69.056  1.00  0.00     0.000 HD 
ENDBRANCH  18  19
ENDBRANCH  17  18
ENDBRANCH  16  17
ENDBRANCH  15  16
ENDBRANCH  13  15
ENDBRANCH  10  11
ENDBRANCH   9  10
ENDBRANCH   8   9
ENDBRANCH   7   8
ENDBRANCH   6   7
ENDBRANCH   5   6
ENDBRANCH   4   5
ENDBRANCH   3   4
ENDBRANCH   2   3
TORSDOF 14
ENDMDL
MODEL       42
REMARK 921   NORMALIZED FREE ENERGY PREDICTED BY IDOCK:   -4.62 KCAL/MOL
REMARK 922        TOTAL FREE ENERGY PREDICTED BY IDOCK:   -9.34 KCAL/MOL
REMARK 923 INTER-LIGAND FREE ENERGY PREDICTED BY IDOCK:   -8.03 KCAL/MOL
REMARK 924 INTRA-LIGAND FREE ENERGY PREDICTED BY IDOCK:   -1.30 KCAL/MOL
REMARK 927      BINDING AFFINITY PREDICTED BY RF-SCORE:    0.00 PKD
ROOT
HETATM    1  C   UNK     1     -10.562  19.859  66.308  1.00  0.00    -0.425 C  
HETATM    2  O   UNK     1     -10.637  18.662  65.548  1.00  0.00    -0.608 OA 
ENDROOT
BRANCH   2   3
HETATM    3  C   UNK     1     -10.115  17.549  66.274  1.00  0.00    -0.336 C  
BRANCH   3   4
HETATM    4  C   UNK     1     -10.362  16.273  65.477  1.00  0.00    -0.338 C  
BRANCH   4   5
HETATM    5  O   UNK     1     -11.307  16.537  64.442  1.00  0.00    -0.921 OA 
BRANCH   5   6
HETATM    6  C   UNK     1     -12.161  15.418  64.216  1.00  0.00    -0.126 C  
BRANCH   6   7
HETATM    7  C   UNK     1     -11.389  14.135  64.496  1.00  0.00    -0.355 C  
BRANCH   7   8
HETATM    8  C   UNK     1     -11.832  12.980  63.592  1.00  0.00    -0.580 C  
BRANCH   8   9
HETATM    9  C   UNK     1     -11.840  11.665  64.366  1.00  0.00    -0.178 C  
BRANCH   9  10
HETATM   10  C   UNK     1     -10.439  11.080  64.532  1.00  0.00    -0.411 C  
BRANCH  10  11
HETATM   11  C   UNK     1     -10.092  10.910  65.999  1.00  0.00    -0.249 C  
HETATM   12  O   UNK     1      -8.943  10.911  66.429  1.00  0.00    -0.164 OA 
HETATM   13  N   UNK     1     -11.196  10.751  66.807  1.00  0.00    -0.091 N  
HETATM   14  H   UNK     1     -12.124  10.716  66.385  1.00  0.00     0.000 HD 
BRANCH  13  15
HETATM   15  C   UNK     1     -11.060  10.631  68.245  1.00  0.00    -0.279 C  
BRANCH  15  16
HETATM   16  C   UNK     1     -11.710  11.794  68.999  1.00  0.00    -0.390 C  
BRANCH  16  17
HETATM   17  C   UNK     1     -10.940  13.097  68.789  1.00  0.00    -0.298 C  
BRANCH  17  18
HETATM   18  C   UNK     1     -11.861  14.276  68.444  1.00  0.00    -0.373 C  
BRANCH  18  19
HETATM   19  C   UNK     1     -11.663  15.495  69.357  1.00  0.00    -0.367 C  
HETATM   20  N   UNK     1     -10.231  15.650  69.748  1.00  0.00    -0.289 NA 
HETATM   21  C   UNK     1     -12.504  15.351  70.635  1.00  0.00    -0.428 C  
HETATM   22  O   UNK     1     -13.698  15.568  70.723  1.00  0.00    -0.475 OA 
HETATM   23  O   UNK     1     -11.743  14.894  71.669  1.00  0.00    -0.349 OA 
HETATM   24  H1  UNK     1     -10.099  16.459  70.354  1.00  0.00     0.000 HD 
HETATM   25  H2  UNK     1      -9.622  15.690  68.931  1.00  0.00     0.000 HD 
ENDBRANCH  18  19
ENDBRANCH  17  18
ENDBRANCH  16  17
ENDBRANCH  15  16
ENDBRANCH  13  15
ENDBRANCH  10  11
ENDBRANCH   9  10
ENDBRANCH   8   9
ENDBRANCH   7   8
ENDBRANCH   6   7
ENDBRANCH   5   6
ENDBRANCH   4   5
ENDBRANCH   3   4
ENDBRANCH   2   3
TORSDOF 14
ENDMDL
MODEL       43
REMARK 921   NORMALIZED FREE ENERGY PREDICTED BY IDOCK:   -4.62 KCAL/MOL
REMARK 922        TOTAL FREE ENERGY PREDICTED BY IDOCK:   -9.33 KCAL/MOL
REMARK 923 INTER-LIGAND FREE ENERGY PREDICTED BY IDOCK:   -8.48 KCAL/MOL
REMARK 924 INTRA-LIGAND FREE ENERGY PREDICTED BY IDOCK:   -0.84 KCAL/MOL
REMARK 927      BINDING AFFINITY PREDICTED BY RF-SCORE:    0.00 PKD
ROOT
HETATM    1  C   UNK     1     -11.188   7.285  70.752  1.00  0.00    -0.274 C  
HETATM    2  O   UNK     1     -11.103   8.546  70.103  1.00  0.00    -0.248 OA 
ENDROOT
BRANCH   2   3
HETATM    3  C   UNK     1     -11.207   9.622  71.036  1.00  0.00    -0.375 C  
BRANCH   3   4
HETATM    4  C   UNK     1     -12.281   9.288  72.064  1.00  0.00    -0.348 C  
BRANCH   4   5
HETATM    5  O   UNK     1     -13.331  10.249  71.981  1.00  0.00    -0.434 OA 
BRANCH   5   6
HETATM    6  C   UNK     1     -12.862  11.494  71.468  1.00  0.00    -0.380 C  
BRANCH   6   7
HETATM    7  C   UNK     1     -13.582  12.631  72.182  1.00  0.00    -0.510 C  
BRANCH   7   8
HETATM    8  C   UNK     1     -13.394  13.976  71.472  1.00  0.00    -0.422 C  
BRANCH   8   9
HETATM    9  C   UNK     1     -12.457  13.826  70.277  1.00  0.00    -0.357 C  
BRANCH   9  10
HETATM   10  C   UNK     1     -11.723  15.123  69.949  1.00  0.00    -0.346 C  
BRANCH  10  11
HETATM   11  C   UNK     1     -11.426  15.219  68.464  1.00  0.00    -0.342 C  
HETATM   12  O   UNK     1     -10.551  15.937  67.991  1.00  0.00    -0.269 OA 
HETATM   13  N   UNK     1     -12.239  14.419  67.692  1.00  0.00    -0.623 N  
HETATM   14  H   UNK     1     -12.977  13.875  68.139  1.00  0.00     0.000 HD 
BRANCH  13  15
HETATM   15  C   UNK     1     -12.062  14.338  66.255  1.00  0.00    -0.413 C  
BRANCH  15  16
HETATM   16  C   UNK     1     -11.845  12.904  65.767  1.00  0.00    -0.469 C  
BRANCH  16  17
HETATM   17  C   UNK     1     -12.205  12.757  64.289  1.00  0.00    -0.499 C  
BRANCH  17  18
HETATM   18  C   UNK     1     -11.406  11.643  63.597  1.00  0.00    -0.485 C  
BRANCH  18  19
HETATM   19  C   UNK     1      -9.930  11.595  64.020  1.00  0.00    -0.296 C  
HETATM   20  N   UNK     1      -9.030  11.942  62.880  1.00  0.00    -0.571 NA 
HETATM   21  C   UNK     1      -9.560  10.191  64.522  1.00  0.00    -0.311 C  
HETATM   22  O   UNK     1      -9.817   9.746  65.624  1.00  0.00    -0.277 OA 
HETATM   23  O   UNK     1      -8.939   9.472  63.545  1.00  0.00    -0.233 OA 
HETATM   24  H1  UNK     1      -8.051  11.911  63.161  1.00  0.00     0.000 HD 
HETATM   25  H2  UNK     1      -9.274  12.844  62.471  1.00  0.00     0.000 HD 
ENDBRANCH  18  19
ENDBRANCH  17  18
ENDBRANCH  16  17
ENDBRANCH  15  16
ENDBRANCH  13  15
ENDBRANCH  10  11
ENDBRANCH   9  10
ENDBRANCH   8   9
ENDBRANCH   7   8
ENDBRANCH   6   7
ENDBRANCH   5   6
ENDBRANCH   4   5
ENDBRANCH   3   4
ENDBRANCH   2   3
TORSDOF 14
ENDMDL
MODEL       44
REMARK 921   NORMALIZED FREE ENERGY PREDICTED BY IDOCK:   -4.61 KCAL/MOL
REMARK 922        TOTAL FREE ENERGY PREDICTED BY IDOCK:   -9.32 KCAL/MOL
REMARK 923 INTER-LIGAND FREE ENERGY PREDICTED BY IDOCK:   -8.27 KCAL/MOL
REMARK 924 INTRA-LIGAND FREE ENERGY PREDICTED BY IDOCK:   -1.05 KCAL/MOL
REMARK 927      BINDING AFFINITY PREDICTED BY RF-SCORE:    0.00 PKD
ROOT
HETATM    1  C   UNK     1     -10.597  19.650  66.133  1.00  0.00    -0.483 C  
HETATM    2  O   UNK     1     -11.055  19.221  67.407  1.00  0.00    -0.444 OA 
ENDROOT
BRANCH   2   3
HETATM    3  C   UNK     1     -10.005  18.615  68.162  1.00  0.00    -0.358 C  
BRANCH   3   4
HETATM    4  C   UNK     1      -9.954  17.126  67.840  1.00  0.00    -0.292 C  
BRANCH   4   5
HETATM    5  O   UNK     1     -11.187  16.518  68.217  1.00  0.00    -0.356 OA 
BRANCH   5   6
HETATM    6  C   UNK     1     -10.977  15.384  69.056  1.00  0.00    -0.252 C  
BRANCH   6   7
HETATM    7  C   UNK     1     -12.098  15.310  70.084  1.00  0.00    -0.394 C  
BRANCH   7   8
HETATM    8  C   UNK     1     -12.213  13.921  70.721  1.00  0.00    -0.441 C  
BRANCH   8   9
HETATM    9  C   UNK     1     -12.017  12.831  69.671  1.00  0.00    -0.354 C  
BRANCH   9  10
HETATM   10  C   UNK     1     -12.110  11.428  70.266  1.00  0.00    -0.459 C  
BRANCH  10  11
HETATM   11  C   UNK     1     -10.928  10.577  69.836  1.00  0.00    -0.298 C  
HETATM   12  O   UNK     1     -10.814   9.387  70.110  1.00  0.00    -0.225 OA 
HETATM   13  N   UNK     1      -9.990  11.273  69.108  1.00  0.00    -0.410 N  
HETATM   14  H   UNK     1     -10.120  12.272  68.947  1.00  0.00     0.000 HD 
BRANCH  13  15
HETATM   15  C   UNK     1      -8.822  10.609  68.565  1.00  0.00    -0.148 C  
BRANCH  15  16
HETATM   16  C   UNK     1      -8.764  10.669  67.037  1.00  0.00    -0.128 C  
BRANCH  16  17
HETATM   17  C   UNK     1      -9.473  11.912  66.499  1.00  0.00    -0.226 C  
BRANCH  17  18
HETATM   18  C   UNK     1     -10.293  11.620  65.234  1.00  0.00    -0.316 C  
BRANCH  18  19
HETATM   19  C   UNK     1     -10.863  12.883  64.570  1.00  0.00    -0.363 C  
HETATM   20  N   UNK     1     -10.159  14.109  65.047  1.00  0.00    -0.569 NA 
HETATM   21  C   UNK     1     -12.360  13.026  64.887  1.00  0.00    -0.459 C  
HETATM   22  O   UNK     1     -13.259  12.417  64.339  1.00  0.00    -0.816 OA 
HETATM   23  O   UNK     1     -12.559  13.902  65.913  1.00  0.00    -0.478 OA 
HETATM   24  H1  UNK     1     -10.537  14.947  64.606  1.00  0.00     0.000 HD 
HETATM   25  H2  UNK     1      -9.150  14.038  64.913  1.00  0.00     0.000 HD 
ENDBRANCH  18  19
ENDBRANCH  17  18
ENDBRANCH  16  17
ENDBRANCH  15  16
ENDBRANCH  13  15
ENDBRANCH  10  11
ENDBRANCH   9  10
ENDBRANCH   8   9
ENDBRANCH   7   8
ENDBRANCH   6   7
ENDBRANCH   5   6
ENDBRANCH   4   5
ENDBRANCH   3   4
ENDBRANCH   2   3
TORSDOF 14
ENDMDL
MODEL       45
REMARK 921   NORMALIZED FREE ENERGY PREDICTED BY IDOCK:   -4.61 KCAL/MOL
REMARK 922        TOTAL FREE ENERGY PREDICTED BY IDOCK:   -9.31 KCAL/MOL
REMARK 923 INTER-LIGAND FREE ENERGY PREDICTED BY IDOCK:   -8.50 KCAL/MOL
REMARK 924 INTRA-LIGAND FREE ENERGY PREDICTED BY IDOCK:   -0.81 KCAL/MOL
REMARK 927      BINDING AFFINITY PREDICTED BY RF-SCORE:    0.00 PKD
ROOT
HETATM    1  C   UNK     1     -12.687  15.539  73.809  1.00  0.00    -0.597 C  
HETATM    2  O   UNK     1     -13.837  15.983  73.103  1.00  0.00    -0.576 OA 
ENDROOT
BRANCH   2   3
HETATM    3  C   UNK     1     -14.155  15.109  72.020  1.00  0.00    -0.559 C  
BRANCH   3   4
HETATM    4  C   UNK     1     -13.596  13.722  72.317  1.00  0.00    -0.559 C  
BRANCH   4   5
HETATM    5  O   UNK     1     -12.808  13.283  71.213  1.00  0.00    -0.353 OA 
BRANCH   5   6
HETATM    6  C   UNK     1     -12.495  14.360  70.332  1.00  0.00    -0.357 C  
BRANCH   6   7
HETATM    7  C   UNK     1     -11.550  13.859  69.247  1.00  0.00    -0.358 C  
BRANCH   7   8
HETATM    8  C   UNK     1     -11.831  14.507  67.887  1.00  0.00    -0.370 C  
BRANCH   8   9
HETATM    9  C   UNK     1     -11.970  13.441  66.803  1.00  0.00    -0.447 C  
BRANCH   9  10
HETATM   10  C   UNK     1     -12.258  14.042  65.431  1.00  0.00    -0.453 C  
BRANCH  10  11
HETATM   11  C   UNK     1     -11.996  13.032  64.329  1.00  0.00    -0.402 C  
HETATM   12  O   UNK     1     -12.785  12.802  63.417  1.00  0.00    -0.698 OA 
HETATM   13  N   UNK     1     -10.783  12.392  64.452  1.00  0.00    -0.315 N  
HETATM   14  H   UNK     1     -10.188  12.596  65.255  1.00  0.00     0.000 HD 
BRANCH  13  15
HETATM   15  C   UNK     1     -10.338  11.435  63.459  1.00  0.00    -0.423 C  
BRANCH  15  16
HETATM   16  C   UNK     1      -9.421  10.358  64.045  1.00  0.00    -0.351 C  
BRANCH  16  17
HETATM   17  C   UNK     1      -9.374  10.434  65.570  1.00  0.00    -0.244 C  
BRANCH  17  18
HETATM   18  C   UNK     1     -10.371   9.476  66.238  1.00  0.00    -0.226 C  
BRANCH  18  19
HETATM   19  C   UNK     1      -9.924   8.998  67.628  1.00  0.00    -0.201 C  
HETATM   20  N   UNK     1     -10.734   7.831  68.084  1.00  0.00    -0.417 NA 
HETATM   21  C   UNK     1     -10.075  10.128  68.658  1.00  0.00    -0.172 C  
HETATM   22  O   UNK     1      -9.302  11.056  68.807  1.00  0.00    -0.189 OA 
HETATM   23  O   UNK     1     -11.229   9.988  69.369  1.00  0.00    -0.231 OA 
HETATM   24  H1  UNK     1     -10.437   7.513  69.006  1.00  0.00     0.000 HD 
HETATM   25  H2  UNK     1     -10.715   7.072  67.402  1.00  0.00     0.000 HD 
ENDBRANCH  18  19
ENDBRANCH  17  18
ENDBRANCH  16  17
ENDBRANCH  15  16
ENDBRANCH  13  15
ENDBRANCH  10  11
ENDBRANCH   9  10
ENDBRANCH   8   9
ENDBRANCH   7   8
ENDBRANCH   6   7
ENDBRANCH   5   6
ENDBRANCH   4   5
ENDBRANCH   3   4
ENDBRANCH   2   3
TORSDOF 14
ENDMDL
MODEL       46
REMARK 921   NORMALIZED FREE ENERGY PREDICTED BY IDOCK:   -4.61 KCAL/MOL
REMARK 922        TOTAL FREE ENERGY PREDICTED BY IDOCK:   -9.30 KCAL/MOL
REMARK 923 INTER-LIGAND FREE ENERGY PREDICTED BY IDOCK:   -8.32 KCAL/MOL
REMARK 924 INTRA-LIGAND FREE ENERGY PREDICTED BY IDOCK:   -0.99 KCAL/MOL
REMARK 927      BINDING AFFINITY PREDICTED BY RF-SCORE:    0.00 PKD
ROOT
HETATM    1  C   UNK     1     -13.471  12.913  72.165  1.00  0.00    -0.522 C  
HETATM    2  O   UNK     1     -14.406  13.952  72.415  1.00  0.00    -0.647 OA 
ENDROOT
BRANCH   2   3
HETATM    3  C   UNK     1     -14.168  15.083  71.575  1.00  0.00    -0.540 C  
BRANCH   3   4
HETATM    4  C   UNK     1     -12.667  15.238  71.362  1.00  0.00    -0.392 C  
BRANCH   4   5
HETATM    5  O   UNK     1     -12.410  15.511  69.986  1.00  0.00    -0.369 OA 
BRANCH   5   6
HETATM    6  C   UNK     1     -11.381  14.671  69.468  1.00  0.00    -0.280 C  
BRANCH   6   7
HETATM    7  C   UNK     1     -11.337  14.811  67.952  1.00  0.00    -0.331 C  
BRANCH   7   8
HETATM    8  C   UNK     1     -10.175  15.693  67.483  1.00  0.00    -0.263 C  
BRANCH   8   9
HETATM    9  C   UNK     1      -9.852  15.419  66.016  1.00  0.00    -0.355 C  
BRANCH   9  10
HETATM   10  C   UNK     1     -10.765  16.190  65.067  1.00  0.00    -0.359 C  
BRANCH  10  11
HETATM   11  C   UNK     1     -11.702  15.249  64.330  1.00  0.00    -0.285 C  
HETATM   12  O   UNK     1     -12.820  15.571  63.941  1.00  0.00    -0.605 OA 
HETATM   13  N   UNK     1     -11.174  13.991  64.142  1.00  0.00    -0.593 N  
HETATM   14  H   UNK     1     -10.255  13.770  64.526  1.00  0.00     0.000 HD 
BRANCH  13  15
HETATM   15  C   UNK     1     -11.904  12.977  63.408  1.00  0.00    -0.476 C  
BRANCH  15  16
HETATM   16  C   UNK     1     -12.035  11.664  64.185  1.00  0.00    -0.238 C  
BRANCH  16  17
HETATM   17  C   UNK     1     -10.689  11.212  64.750  1.00  0.00    -0.334 C  
BRANCH  17  18
HETATM   18  C   UNK     1     -10.490  11.642  66.211  1.00  0.00    -0.286 C  
BRANCH  18  19
HETATM   19  C   UNK     1     -10.886  10.560  67.226  1.00  0.00    -0.279 C  
HETATM   20  N   UNK     1     -12.084  10.973  68.015  1.00  0.00    -0.727 NA 
HETATM   21  C   UNK     1      -9.730  10.290  68.202  1.00  0.00    -0.143 C  
HETATM   22  O   UNK     1      -8.751   9.608  67.964  1.00  0.00    -0.119 OA 
HETATM   23  O   UNK     1      -9.915  10.960  69.373  1.00  0.00    -0.172 OA 
HETATM   24  H1  UNK     1     -12.348  10.255  68.689  1.00  0.00     0.000 HD 
HETATM   25  H2  UNK     1     -12.865  11.222  67.408  1.00  0.00     0.000 HD 
ENDBRANCH  18  19
ENDBRANCH  17  18
ENDBRANCH  16  17
ENDBRANCH  15  16
ENDBRANCH  13  15
ENDBRANCH  10  11
ENDBRANCH   9  10
ENDBRANCH   8   9
ENDBRANCH   7   8
ENDBRANCH   6   7
ENDBRANCH   5   6
ENDBRANCH   4   5
ENDBRANCH   3   4
ENDBRANCH   2   3
TORSDOF 14
ENDMDL
MODEL       47
REMARK 921   NORMALIZED FREE ENERGY PREDICTED BY IDOCK:   -4.59 KCAL/MOL
REMARK 922        TOTAL FREE ENERGY PREDICTED BY IDOCK:   -9.27 KCAL/MOL
REMARK 923 INTER-LIGAND FREE ENERGY PREDICTED BY IDOCK:   -8.09 KCAL/MOL
REMARK 924 INTRA-LIGAND FREE ENERGY PREDICTED BY IDOCK:   -1.19 KCAL/MOL
REMARK 927      BINDING AFFINITY PREDICTED BY RF-SCORE:    0.00 PKD
ROOT
HETATM    1  C   UNK     1     -10.116   9.334  71.148  1.00  0.00    -0.304 C  
HETATM    2  O   UNK     1     -11.012   9.369  70.046  1.00  0.00    -0.230 OA 
ENDROOT
BRANCH   2   3
HETATM    3  C   UNK     1     -12.099  10.264  70.284  1.00  0.00    -0.249 C  
BRANCH   3   4
HETATM    4  C   UNK     1     -12.902   9.766  71.479  1.00  0.00    -0.405 C  
BRANCH   4   5
HETATM    5  O   UNK     1     -13.465  10.881  72.168  1.00  0.00    -0.372 OA 
BRANCH   5   6
HETATM    6  C   UNK     1     -12.978  12.117  71.649  1.00  0.00    -0.321 C  
BRANCH   6   7
HETATM    7  C   UNK     1     -13.879  13.248  72.127  1.00  0.00    -0.555 C  
BRANCH   7   8
HETATM    8  C   UNK     1     -13.136  14.244  73.024  1.00  0.00    -0.526 C  
BRANCH   8   9
HETATM    9  C   UNK     1     -13.075  15.619  72.364  1.00  0.00    -0.544 C  
BRANCH   9  10
HETATM   10  C   UNK     1     -11.696  15.925  71.787  1.00  0.00    -0.575 C  
BRANCH  10  11
HETATM   11  C   UNK     1     -11.727  15.910  70.269  1.00  0.00    -0.340 C  
HETATM   12  O   UNK     1     -12.468  15.186  69.612  1.00  0.00    -0.237 OA 
HETATM   13  N   UNK     1     -10.838  16.791  69.696  1.00  0.00    -0.376 N  
HETATM   14  H   UNK     1     -10.217  17.338  70.294  1.00  0.00     0.000 HD 
BRANCH  13  15
HETATM   15  C   UNK     1     -10.768  16.955  68.258  1.00  0.00    -0.377 C  
BRANCH  15  16
HETATM   16  C   UNK     1      -9.540  16.277  67.644  1.00  0.00    -0.227 C  
BRANCH  16  17
HETATM   17  C   UNK     1      -9.934  15.320  66.520  1.00  0.00    -0.278 C  
BRANCH  17  18
HETATM   18  C   UNK     1      -9.662  13.851  66.876  1.00  0.00    -0.268 C  
BRANCH  18  19
HETATM   19  C   UNK     1     -10.842  13.163  67.578  1.00  0.00    -0.255 C  
HETATM   20  N   UNK     1     -10.416  12.542  68.866  1.00  0.00    -0.406 NA 
HETATM   21  C   UNK     1     -11.433  12.064  66.680  1.00  0.00    -0.346 C  
HETATM   22  O   UNK     1     -12.189  12.249  65.745  1.00  0.00    -0.622 OA 
HETATM   23  O   UNK     1     -10.961  10.837  67.037  1.00  0.00    -0.272 OA 
HETATM   24  H1  UNK     1     -11.200  12.085  69.333  1.00  0.00     0.000 HD 
HETATM   25  H2  UNK     1      -9.961  13.221  69.477  1.00  0.00     0.000 HD 
ENDBRANCH  18  19
ENDBRANCH  17  18
ENDBRANCH  16  17
ENDBRANCH  15  16
ENDBRANCH  13  15
ENDBRANCH  10  11
ENDBRANCH   9  10
ENDBRANCH   8   9
ENDBRANCH   7   8
ENDBRANCH   6   7
ENDBRANCH   5   6
ENDBRANCH   4   5
ENDBRANCH   3   4
ENDBRANCH   2   3
TORSDOF 14
ENDMDL
MODEL       48
REMARK 921   NORMALIZED FREE ENERGY PREDICTED BY IDOCK:   -4.59 KCAL/MOL
REMARK 922        TOTAL FREE ENERGY PREDICTED BY IDOCK:   -9.27 KCAL/MOL
REMARK 923 INTER-LIGAND FREE ENERGY PREDICTED BY IDOCK:   -7.86 KCAL/MOL
REMARK 924 INTRA-LIGAND FREE ENERGY PREDICTED BY IDOCK:   -1.41 KCAL/MOL
REMARK 927      BINDING AFFINITY PREDICTED BY RF-SCORE:    0.00 PKD
ROOT
HETATM    1  C   UNK     1     -12.252  12.478  63.384  1.00  0.00    -0.517 C  
HETATM    2  O   UNK     1     -12.776  13.480  64.243  1.00  0.00    -0.645 OA 
ENDROOT
BRANCH   2   3
HETATM    3  C   UNK     1     -11.786  14.456  64.572  1.00  0.00    -0.449 C  
BRANCH   3   4
HETATM    4  C   UNK     1     -10.470  13.749  64.872  1.00  0.00    -0.418 C  
BRANCH   4   5
HETATM    5  O   UNK     1     -10.197  13.831  66.269  1.00  0.00    -0.282 OA 
BRANCH   5   6
HETATM    6  C   UNK     1     -10.200  12.542  66.880  1.00  0.00    -0.226 C  
BRANCH   6   7
HETATM    7  C   UNK     1     -11.511  12.349  67.631  1.00  0.00    -0.399 C  
BRANCH   7   8
HETATM    8  C   UNK     1     -11.310  12.296  69.149  1.00  0.00    -0.330 C  
BRANCH   8   9
HETATM    9  C   UNK     1     -12.301  13.219  69.854  1.00  0.00    -0.228 C  
BRANCH   9  10
HETATM   10  C   UNK     1     -12.245  14.647  69.319  1.00  0.00    -0.247 C  
BRANCH  10  11
HETATM   11  C   UNK     1     -11.024  15.378  69.846  1.00  0.00    -0.294 C  
HETATM   12  O   UNK     1     -10.712  15.412  71.032  1.00  0.00    -0.272 OA 
HETATM   13  N   UNK     1     -10.295  16.004  68.860  1.00  0.00    -0.222 N  
HETATM   14  H   UNK     1     -10.628  15.976  67.895  1.00  0.00     0.000 HD 
BRANCH  13  15
HETATM   15  C   UNK     1      -9.064  16.704  69.169  1.00  0.00    -0.157 C  
BRANCH  15  16
HETATM   16  C   UNK     1      -8.172  16.903  67.941  1.00  0.00    -0.198 C  
BRANCH  16  17
HETATM   17  C   UNK     1      -7.793  18.372  67.758  1.00  0.00    -0.249 C  
BRANCH  17  18
HETATM   18  C   UNK     1      -7.968  18.848  66.308  1.00  0.00    -0.291 C  
BRANCH  18  19
HETATM   19  C   UNK     1      -9.221  19.710  66.094  1.00  0.00    -0.340 C  
HETATM   20  N   UNK     1      -9.367  20.728  67.175  1.00  0.00    -0.641 NA 
HETATM   21  C   UNK     1     -10.482  18.830  66.081  1.00  0.00    -0.446 C  
HETATM   22  O   UNK     1     -10.866  18.163  65.139  1.00  0.00    -0.658 OA 
HETATM   23  O   UNK     1     -11.103  18.851  67.293  1.00  0.00    -0.349 OA 
HETATM   24  H1  UNK     1     -10.199  21.301  67.033  1.00  0.00     0.000 HD 
HETATM   25  H2  UNK     1      -8.528  21.302  67.265  1.00  0.00     0.000 HD 
ENDBRANCH  18  19
ENDBRANCH  17  18
ENDBRANCH  16  17
ENDBRANCH  15  16
ENDBRANCH  13  15
ENDBRANCH  10  11
ENDBRANCH   9  10
ENDBRANCH   8   9
ENDBRANCH   7   8
ENDBRANCH   6   7
ENDBRANCH   5   6
ENDBRANCH   4   5
ENDBRANCH   3   4
ENDBRANCH   2   3
TORSDOF 14
ENDMDL
MODEL       49
REMARK 921   NORMALIZED FREE ENERGY PREDICTED BY IDOCK:   -4.58 KCAL/MOL
REMARK 922        TOTAL FREE ENERGY PREDICTED BY IDOCK:   -9.25 KCAL/MOL
REMARK 923 INTER-LIGAND FREE ENERGY PREDICTED BY IDOCK:   -8.47 KCAL/MOL
REMARK 924 INTRA-LIGAND FREE ENERGY PREDICTED BY IDOCK:   -0.78 KCAL/MOL
REMARK 927      BINDING AFFINITY PREDICTED BY RF-SCORE:    0.00 PKD
ROOT
HETATM    1  C   UNK     1      -8.217   7.776  74.096  1.00  0.00    -0.234 C  
HETATM    2  O   UNK     1      -8.367   8.679  73.011  1.00  0.00    -0.404 OA 
ENDROOT
BRANCH   2   3
HETATM    3  C   UNK     1      -9.557   8.411  72.268  1.00  0.00    -0.304 C  
BRANCH   3   4
HETATM    4  C   UNK     1     -10.512   7.596  73.133  1.00  0.00    -0.374 C  
BRANCH   4   5
HETATM    5  O   UNK     1     -11.268   6.717  72.303  1.00  0.00    -0.242 OA 
BRANCH   5   6
HETATM    6  C   UNK     1     -11.802   7.397  71.170  1.00  0.00    -0.301 C  
BRANCH   6   7
HETATM    7  C   UNK     1     -13.300   7.596  71.367  1.00  0.00    -0.340 C  
BRANCH   7   8
HETATM    8  C   UNK     1     -13.658   9.053  71.674  1.00  0.00    -0.446 C  
BRANCH   8   9
HETATM    9  C   UNK     1     -12.562   9.992  71.178  1.00  0.00    -0.480 C  
BRANCH   9  10
HETATM   10  C   UNK     1     -12.869  11.456  71.484  1.00  0.00    -0.508 C  
BRANCH  10  11
HETATM   11  C   UNK     1     -12.193  12.374  70.482  1.00  0.00    -0.295 C  
HETATM   12  O   UNK     1     -12.233  13.598  70.549  1.00  0.00    -0.339 OA 
HETATM   13  N   UNK     1     -11.529  11.698  69.484  1.00  0.00    -0.299 N  
HETATM   14  H   UNK     1     -11.566  10.678  69.458  1.00  0.00     0.000 HD 
BRANCH  13  15
HETATM   15  C   UNK     1     -10.777  12.410  68.469  1.00  0.00    -0.238 C  
BRANCH  15  16
HETATM   16  C   UNK     1     -11.585  12.643  67.190  1.00  0.00    -0.434 C  
BRANCH  16  17
HETATM   17  C   UNK     1     -10.744  12.374  65.942  1.00  0.00    -0.299 C  
BRANCH  17  18
HETATM   18  C   UNK     1     -10.477  13.649  65.128  1.00  0.00    -0.388 C  
BRANCH  18  19
HETATM   19  C   UNK     1     -11.490  14.771  65.398  1.00  0.00    -0.341 C  
HETATM   20  N   UNK     1     -12.633  14.708  64.440  1.00  0.00    -0.646 NA 
HETATM   21  C   UNK     1     -10.817  16.146  65.263  1.00  0.00    -0.336 C  
HETATM   22  O   UNK     1     -10.115  16.674  66.105  1.00  0.00    -0.312 OA 
HETATM   23  O   UNK     1     -11.067  16.693  64.040  1.00  0.00    -0.914 OA 
HETATM   24  H1  UNK     1     -13.306  15.453  64.619  1.00  0.00     0.000 HD 
HETATM   25  H2  UNK     1     -13.078  13.790  64.448  1.00  0.00     0.000 HD 
ENDBRANCH  18  19
ENDBRANCH  17  18
ENDBRANCH  16  17
ENDBRANCH  15  16
ENDBRANCH  13  15
ENDBRANCH  10  11
ENDBRANCH   9  10
ENDBRANCH   8   9
ENDBRANCH   7   8
ENDBRANCH   6   7
ENDBRANCH   5   6
ENDBRANCH   4   5
ENDBRANCH   3   4
ENDBRANCH   2   3
TORSDOF 14
ENDMDL
MODEL       50
REMARK 921   NORMALIZED FREE ENERGY PREDICTED BY IDOCK:   -4.58 KCAL/MOL
REMARK 922        TOTAL FREE ENERGY PREDICTED BY IDOCK:   -9.25 KCAL/MOL
REMARK 923 INTER-LIGAND FREE ENERGY PREDICTED BY IDOCK:   -8.13 KCAL/MOL
REMARK 924 INTRA-LIGAND FREE ENERGY PREDICTED BY IDOCK:   -1.12 KCAL/MOL
REMARK 927      BINDING AFFINITY PREDICTED BY RF-SCORE:    0.00 PKD
ROOT
HETATM    1  C   UNK     1      -7.097  18.743  65.993  1.00  0.00    -0.268 C  
HETATM    2  O   UNK     1      -8.273  19.518  65.810  1.00  0.00    -0.427 OA 
ENDROOT
BRANCH   2   3
HETATM    3  C   UNK     1      -9.406  18.900  66.421  1.00  0.00    -0.328 C  
BRANCH   3   4
HETATM    4  C   UNK     1      -9.086  18.604  67.882  1.00  0.00    -0.294 C  
BRANCH   4   5
HETATM    5  O   UNK     1      -9.384  17.239  68.164  1.00  0.00    -0.258 OA 
BRANCH   5   6
HETATM    6  C   UNK     1     -10.783  17.036  68.351  1.00  0.00    -0.361 C  
BRANCH   6   7
HETATM    7  C   UNK     1     -11.006  16.252  69.638  1.00  0.00    -0.346 C  
BRANCH   7   8
HETATM    8  C   UNK     1     -10.816  14.744  69.441  1.00  0.00    -0.269 C  
BRANCH   8   9
HETATM    9  C   UNK     1     -12.152  14.015  69.551  1.00  0.00    -0.397 C  
BRANCH   9  10
HETATM   10  C   UNK     1     -11.990  12.574  70.027  1.00  0.00    -0.372 C  
BRANCH  10  11
HETATM   11  C   UNK     1     -11.459  11.691  68.913  1.00  0.00    -0.287 C  
HETATM   12  O   UNK     1     -12.178  11.052  68.152  1.00  0.00    -0.578 OA 
HETATM   13  N   UNK     1     -10.084  11.673  68.839  1.00  0.00    -0.373 N  
HETATM   14  H   UNK     1      -9.538  12.192  69.527  1.00  0.00     0.000 HD 
BRANCH  13  15
HETATM   15  C   UNK     1      -9.400  10.928  67.800  1.00  0.00    -0.157 C  
BRANCH  15  16
HETATM   16  C   UNK     1      -8.958  11.813  66.632  1.00  0.00    -0.195 C  
BRANCH  16  17
HETATM   17  C   UNK     1      -9.737  11.489  65.358  1.00  0.00    -0.262 C  
BRANCH  17  18
HETATM   18  C   UNK     1     -10.188  12.750  64.608  1.00  0.00    -0.321 C  
BRANCH  18  19
HETATM   19  C   UNK     1     -11.163  13.624  65.411  1.00  0.00    -0.298 C  
HETATM   20  N   UNK     1     -12.461  12.921  65.633  1.00  0.00    -0.574 NA 
HETATM   21  C   UNK     1     -11.443  14.939  64.667  1.00  0.00    -0.379 C  
HETATM   22  O   UNK     1     -10.706  15.907  64.644  1.00  0.00    -0.553 OA 
HETATM   23  O   UNK     1     -12.619  14.871  63.983  1.00  0.00    -0.832 OA 
HETATM   24  H1  UNK     1     -13.108  13.501  66.167  1.00  0.00     0.000 HD 
HETATM   25  H2  UNK     1     -12.324  12.011  66.073  1.00  0.00     0.000 HD 
ENDBRANCH  18  19
ENDBRANCH  17  18
ENDBRANCH  16  17
ENDBRANCH  15  16
ENDBRANCH  13  15
ENDBRANCH  10  11
ENDBRANCH   9  10
ENDBRANCH   8   9
ENDBRANCH   7   8
ENDBRANCH   6   7
ENDBRANCH   5   6
ENDBRANCH   4   5
ENDBRANCH   3   4
ENDBRANCH   2   3
TORSDOF 14
ENDMDL
MODEL       51
REMARK 921   NORMALIZED FREE ENERGY PREDICTED BY IDOCK:   -4.57 KCAL/MOL
REMARK 922        TOTAL FREE ENERGY PREDICTED BY IDOCK:   -9.25 KCAL/MOL
REMARK 923 INTER-LIGAND FREE ENERGY PREDICTED BY IDOCK:   -8.11 KCAL/MOL
REMARK 924 INTRA-LIGAND FREE ENERGY PREDICTED BY IDOCK:   -1.13 KCAL/MOL
REMARK 927      BINDING AFFINITY PREDICTED BY RF-SCORE:    0.00 PKD
ROOT
HETATM    1  C   UNK     1      -5.981  12.057  69.388  1.00  0.00    -0.093 C  
HETATM    2  O   UNK     1      -7.145  11.283  69.135  1.00  0.00    -0.107 OA 
ENDROOT
BRANCH   2   3
HETATM    3  C   UNK     1      -7.915  11.832  68.065  1.00  0.00    -0.141 C  
BRANCH   3   4
HETATM    4  C   UNK     1      -9.341  11.302  68.153  1.00  0.00    -0.181 C  
BRANCH   4   5
HETATM    5  O   UNK     1      -9.350  10.091  68.906  1.00  0.00    -0.156 OA 
BRANCH   5   6
HETATM    6  C   UNK     1     -10.677   9.691  69.239  1.00  0.00    -0.226 C  
BRANCH   6   7
HETATM    7  C   UNK     1     -10.750   9.395  70.731  1.00  0.00    -0.373 C  
BRANCH   7   8
HETATM    8  C   UNK     1     -11.935  10.095  71.406  1.00  0.00    -0.447 C  
BRANCH   8   9
HETATM    9  C   UNK     1     -12.246  11.416  70.708  1.00  0.00    -0.475 C  
BRANCH   9  10
HETATM   10  C   UNK     1     -12.983  12.395  71.620  1.00  0.00    -0.409 C  
BRANCH  10  11
HETATM   11  C   UNK     1     -12.879  13.814  71.091  1.00  0.00    -0.335 C  
HETATM   12  O   UNK     1     -13.746  14.666  71.258  1.00  0.00    -0.385 OA 
HETATM   13  N   UNK     1     -11.713  14.054  70.398  1.00  0.00    -0.466 N  
HETATM   14  H   UNK     1     -11.049  13.293  70.256  1.00  0.00     0.000 HD 
BRANCH  13  15
HETATM   15  C   UNK     1     -11.416  15.370  69.869  1.00  0.00    -0.312 C  
BRANCH  15  16
HETATM   16  C   UNK     1     -11.650  15.467  68.359  1.00  0.00    -0.368 C  
BRANCH  16  17
HETATM   17  C   UNK     1     -11.350  14.141  67.661  1.00  0.00    -0.342 C  
BRANCH  17  18
HETATM   18  C   UNK     1     -11.973  14.060  66.260  1.00  0.00    -0.454 C  
BRANCH  18  19
HETATM   19  C   UNK     1     -10.988  14.405  65.132  1.00  0.00    -0.373 C  
HETATM   20  N   UNK     1      -9.574  14.250  65.584  1.00  0.00    -0.535 NA 
HETATM   21  C   UNK     1     -11.193  15.854  64.664  1.00  0.00    -0.351 C  
HETATM   22  O   UNK     1     -12.073  16.236  63.916  1.00  0.00    -0.986 OA 
HETATM   23  O   UNK     1     -10.280  16.685  65.239  1.00  0.00    -0.600 OA 
HETATM   24  H1  UNK     1      -8.920  14.477  64.835  1.00  0.00     0.000 HD 
HETATM   25  H2  UNK     1      -9.402  13.317  65.961  1.00  0.00     0.000 HD 
ENDBRANCH  18  19
ENDBRANCH  17  18
ENDBRANCH  16  17
ENDBRANCH  15  16
ENDBRANCH  13  15
ENDBRANCH  10  11
ENDBRANCH   9  10
ENDBRANCH   8   9
ENDBRANCH   7   8
ENDBRANCH   6   7
ENDBRANCH   5   6
ENDBRANCH   4   5
ENDBRANCH   3   4
ENDBRANCH   2   3
TORSDOF 14
ENDMDL
MODEL       52
REMARK 921   NORMALIZED FREE ENERGY PREDICTED BY IDOCK:   -4.57 KCAL/MOL
REMARK 922        TOTAL FREE ENERGY PREDICTED BY IDOCK:   -9.23 KCAL/MOL
REMARK 923 INTER-LIGAND FREE ENERGY PREDICTED BY IDOCK:   -7.62 KCAL/MOL
REMARK 924 INTRA-LIGAND FREE ENERGY PREDICTED BY IDOCK:   -1.61 KCAL/MOL
REMARK 927      BINDING AFFINITY PREDICTED BY RF-SCORE:    0.00 PKD
ROOT
HETATM    1  C   UNK     1     -10.641  16.863  65.643  1.00  0.00    -0.221 C  
HETATM    2  O   UNK     1     -11.396  16.739  64.446  1.00  0.00    -1.089 OA 
ENDROOT
BRANCH   2   3
HETATM    3  C   UNK     1     -11.642  15.371  64.123  1.00  0.00    -0.071 C  
BRANCH   3   4
HETATM    4  C   UNK     1     -11.871  14.587  65.409  1.00  0.00    -0.344 C  
BRANCH   4   5
HETATM    5  O   UNK     1     -12.214  13.241  65.088  1.00  0.00    -0.391 OA 
BRANCH   5   6
HETATM    6  C   UNK     1     -11.952  12.946  63.718  1.00  0.00    -0.512 C  
BRANCH   6   7
HETATM    7  C   UNK     1     -11.442  11.515  63.604  1.00  0.00    -0.374 C  
BRANCH   7   8
HETATM    8  C   UNK     1      -9.935  11.454  63.331  1.00  0.00    -0.435 C  
BRANCH   8   9
HETATM    9  C   UNK     1      -9.170  11.130  64.612  1.00  0.00    -0.138 C  
BRANCH   9  10
HETATM   10  C   UNK     1      -9.884  10.084  65.465  1.00  0.00    -0.373 C  
BRANCH  10  11
HETATM   11  C   UNK     1      -9.917  10.503  66.923  1.00  0.00    -0.200 C  
HETATM   12  O   UNK     1      -9.578   9.771  67.847  1.00  0.00    -0.137 OA 
HETATM   13  N   UNK     1     -10.368  11.790  67.111  1.00  0.00    -0.212 N  
HETATM   14  H   UNK     1     -10.675  12.337  66.306  1.00  0.00     0.000 HD 
BRANCH  13  15
HETATM   15  C   UNK     1     -10.413  12.381  68.434  1.00  0.00    -0.235 C  
BRANCH  15  16
HETATM   16  C   UNK     1     -11.835  12.739  68.873  1.00  0.00    -0.351 C  
BRANCH  16  17
HETATM   17  C   UNK     1     -12.159  12.157  70.249  1.00  0.00    -0.385 C  
BRANCH  17  18
HETATM   18  C   UNK     1     -12.382  10.639  70.207  1.00  0.00    -0.406 C  
BRANCH  18  19
HETATM   19  C   UNK     1     -11.646   9.881  71.323  1.00  0.00    -0.379 C  
HETATM   20  N   UNK     1     -10.402   9.236  70.809  1.00  0.00    -0.258 NA 
HETATM   21  C   UNK     1     -12.551   8.790  71.917  1.00  0.00    -0.371 C  
HETATM   22  O   UNK     1     -13.441   8.974  72.726  1.00  0.00    -0.428 OA 
HETATM   23  O   UNK     1     -12.260   7.572  71.381  1.00  0.00    -0.310 OA 
HETATM   24  H1  UNK     1      -9.914   8.734  71.550  1.00  0.00     0.000 HD 
HETATM   25  H2  UNK     1      -9.792   9.913  70.350  1.00  0.00     0.000 HD 
ENDBRANCH  18  19
ENDBRANCH  17  18
ENDBRANCH  16  17
ENDBRANCH  15  16
ENDBRANCH  13  15
ENDBRANCH  10  11
ENDBRANCH   9  10
ENDBRANCH   8   9
ENDBRANCH   7   8
ENDBRANCH   6   7
ENDBRANCH   5   6
ENDBRANCH   4   5
ENDBRANCH   3   4
ENDBRANCH   2   3
TORSDOF 14
ENDMDL
MODEL       53
REMARK 921   NORMALIZED FREE ENERGY PREDICTED BY IDOCK:   -4.56 KCAL/MOL
REMARK 922        TOTAL FREE ENERGY PREDICTED BY IDOCK:   -9.23 KCAL/MOL
REMARK 923 INTER-LIGAND FREE ENERGY PREDICTED BY IDOCK:   -7.84 KCAL/MOL
REMARK 924 INTRA-LIGAND FREE ENERGY PREDICTED BY IDOCK:   -1.39 KCAL/MOL
REMARK 927      BINDING AFFINITY PREDICTED BY RF-SCORE:    0.00 PKD
ROOT
HETATM    1  C   UNK     1      -6.892  16.226  68.210  1.00  0.00    -0.132 C  
HETATM    2  O   UNK     1      -6.573  16.902  67.003  1.00  0.00    -0.166 OA 
ENDROOT
BRANCH   2   3
HETATM    3  C   UNK     1      -6.631  18.319  67.166  1.00  0.00    -0.186 C  
BRANCH   3   4
HETATM    4  C   UNK     1      -6.968  18.641  68.618  1.00  0.00    -0.277 C  
BRANCH   4   5
HETATM    5  O   UNK     1      -7.999  19.624  68.657  1.00  0.00    -0.343 OA 
BRANCH   5   6
HETATM    6  C   UNK     1      -8.262  20.159  67.362  1.00  0.00    -0.340 C  
BRANCH   6   7
HETATM    7  C   UNK     1      -9.767  20.320  67.185  1.00  0.00    -0.592 C  
BRANCH   7   8
HETATM    8  C   UNK     1     -10.504  18.977  67.222  1.00  0.00    -0.533 C  
BRANCH   8   9
HETATM    9  C   UNK     1     -10.496  18.322  65.843  1.00  0.00    -0.324 C  
BRANCH   9  10
HETATM   10  C   UNK     1     -10.063  16.859  65.898  1.00  0.00    -0.302 C  
BRANCH  10  11
HETATM   11  C   UNK     1     -10.888  16.013  64.946  1.00  0.00    -0.372 C  
HETATM   12  O   UNK     1     -11.590  16.481  64.056  1.00  0.00    -1.154 OA 
HETATM   13  N   UNK     1     -10.774  14.660  65.179  1.00  0.00    -0.385 N  
HETATM   14  H   UNK     1     -10.208  14.332  65.961  1.00  0.00     0.000 HD 
BRANCH  13  15
HETATM   15  C   UNK     1     -11.447  13.696  64.331  1.00  0.00    -0.386 C  
BRANCH  15  16
HETATM   16  C   UNK     1     -12.260  12.674  65.128  1.00  0.00    -0.539 C  
BRANCH  16  17
HETATM   17  C   UNK     1     -12.111  12.893  66.634  1.00  0.00    -0.360 C  
BRANCH  17  18
HETATM   18  C   UNK     1     -11.769  11.598  67.385  1.00  0.00    -0.278 C  
BRANCH  18  19
HETATM   19  C   UNK     1     -10.436  11.666  68.146  1.00  0.00    -0.195 C  
HETATM   20  N   UNK     1     -10.379  12.869  69.028  1.00  0.00    -0.436 NA 
HETATM   21  C   UNK     1      -9.259  11.729  67.161  1.00  0.00    -0.179 C  
HETATM   22  O   UNK     1      -8.788  10.780  66.563  1.00  0.00    -0.147 OA 
HETATM   23  O   UNK     1      -8.828  13.011  66.998  1.00  0.00    -0.213 OA 
HETATM   24  H1  UNK     1      -9.494  12.914  69.534  1.00  0.00     0.000 HD 
HETATM   25  H2  UNK     1     -11.176  12.905  69.664  1.00  0.00     0.000 HD 
ENDBRANCH  18  19
ENDBRANCH  17  18
ENDBRANCH  16  17
ENDBRANCH  15  16
ENDBRANCH  13  15
ENDBRANCH  10  11
ENDBRANCH   9  10
ENDBRANCH   8   9
ENDBRANCH   7   8
ENDBRANCH   6   7
ENDBRANCH   5   6
ENDBRANCH   4   5
ENDBRANCH   3   4
ENDBRANCH   2   3
TORSDOF 14
ENDMDL
MODEL       54
REMARK 921   NORMALIZED FREE ENERGY PREDICTED BY IDOCK:   -4.56 KCAL/MOL
REMARK 922        TOTAL FREE ENERGY PREDICTED BY IDOCK:   -9.22 KCAL/MOL
REMARK 923 INTER-LIGAND FREE ENERGY PREDICTED BY IDOCK:   -8.50 KCAL/MOL
REMARK 924 INTRA-LIGAND FREE ENERGY PREDICTED BY IDOCK:   -0.72 KCAL/MOL
REMARK 927      BINDING AFFINITY PREDICTED BY RF-SCORE:    0.00 PKD
ROOT
HETATM    1  C   UNK     1     -14.025  13.250  72.307  1.00  0.00    -0.461 C  
HETATM    2  O   UNK     1     -13.459  14.271  73.116  1.00  0.00    -0.632 OA 
ENDROOT
BRANCH   2   3
HETATM    3  C   UNK     1     -13.449  15.529  72.439  1.00  0.00    -0.509 C  
BRANCH   3   4
HETATM    4  C   UNK     1     -12.064  16.151  72.564  1.00  0.00    -0.550 C  
BRANCH   4   5
HETATM    5  O   UNK     1     -11.502  16.318  71.264  1.00  0.00    -0.423 OA 
BRANCH   5   6
HETATM    6  C   UNK     1     -12.260  15.627  70.273  1.00  0.00    -0.386 C  
BRANCH   6   7
HETATM    7  C   UNK     1     -11.582  15.794  68.920  1.00  0.00    -0.400 C  
BRANCH   7   8
HETATM    8  C   UNK     1     -10.076  15.517  68.985  1.00  0.00    -0.234 C  
BRANCH   8   9
HETATM    9  C   UNK     1      -9.729  14.244  68.218  1.00  0.00    -0.221 C  
BRANCH   9  10
HETATM   10  C   UNK     1     -10.931  13.672  67.471  1.00  0.00    -0.282 C  
BRANCH  10  11
HETATM   11  C   UNK     1     -11.267  12.278  67.971  1.00  0.00    -0.269 C  
HETATM   12  O   UNK     1     -11.956  11.480  67.343  1.00  0.00    -0.623 OA 
HETATM   13  N   UNK     1     -10.724  11.994  69.203  1.00  0.00    -0.404 N  
HETATM   14  H   UNK     1     -10.195  12.714  69.696  1.00  0.00     0.000 HD 
BRANCH  13  15
HETATM   15  C   UNK     1     -10.893  10.690  69.813  1.00  0.00    -0.261 C  
BRANCH  15  16
HETATM   16  C   UNK     1     -12.053  10.649  70.810  1.00  0.00    -0.474 C  
BRANCH  16  17
HETATM   17  C   UNK     1     -12.128   9.300  71.526  1.00  0.00    -0.435 C  
BRANCH  17  18
HETATM   18  C   UNK     1     -11.259   8.228  70.852  1.00  0.00    -0.292 C  
BRANCH  18  19
HETATM   19  C   UNK     1     -11.881   6.824  70.889  1.00  0.00    -0.385 C  
HETATM   20  N   UNK     1     -12.711   6.634  72.115  1.00  0.00    -0.553 NA 
HETATM   21  C   UNK     1     -10.782   5.750  70.873  1.00  0.00    -0.264 C  
HETATM   22  O   UNK     1     -10.174   5.377  69.888  1.00  0.00    -0.232 OA 
HETATM   23  O   UNK     1     -10.533   5.290  72.132  1.00  0.00    -0.209 OA 
HETATM   24  H1  UNK     1     -13.124   5.702  72.140  1.00  0.00     0.000 HD 
HETATM   25  H2  UNK     1     -13.421   7.361  72.203  1.00  0.00     0.000 HD 
ENDBRANCH  18  19
ENDBRANCH  17  18
ENDBRANCH  16  17
ENDBRANCH  15  16
ENDBRANCH  13  15
ENDBRANCH  10  11
ENDBRANCH   9  10
ENDBRANCH   8   9
ENDBRANCH   7   8
ENDBRANCH   6   7
ENDBRANCH   5   6
ENDBRANCH   4   5
ENDBRANCH   3   4
ENDBRANCH   2   3
TORSDOF 14
ENDMDL
MODEL       55
REMARK 921   NORMALIZED FREE ENERGY PREDICTED BY IDOCK:   -4.56 KCAL/MOL
REMARK 922        TOTAL FREE ENERGY PREDICTED BY IDOCK:   -9.22 KCAL/MOL
REMARK 923 INTER-LIGAND FREE ENERGY PREDICTED BY IDOCK:   -8.44 KCAL/MOL
REMARK 924 INTRA-LIGAND FREE ENERGY PREDICTED BY IDOCK:   -0.78 KCAL/MOL
REMARK 927      BINDING AFFINITY PREDICTED BY RF-SCORE:    0.00 PKD
ROOT
HETATM    1  C   UNK     1      -8.574   4.465  71.047  1.00  0.00    -0.089 C  
HETATM    2  O   UNK     1      -9.972   4.521  70.805  1.00  0.00    -0.207 OA 
ENDROOT
BRANCH   2   3
HETATM    3  C   UNK     1     -10.271   5.292  69.641  1.00  0.00    -0.278 C  
BRANCH   3   4
HETATM    4  C   UNK     1     -11.367   6.296  69.975  1.00  0.00    -0.416 C  
BRANCH   4   5
HETATM    5  O   UNK     1     -11.457   6.446  71.390  1.00  0.00    -0.287 OA 
BRANCH   5   6
HETATM    6  C   UNK     1     -12.426   7.427  71.752  1.00  0.00    -0.336 C  
BRANCH   6   7
HETATM    7  C   UNK     1     -11.900   8.809  71.385  1.00  0.00    -0.369 C  
BRANCH   7   8
HETATM    8  C   UNK     1     -12.836   9.930  71.849  1.00  0.00    -0.524 C  
BRANCH   8   9
HETATM    9  C   UNK     1     -12.784  11.108  70.879  1.00  0.00    -0.438 C  
BRANCH   9  10
HETATM   10  C   UNK     1     -11.745  10.908  69.779  1.00  0.00    -0.413 C  
BRANCH  10  11
HETATM   11  C   UNK     1     -11.925  11.929  68.670  1.00  0.00    -0.233 C  
HETATM   12  O   UNK     1     -12.144  11.629  67.501  1.00  0.00    -0.611 OA 
HETATM   13  N   UNK     1     -11.816  13.231  69.104  1.00  0.00    -0.321 N  
HETATM   14  H   UNK     1     -11.591  13.417  70.081  1.00  0.00     0.000 HD 
BRANCH  13  15
HETATM   15  C   UNK     1     -12.015  14.342  68.194  1.00  0.00    -0.308 C  
BRANCH  15  16
HETATM   16  C   UNK     1     -10.698  14.959  67.716  1.00  0.00    -0.271 C  
BRANCH  16  17
HETATM   17  C   UNK     1     -10.695  15.167  66.202  1.00  0.00    -0.327 C  
BRANCH  17  18
HETATM   18  C   UNK     1     -10.602  13.845  65.427  1.00  0.00    -0.344 C  
BRANCH  18  19
HETATM   19  C   UNK     1     -11.471  13.816  64.160  1.00  0.00    -0.293 C  
HETATM   20  N   UNK     1     -12.627  14.752  64.277  1.00  0.00    -0.730 NA 
HETATM   21  C   UNK     1     -12.014  12.400  63.914  1.00  0.00    -0.486 C  
HETATM   22  O   UNK     1     -11.388  11.480  63.421  1.00  0.00    -0.374 OA 
HETATM   23  O   UNK     1     -13.293  12.283  64.369  1.00  0.00    -0.786 OA 
HETATM   24  H1  UNK     1     -13.204  14.733  63.436  1.00  0.00     0.000 HD 
HETATM   25  H2  UNK     1     -12.322  15.700  64.500  1.00  0.00     0.000 HD 
ENDBRANCH  18  19
ENDBRANCH  17  18
ENDBRANCH  16  17
ENDBRANCH  15  16
ENDBRANCH  13  15
ENDBRANCH  10  11
ENDBRANCH   9  10
ENDBRANCH   8   9
ENDBRANCH   7   8
ENDBRANCH   6   7
ENDBRANCH   5   6
ENDBRANCH   4   5
ENDBRANCH   3   4
ENDBRANCH   2   3
TORSDOF 14
ENDMDL
MODEL       56
REMARK 921   NORMALIZED FREE ENERGY PREDICTED BY IDOCK:   -4.53 KCAL/MOL
REMARK 922        TOTAL FREE ENERGY PREDICTED BY IDOCK:   -9.17 KCAL/MOL
REMARK 923 INTER-LIGAND FREE ENERGY PREDICTED BY IDOCK:   -8.58 KCAL/MOL
REMARK 924 INTRA-LIGAND FREE ENERGY PREDICTED BY IDOCK:   -0.59 KCAL/MOL
REMARK 927      BINDING AFFINITY PREDICTED BY RF-SCORE:    0.00 PKD
ROOT
HETATM    1  C   UNK     1      -9.853   4.556  66.065  1.00  0.00    -0.229 C  
HETATM    2  O   UNK     1     -10.010   5.037  67.393  1.00  0.00    -0.165 OA 
ENDROOT
BRANCH   2   3
HETATM    3  C   UNK     1     -10.719   6.276  67.419  1.00  0.00    -0.331 C  
BRANCH   3   4
HETATM    4  C   UNK     1     -10.624   6.876  68.817  1.00  0.00    -0.220 C  
BRANCH   4   5
HETATM    5  O   UNK     1     -11.560   6.228  69.675  1.00  0.00    -0.430 OA 
BRANCH   5   6
HETATM    6  C   UNK     1     -10.965   5.864  70.919  1.00  0.00    -0.265 C  
BRANCH   6   7
HETATM    7  C   UNK     1     -11.640   6.642  72.041  1.00  0.00    -0.341 C  
BRANCH   7   8
HETATM    8  C   UNK     1     -12.925   7.336  71.577  1.00  0.00    -0.434 C  
BRANCH   8   9
HETATM    9  C   UNK     1     -12.913   8.809  71.973  1.00  0.00    -0.437 C  
BRANCH   9  10
HETATM   10  C   UNK     1     -11.851   9.604  71.219  1.00  0.00    -0.460 C  
BRANCH  10  11
HETATM   11  C   UNK     1     -12.291  11.043  71.016  1.00  0.00    -0.385 C  
HETATM   12  O   UNK     1     -13.159  11.589  71.689  1.00  0.00    -0.452 OA 
HETATM   13  N   UNK     1     -11.621  11.680  69.996  1.00  0.00    -0.454 N  
HETATM   14  H   UNK     1     -10.938  11.160  69.443  1.00  0.00     0.000 HD 
BRANCH  13  15
HETATM   15  C   UNK     1     -11.869  13.076  69.694  1.00  0.00    -0.319 C  
BRANCH  15  16
HETATM   16  C   UNK     1     -10.813  13.676  68.764  1.00  0.00    -0.279 C  
BRANCH  16  17
HETATM   17  C   UNK     1     -11.454  14.512  67.656  1.00  0.00    -0.374 C  
BRANCH  17  18
HETATM   18  C   UNK     1     -11.878  13.662  66.449  1.00  0.00    -0.433 C  
BRANCH  18  19
HETATM   19  C   UNK     1     -11.065  13.953  65.179  1.00  0.00    -0.334 C  
HETATM   20  N   UNK     1      -9.632  14.214  65.503  1.00  0.00    -0.544 NA 
HETATM   21  C   UNK     1     -11.630  15.183  64.450  1.00  0.00    -0.271 C  
HETATM   22  O   UNK     1     -12.615  15.188  63.736  1.00  0.00    -0.752 OA 
HETATM   23  O   UNK     1     -10.907  16.299  64.746  1.00  0.00    -0.671 OA 
HETATM   24  H1  UNK     1      -9.092  14.407  64.660  1.00  0.00     0.000 HD 
HETATM   25  H2  UNK     1      -9.224  13.449  66.042  1.00  0.00     0.000 HD 
ENDBRANCH  18  19
ENDBRANCH  17  18
ENDBRANCH  16  17
ENDBRANCH  15  16
ENDBRANCH  13  15
ENDBRANCH  10  11
ENDBRANCH   9  10
ENDBRANCH   8   9
ENDBRANCH   7   8
ENDBRANCH   6   7
ENDBRANCH   5   6
ENDBRANCH   4   5
ENDBRANCH   3   4
ENDBRANCH   2   3
TORSDOF 14
ENDMDL
MODEL       57
REMARK 921   NORMALIZED FREE ENERGY PREDICTED BY IDOCK:   -4.52 KCAL/MOL
REMARK 922        TOTAL FREE ENERGY PREDICTED BY IDOCK:   -9.16 KCAL/MOL
REMARK 923 INTER-LIGAND FREE ENERGY PREDICTED BY IDOCK:   -8.28 KCAL/MOL
REMARK 924 INTRA-LIGAND FREE ENERGY PREDICTED BY IDOCK:   -0.88 KCAL/MOL
REMARK 927      BINDING AFFINITY PREDICTED BY RF-SCORE:    0.00 PKD
ROOT
HETATM    1  C   UNK     1     -10.538  18.852  67.483  1.00  0.00    -0.451 C  
HETATM    2  O   UNK     1     -10.284  18.105  68.663  1.00  0.00    -0.378 OA 
ENDROOT
BRANCH   2   3
HETATM    3  C   UNK     1     -10.893  16.814  68.605  1.00  0.00    -0.336 C  
BRANCH   3   4
HETATM    4  C   UNK     1     -10.957  16.229  70.011  1.00  0.00    -0.355 C  
BRANCH   4   5
HETATM    5  O   UNK     1     -12.276  15.752  70.265  1.00  0.00    -0.386 OA 
BRANCH   5   6
HETATM    6  C   UNK     1     -12.276  14.697  71.225  1.00  0.00    -0.348 C  
BRANCH   6   7
HETATM    7  C   UNK     1     -12.370  13.362  70.499  1.00  0.00    -0.401 C  
BRANCH   7   8
HETATM    8  C   UNK     1     -12.769  12.217  71.436  1.00  0.00    -0.368 C  
BRANCH   8   9
HETATM    9  C   UNK     1     -12.172  10.897  70.955  1.00  0.00    -0.485 C  
BRANCH   9  10
HETATM   10  C   UNK     1     -12.279  10.729  69.441  1.00  0.00    -0.242 C  
BRANCH  10  11
HETATM   11  C   UNK     1     -10.910  10.527  68.819  1.00  0.00    -0.231 C  
HETATM   12  O   UNK     1      -9.897  10.288  69.470  1.00  0.00    -0.224 OA 
HETATM   13  N   UNK     1     -10.911  10.641  67.447  1.00  0.00    -0.301 N  
HETATM   14  H   UNK     1     -11.778  10.883  66.965  1.00  0.00     0.000 HD 
BRANCH  13  15
HETATM   15  C   UNK     1      -9.703  10.424  66.677  1.00  0.00    -0.190 C  
BRANCH  15  16
HETATM   16  C   UNK     1      -9.768  11.056  65.284  1.00  0.00    -0.286 C  
BRANCH  16  17
HETATM   17  C   UNK     1     -10.916  12.059  65.179  1.00  0.00    -0.359 C  
BRANCH  17  18
HETATM   18  C   UNK     1     -10.428  13.515  65.189  1.00  0.00    -0.375 C  
BRANCH  18  19
HETATM   19  C   UNK     1     -11.517  14.523  65.586  1.00  0.00    -0.341 C  
HETATM   20  N   UNK     1     -12.855  13.868  65.668  1.00  0.00    -0.601 NA 
HETATM   21  C   UNK     1     -11.595  15.661  64.556  1.00  0.00    -0.262 C  
HETATM   22  O   UNK     1     -10.837  16.611  64.496  1.00  0.00    -0.847 OA 
HETATM   23  O   UNK     1     -12.608  15.448  63.670  1.00  0.00    -0.508 OA 
HETATM   24  H1  UNK     1     -13.578  14.537  65.932  1.00  0.00     0.000 HD 
HETATM   25  H2  UNK     1     -12.841  13.064  66.297  1.00  0.00     0.000 HD 
ENDBRANCH  18  19
ENDBRANCH  17  18
ENDBRANCH  16  17
ENDBRANCH  15  16
ENDBRANCH  13  15
ENDBRANCH  10  11
ENDBRANCH   9  10
ENDBRANCH   8   9
ENDBRANCH   7   8
ENDBRANCH   6   7
ENDBRANCH   5   6
ENDBRANCH   4   5
ENDBRANCH   3   4
ENDBRANCH   2   3
TORSDOF 14
ENDMDL
MODEL       58
REMARK 921   NORMALIZED FREE ENERGY PREDICTED BY IDOCK:   -4.52 KCAL/MOL
REMARK 922        TOTAL FREE ENERGY PREDICTED BY IDOCK:   -9.14 KCAL/MOL
REMARK 923 INTER-LIGAND FREE ENERGY PREDICTED BY IDOCK:   -8.16 KCAL/MOL
REMARK 924 INTRA-LIGAND FREE ENERGY PREDICTED BY IDOCK:   -0.98 KCAL/MOL
REMARK 927      BINDING AFFINITY PREDICTED BY RF-SCORE:    0.00 PKD
ROOT
HETATM    1  C   UNK     1     -13.851   9.010  71.957  1.00  0.00    -0.444 C  
HETATM    2  O   UNK     1     -12.563   9.594  72.092  1.00  0.00    -0.362 OA 
ENDROOT
BRANCH   2   3
HETATM    3  C   UNK     1     -11.530   8.615  71.978  1.00  0.00    -0.367 C  
BRANCH   3   4
HETATM    4  C   UNK     1     -12.160   7.257  71.691  1.00  0.00    -0.325 C  
BRANCH   4   5
HETATM    5  O   UNK     1     -11.201   6.415  71.055  1.00  0.00    -0.282 OA 
BRANCH   5   6
HETATM    6  C   UNK     1     -11.425   6.338  69.648  1.00  0.00    -0.355 C  
BRANCH   6   7
HETATM    7  C   UNK     1     -10.248   6.974  68.920  1.00  0.00    -0.183 C  
BRANCH   7   8
HETATM    8  C   UNK     1     -10.431   6.963  67.398  1.00  0.00    -0.339 C  
BRANCH   8   9
HETATM    9  C   UNK     1     -10.502   8.387  66.856  1.00  0.00    -0.359 C  
BRANCH   9  10
HETATM   10  C   UNK     1      -9.307   8.732  65.971  1.00  0.00    -0.296 C  
BRANCH  10  11
HETATM   11  C   UNK     1      -9.431  10.138  65.413  1.00  0.00    -0.239 C  
HETATM   12  O   UNK     1      -8.936  11.126  65.947  1.00  0.00    -0.194 OA 
HETATM   13  N   UNK     1     -10.159  10.200  64.247  1.00  0.00    -0.449 N  
HETATM   14  H   UNK     1     -10.582   9.350  63.873  1.00  0.00     0.000 HD 
BRANCH  13  15
HETATM   15  C   UNK     1     -10.334  11.454  63.540  1.00  0.00    -0.423 C  
BRANCH  15  16
HETATM   16  C   UNK     1     -11.796  11.905  63.491  1.00  0.00    -0.560 C  
BRANCH  16  17
HETATM   17  C   UNK     1     -11.960  13.327  64.027  1.00  0.00    -0.525 C  
BRANCH  17  18
HETATM   18  C   UNK     1     -12.564  13.357  65.438  1.00  0.00    -0.528 C  
BRANCH  18  19
HETATM   19  C   UNK     1     -11.530  13.129  66.551  1.00  0.00    -0.338 C  
HETATM   20  N   UNK     1     -11.824  11.880  67.314  1.00  0.00    -0.612 NA 
HETATM   21  C   UNK     1     -11.530  14.311  67.533  1.00  0.00    -0.345 C  
HETATM   22  O   UNK     1     -10.987  15.384  67.346  1.00  0.00    -0.305 OA 
HETATM   23  O   UNK     1     -12.267  14.022  68.643  1.00  0.00    -0.332 OA 
HETATM   24  H1  UNK     1     -11.137  11.729  68.052  1.00  0.00     0.000 HD 
HETATM   25  H2  UNK     1     -11.894  11.072  66.696  1.00  0.00     0.000 HD 
ENDBRANCH  18  19
ENDBRANCH  17  18
ENDBRANCH  16  17
ENDBRANCH  15  16
ENDBRANCH  13  15
ENDBRANCH  10  11
ENDBRANCH   9  10
ENDBRANCH   8   9
ENDBRANCH   7   8
ENDBRANCH   6   7
ENDBRANCH   5   6
ENDBRANCH   4   5
ENDBRANCH   3   4
ENDBRANCH   2   3
TORSDOF 14
ENDMDL
MODEL       59
REMARK 921   NORMALIZED FREE ENERGY PREDICTED BY IDOCK:   -4.51 KCAL/MOL
REMARK 922        TOTAL FREE ENERGY PREDICTED BY IDOCK:   -9.14 KCAL/MOL
REMARK 923 INTER-LIGAND FREE ENERGY PREDICTED BY IDOCK:   -7.96 KCAL/MOL
REMARK 924 INTRA-LIGAND FREE ENERGY PREDICTED BY IDOCK:   -1.17 KCAL/MOL
REMARK 927      BINDING AFFINITY PREDICTED BY RF-SCORE:    0.00 PKD
ROOT
HETATM    1  C   UNK     1     -10.805   7.089  69.394  1.00  0.00    -0.227 C  
HETATM    2  O   UNK     1     -11.369   6.161  70.310  1.00  0.00    -0.365 OA 
ENDROOT
BRANCH   2   3
HETATM    3  C   UNK     1     -12.093   6.825  71.346  1.00  0.00    -0.366 C  
BRANCH   3   4
HETATM    4  C   UNK     1     -11.110   7.556  72.253  1.00  0.00    -0.273 C  
BRANCH   4   5
HETATM    5  O   UNK     1     -11.455   8.938  72.308  1.00  0.00    -0.348 OA 
BRANCH   5   6
HETATM    6  C   UNK     1     -12.834   9.146  72.013  1.00  0.00    -0.408 C  
BRANCH   6   7
HETATM    7  C   UNK     1     -13.066  10.623  71.724  1.00  0.00    -0.571 C  
BRANCH   7   8
HETATM    8  C   UNK     1     -11.915  11.248  70.927  1.00  0.00    -0.319 C  
BRANCH   8   9
HETATM    9  C   UNK     1     -12.071  10.952  69.438  1.00  0.00    -0.362 C  
BRANCH   9  10
HETATM   10  C   UNK     1     -11.116  11.777  68.579  1.00  0.00    -0.288 C  
BRANCH  10  11
HETATM   11  C   UNK     1     -11.858  12.883  67.852  1.00  0.00    -0.339 C  
HETATM   12  O   UNK     1     -12.278  13.895  68.403  1.00  0.00    -0.339 OA 
HETATM   13  N   UNK     1     -12.017  12.641  66.506  1.00  0.00    -0.386 N  
HETATM   14  H   UNK     1     -11.683  11.761  66.112  1.00  0.00     0.000 HD 
BRANCH  13  15
HETATM   15  C   UNK     1     -12.653  13.614  65.640  1.00  0.00    -0.484 C  
BRANCH  15  16
HETATM   16  C   UNK     1     -11.686  14.215  64.617  1.00  0.00    -0.427 C  
BRANCH  16  17
HETATM   17  C   UNK     1     -11.114  15.546  65.102  1.00  0.00    -0.382 C  
BRANCH  17  18
HETATM   18  C   UNK     1      -9.748  15.385  65.786  1.00  0.00    -0.385 C  
BRANCH  18  19
HETATM   19  C   UNK     1      -9.545  16.334  66.977  1.00  0.00    -0.231 C  
HETATM   20  N   UNK     1     -10.744  16.350  67.865  1.00  0.00    -0.326 NA 
HETATM   21  C   UNK     1      -9.285  17.766  66.484  1.00  0.00    -0.265 C  
HETATM   22  O   UNK     1      -8.224  18.185  66.061  1.00  0.00    -0.482 OA 
HETATM   23  O   UNK     1     -10.424  18.513  66.536  1.00  0.00    -0.389 OA 
HETATM   24  H1  UNK     1     -10.609  16.979  68.656  1.00  0.00     0.000 HD 
HETATM   25  H2  UNK     1     -10.995  15.410  68.173  1.00  0.00     0.000 HD 
ENDBRANCH  18  19
ENDBRANCH  17  18
ENDBRANCH  16  17
ENDBRANCH  15  16
ENDBRANCH  13  15
ENDBRANCH  10  11
ENDBRANCH   9  10
ENDBRANCH   8   9
ENDBRANCH   7   8
ENDBRANCH   6   7
ENDBRANCH   5   6
ENDBRANCH   4   5
ENDBRANCH   3   4
ENDBRANCH   2   3
TORSDOF 14
ENDMDL
MODEL       60
REMARK 921   NORMALIZED FREE ENERGY PREDICTED BY IDOCK:   -4.51 KCAL/MOL
REMARK 922        TOTAL FREE ENERGY PREDICTED BY IDOCK:   -9.12 KCAL/MOL
REMARK 923 INTER-LIGAND FREE ENERGY PREDICTED BY IDOCK:   -8.39 KCAL/MOL
REMARK 924 INTRA-LIGAND FREE ENERGY PREDICTED BY IDOCK:   -0.74 KCAL/MOL
REMARK 927      BINDING AFFINITY PREDICTED BY RF-SCORE:    0.00 PKD
ROOT
HETATM    1  C   UNK     1     -10.859   5.956  69.481  1.00  0.00    -0.372 C  
HETATM    2  O   UNK     1     -10.632   5.306  70.723  1.00  0.00    -0.245 OA 
ENDROOT
BRANCH   2   3
HETATM    3  C   UNK     1     -10.936   6.163  71.824  1.00  0.00    -0.264 C  
BRANCH   3   4
HETATM    4  C   UNK     1     -10.741   7.613  71.398  1.00  0.00    -0.222 C  
BRANCH   4   5
HETATM    5  O   UNK     1     -11.388   8.472  72.333  1.00  0.00    -0.366 OA 
BRANCH   5   6
HETATM    6  C   UNK     1     -12.602   9.001  71.805  1.00  0.00    -0.367 C  
BRANCH   6   7
HETATM    7  C   UNK     1     -12.317  10.343  71.144  1.00  0.00    -0.505 C  
BRANCH   7   8
HETATM    8  C   UNK     1     -13.050  11.499  71.834  1.00  0.00    -0.492 C  
BRANCH   8   9
HETATM    9  C   UNK     1     -12.726  12.824  71.150  1.00  0.00    -0.355 C  
BRANCH   9  10
HETATM   10  C   UNK     1     -12.766  14.003  72.120  1.00  0.00    -0.349 C  
BRANCH  10  11
HETATM   11  C   UNK     1     -11.910  15.150  71.615  1.00  0.00    -0.387 C  
HETATM   12  O   UNK     1     -11.911  16.269  72.118  1.00  0.00    -0.507 OA 
HETATM   13  N   UNK     1     -11.130  14.814  70.532  1.00  0.00    -0.478 N  
HETATM   14  H   UNK     1     -11.204  13.878  70.132  1.00  0.00     0.000 HD 
BRANCH  13  15
HETATM   15  C   UNK     1     -10.206  15.767  69.951  1.00  0.00    -0.273 C  
BRANCH  15  16
HETATM   16  C   UNK     1     -10.829  16.574  68.809  1.00  0.00    -0.342 C  
BRANCH  16  17
HETATM   17  C   UNK     1     -10.490  15.969  67.448  1.00  0.00    -0.308 C  
BRANCH  17  18
HETATM   18  C   UNK     1     -11.436  14.823  67.062  1.00  0.00    -0.362 C  
BRANCH  18  19
HETATM   19  C   UNK     1     -10.705  13.519  66.706  1.00  0.00    -0.278 C  
HETATM   20  N   UNK     1     -10.027  13.625  65.380  1.00  0.00    -0.499 NA 
HETATM   21  C   UNK     1     -11.695  12.345  66.654  1.00  0.00    -0.372 C  
HETATM   22  O   UNK     1     -12.136  11.751  67.620  1.00  0.00    -0.598 OA 
HETATM   23  O   UNK     1     -12.064  12.076  65.371  1.00  0.00    -0.444 OA 
HETATM   24  H1  UNK     1      -9.542  12.760  65.144  1.00  0.00     0.000 HD 
HETATM   25  H2  UNK     1      -9.401  14.429  65.343  1.00  0.00     0.000 HD 
ENDBRANCH  18  19
ENDBRANCH  17  18
ENDBRANCH  16  17
ENDBRANCH  15  16
ENDBRANCH  13  15
ENDBRANCH  10  11
ENDBRANCH   9  10
ENDBRANCH   8   9
ENDBRANCH   7   8
ENDBRANCH   6   7
ENDBRANCH   5   6
ENDBRANCH   4   5
ENDBRANCH   3   4
ENDBRANCH   2   3
TORSDOF 14
ENDMDL
MODEL       61
REMARK 921   NORMALIZED FREE ENERGY PREDICTED BY IDOCK:   -4.51 KCAL/MOL
REMARK 922        TOTAL FREE ENERGY PREDICTED BY IDOCK:   -9.12 KCAL/MOL
REMARK 923 INTER-LIGAND FREE ENERGY PREDICTED BY IDOCK:   -8.60 KCAL/MOL
REMARK 924 INTRA-LIGAND FREE ENERGY PREDICTED BY IDOCK:   -0.53 KCAL/MOL
REMARK 927      BINDING AFFINITY PREDICTED BY RF-SCORE:    0.00 PKD
ROOT
HETATM    1  C   UNK     1      -8.570   4.319  72.886  1.00  0.00    -0.101 C  
HETATM    2  O   UNK     1      -9.730   3.870  73.571  1.00  0.00    -0.106 OA 
ENDROOT
BRANCH   2   3
HETATM    3  C   UNK     1     -10.910   4.501  73.072  1.00  0.00    -0.237 C  
BRANCH   3   4
HETATM    4  C   UNK     1     -10.858   5.988  73.404  1.00  0.00    -0.231 C  
BRANCH   4   5
HETATM    5  O   UNK     1     -11.487   6.728  72.361  1.00  0.00    -0.268 OA 
BRANCH   5   6
HETATM    6  C   UNK     1     -11.398   8.133  72.588  1.00  0.00    -0.381 C  
BRANCH   6   7
HETATM    7  C   UNK     1     -12.086   8.868  71.445  1.00  0.00    -0.381 C  
BRANCH   7   8
HETATM    8  C   UNK     1     -12.997   9.995  71.943  1.00  0.00    -0.547 C  
BRANCH   8   9
HETATM    9  C   UNK     1     -12.702  11.293  71.196  1.00  0.00    -0.492 C  
BRANCH   9  10
HETATM   10  C   UNK     1     -13.173  12.525  71.965  1.00  0.00    -0.524 C  
BRANCH  10  11
HETATM   11  C   UNK     1     -12.839  13.798  71.209  1.00  0.00    -0.357 C  
HETATM   12  O   UNK     1     -13.468  14.844  71.329  1.00  0.00    -0.381 OA 
HETATM   13  N   UNK     1     -11.756  13.665  70.368  1.00  0.00    -0.521 N  
HETATM   14  H   UNK     1     -11.299  12.758  70.279  1.00  0.00     0.000 HD 
BRANCH  13  15
HETATM   15  C   UNK     1     -11.257  14.794  69.608  1.00  0.00    -0.275 C  
BRANCH  15  16
HETATM   16  C   UNK     1     -11.096  14.478  68.119  1.00  0.00    -0.280 C  
BRANCH  16  17
HETATM   17  C   UNK     1     -10.948  15.754  67.290  1.00  0.00    -0.259 C  
BRANCH  17  18
HETATM   18  C   UNK     1     -10.733  15.464  65.797  1.00  0.00    -0.360 C  
BRANCH  18  19
HETATM   19  C   UNK     1     -11.062  14.017  65.402  1.00  0.00    -0.318 C  
HETATM   20  N   UNK     1     -10.125  13.518  64.353  1.00  0.00    -0.717 NA 
HETATM   21  C   UNK     1     -12.496  13.922  64.858  1.00  0.00    -0.391 C  
HETATM   22  O   UNK     1     -13.507  13.891  65.535  1.00  0.00    -0.657 OA 
HETATM   23  O   UNK     1     -12.502  13.924  63.496  1.00  0.00    -0.810 OA 
HETATM   24  H1  UNK     1     -10.343  12.557  64.090  1.00  0.00     0.000 HD 
HETATM   25  H2  UNK     1      -9.152  13.615  64.643  1.00  0.00     0.000 HD 
ENDBRANCH  18  19
ENDBRANCH  17  18
ENDBRANCH  16  17
ENDBRANCH  15  16
ENDBRANCH  13  15
ENDBRANCH  10  11
ENDBRANCH   9  10
ENDBRANCH   8   9
ENDBRANCH   7   8
ENDBRANCH   6   7
ENDBRANCH   5   6
ENDBRANCH   4   5
ENDBRANCH   3   4
ENDBRANCH   2   3
TORSDOF 14
ENDMDL
MODEL       62
REMARK 921   NORMALIZED FREE ENERGY PREDICTED BY IDOCK:   -4.51 KCAL/MOL
REMARK 922        TOTAL FREE ENERGY PREDICTED BY IDOCK:   -9.12 KCAL/MOL
REMARK 923 INTER-LIGAND FREE ENERGY PREDICTED BY IDOCK:   -8.68 KCAL/MOL
REMARK 924 INTRA-LIGAND FREE ENERGY PREDICTED BY IDOCK:   -0.45 KCAL/MOL
REMARK 927      BINDING AFFINITY PREDICTED BY RF-SCORE:    0.00 PKD
ROOT
HETATM    1  C   UNK     1      -8.852   7.578  73.866  1.00  0.00    -0.243 C  
HETATM    2  O   UNK     1     -10.117   6.976  74.104  1.00  0.00    -0.329 OA 
ENDROOT
BRANCH   2   3
HETATM    3  C   UNK     1     -11.006   7.177  73.004  1.00  0.00    -0.317 C  
BRANCH   3   4
HETATM    4  C   UNK     1     -10.472   8.305  72.130  1.00  0.00    -0.301 C  
BRANCH   4   5
HETATM    5  O   UNK     1     -11.464   8.673  71.174  1.00  0.00    -0.262 OA 
BRANCH   5   6
HETATM    6  C   UNK     1     -11.214   9.968  70.632  1.00  0.00    -0.350 C  
BRANCH   6   7
HETATM    7  C   UNK     1     -12.543  10.674  70.396  1.00  0.00    -0.395 C  
BRANCH   7   8
HETATM    8  C   UNK     1     -12.556  12.096  70.968  1.00  0.00    -0.359 C  
BRANCH   8   9
HETATM    9  C   UNK     1     -12.061  13.098  69.928  1.00  0.00    -0.357 C  
BRANCH   9  10
HETATM   10  C   UNK     1     -12.614  14.501  70.165  1.00  0.00    -0.339 C  
BRANCH  10  11
HETATM   11  C   UNK     1     -11.674  15.556  69.610  1.00  0.00    -0.357 C  
HETATM   12  O   UNK     1     -11.112  16.396  70.304  1.00  0.00    -0.359 OA 
HETATM   13  N   UNK     1     -11.513  15.480  68.245  1.00  0.00    -0.354 N  
HETATM   14  H   UNK     1     -12.040  14.785  67.715  1.00  0.00     0.000 HD 
BRANCH  13  15
HETATM   15  C   UNK     1     -10.608  16.372  67.547  1.00  0.00    -0.309 C  
BRANCH  15  16
HETATM   16  C   UNK     1     -10.328  15.925  66.110  1.00  0.00    -0.341 C  
BRANCH  16  17
HETATM   17  C   UNK     1     -10.195  14.406  66.013  1.00  0.00    -0.328 C  
BRANCH  17  18
HETATM   18  C   UNK     1     -10.288  13.899  64.567  1.00  0.00    -0.260 C  
BRANCH  18  19
HETATM   19  C   UNK     1     -11.578  13.118  64.274  1.00  0.00    -0.392 C  
HETATM   20  N   UNK     1     -12.364  13.764  63.183  1.00  0.00    -1.106 NA 
HETATM   21  C   UNK     1     -12.459  13.045  65.532  1.00  0.00    -0.438 C  
HETATM   22  O   UNK     1     -12.294  12.283  66.465  1.00  0.00    -0.504 OA 
HETATM   23  O   UNK     1     -13.439  13.991  65.494  1.00  0.00    -0.677 OA 
HETATM   24  H1  UNK     1     -13.220  13.246  62.988  1.00  0.00     0.000 HD 
HETATM   25  H2  UNK     1     -11.803  13.890  62.340  1.00  0.00     0.000 HD 
ENDBRANCH  18  19
ENDBRANCH  17  18
ENDBRANCH  16  17
ENDBRANCH  15  16
ENDBRANCH  13  15
ENDBRANCH  10  11
ENDBRANCH   9  10
ENDBRANCH   8   9
ENDBRANCH   7   8
ENDBRANCH   6   7
ENDBRANCH   5   6
ENDBRANCH   4   5
ENDBRANCH   3   4
ENDBRANCH   2   3
TORSDOF 14
ENDMDL
MODEL       63
REMARK 921   NORMALIZED FREE ENERGY PREDICTED BY IDOCK:   -4.50 KCAL/MOL
REMARK 922        TOTAL FREE ENERGY PREDICTED BY IDOCK:   -9.12 KCAL/MOL
REMARK 923 INTER-LIGAND FREE ENERGY PREDICTED BY IDOCK:   -8.08 KCAL/MOL
REMARK 924 INTRA-LIGAND FREE ENERGY PREDICTED BY IDOCK:   -1.04 KCAL/MOL
REMARK 927      BINDING AFFINITY PREDICTED BY RF-SCORE:    0.00 PKD
ROOT
HETATM    1  C   UNK     1     -13.791   7.268  71.354  1.00  0.00    -0.304 C  
HETATM    2  O   UNK     1     -12.792   8.277  71.394  1.00  0.00    -0.305 OA 
ENDROOT
BRANCH   2   3
HETATM    3  C   UNK     1     -13.236   9.423  72.122  1.00  0.00    -0.460 C  
BRANCH   3   4
HETATM    4  C   UNK     1     -12.829  10.682  71.367  1.00  0.00    -0.451 C  
BRANCH   4   5
HETATM    5  O   UNK     1     -12.586  10.357  70.000  1.00  0.00    -0.219 OA 
BRANCH   5   6
HETATM    6  C   UNK     1     -11.316  10.838  69.566  1.00  0.00    -0.289 C  
BRANCH   6   7
HETATM    7  C   UNK     1     -11.487  11.578  68.246  1.00  0.00    -0.368 C  
BRANCH   7   8
HETATM    8  C   UNK     1     -10.635  10.973  67.125  1.00  0.00    -0.294 C  
BRANCH   8   9
HETATM    9  C   UNK     1     -10.674  11.860  65.883  1.00  0.00    -0.326 C  
BRANCH   9  10
HETATM   10  C   UNK     1     -12.039  12.511  65.677  1.00  0.00    -0.464 C  
BRANCH  10  11
HETATM   11  C   UNK     1     -11.891  13.934  65.171  1.00  0.00    -0.362 C  
HETATM   12  O   UNK     1     -12.734  14.500  64.481  1.00  0.00    -0.653 OA 
HETATM   13  N   UNK     1     -10.714  14.533  65.560  1.00  0.00    -0.320 N  
HETATM   14  H   UNK     1     -10.033  13.996  66.098  1.00  0.00     0.000 HD 
BRANCH  13  15
HETATM   15  C   UNK     1     -10.426  15.911  65.216  1.00  0.00    -0.377 C  
BRANCH  15  16
HETATM   16  C   UNK     1     -10.481  16.846  66.427  1.00  0.00    -0.252 C  
BRANCH  16  17
HETATM   17  C   UNK     1     -10.370  16.069  67.738  1.00  0.00    -0.279 C  
BRANCH  17  18
HETATM   18  C   UNK     1     -11.620  16.217  68.618  1.00  0.00    -0.283 C  
BRANCH  18  19
HETATM   19  C   UNK     1     -11.333  16.074  70.120  1.00  0.00    -0.365 C  
HETATM   20  N   UNK     1     -10.051  15.346  70.357  1.00  0.00    -0.402 NA 
HETATM   21  C   UNK     1     -12.466  15.301  70.812  1.00  0.00    -0.402 C  
HETATM   22  O   UNK     1     -13.543  15.767  71.135  1.00  0.00    -0.576 OA 
HETATM   23  O   UNK     1     -12.131  13.992  70.981  1.00  0.00    -0.336 OA 
HETATM   24  H1  UNK     1      -9.860  15.252  71.354  1.00  0.00     0.000 HD 
HETATM   25  H2  UNK     1      -9.273  15.788  69.867  1.00  0.00     0.000 HD 
ENDBRANCH  18  19
ENDBRANCH  17  18
ENDBRANCH  16  17
ENDBRANCH  15  16
ENDBRANCH  13  15
ENDBRANCH  10  11
ENDBRANCH   9  10
ENDBRANCH   8   9
ENDBRANCH   7   8
ENDBRANCH   6   7
ENDBRANCH   5   6
ENDBRANCH   4   5
ENDBRANCH   3   4
ENDBRANCH   2   3
TORSDOF 14
ENDMDL
MODEL       64
REMARK 921   NORMALIZED FREE ENERGY PREDICTED BY IDOCK:   -4.50 KCAL/MOL
REMARK 922        TOTAL FREE ENERGY PREDICTED BY IDOCK:   -9.11 KCAL/MOL
REMARK 923 INTER-LIGAND FREE ENERGY PREDICTED BY IDOCK:   -7.79 KCAL/MOL
REMARK 924 INTRA-LIGAND FREE ENERGY PREDICTED BY IDOCK:   -1.32 KCAL/MOL
REMARK 927      BINDING AFFINITY PREDICTED BY RF-SCORE:    0.00 PKD
ROOT
HETATM    1  C   UNK     1     -10.459   6.742  67.146  1.00  0.00    -0.293 C  
HETATM    2  O   UNK     1     -11.434   6.586  68.167  1.00  0.00    -0.146 OA 
ENDROOT
BRANCH   2   3
HETATM    3  C   UNK     1     -10.830   6.252  69.418  1.00  0.00    -0.340 C  
BRANCH   3   4
HETATM    4  C   UNK     1     -11.477   7.081  70.521  1.00  0.00    -0.319 C  
BRANCH   4   5
HETATM    5  O   UNK     1     -10.527   8.013  71.031  1.00  0.00    -0.202 OA 
BRANCH   5   6
HETATM    6  C   UNK     1     -11.124   8.914  71.962  1.00  0.00    -0.351 C  
BRANCH   6   7
HETATM    7  C   UNK     1     -12.618   9.004  71.680  1.00  0.00    -0.414 C  
BRANCH   7   8
HETATM    8  C   UNK     1     -13.103  10.453  71.563  1.00  0.00    -0.532 C  
BRANCH   8   9
HETATM    9  C   UNK     1     -12.155  11.267  70.686  1.00  0.00    -0.480 C  
BRANCH   9  10
HETATM   10  C   UNK     1     -12.024  10.686  69.280  1.00  0.00    -0.269 C  
BRANCH  10  11
HETATM   11  C   UNK     1     -10.622  10.893  68.736  1.00  0.00    -0.201 C  
HETATM   12  O   UNK     1      -9.908   9.979  68.336  1.00  0.00    -0.149 OA 
HETATM   13  N   UNK     1     -10.225  12.211  68.737  1.00  0.00    -0.381 N  
HETATM   14  H   UNK     1     -10.847  12.922  69.121  1.00  0.00     0.000 HD 
BRANCH  13  15
HETATM   15  C   UNK     1      -8.937  12.604  68.200  1.00  0.00    -0.199 C  
BRANCH  15  16
HETATM   16  C   UNK     1      -8.959  14.002  67.577  1.00  0.00    -0.195 C  
BRANCH  16  17
HETATM   17  C   UNK     1     -10.073  14.862  68.172  1.00  0.00    -0.222 C  
BRANCH  17  18
HETATM   18  C   UNK     1     -11.006  15.443  67.099  1.00  0.00    -0.317 C  
BRANCH  18  19
HETATM   19  C   UNK     1     -11.034  14.619  65.803  1.00  0.00    -0.330 C  
HETATM   20  N   UNK     1     -11.144  15.502  64.605  1.00  0.00    -0.656 NA 
HETATM   21  C   UNK     1     -12.229  13.653  65.807  1.00  0.00    -0.464 C  
HETATM   22  O   UNK     1     -12.276  12.591  66.399  1.00  0.00    -0.584 OA 
HETATM   23  O   UNK     1     -13.270  14.163  65.090  1.00  0.00    -0.743 OA 
HETATM   24  H1  UNK     1     -11.162  14.955  63.744  1.00  0.00     0.000 HD 
HETATM   25  H2  UNK     1     -10.403  16.203  64.587  1.00  0.00     0.000 HD 
ENDBRANCH  18  19
ENDBRANCH  17  18
ENDBRANCH  16  17
ENDBRANCH  15  16
ENDBRANCH  13  15
ENDBRANCH  10  11
ENDBRANCH   9  10
ENDBRANCH   8   9
ENDBRANCH   7   8
ENDBRANCH   6   7
ENDBRANCH   5   6
ENDBRANCH   4   5
ENDBRANCH   3   4
ENDBRANCH   2   3
TORSDOF 14
ENDMDL
MODEL       65
REMARK 921   NORMALIZED FREE ENERGY PREDICTED BY IDOCK:   -4.49 KCAL/MOL
REMARK 922        TOTAL FREE ENERGY PREDICTED BY IDOCK:   -9.09 KCAL/MOL
REMARK 923 INTER-LIGAND FREE ENERGY PREDICTED BY IDOCK:   -8.47 KCAL/MOL
REMARK 924 INTRA-LIGAND FREE ENERGY PREDICTED BY IDOCK:   -0.62 KCAL/MOL
REMARK 927      BINDING AFFINITY PREDICTED BY RF-SCORE:    0.00 PKD
ROOT
HETATM    1  C   UNK     1      -8.588   6.197  69.442  1.00  0.00    -0.123 C  
HETATM    2  O   UNK     1      -9.542   5.421  70.152  1.00  0.00    -0.158 OA 
ENDROOT
BRANCH   2   3
HETATM    3  C   UNK     1     -10.860   5.951  70.005  1.00  0.00    -0.351 C  
BRANCH   3   4
HETATM    4  C   UNK     1     -10.913   7.338  70.635  1.00  0.00    -0.256 C  
BRANCH   4   5
HETATM    5  O   UNK     1     -11.207   7.216  72.025  1.00  0.00    -0.239 OA 
BRANCH   5   6
HETATM    6  C   UNK     1     -12.222   8.132  72.428  1.00  0.00    -0.319 C  
BRANCH   6   7
HETATM    7  C   UNK     1     -12.302   9.266  71.415  1.00  0.00    -0.421 C  
BRANCH   7   8
HETATM    8  C   UNK     1     -13.234  10.393  71.875  1.00  0.00    -0.535 C  
BRANCH   8   9
HETATM    9  C   UNK     1     -12.846  11.713  71.215  1.00  0.00    -0.430 C  
BRANCH   9  10
HETATM   10  C   UNK     1     -13.275  12.923  72.041  1.00  0.00    -0.549 C  
BRANCH  10  11
HETATM   11  C   UNK     1     -12.891  14.218  71.348  1.00  0.00    -0.344 C  
HETATM   12  O   UNK     1     -13.472  15.283  71.532  1.00  0.00    -0.416 OA 
HETATM   13  N   UNK     1     -11.826  14.081  70.487  1.00  0.00    -0.453 N  
HETATM   14  H   UNK     1     -11.411  13.160  70.345  1.00  0.00     0.000 HD 
BRANCH  13  15
HETATM   15  C   UNK     1     -11.285  15.225  69.780  1.00  0.00    -0.286 C  
BRANCH  15  16
HETATM   16  C   UNK     1     -11.685  15.250  68.303  1.00  0.00    -0.320 C  
BRANCH  16  17
HETATM   17  C   UNK     1     -10.460  15.324  67.392  1.00  0.00    -0.270 C  
BRANCH  17  18
HETATM   18  C   UNK     1     -10.554  14.360  66.201  1.00  0.00    -0.298 C  
BRANCH  18  19
HETATM   19  C   UNK     1     -11.993  13.941  65.864  1.00  0.00    -0.407 C  
HETATM   20  N   UNK     1     -12.225  12.501  66.181  1.00  0.00    -0.608 NA 
HETATM   21  C   UNK     1     -12.281  14.163  64.371  1.00  0.00    -0.439 C  
HETATM   22  O   UNK     1     -12.547  15.233  63.856  1.00  0.00    -0.765 OA 
HETATM   23  O   UNK     1     -12.154  13.001  63.672  1.00  0.00    -0.486 OA 
HETATM   24  H1  UNK     1     -13.181  12.224  65.959  1.00  0.00     0.000 HD 
HETATM   25  H2  UNK     1     -11.990  12.289  67.151  1.00  0.00     0.000 HD 
ENDBRANCH  18  19
ENDBRANCH  17  18
ENDBRANCH  16  17
ENDBRANCH  15  16
ENDBRANCH  13  15
ENDBRANCH  10  11
ENDBRANCH   9  10
ENDBRANCH   8   9
ENDBRANCH   7   8
ENDBRANCH   6   7
ENDBRANCH   5   6
ENDBRANCH   4   5
ENDBRANCH   3   4
ENDBRANCH   2   3
TORSDOF 14
ENDMDL
MODEL       66
REMARK 921   NORMALIZED FREE ENERGY PREDICTED BY IDOCK:   -4.48 KCAL/MOL
REMARK 922        TOTAL FREE ENERGY PREDICTED BY IDOCK:   -9.08 KCAL/MOL
REMARK 923 INTER-LIGAND FREE ENERGY PREDICTED BY IDOCK:   -8.43 KCAL/MOL
REMARK 924 INTRA-LIGAND FREE ENERGY PREDICTED BY IDOCK:   -0.65 KCAL/MOL
REMARK 927      BINDING AFFINITY PREDICTED BY RF-SCORE:    0.00 PKD
ROOT
HETATM    1  C   UNK     1      -9.773   8.180  66.284  1.00  0.00    -0.153 C  
HETATM    2  O   UNK     1     -10.566   8.370  67.447  1.00  0.00    -0.281 OA 
ENDROOT
BRANCH   2   3
HETATM    3  C   UNK     1     -10.090   7.580  68.538  1.00  0.00    -0.184 C  
BRANCH   3   4
HETATM    4  C   UNK     1     -11.160   6.566  68.924  1.00  0.00    -0.301 C  
BRANCH   4   5
HETATM    5  O   UNK     1     -11.053   6.271  70.314  1.00  0.00    -0.303 OA 
BRANCH   5   6
HETATM    6  C   UNK     1     -12.087   6.904  71.065  1.00  0.00    -0.380 C  
BRANCH   6   7
HETATM    7  C   UNK     1     -11.458   7.841  72.088  1.00  0.00    -0.361 C  
BRANCH   7   8
HETATM    8  C   UNK     1     -11.137   9.218  71.497  1.00  0.00    -0.443 C  
BRANCH   8   9
HETATM    9  C   UNK     1     -12.422   9.971  71.161  1.00  0.00    -0.480 C  
BRANCH   9  10
HETATM   10  C   UNK     1     -12.196  11.076  70.133  1.00  0.00    -0.424 C  
BRANCH  10  11
HETATM   11  C   UNK     1     -12.401  12.446  70.753  1.00  0.00    -0.286 C  
HETATM   12  O   UNK     1     -13.223  12.675  71.635  1.00  0.00    -0.396 OA 
HETATM   13  N   UNK     1     -11.575  13.413  70.227  1.00  0.00    -0.526 N  
HETATM   14  H   UNK     1     -10.940  13.170  69.466  1.00  0.00     0.000 HD 
BRANCH  13  15
HETATM   15  C   UNK     1     -11.591  14.769  70.738  1.00  0.00    -0.267 C  
BRANCH  15  16
HETATM   16  C   UNK     1     -10.884  15.759  69.808  1.00  0.00    -0.314 C  
BRANCH  16  17
HETATM   17  C   UNK     1     -10.497  15.102  68.484  1.00  0.00    -0.233 C  
BRANCH  17  18
HETATM   18  C   UNK     1     -11.115  15.814  67.271  1.00  0.00    -0.211 C  
BRANCH  18  19
HETATM   19  C   UNK     1     -10.311  15.626  65.976  1.00  0.00    -0.335 C  
HETATM   20  N   UNK     1      -9.327  16.733  65.786  1.00  0.00    -0.523 NA 
HETATM   21  C   UNK     1     -11.251  15.596  64.760  1.00  0.00    -0.382 C  
HETATM   22  O   UNK     1     -11.913  14.640  64.405  1.00  0.00    -0.457 OA 
HETATM   23  O   UNK     1     -11.290  16.811  64.145  1.00  0.00    -1.194 OA 
HETATM   24  H1  UNK     1      -8.793  16.608  64.926  1.00  0.00     0.000 HD 
HETATM   25  H2  UNK     1      -8.715  16.833  66.596  1.00  0.00     0.000 HD 
ENDBRANCH  18  19
ENDBRANCH  17  18
ENDBRANCH  16  17
ENDBRANCH  15  16
ENDBRANCH  13  15
ENDBRANCH  10  11
ENDBRANCH   9  10
ENDBRANCH   8   9
ENDBRANCH   7   8
ENDBRANCH   6   7
ENDBRANCH   5   6
ENDBRANCH   4   5
ENDBRANCH   3   4
ENDBRANCH   2   3
TORSDOF 14
ENDMDL
MODEL       67
REMARK 921   NORMALIZED FREE ENERGY PREDICTED BY IDOCK:   -4.47 KCAL/MOL
REMARK 922        TOTAL FREE ENERGY PREDICTED BY IDOCK:   -9.06 KCAL/MOL
REMARK 923 INTER-LIGAND FREE ENERGY PREDICTED BY IDOCK:   -8.18 KCAL/MOL
REMARK 924 INTRA-LIGAND FREE ENERGY PREDICTED BY IDOCK:   -0.88 KCAL/MOL
REMARK 927      BINDING AFFINITY PREDICTED BY RF-SCORE:    0.00 PKD
ROOT
HETATM    1  C   UNK     1     -10.797   3.092  73.283  1.00  0.00    -0.180 C  
HETATM    2  O   UNK     1     -10.420   4.283  72.608  1.00  0.00    -0.182 OA 
ENDROOT
BRANCH   2   3
HETATM    3  C   UNK     1     -11.191   5.400  73.050  1.00  0.00    -0.311 C  
BRANCH   3   4
HETATM    4  C   UNK     1     -11.474   6.314  71.863  1.00  0.00    -0.309 C  
BRANCH   4   5
HETATM    5  O   UNK     1     -11.876   7.596  72.338  1.00  0.00    -0.310 OA 
BRANCH   5   6
HETATM    6  C   UNK     1     -13.138   7.982  71.798  1.00  0.00    -0.336 C  
BRANCH   6   7
HETATM    7  C   UNK     1     -13.220   9.503  71.759  1.00  0.00    -0.505 C  
BRANCH   7   8
HETATM    8  C   UNK     1     -11.932  10.142  71.226  1.00  0.00    -0.473 C  
BRANCH   8   9
HETATM    9  C   UNK     1     -12.225  11.507  70.611  1.00  0.00    -0.473 C  
BRANCH   9  10
HETATM   10  C   UNK     1     -11.551  11.690  69.254  1.00  0.00    -0.385 C  
BRANCH  10  11
HETATM   11  C   UNK     1     -11.869  13.053  68.668  1.00  0.00    -0.318 C  
HETATM   12  O   UNK     1     -12.135  14.039  69.348  1.00  0.00    -0.324 OA 
HETATM   13  N   UNK     1     -11.834  13.077  67.292  1.00  0.00    -0.372 N  
HETATM   14  H   UNK     1     -11.647  12.215  66.780  1.00  0.00     0.000 HD 
BRANCH  13  15
HETATM   15  C   UNK     1     -12.056  14.308  66.559  1.00  0.00    -0.429 C  
BRANCH  15  16
HETATM   16  C   UNK     1     -12.272  14.074  65.062  1.00  0.00    -0.448 C  
BRANCH  16  17
HETATM   17  C   UNK     1     -12.550  12.602  64.761  1.00  0.00    -0.530 C  
BRANCH  17  18
HETATM   18  C   UNK     1     -11.706  12.071  63.593  1.00  0.00    -0.587 C  
BRANCH  18  19
HETATM   19  C   UNK     1     -10.199  12.042  63.889  1.00  0.00    -0.398 C  
HETATM   20  N   UNK     1      -9.408  11.826  62.642  1.00  0.00    -0.551 NA 
HETATM   21  C   UNK     1      -9.868  10.913  64.878  1.00  0.00    -0.284 C  
HETATM   22  O   UNK     1     -10.033  10.960  66.082  1.00  0.00    -0.216 OA 
HETATM   23  O   UNK     1      -9.404   9.813  64.223  1.00  0.00    -0.261 OA 
HETATM   24  H1  UNK     1      -8.408  11.807  62.839  1.00  0.00     0.000 HD 
HETATM   25  H2  UNK     1      -9.636  12.518  61.929  1.00  0.00     0.000 HD 
ENDBRANCH  18  19
ENDBRANCH  17  18
ENDBRANCH  16  17
ENDBRANCH  15  16
ENDBRANCH  13  15
ENDBRANCH  10  11
ENDBRANCH   9  10
ENDBRANCH   8   9
ENDBRANCH   7   8
ENDBRANCH   6   7
ENDBRANCH   5   6
ENDBRANCH   4   5
ENDBRANCH   3   4
ENDBRANCH   2   3
TORSDOF 14
ENDMDL
MODEL       68
REMARK 921   NORMALIZED FREE ENERGY PREDICTED BY IDOCK:   -4.46 KCAL/MOL
REMARK 922        TOTAL FREE ENERGY PREDICTED BY IDOCK:   -9.05 KCAL/MOL
REMARK 923 INTER-LIGAND FREE ENERGY PREDICTED BY IDOCK:   -8.30 KCAL/MOL
REMARK 924 INTRA-LIGAND FREE ENERGY PREDICTED BY IDOCK:   -0.75 KCAL/MOL
REMARK 927      BINDING AFFINITY PREDICTED BY RF-SCORE:    0.00 PKD
ROOT
HETATM    1  C   UNK     1     -13.085  11.993  71.793  1.00  0.00    -0.355 C  
HETATM    2  O   UNK     1     -12.246  11.354  70.843  1.00  0.00    -0.370 OA 
ENDROOT
BRANCH   2   3
HETATM    3  C   UNK     1     -11.873  10.044  71.272  1.00  0.00    -0.385 C  
BRANCH   3   4
HETATM    4  C   UNK     1     -13.045   9.408  72.010  1.00  0.00    -0.433 C  
BRANCH   4   5
HETATM    5  O   UNK     1     -12.614   8.197  72.627  1.00  0.00    -0.225 OA 
BRANCH   5   6
HETATM    6  C   UNK     1     -12.935   7.060  71.827  1.00  0.00    -0.310 C  
BRANCH   6   7
HETATM    7  C   UNK     1     -11.869   5.991  72.029  1.00  0.00    -0.284 C  
BRANCH   7   8
HETATM    8  C   UNK     1     -10.961   5.836  70.804  1.00  0.00    -0.312 C  
BRANCH   8   9
HETATM    9  C   UNK     1     -11.592   6.498  69.581  1.00  0.00    -0.348 C  
BRANCH   9  10
HETATM   10  C   UNK     1     -10.798   6.233  68.304  1.00  0.00    -0.397 C  
BRANCH  10  11
HETATM   11  C   UNK     1     -10.003   7.460  67.895  1.00  0.00    -0.165 C  
HETATM   12  O   UNK     1      -8.847   7.669  68.247  1.00  0.00    -0.127 OA 
HETATM   13  N   UNK     1     -10.709   8.323  67.088  1.00  0.00    -0.446 N  
HETATM   14  H   UNK     1     -11.683   8.116  66.863  1.00  0.00     0.000 HD 
BRANCH  13  15
HETATM   15  C   UNK     1     -10.092   9.521  66.553  1.00  0.00    -0.256 C  
BRANCH  15  16
HETATM   16  C   UNK     1      -9.410   9.282  65.204  1.00  0.00    -0.239 C  
BRANCH  16  17
HETATM   17  C   UNK     1      -9.699  10.417  64.222  1.00  0.00    -0.389 C  
BRANCH  17  18
HETATM   18  C   UNK     1     -10.121  11.713  64.929  1.00  0.00    -0.303 C  
BRANCH  18  19
HETATM   19  C   UNK     1     -10.608  12.805  63.965  1.00  0.00    -0.416 C  
HETATM   20  N   UNK     1     -10.165  14.158  64.414  1.00  0.00    -0.676 NA 
HETATM   21  C   UNK     1     -12.143  12.799  63.879  1.00  0.00    -0.486 C  
HETATM   22  O   UNK     1     -12.810  12.022  63.223  1.00  0.00    -0.732 OA 
HETATM   23  O   UNK     1     -12.679  13.761  64.682  1.00  0.00    -0.644 OA 
HETATM   24  H1  UNK     1     -10.488  14.883  63.774  1.00  0.00     0.000 HD 
HETATM   25  H2  UNK     1      -9.154  14.197  64.545  1.00  0.00     0.000 HD 
ENDBRANCH  18  19
ENDBRANCH  17  18
ENDBRANCH  16  17
ENDBRANCH  15  16
ENDBRANCH  13  15
ENDBRANCH  10  11
ENDBRANCH   9  10
ENDBRANCH   8   9
ENDBRANCH   7   8
ENDBRANCH   6   7
ENDBRANCH   5   6
ENDBRANCH   4   5
ENDBRANCH   3   4
ENDBRANCH   2   3
TORSDOF 14
ENDMDL
MODEL       69
REMARK 921   NORMALIZED FREE ENERGY PREDICTED BY IDOCK:   -4.46 KCAL/MOL
REMARK 922        TOTAL FREE ENERGY PREDICTED BY IDOCK:   -9.04 KCAL/MOL
REMARK 923 INTER-LIGAND FREE ENERGY PREDICTED BY IDOCK:   -8.18 KCAL/MOL
REMARK 924 INTRA-LIGAND FREE ENERGY PREDICTED BY IDOCK:   -0.86 KCAL/MOL
REMARK 927      BINDING AFFINITY PREDICTED BY RF-SCORE:    0.00 PKD
ROOT
HETATM    1  C   UNK     1     -10.493  19.787  65.827  1.00  0.00    -0.445 C  
HETATM    2  O   UNK     1     -10.709  18.423  65.495  1.00  0.00    -0.588 OA 
ENDROOT
BRANCH   2   3
HETATM    3  C   UNK     1     -10.004  17.552  66.380  1.00  0.00    -0.325 C  
BRANCH   3   4
HETATM    4  C   UNK     1     -10.044  16.134  65.822  1.00  0.00    -0.363 C  
BRANCH   4   5
HETATM    5  O   UNK     1     -10.858  16.109  64.652  1.00  0.00    -0.650 OA 
BRANCH   5   6
HETATM    6  C   UNK     1     -11.559  14.873  64.528  1.00  0.00    -0.352 C  
BRANCH   6   7
HETATM    7  C   UNK     1     -11.847  14.321  65.918  1.00  0.00    -0.386 C  
BRANCH   7   8
HETATM    8  C   UNK     1     -11.829  12.789  65.951  1.00  0.00    -0.490 C  
BRANCH   8   9
HETATM    9  C   UNK     1     -11.234  12.287  67.264  1.00  0.00    -0.358 C  
BRANCH   9  10
HETATM   10  C   UNK     1     -11.630  13.160  68.452  1.00  0.00    -0.372 C  
BRANCH  10  11
HETATM   11  C   UNK     1     -11.795  12.325  69.708  1.00  0.00    -0.318 C  
HETATM   12  O   UNK     1     -12.411  12.704  70.699  1.00  0.00    -0.359 OA 
HETATM   13  N   UNK     1     -11.181  11.095  69.631  1.00  0.00    -0.308 N  
HETATM   14  H   UNK     1     -10.647  10.853  68.796  1.00  0.00     0.000 HD 
BRANCH  13  15
HETATM   15  C   UNK     1     -11.280  10.139  70.716  1.00  0.00    -0.336 C  
BRANCH  15  16
HETATM   16  C   UNK     1      -9.960   9.414  70.988  1.00  0.00    -0.334 C  
BRANCH  16  17
HETATM   17  C   UNK     1      -9.695   8.326  69.947  1.00  0.00    -0.180 C  
BRANCH  17  18
HETATM   18  C   UNK     1      -9.581   6.929  70.573  1.00  0.00    -0.171 C  
BRANCH  18  19
HETATM   19  C   UNK     1     -10.890   6.127  70.522  1.00  0.00    -0.300 C  
HETATM   20  N   UNK     1     -11.804   6.652  69.465  1.00  0.00    -0.632 NA 
HETATM   21  C   UNK     1     -11.617   6.198  71.874  1.00  0.00    -0.296 C  
HETATM   22  O   UNK     1     -11.337   5.543  72.860  1.00  0.00    -0.291 OA 
HETATM   23  O   UNK     1     -12.603   7.138  71.848  1.00  0.00    -0.323 OA 
HETATM   24  H1  UNK     1     -12.673   6.120  69.431  1.00  0.00     0.000 HD 
HETATM   25  H2  UNK     1     -11.346   6.682  68.554  1.00  0.00     0.000 HD 
ENDBRANCH  18  19
ENDBRANCH  17  18
ENDBRANCH  16  17
ENDBRANCH  15  16
ENDBRANCH  13  15
ENDBRANCH  10  11
ENDBRANCH   9  10
ENDBRANCH   8   9
ENDBRANCH   7   8
ENDBRANCH   6   7
ENDBRANCH   5   6
ENDBRANCH   4   5
ENDBRANCH   3   4
ENDBRANCH   2   3
TORSDOF 14
ENDMDL
MODEL       70
REMARK 921   NORMALIZED FREE ENERGY PREDICTED BY IDOCK:   -4.45 KCAL/MOL
REMARK 922        TOTAL FREE ENERGY PREDICTED BY IDOCK:   -9.02 KCAL/MOL
REMARK 923 INTER-LIGAND FREE ENERGY PREDICTED BY IDOCK:   -7.65 KCAL/MOL
REMARK 924 INTRA-LIGAND FREE ENERGY PREDICTED BY IDOCK:   -1.38 KCAL/MOL
REMARK 927      BINDING AFFINITY PREDICTED BY RF-SCORE:    0.00 PKD
ROOT
HETATM    1  C   UNK     1     -12.250  15.046  64.258  1.00  0.00    -0.293 C  
HETATM    2  O   UNK     1     -12.412  13.760  63.679  1.00  0.00    -0.718 OA 
ENDROOT
BRANCH   2   3
HETATM    3  C   UNK     1     -12.095  12.724  64.609  1.00  0.00    -0.423 C  
BRANCH   3   4
HETATM    4  C   UNK     1     -10.583  12.657  64.785  1.00  0.00    -0.317 C  
BRANCH   4   5
HETATM    5  O   UNK     1     -10.277  12.383  66.151  1.00  0.00    -0.233 OA 
BRANCH   5   6
HETATM    6  C   UNK     1     -10.270  13.573  66.935  1.00  0.00    -0.256 C  
BRANCH   6   7
HETATM    7  C   UNK     1     -10.857  13.270  68.308  1.00  0.00    -0.276 C  
BRANCH   7   8
HETATM    8  C   UNK     1     -11.695  14.432  68.853  1.00  0.00    -0.357 C  
BRANCH   8   9
HETATM    9  C   UNK     1     -11.552  14.532  70.369  1.00  0.00    -0.308 C  
BRANCH   9  10
HETATM   10  C   UNK     1     -12.880  14.835  71.058  1.00  0.00    -0.415 C  
BRANCH  10  11
HETATM   11  C   UNK     1     -13.395  13.618  71.804  1.00  0.00    -0.388 C  
HETATM   12  O   UNK     1     -14.254  13.672  72.679  1.00  0.00    -0.735 OA 
HETATM   13  N   UNK     1     -12.802  12.442  71.406  1.00  0.00    -0.330 N  
HETATM   14  H   UNK     1     -12.063  12.466  70.702  1.00  0.00     0.000 HD 
BRANCH  13  15
HETATM   15  C   UNK     1     -13.209  11.170  71.969  1.00  0.00    -0.323 C  
BRANCH  15  16
HETATM   16  C   UNK     1     -12.347  10.003  71.479  1.00  0.00    -0.513 C  
BRANCH  16  17
HETATM   17  C   UNK     1     -11.786  10.272  70.083  1.00  0.00    -0.364 C  
BRANCH  17  18
HETATM   18  C   UNK     1     -10.285   9.960  69.983  1.00  0.00    -0.319 C  
BRANCH  18  19
HETATM   19  C   UNK     1      -9.845   9.515  68.580  1.00  0.00    -0.162 C  
HETATM   20  N   UNK     1     -10.977   9.586  67.611  1.00  0.00    -0.471 NA 
HETATM   21  C   UNK     1      -9.325   8.069  68.615  1.00  0.00    -0.146 C  
HETATM   22  O   UNK     1      -8.221   7.725  68.994  1.00  0.00    -0.123 OA 
HETATM   23  O   UNK     1     -10.288   7.195  68.207  1.00  0.00    -0.181 OA 
HETATM   24  H1  UNK     1     -10.685   9.291  66.680  1.00  0.00     0.000 HD 
HETATM   25  H2  UNK     1     -11.398  10.515  67.594  1.00  0.00     0.000 HD 
ENDBRANCH  18  19
ENDBRANCH  17  18
ENDBRANCH  16  17
ENDBRANCH  15  16
ENDBRANCH  13  15
ENDBRANCH  10  11
ENDBRANCH   9  10
ENDBRANCH   8   9
ENDBRANCH   7   8
ENDBRANCH   6   7
ENDBRANCH   5   6
ENDBRANCH   4   5
ENDBRANCH   3   4
ENDBRANCH   2   3
TORSDOF 14
ENDMDL
MODEL       71
REMARK 921   NORMALIZED FREE ENERGY PREDICTED BY IDOCK:   -4.45 KCAL/MOL
REMARK 922        TOTAL FREE ENERGY PREDICTED BY IDOCK:   -9.02 KCAL/MOL
REMARK 923 INTER-LIGAND FREE ENERGY PREDICTED BY IDOCK:   -8.19 KCAL/MOL
REMARK 924 INTRA-LIGAND FREE ENERGY PREDICTED BY IDOCK:   -0.83 KCAL/MOL
REMARK 927      BINDING AFFINITY PREDICTED BY RF-SCORE:    0.00 PKD
ROOT
HETATM    1  C   UNK     1     -12.709  15.787  72.480  1.00  0.00    -0.451 C  
HETATM    2  O   UNK     1     -12.574  14.514  71.866  1.00  0.00    -0.324 OA 
ENDROOT
BRANCH   2   3
HETATM    3  C   UNK     1     -13.759  13.733  72.017  1.00  0.00    -0.482 C  
BRANCH   3   4
HETATM    4  C   UNK     1     -13.409  12.258  71.857  1.00  0.00    -0.329 C  
BRANCH   4   5
HETATM    5  O   UNK     1     -12.288  12.130  70.987  1.00  0.00    -0.351 OA 
BRANCH   5   6
HETATM    6  C   UNK     1     -12.058  10.769  70.625  1.00  0.00    -0.370 C  
BRANCH   6   7
HETATM    7  C   UNK     1     -12.812   9.863  71.590  1.00  0.00    -0.537 C  
BRANCH   7   8
HETATM    8  C   UNK     1     -12.884   8.415  71.092  1.00  0.00    -0.091 C  
BRANCH   8   9
HETATM    9  C   UNK     1     -11.482   7.859  70.854  1.00  0.00    -0.294 C  
BRANCH   9  10
HETATM   10  C   UNK     1     -11.508   6.495  70.169  1.00  0.00    -0.477 C  
BRANCH  10  11
HETATM   11  C   UNK     1     -10.878   6.568  68.790  1.00  0.00    -0.299 C  
HETATM   12  O   UNK     1     -10.432   5.592  68.195  1.00  0.00    -0.201 OA 
HETATM   13  N   UNK     1     -10.851   7.842  68.269  1.00  0.00    -0.430 N  
HETATM   14  H   UNK     1     -11.199   8.621  68.830  1.00  0.00     0.000 HD 
BRANCH  13  15
HETATM   15  C   UNK     1     -10.337   8.095  66.938  1.00  0.00    -0.331 C  
BRANCH  15  16
HETATM   16  C   UNK     1      -9.923   9.555  66.731  1.00  0.00    -0.297 C  
BRANCH  16  17
HETATM   17  C   UNK     1     -11.061  10.513  67.082  1.00  0.00    -0.232 C  
BRANCH  17  18
HETATM   18  C   UNK     1     -10.980  11.833  66.301  1.00  0.00    -0.346 C  
BRANCH  18  19
HETATM   19  C   UNK     1     -11.038  11.646  64.777  1.00  0.00    -0.264 C  
HETATM   20  N   UNK     1      -9.788  12.137  64.125  1.00  0.00    -0.510 NA 
HETATM   21  C   UNK     1     -12.230  12.417  64.187  1.00  0.00    -0.468 C  
HETATM   22  O   UNK     1     -13.388  12.046  64.205  1.00  0.00    -0.725 OA 
HETATM   23  O   UNK     1     -11.830  13.613  63.672  1.00  0.00    -0.380 OA 
HETATM   24  H1  UNK     1      -9.826  12.013  63.114  1.00  0.00     0.000 HD 
HETATM   25  H2  UNK     1      -8.959  11.698  64.525  1.00  0.00     0.000 HD 
ENDBRANCH  18  19
ENDBRANCH  17  18
ENDBRANCH  16  17
ENDBRANCH  15  16
ENDBRANCH  13  15
ENDBRANCH  10  11
ENDBRANCH   9  10
ENDBRANCH   8   9
ENDBRANCH   7   8
ENDBRANCH   6   7
ENDBRANCH   5   6
ENDBRANCH   4   5
ENDBRANCH   3   4
ENDBRANCH   2   3
TORSDOF 14
ENDMDL
MODEL       72
REMARK 921   NORMALIZED FREE ENERGY PREDICTED BY IDOCK:   -4.44 KCAL/MOL
REMARK 922        TOTAL FREE ENERGY PREDICTED BY IDOCK:   -9.00 KCAL/MOL
REMARK 923 INTER-LIGAND FREE ENERGY PREDICTED BY IDOCK:   -7.71 KCAL/MOL
REMARK 924 INTRA-LIGAND FREE ENERGY PREDICTED BY IDOCK:   -1.30 KCAL/MOL
REMARK 927      BINDING AFFINITY PREDICTED BY RF-SCORE:    0.00 PKD
ROOT
HETATM    1  C   UNK     1      -9.669   9.931  67.002  1.00  0.00    -0.182 C  
HETATM    2  O   UNK     1      -8.832   9.844  65.858  1.00  0.00    -0.140 OA 
ENDROOT
BRANCH   2   3
HETATM    3  C   UNK     1      -9.581   9.985  64.650  1.00  0.00    -0.297 C  
BRANCH   3   4
HETATM    4  C   UNK     1     -10.407  11.263  64.722  1.00  0.00    -0.307 C  
BRANCH   4   5
HETATM    5  O   UNK     1     -10.871  11.600  63.416  1.00  0.00    -0.391 OA 
BRANCH   5   6
HETATM    6  C   UNK     1     -11.832  12.653  63.457  1.00  0.00    -0.541 C  
BRANCH   6   7
HETATM    7  C   UNK     1     -12.561  12.612  64.794  1.00  0.00    -0.530 C  
BRANCH   7   8
HETATM    8  C   UNK     1     -12.719  14.005  65.414  1.00  0.00    -0.499 C  
BRANCH   8   9
HETATM    9  C   UNK     1     -11.985  14.084  66.750  1.00  0.00    -0.473 C  
BRANCH   9  10
HETATM   10  C   UNK     1     -10.794  15.037  66.702  1.00  0.00    -0.318 C  
BRANCH  10  11
HETATM   11  C   UNK     1     -10.882  16.073  67.808  1.00  0.00    -0.324 C  
HETATM   12  O   UNK     1     -11.336  15.839  68.923  1.00  0.00    -0.309 OA 
HETATM   13  N   UNK     1     -10.404  17.310  67.437  1.00  0.00    -0.330 N  
HETATM   14  H   UNK     1     -10.078  17.455  66.481  1.00  0.00     0.000 HD 
BRANCH  13  15
HETATM   15  C   UNK     1     -10.357  18.408  68.381  1.00  0.00    -0.327 C  
BRANCH  15  16
HETATM   16  C   UNK     1     -10.243  19.772  67.696  1.00  0.00    -0.569 C  
BRANCH  16  17
HETATM   17  C   UNK     1      -9.434  19.682  66.403  1.00  0.00    -0.479 C  
BRANCH  17  18
HETATM   18  C   UNK     1      -7.947  20.001  66.617  1.00  0.00    -0.346 C  
BRANCH  18  19
HETATM   19  C   UNK     1      -7.034  18.771  66.493  1.00  0.00    -0.213 C  
HETATM   20  N   UNK     1      -7.729  17.651  65.794  1.00  0.00    -0.535 NA 
HETATM   21  C   UNK     1      -6.600  18.283  67.885  1.00  0.00    -0.203 C  
HETATM   22  O   UNK     1      -5.722  18.779  68.564  1.00  0.00    -0.196 OA 
HETATM   23  O   UNK     1      -7.368  17.234  68.293  1.00  0.00    -0.197 OA 
HETATM   24  H1  UNK     1      -7.123  16.835  65.712  1.00  0.00     0.000 HD 
HETATM   25  H2  UNK     1      -8.090  17.942  64.886  1.00  0.00     0.000 HD 
ENDBRANCH  18  19
ENDBRANCH  17  18
ENDBRANCH  16  17
ENDBRANCH  15  16
ENDBRANCH  13  15
ENDBRANCH  10  11
ENDBRANCH   9  10
ENDBRANCH   8   9
ENDBRANCH   7   8
ENDBRANCH   6   7
ENDBRANCH   5   6
ENDBRANCH   4   5
ENDBRANCH   3   4
ENDBRANCH   2   3
TORSDOF 14
ENDMDL
MODEL       73
REMARK 921   NORMALIZED FREE ENERGY PREDICTED BY IDOCK:   -4.43 KCAL/MOL
REMARK 922        TOTAL FREE ENERGY PREDICTED BY IDOCK:   -8.98 KCAL/MOL
REMARK 923 INTER-LIGAND FREE ENERGY PREDICTED BY IDOCK:   -7.72 KCAL/MOL
REMARK 924 INTRA-LIGAND FREE ENERGY PREDICTED BY IDOCK:   -1.27 KCAL/MOL
REMARK 927      BINDING AFFINITY PREDICTED BY RF-SCORE:    0.00 PKD
ROOT
HETATM    1  C   UNK     1      -9.757  11.070  68.835  1.00  0.00    -0.172 C  
HETATM    2  O   UNK     1     -10.629  11.142  67.716  1.00  0.00    -0.189 OA 
ENDROOT
BRANCH   2   3
HETATM    3  C   UNK     1     -10.760   9.873  67.075  1.00  0.00    -0.167 C  
BRANCH   3   4
HETATM    4  C   UNK     1      -9.372   9.311  66.790  1.00  0.00    -0.156 C  
BRANCH   4   5
HETATM    5  O   UNK     1      -9.223   9.108  65.387  1.00  0.00    -0.219 OA 
BRANCH   5   6
HETATM    6  C   UNK     1      -8.718  10.274  64.740  1.00  0.00    -0.188 C  
BRANCH   6   7
HETATM    7  C   UNK     1      -9.252  10.326  63.315  1.00  0.00    -0.321 C  
BRANCH   7   8
HETATM    8  C   UNK     1     -10.172  11.530  63.081  1.00  0.00    -0.389 C  
BRANCH   8   9
HETATM    9  C   UNK     1     -10.494  12.223  64.402  1.00  0.00    -0.355 C  
BRANCH   9  10
HETATM   10  C   UNK     1     -11.990  12.225  64.706  1.00  0.00    -0.429 C  
BRANCH  10  11
HETATM   11  C   UNK     1     -12.371  13.428  65.550  1.00  0.00    -0.480 C  
HETATM   12  O   UNK     1     -13.421  14.047  65.414  1.00  0.00    -0.679 OA 
HETATM   13  N   UNK     1     -11.419  13.761  66.486  1.00  0.00    -0.334 N  
HETATM   14  H   UNK     1     -10.546  13.234  66.524  1.00  0.00     0.000 HD 
BRANCH  13  15
HETATM   15  C   UNK     1     -11.636  14.849  67.420  1.00  0.00    -0.332 C  
BRANCH  15  16
HETATM   16  C   UNK     1     -11.301  14.464  68.863  1.00  0.00    -0.300 C  
BRANCH  16  17
HETATM   17  C   UNK     1     -12.509  13.853  69.573  1.00  0.00    -0.141 C  
BRANCH  17  18
HETATM   18  C   UNK     1     -12.320  13.776  71.095  1.00  0.00    -0.428 C  
BRANCH  18  19
HETATM   19  C   UNK     1     -13.446  14.457  71.887  1.00  0.00    -0.393 C  
HETATM   20  N   UNK     1     -14.173  15.452  71.045  1.00  0.00    -0.846 NA 
HETATM   21  C   UNK     1     -12.875  15.183  73.115  1.00  0.00    -0.497 C  
HETATM   22  O   UNK     1     -12.556  14.654  74.162  1.00  0.00    -0.456 OA 
HETATM   23  O   UNK     1     -12.723  16.514  72.866  1.00  0.00    -0.244 OA 
HETATM   24  H1  UNK     1     -14.921  15.904  71.570  1.00  0.00     0.000 HD 
HETATM   25  H2  UNK     1     -14.521  15.030  70.183  1.00  0.00     0.000 HD 
ENDBRANCH  18  19
ENDBRANCH  17  18
ENDBRANCH  16  17
ENDBRANCH  15  16
ENDBRANCH  13  15
ENDBRANCH  10  11
ENDBRANCH   9  10
ENDBRANCH   8   9
ENDBRANCH   7   8
ENDBRANCH   6   7
ENDBRANCH   5   6
ENDBRANCH   4   5
ENDBRANCH   3   4
ENDBRANCH   2   3
TORSDOF 14
ENDMDL
MODEL       74
REMARK 921   NORMALIZED FREE ENERGY PREDICTED BY IDOCK:   -4.42 KCAL/MOL
REMARK 922        TOTAL FREE ENERGY PREDICTED BY IDOCK:   -8.96 KCAL/MOL
REMARK 923 INTER-LIGAND FREE ENERGY PREDICTED BY IDOCK:   -7.71 KCAL/MOL
REMARK 924 INTRA-LIGAND FREE ENERGY PREDICTED BY IDOCK:   -1.26 KCAL/MOL
REMARK 927      BINDING AFFINITY PREDICTED BY RF-SCORE:    0.00 PKD
ROOT
HETATM    1  C   UNK     1     -12.148  12.000  63.554  1.00  0.00    -0.526 C  
HETATM    2  O   UNK     1     -12.898  13.120  64.000  1.00  0.00    -0.648 OA 
ENDROOT
BRANCH   2   3
HETATM    3  C   UNK     1     -12.455  13.568  65.282  1.00  0.00    -0.482 C  
BRANCH   3   4
HETATM    4  C   UNK     1     -10.933  13.501  65.336  1.00  0.00    -0.292 C  
BRANCH   4   5
HETATM    5  O   UNK     1     -10.526  13.004  66.609  1.00  0.00    -0.260 OA 
BRANCH   5   6
HETATM    6  C   UNK     1     -11.622  12.435  67.323  1.00  0.00    -0.365 C  
BRANCH   6   7
HETATM    7  C   UNK     1     -11.263  11.014  67.738  1.00  0.00    -0.374 C  
BRANCH   7   8
HETATM    8  C   UNK     1      -9.853  10.616  67.292  1.00  0.00    -0.206 C  
BRANCH   8   9
HETATM    9  C   UNK     1      -8.953  10.381  68.502  1.00  0.00    -0.139 C  
BRANCH   9  10
HETATM   10  C   UNK     1      -7.940   9.263  68.264  1.00  0.00    -0.102 C  
BRANCH  10  11
HETATM   11  C   UNK     1      -8.628   7.912  68.201  1.00  0.00    -0.123 C  
HETATM   12  O   UNK     1      -8.575   7.167  67.227  1.00  0.00    -0.120 OA 
HETATM   13  N   UNK     1      -9.323   7.599  69.348  1.00  0.00    -0.153 N  
HETATM   14  H   UNK     1      -9.365   8.278  70.109  1.00  0.00     0.000 HD 
BRANCH  13  15
HETATM   15  C   UNK     1      -9.995   6.323  69.491  1.00  0.00    -0.164 C  
BRANCH  15  16
HETATM   16  C   UNK     1     -11.506   6.471  69.693  1.00  0.00    -0.417 C  
BRANCH  16  17
HETATM   17  C   UNK     1     -11.873   6.478  71.176  1.00  0.00    -0.383 C  
BRANCH  17  18
HETATM   18  C   UNK     1     -13.055   7.408  71.484  1.00  0.00    -0.424 C  
BRANCH  18  19
HETATM   19  C   UNK     1     -12.698   8.556  72.441  1.00  0.00    -0.337 C  
HETATM   20  N   UNK     1     -13.924   9.176  73.022  1.00  0.00    -1.110 NA 
HETATM   21  C   UNK     1     -11.906   9.645  71.699  1.00  0.00    -0.384 C  
HETATM   22  O   UNK     1     -10.721   9.596  71.429  1.00  0.00    -0.327 OA 
HETATM   23  O   UNK     1     -12.721  10.674  71.332  1.00  0.00    -0.372 OA 
HETATM   24  H1  UNK     1     -13.687   9.938  73.658  1.00  0.00     0.000 HD 
HETATM   25  H2  UNK     1     -14.516   8.481  73.476  1.00  0.00     0.000 HD 
ENDBRANCH  18  19
ENDBRANCH  17  18
ENDBRANCH  16  17
ENDBRANCH  15  16
ENDBRANCH  13  15
ENDBRANCH  10  11
ENDBRANCH   9  10
ENDBRANCH   8   9
ENDBRANCH   7   8
ENDBRANCH   6   7
ENDBRANCH   5   6
ENDBRANCH   4   5
ENDBRANCH   3   4
ENDBRANCH   2   3
TORSDOF 14
ENDMDL
MODEL       75
REMARK 921   NORMALIZED FREE ENERGY PREDICTED BY IDOCK:   -4.42 KCAL/MOL
REMARK 922        TOTAL FREE ENERGY PREDICTED BY IDOCK:   -8.96 KCAL/MOL
REMARK 923 INTER-LIGAND FREE ENERGY PREDICTED BY IDOCK:   -8.10 KCAL/MOL
REMARK 924 INTRA-LIGAND FREE ENERGY PREDICTED BY IDOCK:   -0.86 KCAL/MOL
REMARK 927      BINDING AFFINITY PREDICTED BY RF-SCORE:    0.00 PKD
ROOT
HETATM    1  C   UNK     1      -6.968   8.244  73.088  1.00  0.00    -0.107 C  
HETATM    2  O   UNK     1      -8.298   8.718  72.935  1.00  0.00    -0.414 OA 
ENDROOT
BRANCH   2   3
HETATM    3  C   UNK     1      -9.240   7.835  73.546  1.00  0.00    -0.290 C  
BRANCH   3   4
HETATM    4  C   UNK     1     -10.596   8.009  72.872  1.00  0.00    -0.329 C  
BRANCH   4   5
HETATM    5  O   UNK     1     -10.449   8.832  71.717  1.00  0.00    -0.290 OA 
BRANCH   5   6
HETATM    6  C   UNK     1     -11.710   9.131  71.123  1.00  0.00    -0.313 C  
BRANCH   6   7
HETATM    7  C   UNK     1     -12.516  10.005  72.075  1.00  0.00    -0.311 C  
BRANCH   7   8
HETATM    8  C   UNK     1     -12.935  11.332  71.433  1.00  0.00    -0.482 C  
BRANCH   8   9
HETATM    9  C   UNK     1     -11.859  11.826  70.470  1.00  0.00    -0.288 C  
BRANCH   9  10
HETATM   10  C   UNK     1     -12.093  13.268  70.028  1.00  0.00    -0.385 C  
BRANCH  10  11
HETATM   11  C   UNK     1     -11.075  13.689  68.983  1.00  0.00    -0.255 C  
HETATM   12  O   UNK     1     -11.177  14.708  68.308  1.00  0.00    -0.262 OA 
HETATM   13  N   UNK     1     -10.022  12.810  68.863  1.00  0.00    -0.420 N  
HETATM   14  H   UNK     1     -10.014  11.957  69.423  1.00  0.00     0.000 HD 
BRANCH  13  15
HETATM   15  C   UNK     1      -8.925  13.078  67.954  1.00  0.00    -0.200 C  
BRANCH  15  16
HETATM   16  C   UNK     1      -8.740  11.974  66.910  1.00  0.00    -0.193 C  
BRANCH  16  17
HETATM   17  C   UNK     1     -10.077  11.556  66.297  1.00  0.00    -0.261 C  
BRANCH  17  18
HETATM   18  C   UNK     1     -10.434  12.377  65.049  1.00  0.00    -0.324 C  
BRANCH  18  19
HETATM   19  C   UNK     1     -11.851  12.104  64.522  1.00  0.00    -0.343 C  
HETATM   20  N   UNK     1     -11.811  11.472  63.171  1.00  0.00    -0.908 NA 
HETATM   21  C   UNK     1     -12.649  13.414  64.423  1.00  0.00    -0.190 C  
HETATM   22  O   UNK     1     -13.182  13.987  65.354  1.00  0.00    -0.761 OA 
HETATM   23  O   UNK     1     -12.645  13.891  63.147  1.00  0.00    -0.775 OA 
HETATM   24  H1  UNK     1     -12.751  11.290  62.821  1.00  0.00     0.000 HD 
HETATM   25  H2  UNK     1     -11.241  10.626  63.169  1.00  0.00     0.000 HD 
ENDBRANCH  18  19
ENDBRANCH  17  18
ENDBRANCH  16  17
ENDBRANCH  15  16
ENDBRANCH  13  15
ENDBRANCH  10  11
ENDBRANCH   9  10
ENDBRANCH   8   9
ENDBRANCH   7   8
ENDBRANCH   6   7
ENDBRANCH   5   6
ENDBRANCH   4   5
ENDBRANCH   3   4
ENDBRANCH   2   3
TORSDOF 14
ENDMDL
MODEL       76
REMARK 921   NORMALIZED FREE ENERGY PREDICTED BY IDOCK:   -4.41 KCAL/MOL
REMARK 922        TOTAL FREE ENERGY PREDICTED BY IDOCK:   -8.95 KCAL/MOL
REMARK 923 INTER-LIGAND FREE ENERGY PREDICTED BY IDOCK:   -7.96 KCAL/MOL
REMARK 924 INTRA-LIGAND FREE ENERGY PREDICTED BY IDOCK:   -1.00 KCAL/MOL
REMARK 927      BINDING AFFINITY PREDICTED BY RF-SCORE:    0.00 PKD
ROOT
HETATM    1  C   UNK     1     -12.541  14.049  65.351  1.00  0.00    -0.505 C  
HETATM    2  O   UNK     1     -12.966  12.725  65.060  1.00  0.00    -0.811 OA 
ENDROOT
BRANCH   2   3
HETATM    3  C   UNK     1     -12.579  12.330  63.744  1.00  0.00    -0.470 C  
BRANCH   3   4
HETATM    4  C   UNK     1     -11.065  12.446  63.612  1.00  0.00    -0.473 C  
BRANCH   4   5
HETATM    5  O   UNK     1     -10.471  11.171  63.845  1.00  0.00    -0.342 OA 
BRANCH   5   6
HETATM    6  C   UNK     1      -9.677  11.171  65.029  1.00  0.00    -0.253 C  
BRANCH   6   7
HETATM    7  C   UNK     1     -10.428  10.439  66.134  1.00  0.00    -0.224 C  
BRANCH   7   8
HETATM    8  C   UNK     1     -10.582  11.292  67.397  1.00  0.00    -0.262 C  
BRANCH   8   9
HETATM    9  C   UNK     1     -11.166  10.463  68.538  1.00  0.00    -0.308 C  
BRANCH   9  10
HETATM   10  C   UNK     1     -11.522  11.316  69.753  1.00  0.00    -0.386 C  
BRANCH  10  11
HETATM   11  C   UNK     1     -12.270  10.498  70.790  1.00  0.00    -0.369 C  
HETATM   12  O   UNK     1     -12.825  10.987  71.768  1.00  0.00    -0.430 OA 
HETATM   13  N   UNK     1     -12.265   9.147  70.527  1.00  0.00    -0.477 N  
HETATM   14  H   UNK     1     -11.750   8.795  69.720  1.00  0.00     0.000 HD 
BRANCH  13  15
HETATM   15  C   UNK     1     -12.978   8.216  71.380  1.00  0.00    -0.242 C  
BRANCH  15  16
HETATM   16  C   UNK     1     -12.384   6.806  71.342  1.00  0.00    -0.403 C  
BRANCH  16  17
HETATM   17  C   UNK     1     -10.995   6.801  70.705  1.00  0.00    -0.306 C  
BRANCH  17  18
HETATM   18  C   UNK     1     -10.892   5.824  69.525  1.00  0.00    -0.410 C  
BRANCH  18  19
HETATM   19  C   UNK     1     -10.292   6.453  68.259  1.00  0.00    -0.191 C  
HETATM   20  N   UNK     1     -11.281   7.338  67.575  1.00  0.00    -0.541 NA 
HETATM   21  C   UNK     1      -9.852   5.360  67.273  1.00  0.00    -0.156 C  
HETATM   22  O   UNK     1      -8.827   4.711  67.350  1.00  0.00    -0.104 OA 
HETATM   23  O   UNK     1     -10.794   5.169  66.306  1.00  0.00    -0.296 OA 
HETATM   24  H1  UNK     1     -10.882   7.756  66.735  1.00  0.00     0.000 HD 
HETATM   25  H2  UNK     1     -11.649   8.047  68.209  1.00  0.00     0.000 HD 
ENDBRANCH  18  19
ENDBRANCH  17  18
ENDBRANCH  16  17
ENDBRANCH  15  16
ENDBRANCH  13  15
ENDBRANCH  10  11
ENDBRANCH   9  10
ENDBRANCH   8   9
ENDBRANCH   7   8
ENDBRANCH   6   7
ENDBRANCH   5   6
ENDBRANCH   4   5
ENDBRANCH   3   4
ENDBRANCH   2   3
TORSDOF 14
ENDMDL
MODEL       77
REMARK 921   NORMALIZED FREE ENERGY PREDICTED BY IDOCK:   -4.41 KCAL/MOL
REMARK 922        TOTAL FREE ENERGY PREDICTED BY IDOCK:   -8.94 KCAL/MOL
REMARK 923 INTER-LIGAND FREE ENERGY PREDICTED BY IDOCK:   -8.16 KCAL/MOL
REMARK 924 INTRA-LIGAND FREE ENERGY PREDICTED BY IDOCK:   -0.79 KCAL/MOL
REMARK 927      BINDING AFFINITY PREDICTED BY RF-SCORE:    0.00 PKD
ROOT
HETATM    1  C   UNK     1     -10.200  19.538  66.064  1.00  0.00    -0.478 C  
HETATM    2  O   UNK     1     -10.264  18.144  65.801  1.00  0.00    -0.580 OA 
ENDROOT
BRANCH   2   3
HETATM    3  C   UNK     1     -10.077  17.378  66.992  1.00  0.00    -0.313 C  
BRANCH   3   4
HETATM    4  C   UNK     1     -10.141  15.895  66.647  1.00  0.00    -0.279 C  
BRANCH   4   5
HETATM    5  O   UNK     1     -10.902  15.719  65.454  1.00  0.00    -0.360 OA 
BRANCH   5   6
HETATM    6  C   UNK     1     -11.701  14.540  65.512  1.00  0.00    -0.343 C  
BRANCH   6   7
HETATM    7  C   UNK     1     -11.026  13.523  66.423  1.00  0.00    -0.297 C  
BRANCH   7   8
HETATM    8  C   UNK     1     -11.015  12.115  65.817  1.00  0.00    -0.338 C  
BRANCH   8   9
HETATM    9  C   UNK     1     -10.087  11.198  66.608  1.00  0.00    -0.256 C  
BRANCH   9  10
HETATM   10  C   UNK     1     -10.471   9.727  66.472  1.00  0.00    -0.212 C  
BRANCH  10  11
HETATM   11  C   UNK     1      -9.794   8.887  67.541  1.00  0.00    -0.184 C  
HETATM   12  O   UNK     1      -8.577   8.787  67.655  1.00  0.00    -0.126 OA 
HETATM   13  N   UNK     1     -10.682   8.244  68.373  1.00  0.00    -0.424 N  
HETATM   14  H   UNK     1     -11.684   8.333  68.202  1.00  0.00     0.000 HD 
BRANCH  13  15
HETATM   15  C   UNK     1     -10.217   7.443  69.488  1.00  0.00    -0.204 C  
BRANCH  15  16
HETATM   16  C   UNK     1     -11.246   6.404  69.939  1.00  0.00    -0.485 C  
BRANCH  16  17
HETATM   17  C   UNK     1     -11.681   6.640  71.385  1.00  0.00    -0.374 C  
BRANCH  17  18
HETATM   18  C   UNK     1     -12.959   7.486  71.485  1.00  0.00    -0.400 C  
BRANCH  18  19
HETATM   19  C   UNK     1     -12.774   8.781  72.289  1.00  0.00    -0.402 C  
HETATM   20  N   UNK     1     -14.049   9.195  72.946  1.00  0.00    -1.088 NA 
HETATM   21  C   UNK     1     -12.307   9.922  71.371  1.00  0.00    -0.404 C  
HETATM   22  O   UNK     1     -11.169  10.088  70.976  1.00  0.00    -0.341 OA 
HETATM   23  O   UNK     1     -13.355  10.713  71.006  1.00  0.00    -0.268 OA 
HETATM   24  H1  UNK     1     -13.926  10.054  73.481  1.00  0.00     0.000 HD 
HETATM   25  H2  UNK     1     -14.433   8.446  73.523  1.00  0.00     0.000 HD 
ENDBRANCH  18  19
ENDBRANCH  17  18
ENDBRANCH  16  17
ENDBRANCH  15  16
ENDBRANCH  13  15
ENDBRANCH  10  11
ENDBRANCH   9  10
ENDBRANCH   8   9
ENDBRANCH   7   8
ENDBRANCH   6   7
ENDBRANCH   5   6
ENDBRANCH   4   5
ENDBRANCH   3   4
ENDBRANCH   2   3
TORSDOF 14
ENDMDL
MODEL       78
REMARK 921   NORMALIZED FREE ENERGY PREDICTED BY IDOCK:   -4.40 KCAL/MOL
REMARK 922        TOTAL FREE ENERGY PREDICTED BY IDOCK:   -8.93 KCAL/MOL
REMARK 923 INTER-LIGAND FREE ENERGY PREDICTED BY IDOCK:   -7.94 KCAL/MOL
REMARK 924 INTRA-LIGAND FREE ENERGY PREDICTED BY IDOCK:   -1.00 KCAL/MOL
REMARK 927      BINDING AFFINITY PREDICTED BY RF-SCORE:    0.00 PKD
ROOT
HETATM    1  C   UNK     1     -11.176  15.505  70.988  1.00  0.00    -0.373 C  
HETATM    2  O   UNK     1     -11.722  16.604  71.703  1.00  0.00    -0.321 OA 
ENDROOT
BRANCH   2   3
HETATM    3  C   UNK     1     -12.157  16.215  73.006  1.00  0.00    -0.533 C  
BRANCH   3   4
HETATM    4  C   UNK     1     -13.544  15.591  72.904  1.00  0.00    -0.544 C  
BRANCH   4   5
HETATM    5  O   UNK     1     -13.477  14.222  73.299  1.00  0.00    -0.553 OA 
BRANCH   5   6
HETATM    6  C   UNK     1     -14.020  13.362  72.299  1.00  0.00    -0.507 C  
BRANCH   6   7
HETATM    7  C   UNK     1     -12.916  12.458  71.766  1.00  0.00    -0.422 C  
BRANCH   7   8
HETATM    8  C   UNK     1     -13.281  10.973  71.866  1.00  0.00    -0.503 C  
BRANCH   8   9
HETATM    9  C   UNK     1     -12.495  10.157  70.844  1.00  0.00    -0.455 C  
BRANCH   9  10
HETATM   10  C   UNK     1     -11.077   9.845  71.316  1.00  0.00    -0.302 C  
BRANCH  10  11
HETATM   11  C   UNK     1     -10.222   9.338  70.169  1.00  0.00    -0.215 C  
HETATM   12  O   UNK     1      -8.996   9.303  70.201  1.00  0.00    -0.175 OA 
HETATM   13  N   UNK     1     -10.957   8.920  69.083  1.00  0.00    -0.428 N  
HETATM   14  H   UNK     1     -11.973   9.013  69.100  1.00  0.00     0.000 HD 
BRANCH  13  15
HETATM   15  C   UNK     1     -10.311   8.352  67.916  1.00  0.00    -0.221 C  
BRANCH  15  16
HETATM   16  C   UNK     1     -10.596   9.144  66.638  1.00  0.00    -0.157 C  
BRANCH  16  17
HETATM   17  C   UNK     1      -9.454  10.106  66.310  1.00  0.00    -0.229 C  
BRANCH  17  18
HETATM   18  C   UNK     1      -9.815  11.569  66.607  1.00  0.00    -0.228 C  
BRANCH  18  19
HETATM   19  C   UNK     1     -11.321  11.857  66.525  1.00  0.00    -0.341 C  
HETATM   20  N   UNK     1     -11.712  12.304  65.155  1.00  0.00    -0.370 NA 
HETATM   21  C   UNK     1     -11.713  12.955  67.525  1.00  0.00    -0.367 C  
HETATM   22  O   UNK     1     -11.881  12.794  68.719  1.00  0.00    -0.304 OA 
HETATM   23  O   UNK     1     -11.805  14.166  66.908  1.00  0.00    -0.391 OA 
HETATM   24  H1  UNK     1     -12.712  12.494  65.100  1.00  0.00     0.000 HD 
HETATM   25  H2  UNK     1     -11.419  11.633  64.444  1.00  0.00     0.000 HD 
ENDBRANCH  18  19
ENDBRANCH  17  18
ENDBRANCH  16  17
ENDBRANCH  15  16
ENDBRANCH  13  15
ENDBRANCH  10  11
ENDBRANCH   9  10
ENDBRANCH   8   9
ENDBRANCH   7   8
ENDBRANCH   6   7
ENDBRANCH   5   6
ENDBRANCH   4   5
ENDBRANCH   3   4
ENDBRANCH   2   3
TORSDOF 14
ENDMDL
MODEL       79
REMARK 921   NORMALIZED FREE ENERGY PREDICTED BY IDOCK:   -4.40 KCAL/MOL
REMARK 922        TOTAL FREE ENERGY PREDICTED BY IDOCK:   -8.92 KCAL/MOL
REMARK 923 INTER-LIGAND FREE ENERGY PREDICTED BY IDOCK:   -7.88 KCAL/MOL
REMARK 924 INTRA-LIGAND FREE ENERGY PREDICTED BY IDOCK:   -1.04 KCAL/MOL
REMARK 927      BINDING AFFINITY PREDICTED BY RF-SCORE:    0.00 PKD
ROOT
HETATM    1  C   UNK     1     -13.341  15.838  72.708  1.00  0.00    -0.547 C  
HETATM    2  O   UNK     1     -12.411  15.331  71.762  1.00  0.00    -0.307 OA 
ENDROOT
BRANCH   2   3
HETATM    3  C   UNK     1     -12.794  14.038  71.293  1.00  0.00    -0.358 C  
BRANCH   3   4
HETATM    4  C   UNK     1     -13.802  13.434  72.264  1.00  0.00    -0.573 C  
BRANCH   4   5
HETATM    5  O   UNK     1     -13.575  12.031  72.370  1.00  0.00    -0.338 OA 
BRANCH   5   6
HETATM    6  C   UNK     1     -12.702  11.563  71.344  1.00  0.00    -0.364 C  
BRANCH   6   7
HETATM    7  C   UNK     1     -13.147  10.174  70.905  1.00  0.00    -0.412 C  
BRANCH   7   8
HETATM    8  C   UNK     1     -13.310   9.213  72.088  1.00  0.00    -0.525 C  
BRANCH   8   9
HETATM    9  C   UNK     1     -12.947   7.789  71.676  1.00  0.00    -0.374 C  
BRANCH   9  10
HETATM   10  C   UNK     1     -11.511   7.426  72.044  1.00  0.00    -0.310 C  
BRANCH  10  11
HETATM   11  C   UNK     1     -10.849   6.633  70.932  1.00  0.00    -0.252 C  
HETATM   12  O   UNK     1      -9.883   5.898  71.106  1.00  0.00    -0.174 OA 
HETATM   13  N   UNK     1     -11.438   6.822  69.702  1.00  0.00    -0.575 N  
HETATM   14  H   UNK     1     -12.213   7.479  69.613  1.00  0.00     0.000 HD 
BRANCH  13  15
HETATM   15  C   UNK     1     -10.975   6.101  68.533  1.00  0.00    -0.320 C  
BRANCH  15  16
HETATM   16  C   UNK     1     -10.844   6.999  67.299  1.00  0.00    -0.403 C  
BRANCH  16  17
HETATM   17  C   UNK     1     -10.019   8.249  67.603  1.00  0.00    -0.245 C  
BRANCH  17  18
HETATM   18  C   UNK     1     -10.368   9.423  66.677  1.00  0.00    -0.284 C  
BRANCH  18  19
HETATM   19  C   UNK     1     -10.093  10.799  67.302  1.00  0.00    -0.196 C  
HETATM   20  N   UNK     1     -10.117  10.729  68.793  1.00  0.00    -0.183 NA 
HETATM   21  C   UNK     1     -11.149  11.817  66.845  1.00  0.00    -0.307 C  
HETATM   22  O   UNK     1     -11.161  12.387  65.770  1.00  0.00    -0.293 OA 
HETATM   23  O   UNK     1     -12.117  11.972  67.791  1.00  0.00    -0.537 OA 
HETATM   24  H1  UNK     1      -9.934  11.642  69.208  1.00  0.00     0.000 HD 
HETATM   25  H2  UNK     1      -9.473  10.021  69.145  1.00  0.00     0.000 HD 
ENDBRANCH  18  19
ENDBRANCH  17  18
ENDBRANCH  16  17
ENDBRANCH  15  16
ENDBRANCH  13  15
ENDBRANCH  10  11
ENDBRANCH   9  10
ENDBRANCH   8   9
ENDBRANCH   7   8
ENDBRANCH   6   7
ENDBRANCH   5   6
ENDBRANCH   4   5
ENDBRANCH   3   4
ENDBRANCH   2   3
TORSDOF 14
ENDMDL
MODEL       80
REMARK 921   NORMALIZED FREE ENERGY PREDICTED BY IDOCK:   -4.39 KCAL/MOL
REMARK 922        TOTAL FREE ENERGY PREDICTED BY IDOCK:   -8.91 KCAL/MOL
REMARK 923 INTER-LIGAND FREE ENERGY PREDICTED BY IDOCK:   -8.25 KCAL/MOL
REMARK 924 INTRA-LIGAND FREE ENERGY PREDICTED BY IDOCK:   -0.66 KCAL/MOL
REMARK 927      BINDING AFFINITY PREDICTED BY RF-SCORE:    0.00 PKD
ROOT
HETATM    1  C   UNK     1     -12.435  14.509  70.891  1.00  0.00    -0.345 C  
HETATM    2  O   UNK     1     -12.913  14.306  72.213  1.00  0.00    -0.341 OA 
ENDROOT
BRANCH   2   3
HETATM    3  C   UNK     1     -13.724  13.134  72.301  1.00  0.00    -0.551 C  
BRANCH   3   4
HETATM    4  C   UNK     1     -13.012  11.980  71.605  1.00  0.00    -0.334 C  
BRANCH   4   5
HETATM    5  O   UNK     1     -13.589  10.746  72.024  1.00  0.00    -0.283 OA 
BRANCH   5   6
HETATM    6  C   UNK     1     -12.599   9.734  72.188  1.00  0.00    -0.284 C  
BRANCH   6   7
HETATM    7  C   UNK     1     -11.750   9.656  70.926  1.00  0.00    -0.412 C  
BRANCH   7   8
HETATM    8  C   UNK     1     -10.313   9.210  71.217  1.00  0.00    -0.405 C  
BRANCH   8   9
HETATM    9  C   UNK     1      -9.460   9.292  69.954  1.00  0.00    -0.214 C  
BRANCH   9  10
HETATM   10  C   UNK     1     -10.305   9.419  68.690  1.00  0.00    -0.227 C  
BRANCH  10  11
HETATM   11  C   UNK     1      -9.429   9.437  67.450  1.00  0.00    -0.131 C  
HETATM   12  O   UNK     1      -8.218   9.242  67.472  1.00  0.00    -0.113 OA 
HETATM   13  N   UNK     1     -10.126   9.697  66.292  1.00  0.00    -0.263 N  
HETATM   14  H   UNK     1     -11.127   9.893  66.343  1.00  0.00     0.000 HD 
BRANCH  13  15
HETATM   15  C   UNK     1      -9.463   9.698  65.003  1.00  0.00    -0.245 C  
BRANCH  15  16
HETATM   16  C   UNK     1      -9.764  10.956  64.185  1.00  0.00    -0.347 C  
BRANCH  16  17
HETATM   17  C   UNK     1     -10.531  11.989  65.009  1.00  0.00    -0.327 C  
BRANCH  17  18
HETATM   18  C   UNK     1     -10.408  13.408  64.436  1.00  0.00    -0.347 C  
BRANCH  18  19
HETATM   19  C   UNK     1     -11.614  14.305  64.756  1.00  0.00    -0.401 C  
HETATM   20  N   UNK     1     -12.651  14.218  63.686  1.00  0.00    -0.997 NA 
HETATM   21  C   UNK     1     -11.173  15.771  64.889  1.00  0.00    -0.350 C  
HETATM   22  O   UNK     1     -10.639  16.261  65.866  1.00  0.00    -0.327 OA 
HETATM   23  O   UNK     1     -11.414  16.458  63.738  1.00  0.00    -1.002 OA 
HETATM   24  H1  UNK     1     -13.451  14.813  63.899  1.00  0.00     0.000 HD 
HETATM   25  H2  UNK     1     -12.935  13.253  63.517  1.00  0.00     0.000 HD 
ENDBRANCH  18  19
ENDBRANCH  17  18
ENDBRANCH  16  17
ENDBRANCH  15  16
ENDBRANCH  13  15
ENDBRANCH  10  11
ENDBRANCH   9  10
ENDBRANCH   8   9
ENDBRANCH   7   8
ENDBRANCH   6   7
ENDBRANCH   5   6
ENDBRANCH   4   5
ENDBRANCH   3   4
ENDBRANCH   2   3
TORSDOF 14
ENDMDL
MODEL       81
REMARK 921   NORMALIZED FREE ENERGY PREDICTED BY IDOCK:   -4.39 KCAL/MOL
REMARK 922        TOTAL FREE ENERGY PREDICTED BY IDOCK:   -8.91 KCAL/MOL
REMARK 923 INTER-LIGAND FREE ENERGY PREDICTED BY IDOCK:   -7.70 KCAL/MOL
REMARK 924 INTRA-LIGAND FREE ENERGY PREDICTED BY IDOCK:   -1.20 KCAL/MOL
REMARK 927      BINDING AFFINITY PREDICTED BY RF-SCORE:    0.00 PKD
ROOT
HETATM    1  C   UNK     1     -11.581  15.638  70.357  1.00  0.00    -0.349 C  
HETATM    2  O   UNK     1     -12.056  15.660  69.018  1.00  0.00    -0.337 OA 
ENDROOT
BRANCH   2   3
HETATM    3  C   UNK     1     -11.001  15.925  68.094  1.00  0.00    -0.335 C  
BRANCH   3   4
HETATM    4  C   UNK     1     -11.078  14.924  66.947  1.00  0.00    -0.337 C  
BRANCH   4   5
HETATM    5  O   UNK     1     -12.320  14.226  67.011  1.00  0.00    -0.386 OA 
BRANCH   5   6
HETATM    6  C   UNK     1     -12.510  13.390  65.872  1.00  0.00    -0.408 C  
BRANCH   6   7
HETATM    7  C   UNK     1     -12.101  14.153  64.619  1.00  0.00    -0.469 C  
BRANCH   7   8
HETATM    8  C   UNK     1     -12.242  13.306  63.350  1.00  0.00    -0.476 C  
BRANCH   8   9
HETATM    9  C   UNK     1     -11.841  11.859  63.623  1.00  0.00    -0.573 C  
BRANCH   9  10
HETATM   10  C   UNK     1     -10.334  11.643  63.515  1.00  0.00    -0.488 C  
BRANCH  10  11
HETATM   11  C   UNK     1      -9.775  11.060  64.800  1.00  0.00    -0.262 C  
HETATM   12  O   UNK     1      -9.799   9.864  65.069  1.00  0.00    -0.317 OA 
HETATM   13  N   UNK     1      -9.236  12.008  65.640  1.00  0.00    -0.425 N  
HETATM   14  H   UNK     1      -9.283  12.994  65.380  1.00  0.00     0.000 HD 
BRANCH  13  15
HETATM   15  C   UNK     1      -8.605  11.629  66.889  1.00  0.00    -0.174 C  
BRANCH  15  16
HETATM   16  C   UNK     1      -9.561  11.707  68.082  1.00  0.00    -0.190 C  
BRANCH  16  17
HETATM   17  C   UNK     1      -9.377  10.517  69.023  1.00  0.00    -0.205 C  
BRANCH  17  18
HETATM   18  C   UNK     1     -10.702   9.813  69.347  1.00  0.00    -0.250 C  
BRANCH  18  19
HETATM   19  C   UNK     1     -11.142   9.979  70.810  1.00  0.00    -0.334 C  
HETATM   20  N   UNK     1     -11.412   8.656  71.446  1.00  0.00    -0.271 NA 
HETATM   21  C   UNK     1     -12.420  10.829  70.894  1.00  0.00    -0.402 C  
HETATM   22  O   UNK     1     -12.466  12.042  70.817  1.00  0.00    -0.348 OA 
HETATM   23  O   UNK     1     -13.522  10.038  71.020  1.00  0.00    -0.367 OA 
HETATM   24  H1  UNK     1     -11.703   8.765  72.417  1.00  0.00     0.000 HD 
HETATM   25  H2  UNK     1     -10.610   8.030  71.364  1.00  0.00     0.000 HD 
ENDBRANCH  18  19
ENDBRANCH  17  18
ENDBRANCH  16  17
ENDBRANCH  15  16
ENDBRANCH  13  15
ENDBRANCH  10  11
ENDBRANCH   9  10
ENDBRANCH   8   9
ENDBRANCH   7   8
ENDBRANCH   6   7
ENDBRANCH   5   6
ENDBRANCH   4   5
ENDBRANCH   3   4
ENDBRANCH   2   3
TORSDOF 14
ENDMDL
MODEL       82
REMARK 921   NORMALIZED FREE ENERGY PREDICTED BY IDOCK:   -4.38 KCAL/MOL
REMARK 922        TOTAL FREE ENERGY PREDICTED BY IDOCK:   -8.90 KCAL/MOL
REMARK 923 INTER-LIGAND FREE ENERGY PREDICTED BY IDOCK:   -8.10 KCAL/MOL
REMARK 924 INTRA-LIGAND FREE ENERGY PREDICTED BY IDOCK:   -0.80 KCAL/MOL
REMARK 927      BINDING AFFINITY PREDICTED BY RF-SCORE:    0.00 PKD
ROOT
HETATM    1  C   UNK     1     -12.551  11.209  70.943  1.00  0.00    -0.386 C  
HETATM    2  O   UNK     1     -13.075  10.532  72.076  1.00  0.00    -0.467 OA 
ENDROOT
BRANCH   2   3
HETATM    3  C   UNK     1     -13.144   9.122  71.857  1.00  0.00    -0.411 C  
BRANCH   3   4
HETATM    4  C   UNK     1     -11.859   8.660  71.180  1.00  0.00    -0.287 C  
BRANCH   4   5
HETATM    5  O   UNK     1     -11.266   7.618  71.953  1.00  0.00    -0.243 OA 
BRANCH   5   6
HETATM    6  C   UNK     1     -10.434   6.781  71.152  1.00  0.00    -0.214 C  
BRANCH   6   7
HETATM    7  C   UNK     1     -11.188   6.390  69.888  1.00  0.00    -0.485 C  
BRANCH   7   8
HETATM    8  C   UNK     1     -10.376   5.444  68.996  1.00  0.00    -0.282 C  
BRANCH   8   9
HETATM    9  C   UNK     1     -10.391   5.928  67.548  1.00  0.00    -0.269 C  
BRANCH   9  10
HETATM   10  C   UNK     1     -10.949   7.342  67.414  1.00  0.00    -0.214 C  
BRANCH  10  11
HETATM   11  C   UNK     1      -9.832   8.349  67.201  1.00  0.00    -0.215 C  
HETATM   12  O   UNK     1      -9.021   8.656  68.068  1.00  0.00    -0.140 OA 
HETATM   13  N   UNK     1      -9.819   8.889  65.935  1.00  0.00    -0.452 N  
HETATM   14  H   UNK     1     -10.546   8.625  65.269  1.00  0.00     0.000 HD 
BRANCH  13  15
HETATM   15  C   UNK     1      -8.789   9.826  65.532  1.00  0.00    -0.163 C  
BRANCH  15  16
HETATM   16  C   UNK     1      -9.361  11.161  65.048  1.00  0.00    -0.232 C  
BRANCH  16  17
HETATM   17  C   UNK     1     -10.201  10.983  63.784  1.00  0.00    -0.425 C  
BRANCH  17  18
HETATM   18  C   UNK     1     -10.942  12.267  63.384  1.00  0.00    -0.467 C  
BRANCH  18  19
HETATM   19  C   UNK     1     -11.719  12.911  64.542  1.00  0.00    -0.365 C  
HETATM   20  N   UNK     1     -13.173  12.585  64.465  1.00  0.00    -0.779 NA 
HETATM   21  C   UNK     1     -11.561  14.440  64.510  1.00  0.00    -0.384 C  
HETATM   22  O   UNK     1     -10.592  15.057  64.910  1.00  0.00    -0.409 OA 
HETATM   23  O   UNK     1     -12.641  15.028  63.923  1.00  0.00    -0.813 OA 
HETATM   24  H1  UNK     1     -13.689  13.012  65.234  1.00  0.00     0.000 HD 
HETATM   25  H2  UNK     1     -13.329  11.577  64.423  1.00  0.00     0.000 HD 
ENDBRANCH  18  19
ENDBRANCH  17  18
ENDBRANCH  16  17
ENDBRANCH  15  16
ENDBRANCH  13  15
ENDBRANCH  10  11
ENDBRANCH   9  10
ENDBRANCH   8   9
ENDBRANCH   7   8
ENDBRANCH   6   7
ENDBRANCH   5   6
ENDBRANCH   4   5
ENDBRANCH   3   4
ENDBRANCH   2   3
TORSDOF 14
ENDMDL
MODEL       83
REMARK 921   NORMALIZED FREE ENERGY PREDICTED BY IDOCK:   -4.38 KCAL/MOL
REMARK 922        TOTAL FREE ENERGY PREDICTED BY IDOCK:   -8.90 KCAL/MOL
REMARK 923 INTER-LIGAND FREE ENERGY PREDICTED BY IDOCK:   -8.18 KCAL/MOL
REMARK 924 INTRA-LIGAND FREE ENERGY PREDICTED BY IDOCK:   -0.72 KCAL/MOL
REMARK 927      BINDING AFFINITY PREDICTED BY RF-SCORE:    0.00 PKD
ROOT
HETATM    1  C   UNK     1      -7.219   7.763  74.013  1.00  0.00    -0.126 C  
HETATM    2  O   UNK     1      -8.515   8.286  73.758  1.00  0.00    -0.248 OA 
ENDROOT
BRANCH   2   3
HETATM    3  C   UNK     1      -9.531   7.318  74.022  1.00  0.00    -0.251 C  
BRANCH   3   4
HETATM    4  C   UNK     1     -10.780   7.675  73.226  1.00  0.00    -0.350 C  
BRANCH   4   5
HETATM    5  O   UNK     1     -10.409   8.440  72.081  1.00  0.00    -0.271 OA 
BRANCH   5   6
HETATM    6  C   UNK     1     -10.635   7.717  70.873  1.00  0.00    -0.213 C  
BRANCH   6   7
HETATM    7  C   UNK     1     -10.979   8.699  69.761  1.00  0.00    -0.132 C  
BRANCH   7   8
HETATM    8  C   UNK     1     -10.907  10.157  70.229  1.00  0.00    -0.370 C  
BRANCH   8   9
HETATM    9  C   UNK     1     -12.263  10.838  70.074  1.00  0.00    -0.409 C  
BRANCH   9  10
HETATM   10  C   UNK     1     -12.868  11.238  71.417  1.00  0.00    -0.515 C  
BRANCH  10  11
HETATM   11  C   UNK     1     -12.914  12.748  71.565  1.00  0.00    -0.292 C  
HETATM   12  O   UNK     1     -13.718  13.336  72.281  1.00  0.00    -0.548 OA 
HETATM   13  N   UNK     1     -11.963  13.399  70.812  1.00  0.00    -0.517 N  
HETATM   14  H   UNK     1     -11.349  12.858  70.202  1.00  0.00     0.000 HD 
BRANCH  13  15
HETATM   15  C   UNK     1     -11.820  14.840  70.870  1.00  0.00    -0.322 C  
BRANCH  15  16
HETATM   16  C   UNK     1     -10.742  15.366  69.919  1.00  0.00    -0.315 C  
BRANCH  16  17
HETATM   17  C   UNK     1     -10.937  14.830  68.501  1.00  0.00    -0.265 C  
BRANCH  17  18
HETATM   18  C   UNK     1     -11.004  15.950  67.453  1.00  0.00    -0.257 C  
BRANCH  18  19
HETATM   19  C   UNK     1     -10.250  15.621  66.156  1.00  0.00    -0.311 C  
HETATM   20  N   UNK     1      -9.200  16.642  65.868  1.00  0.00    -0.512 NA 
HETATM   21  C   UNK     1     -11.222  15.573  64.967  1.00  0.00    -0.358 C  
HETATM   22  O   UNK     1     -11.956  14.643  64.693  1.00  0.00    -0.431 OA 
HETATM   23  O   UNK     1     -11.196  16.744  64.270  1.00  0.00    -1.163 OA 
HETATM   24  H1  UNK     1      -8.699  16.423  65.007  1.00  0.00     0.000 HD 
HETATM   25  H2  UNK     1      -8.561  16.755  66.655  1.00  0.00     0.000 HD 
ENDBRANCH  18  19
ENDBRANCH  17  18
ENDBRANCH  16  17
ENDBRANCH  15  16
ENDBRANCH  13  15
ENDBRANCH  10  11
ENDBRANCH   9  10
ENDBRANCH   8   9
ENDBRANCH   7   8
ENDBRANCH   6   7
ENDBRANCH   5   6
ENDBRANCH   4   5
ENDBRANCH   3   4
ENDBRANCH   2   3
TORSDOF 14
ENDMDL
MODEL       84
REMARK 921   NORMALIZED FREE ENERGY PREDICTED BY IDOCK:   -4.37 KCAL/MOL
REMARK 922        TOTAL FREE ENERGY PREDICTED BY IDOCK:   -8.88 KCAL/MOL
REMARK 923 INTER-LIGAND FREE ENERGY PREDICTED BY IDOCK:   -8.05 KCAL/MOL
REMARK 924 INTRA-LIGAND FREE ENERGY PREDICTED BY IDOCK:   -0.83 KCAL/MOL
REMARK 927      BINDING AFFINITY PREDICTED BY RF-SCORE:    0.00 PKD
ROOT
HETATM    1  C   UNK     1     -10.473   5.370  73.476  1.00  0.00    -0.247 C  
HETATM    2  O   UNK     1     -10.955   6.069  72.337  1.00  0.00    -0.232 OA 
ENDROOT
BRANCH   2   3
HETATM    3  C   UNK     1     -12.381   6.050  72.277  1.00  0.00     0.016 C  
BRANCH   3   4
HETATM    4  C   UNK     1     -12.858   7.190  71.386  1.00  0.00    -0.384 C  
BRANCH   4   5
HETATM    5  O   UNK     1     -12.362   8.427  71.893  1.00  0.00    -0.308 OA 
BRANCH   5   6
HETATM    6  C   UNK     1     -13.351   9.452  71.832  1.00  0.00    -0.434 C  
BRANCH   6   7
HETATM    7  C   UNK     1     -12.736  10.702  71.216  1.00  0.00    -0.537 C  
BRANCH   7   8
HETATM    8  C   UNK     1     -11.711  10.370  70.126  1.00  0.00    -0.394 C  
BRANCH   8   9
HETATM    9  C   UNK     1     -11.467  11.583  69.232  1.00  0.00    -0.370 C  
BRANCH   9  10
HETATM   10  C   UNK     1     -10.735  11.215  67.943  1.00  0.00    -0.261 C  
BRANCH  10  11
HETATM   11  C   UNK     1      -9.630  12.212  67.644  1.00  0.00    -0.190 C  
HETATM   12  O   UNK     1      -8.792  12.051  66.762  1.00  0.00    -0.191 OA 
HETATM   13  N   UNK     1      -9.656  13.318  68.462  1.00  0.00    -0.362 N  
HETATM   14  H   UNK     1     -10.352  13.375  69.206  1.00  0.00     0.000 HD 
BRANCH  13  15
HETATM   15  C   UNK     1      -8.710  14.402  68.285  1.00  0.00    -0.180 C  
BRANCH  15  16
HETATM   16  C   UNK     1      -9.334  15.627  67.611  1.00  0.00    -0.206 C  
BRANCH  16  17
HETATM   17  C   UNK     1      -9.212  15.550  66.090  1.00  0.00    -0.379 C  
BRANCH  17  18
HETATM   18  C   UNK     1     -10.578  15.440  65.396  1.00  0.00    -0.430 C  
BRANCH  18  19
HETATM   19  C   UNK     1     -10.961  14.000  65.023  1.00  0.00    -0.375 C  
HETATM   20  N   UNK     1     -10.051  13.454  63.974  1.00  0.00    -0.749 NA 
HETATM   21  C   UNK     1     -12.403  13.948  64.492  1.00  0.00    -0.372 C  
HETATM   22  O   UNK     1     -13.407  13.963  65.178  1.00  0.00    -0.698 OA 
HETATM   23  O   UNK     1     -12.420  13.932  63.130  1.00  0.00    -0.766 OA 
HETATM   24  H1  UNK     1     -10.305  12.498  63.727  1.00  0.00     0.000 HD 
HETATM   25  H2  UNK     1      -9.073  13.521  64.254  1.00  0.00     0.000 HD 
ENDBRANCH  18  19
ENDBRANCH  17  18
ENDBRANCH  16  17
ENDBRANCH  15  16
ENDBRANCH  13  15
ENDBRANCH  10  11
ENDBRANCH   9  10
ENDBRANCH   8   9
ENDBRANCH   7   8
ENDBRANCH   6   7
ENDBRANCH   5   6
ENDBRANCH   4   5
ENDBRANCH   3   4
ENDBRANCH   2   3
TORSDOF 14
ENDMDL
MODEL       85
REMARK 921   NORMALIZED FREE ENERGY PREDICTED BY IDOCK:   -4.37 KCAL/MOL
REMARK 922        TOTAL FREE ENERGY PREDICTED BY IDOCK:   -8.87 KCAL/MOL
REMARK 923 INTER-LIGAND FREE ENERGY PREDICTED BY IDOCK:   -7.95 KCAL/MOL
REMARK 924 INTRA-LIGAND FREE ENERGY PREDICTED BY IDOCK:   -0.92 KCAL/MOL
REMARK 927      BINDING AFFINITY PREDICTED BY RF-SCORE:    0.00 PKD
ROOT
HETATM    1  C   UNK     1     -11.438  15.811  64.379  1.00  0.00    -0.263 C  
HETATM    2  O   UNK     1     -12.439  14.893  63.965  1.00  0.00    -0.807 OA 
ENDROOT
BRANCH   2   3
HETATM    3  C   UNK     1     -12.291  13.630  64.615  1.00  0.00    -0.371 C  
BRANCH   3   4
HETATM    4  C   UNK     1     -12.777  13.750  66.055  1.00  0.00    -0.354 C  
BRANCH   4   5
HETATM    5  O   UNK     1     -11.767  13.265  66.936  1.00  0.00    -0.347 OA 
BRANCH   5   6
HETATM    6  C   UNK     1     -11.290  11.984  66.532  1.00  0.00    -0.354 C  
BRANCH   6   7
HETATM    7  C   UNK     1     -11.184  11.082  67.755  1.00  0.00    -0.374 C  
BRANCH   7   8
HETATM    8  C   UNK     1     -11.881  11.681  68.982  1.00  0.00    -0.391 C  
BRANCH   8   9
HETATM    9  C   UNK     1     -11.561  10.866  70.232  1.00  0.00    -0.426 C  
BRANCH   9  10
HETATM   10  C   UNK     1     -12.724  10.837  71.220  1.00  0.00    -0.546 C  
BRANCH  10  11
HETATM   11  C   UNK     1     -12.944   9.436  71.760  1.00  0.00    -0.402 C  
HETATM   12  O   UNK     1     -13.986   9.069  72.293  1.00  0.00    -0.448 OA 
HETATM   13  N   UNK     1     -11.854   8.610  71.595  1.00  0.00    -0.302 N  
HETATM   14  H   UNK     1     -11.000   8.985  71.182  1.00  0.00     0.000 HD 
BRANCH  13  15
HETATM   15  C   UNK     1     -11.902   7.219  71.999  1.00  0.00    -0.296 C  
BRANCH  15  16
HETATM   16  C   UNK     1     -11.059   6.313  71.098  1.00  0.00    -0.356 C  
BRANCH  16  17
HETATM   17  C   UNK     1     -11.340   6.579  69.620  1.00  0.00    -0.443 C  
BRANCH  17  18
HETATM   18  C   UNK     1     -10.172   7.286  68.917  1.00  0.00    -0.196 C  
BRANCH  18  19
HETATM   19  C   UNK     1      -9.922   6.783  67.487  1.00  0.00    -0.141 C  
HETATM   20  N   UNK     1     -11.207   6.567  66.759  1.00  0.00    -0.759 NA 
HETATM   21  C   UNK     1      -9.148   5.456  67.512  1.00  0.00    -0.107 C  
HETATM   22  O   UNK     1      -7.950   5.341  67.685  1.00  0.00    -0.099 OA 
HETATM   23  O   UNK     1      -9.993   4.397  67.361  1.00  0.00    -0.170 OA 
HETATM   24  H1  UNK     1     -11.042   6.234  65.810  1.00  0.00     0.000 HD 
HETATM   25  H2  UNK     1     -11.787   7.407  66.766  1.00  0.00     0.000 HD 
ENDBRANCH  18  19
ENDBRANCH  17  18
ENDBRANCH  16  17
ENDBRANCH  15  16
ENDBRANCH  13  15
ENDBRANCH  10  11
ENDBRANCH   9  10
ENDBRANCH   8   9
ENDBRANCH   7   8
ENDBRANCH   6   7
ENDBRANCH   5   6
ENDBRANCH   4   5
ENDBRANCH   3   4
ENDBRANCH   2   3
TORSDOF 14
ENDMDL
MODEL       86
REMARK 921   NORMALIZED FREE ENERGY PREDICTED BY IDOCK:   -4.36 KCAL/MOL
REMARK 922        TOTAL FREE ENERGY PREDICTED BY IDOCK:   -8.86 KCAL/MOL
REMARK 923 INTER-LIGAND FREE ENERGY PREDICTED BY IDOCK:   -8.21 KCAL/MOL
REMARK 924 INTRA-LIGAND FREE ENERGY PREDICTED BY IDOCK:   -0.65 KCAL/MOL
REMARK 927      BINDING AFFINITY PREDICTED BY RF-SCORE:    0.00 PKD
ROOT
HETATM    1  C   UNK     1      -8.891   7.158  67.715  1.00  0.00    -0.124 C  
HETATM    2  O   UNK     1     -10.175   7.220  68.318  1.00  0.00    -0.168 OA 
ENDROOT
BRANCH   2   3
HETATM    3  C   UNK     1     -10.421   6.080  69.143  1.00  0.00    -0.257 C  
BRANCH   3   4
HETATM    4  C   UNK     1     -11.611   6.368  70.050  1.00  0.00    -0.377 C  
BRANCH   4   5
HETATM    5  O   UNK     1     -11.143   6.879  71.296  1.00  0.00    -0.245 OA 
BRANCH   5   6
HETATM    6  C   UNK     1     -12.139   7.665  71.947  1.00  0.00    -0.298 C  
BRANCH   6   7
HETATM    7  C   UNK     1     -11.738   9.133  71.882  1.00  0.00    -0.436 C  
BRANCH   7   8
HETATM    8  C   UNK     1     -12.947  10.071  71.977  1.00  0.00    -0.514 C  
BRANCH   8   9
HETATM    9  C   UNK     1     -12.699  11.349  71.181  1.00  0.00    -0.479 C  
BRANCH   9  10
HETATM   10  C   UNK     1     -11.930  11.088  69.888  1.00  0.00    -0.427 C  
BRANCH  10  11
HETATM   11  C   UNK     1     -11.969  12.302  68.978  1.00  0.00    -0.248 C  
HETATM   12  O   UNK     1     -12.052  13.455  69.388  1.00  0.00    -0.309 OA 
HETATM   13  N   UNK     1     -11.905  11.983  67.640  1.00  0.00    -0.292 N  
HETATM   14  H   UNK     1     -11.880  11.003  67.359  1.00  0.00     0.000 HD 
BRANCH  13  15
HETATM   15  C   UNK     1     -11.873  13.018  66.626  1.00  0.00    -0.393 C  
BRANCH  15  16
HETATM   16  C   UNK     1     -10.514  13.121  65.929  1.00  0.00    -0.288 C  
BRANCH  16  17
HETATM   17  C   UNK     1      -9.678  14.265  66.501  1.00  0.00    -0.304 C  
BRANCH  17  18
HETATM   18  C   UNK     1      -9.618  15.477  65.560  1.00  0.00    -0.257 C  
BRANCH  18  19
HETATM   19  C   UNK     1     -10.898  16.326  65.573  1.00  0.00    -0.245 C  
HETATM   20  N   UNK     1     -11.351  16.642  64.187  1.00  0.00    -1.437 NA 
HETATM   21  C   UNK     1     -10.658  17.648  66.320  1.00  0.00    -0.215 C  
HETATM   22  O   UNK     1     -10.641  17.782  67.529  1.00  0.00    -0.377 OA 
HETATM   23  O   UNK     1     -10.413  18.664  65.445  1.00  0.00    -0.520 OA 
HETATM   24  H1  UNK     1     -12.201  17.205  64.195  1.00  0.00     0.000 HD 
HETATM   25  H2  UNK     1     -11.468  15.796  63.629  1.00  0.00     0.000 HD 
ENDBRANCH  18  19
ENDBRANCH  17  18
ENDBRANCH  16  17
ENDBRANCH  15  16
ENDBRANCH  13  15
ENDBRANCH  10  11
ENDBRANCH   9  10
ENDBRANCH   8   9
ENDBRANCH   7   8
ENDBRANCH   6   7
ENDBRANCH   5   6
ENDBRANCH   4   5
ENDBRANCH   3   4
ENDBRANCH   2   3
TORSDOF 14
ENDMDL
MODEL       87
REMARK 921   NORMALIZED FREE ENERGY PREDICTED BY IDOCK:   -4.36 KCAL/MOL
REMARK 922        TOTAL FREE ENERGY PREDICTED BY IDOCK:   -8.86 KCAL/MOL
REMARK 923 INTER-LIGAND FREE ENERGY PREDICTED BY IDOCK:   -7.32 KCAL/MOL
REMARK 924 INTRA-LIGAND FREE ENERGY PREDICTED BY IDOCK:   -1.54 KCAL/MOL
REMARK 927      BINDING AFFINITY PREDICTED BY RF-SCORE:    0.00 PKD
ROOT
HETATM    1  C   UNK     1     -11.005   6.546  67.023  1.00  0.00    -0.396 C  
HETATM    2  O   UNK     1     -10.214   7.725  66.979  1.00  0.00    -0.247 OA 
ENDROOT
BRANCH   2   3
HETATM    3  C   UNK     1      -8.861   7.434  66.627  1.00  0.00    -0.143 C  
BRANCH   3   4
HETATM    4  C   UNK     1      -8.288   8.603  65.836  1.00  0.00    -0.136 C  
BRANCH   4   5
HETATM    5  O   UNK     1      -8.243   8.262  64.453  1.00  0.00    -0.165 OA 
BRANCH   5   6
HETATM    6  C   UNK     1      -8.643   9.356  63.630  1.00  0.00    -0.208 C  
BRANCH   6   7
HETATM    7  C   UNK     1      -9.088  10.511  64.518  1.00  0.00    -0.251 C  
BRANCH   7   8
HETATM    8  C   UNK     1     -10.536  10.932  64.243  1.00  0.00    -0.405 C  
BRANCH   8   9
HETATM    9  C   UNK     1     -10.581  12.065  63.221  1.00  0.00    -0.399 C  
BRANCH   9  10
HETATM   10  C   UNK     1     -11.927  12.785  63.212  1.00  0.00    -0.522 C  
BRANCH  10  11
HETATM   11  C   UNK     1     -12.043  13.736  64.389  1.00  0.00    -0.436 C  
HETATM   12  O   UNK     1     -13.035  13.810  65.107  1.00  0.00    -0.738 OA 
HETATM   13  N   UNK     1     -10.922  14.514  64.575  1.00  0.00    -0.608 N  
HETATM   14  H   UNK     1     -10.144  14.436  63.919  1.00  0.00     0.000 HD 
BRANCH  13  15
HETATM   15  C   UNK     1     -10.830  15.440  65.686  1.00  0.00    -0.355 C  
BRANCH  15  16
HETATM   16  C   UNK     1      -9.673  15.114  66.633  1.00  0.00    -0.274 C  
BRANCH  16  17
HETATM   17  C   UNK     1      -9.505  13.605  66.810  1.00  0.00    -0.275 C  
BRANCH  17  18
HETATM   18  C   UNK     1     -10.465  13.025  67.859  1.00  0.00    -0.234 C  
BRANCH  18  19
HETATM   19  C   UNK     1     -10.588  11.495  67.796  1.00  0.00    -0.192 C  
HETATM   20  N   UNK     1     -12.016  11.066  67.854  1.00  0.00    -0.727 NA 
HETATM   21  C   UNK     1      -9.837  10.847  68.970  1.00  0.00    -0.180 C  
HETATM   22  O   UNK     1      -8.634  10.676  69.029  1.00  0.00    -0.148 OA 
HETATM   23  O   UNK     1     -10.695  10.523  69.977  1.00  0.00    -0.276 OA 
HETATM   24  H1  UNK     1     -12.099  10.051  67.811  1.00  0.00     0.000 HD 
HETATM   25  H2  UNK     1     -12.573  11.518  67.128  1.00  0.00     0.000 HD 
ENDBRANCH  18  19
ENDBRANCH  17  18
ENDBRANCH  16  17
ENDBRANCH  15  16
ENDBRANCH  13  15
ENDBRANCH  10  11
ENDBRANCH   9  10
ENDBRANCH   8   9
ENDBRANCH   7   8
ENDBRANCH   6   7
ENDBRANCH   5   6
ENDBRANCH   4   5
ENDBRANCH   3   4
ENDBRANCH   2   3
TORSDOF 14
ENDMDL
MODEL       88
REMARK 921   NORMALIZED FREE ENERGY PREDICTED BY IDOCK:   -4.35 KCAL/MOL
REMARK 922        TOTAL FREE ENERGY PREDICTED BY IDOCK:   -8.85 KCAL/MOL
REMARK 923 INTER-LIGAND FREE ENERGY PREDICTED BY IDOCK:   -7.80 KCAL/MOL
REMARK 924 INTRA-LIGAND FREE ENERGY PREDICTED BY IDOCK:   -1.05 KCAL/MOL
REMARK 927      BINDING AFFINITY PREDICTED BY RF-SCORE:    0.00 PKD
ROOT
HETATM    1  C   UNK     1     -10.152   5.461  69.240  1.00  0.00    -0.231 C  
HETATM    2  O   UNK     1     -11.168   6.125  69.979  1.00  0.00    -0.365 OA 
ENDROOT
BRANCH   2   3
HETATM    3  C   UNK     1     -10.675   6.604  71.230  1.00  0.00    -0.231 C  
BRANCH   3   4
HETATM    4  C   UNK     1     -11.842   7.129  72.058  1.00  0.00    -0.295 C  
BRANCH   4   5
HETATM    5  O   UNK     1     -13.034   7.084  71.277  1.00  0.00    -0.378 OA 
BRANCH   5   6
HETATM    6  C   UNK     1     -13.967   8.081  71.688  1.00  0.00    -0.400 C  
BRANCH   6   7
HETATM    7  C   UNK     1     -13.213   9.358  72.034  1.00  0.00    -0.529 C  
BRANCH   7   8
HETATM    8  C   UNK     1     -13.160  10.339  70.858  1.00  0.00    -0.423 C  
BRANCH   8   9
HETATM    9  C   UNK     1     -12.645  11.700  71.317  1.00  0.00    -0.425 C  
BRANCH   9  10
HETATM   10  C   UNK     1     -13.701  12.492  72.085  1.00  0.00    -0.338 C  
BRANCH  10  11
HETATM   11  C   UNK     1     -13.511  13.984  71.888  1.00  0.00    -0.421 C  
HETATM   12  O   UNK     1     -13.967  14.833  72.647  1.00  0.00    -0.444 OA 
HETATM   13  N   UNK     1     -12.775  14.298  70.767  1.00  0.00    -0.340 N  
HETATM   14  H   UNK     1     -12.458  13.550  70.150  1.00  0.00     0.000 HD 
BRANCH  13  15
HETATM   15  C   UNK     1     -12.445  15.673  70.449  1.00  0.00    -0.371 C  
BRANCH  15  16
HETATM   16  C   UNK     1     -10.935  15.919  70.390  1.00  0.00    -0.361 C  
BRANCH  16  17
HETATM   17  C   UNK     1     -10.335  15.400  69.083  1.00  0.00    -0.240 C  
BRANCH  17  18
HETATM   18  C   UNK     1     -11.243  15.664  67.873  1.00  0.00    -0.328 C  
BRANCH  18  19
HETATM   19  C   UNK     1     -11.564  14.399  67.062  1.00  0.00    -0.384 C  
HETATM   20  N   UNK     1     -11.587  13.189  67.934  1.00  0.00    -0.314 NA 
HETATM   21  C   UNK     1     -10.512  14.187  65.962  1.00  0.00    -0.304 C  
HETATM   22  O   UNK     1     -10.475  14.775  64.898  1.00  0.00    -0.412 OA 
HETATM   23  O   UNK     1      -9.578  13.274  66.352  1.00  0.00    -0.265 OA 
HETATM   24  H1  UNK     1     -11.800  12.350  67.396  1.00  0.00     0.000 HD 
HETATM   25  H2  UNK     1     -12.230  13.304  68.718  1.00  0.00     0.000 HD 
ENDBRANCH  18  19
ENDBRANCH  17  18
ENDBRANCH  16  17
ENDBRANCH  15  16
ENDBRANCH  13  15
ENDBRANCH  10  11
ENDBRANCH   9  10
ENDBRANCH   8   9
ENDBRANCH   7   8
ENDBRANCH   6   7
ENDBRANCH   5   6
ENDBRANCH   4   5
ENDBRANCH   3   4
ENDBRANCH   2   3
TORSDOF 14
ENDMDL
MODEL       89
REMARK 921   NORMALIZED FREE ENERGY PREDICTED BY IDOCK:   -4.35 KCAL/MOL
REMARK 922        TOTAL FREE ENERGY PREDICTED BY IDOCK:   -8.84 KCAL/MOL
REMARK 923 INTER-LIGAND FREE ENERGY PREDICTED BY IDOCK:   -7.84 KCAL/MOL
REMARK 924 INTRA-LIGAND FREE ENERGY PREDICTED BY IDOCK:   -1.00 KCAL/MOL
REMARK 927      BINDING AFFINITY PREDICTED BY RF-SCORE:    0.00 PKD
ROOT
HETATM    1  C   UNK     1     -10.722   5.783  71.065  1.00  0.00    -0.258 C  
HETATM    2  O   UNK     1     -11.703   6.565  70.399  1.00  0.00    -0.393 OA 
ENDROOT
BRANCH   2   3
HETATM    3  C   UNK     1     -12.698   7.037  71.308  1.00  0.00    -0.351 C  
BRANCH   3   4
HETATM    4  C   UNK     1     -12.132   8.206  72.106  1.00  0.00    -0.357 C  
BRANCH   4   5
HETATM    5  O   UNK     1     -13.136   9.207  72.255  1.00  0.00    -0.398 OA 
BRANCH   5   6
HETATM    6  C   UNK     1     -12.733  10.444  71.671  1.00  0.00    -0.455 C  
BRANCH   6   7
HETATM    7  C   UNK     1     -13.781  11.506  71.977  1.00  0.00     0.056 C  
BRANCH   7   8
HETATM    8  C   UNK     1     -13.168  12.901  72.138  1.00  0.00    -0.552 C  
BRANCH   8   9
HETATM    9  C   UNK     1     -14.240  13.978  72.002  1.00  0.00    -0.585 C  
BRANCH   9  10
HETATM   10  C   UNK     1     -13.727  15.361  72.394  1.00  0.00    -0.644 C  
BRANCH  10  11
HETATM   11  C   UNK     1     -12.584  15.791  71.492  1.00  0.00    -0.455 C  
HETATM   12  O   UNK     1     -11.544  16.293  71.907  1.00  0.00    -0.456 OA 
HETATM   13  N   UNK     1     -12.828  15.565  70.156  1.00  0.00    -0.621 N  
HETATM   14  H   UNK     1     -13.729  15.184  69.868  1.00  0.00     0.000 HD 
BRANCH  13  15
HETATM   15  C   UNK     1     -11.825  15.862  69.152  1.00  0.00    -0.330 C  
BRANCH  15  16
HETATM   16  C   UNK     1     -11.072  14.614  68.683  1.00  0.00    -0.276 C  
BRANCH  16  17
HETATM   17  C   UNK     1     -11.999  13.402  68.597  1.00  0.00    -0.362 C  
BRANCH  17  18
HETATM   18  C   UNK     1     -11.920  12.696  67.235  1.00  0.00    -0.321 C  
BRANCH  18  19
HETATM   19  C   UNK     1     -11.089  11.405  67.262  1.00  0.00    -0.303 C  
HETATM   20  N   UNK     1     -11.181  10.732  68.591  1.00  0.00    -0.254 NA 
HETATM   21  C   UNK     1      -9.611  11.711  66.973  1.00  0.00    -0.184 C  
HETATM   22  O   UNK     1      -9.135  11.910  65.872  1.00  0.00    -0.186 OA 
HETATM   23  O   UNK     1      -8.893  11.781  68.129  1.00  0.00    -0.157 OA 
HETATM   24  H1  UNK     1     -10.630   9.874  68.609  1.00  0.00     0.000 HD 
HETATM   25  H2  UNK     1     -12.150  10.560  68.858  1.00  0.00     0.000 HD 
ENDBRANCH  18  19
ENDBRANCH  17  18
ENDBRANCH  16  17
ENDBRANCH  15  16
ENDBRANCH  13  15
ENDBRANCH  10  11
ENDBRANCH   9  10
ENDBRANCH   8   9
ENDBRANCH   7   8
ENDBRANCH   6   7
ENDBRANCH   5   6
ENDBRANCH   4   5
ENDBRANCH   3   4
ENDBRANCH   2   3
TORSDOF 14
ENDMDL
MODEL       90
REMARK 921   NORMALIZED FREE ENERGY PREDICTED BY IDOCK:   -4.35 KCAL/MOL
REMARK 922        TOTAL FREE ENERGY PREDICTED BY IDOCK:   -8.84 KCAL/MOL
REMARK 923 INTER-LIGAND FREE ENERGY PREDICTED BY IDOCK:   -8.03 KCAL/MOL
REMARK 924 INTRA-LIGAND FREE ENERGY PREDICTED BY IDOCK:   -0.81 KCAL/MOL
REMARK 927      BINDING AFFINITY PREDICTED BY RF-SCORE:    0.00 PKD
ROOT
HETATM    1  C   UNK     1     -12.530  13.718  65.092  1.00  0.00    -0.450 C  
HETATM    2  O   UNK     1     -13.260  12.610  64.583  1.00  0.00    -0.828 OA 
ENDROOT
BRANCH   2   3
HETATM    3  C   UNK     1     -12.573  11.986  63.498  1.00  0.00    -0.507 C  
BRANCH   3   4
HETATM    4  C   UNK     1     -11.071  12.172  63.685  1.00  0.00    -0.457 C  
BRANCH   4   5
HETATM    5  O   UNK     1     -10.519  10.996  64.273  1.00  0.00    -0.338 OA 
BRANCH   5   6
HETATM    6  C   UNK     1      -9.832  11.292  65.487  1.00  0.00    -0.231 C  
BRANCH   6   7
HETATM    7  C   UNK     1     -10.588  10.669  66.653  1.00  0.00    -0.276 C  
BRANCH   7   8
HETATM    8  C   UNK     1     -10.819  11.665  67.796  1.00  0.00    -0.264 C  
BRANCH   8   9
HETATM    9  C   UNK     1     -11.902  11.154  68.742  1.00  0.00    -0.388 C  
BRANCH   9  10
HETATM   10  C   UNK     1     -11.881  11.873  70.089  1.00  0.00    -0.390 C  
BRANCH  10  11
HETATM   11  C   UNK     1     -12.816  11.201  71.078  1.00  0.00    -0.329 C  
HETATM   12  O   UNK     1     -13.395  11.799  71.979  1.00  0.00    -0.487 OA 
HETATM   13  N   UNK     1     -12.951   9.847  70.867  1.00  0.00    -0.525 N  
HETATM   14  H   UNK     1     -12.411   9.398  70.127  1.00  0.00     0.000 HD 
BRANCH  13  15
HETATM   15  C   UNK     1     -13.848   9.050  71.680  1.00  0.00    -0.368 C  
BRANCH  15  16
HETATM   16  C   UNK     1     -13.412   7.585  71.779  1.00  0.00    -0.381 C  
BRANCH  16  17
HETATM   17  C   UNK     1     -11.918   7.466  72.077  1.00  0.00    -0.333 C  
BRANCH  17  18
HETATM   18  C   UNK     1     -11.143   6.788  70.938  1.00  0.00    -0.322 C  
BRANCH  18  19
HETATM   19  C   UNK     1      -9.657   7.174  70.894  1.00  0.00    -0.167 C  
HETATM   20  N   UNK     1      -8.858   6.354  71.851  1.00  0.00    -0.138 NA 
HETATM   21  C   UNK     1      -9.477   8.657  71.255  1.00  0.00    -0.224 C  
HETATM   22  O   UNK     1      -9.670   9.595  70.504  1.00  0.00    -0.259 OA 
HETATM   23  O   UNK     1      -9.114   8.800  72.561  1.00  0.00    -0.367 OA 
HETATM   24  H1  UNK     1      -7.871   6.610  71.822  1.00  0.00     0.000 HD 
HETATM   25  H2  UNK     1      -8.991   5.356  71.690  1.00  0.00     0.000 HD 
ENDBRANCH  18  19
ENDBRANCH  17  18
ENDBRANCH  16  17
ENDBRANCH  15  16
ENDBRANCH  13  15
ENDBRANCH  10  11
ENDBRANCH   9  10
ENDBRANCH   8   9
ENDBRANCH   7   8
ENDBRANCH   6   7
ENDBRANCH   5   6
ENDBRANCH   4   5
ENDBRANCH   3   4
ENDBRANCH   2   3
TORSDOF 14
ENDMDL
MODEL       91
REMARK 921   NORMALIZED FREE ENERGY PREDICTED BY IDOCK:   -4.35 KCAL/MOL
REMARK 922        TOTAL FREE ENERGY PREDICTED BY IDOCK:   -8.84 KCAL/MOL
REMARK 923 INTER-LIGAND FREE ENERGY PREDICTED BY IDOCK:   -7.80 KCAL/MOL
REMARK 924 INTRA-LIGAND FREE ENERGY PREDICTED BY IDOCK:   -1.04 KCAL/MOL
REMARK 927      BINDING AFFINITY PREDICTED BY RF-SCORE:    0.00 PKD
ROOT
HETATM    1  C   UNK     1      -8.556   6.445  70.403  1.00  0.00    -0.142 C  
HETATM    2  O   UNK     1      -9.534   5.416  70.358  1.00  0.00    -0.153 OA 
ENDROOT
BRANCH   2   3
HETATM    3  C   UNK     1     -10.421   5.489  71.474  1.00  0.00    -0.235 C  
BRANCH   3   4
HETATM    4  C   UNK     1     -11.171   6.815  71.430  1.00  0.00    -0.268 C  
BRANCH   4   5
HETATM    5  O   UNK     1     -12.536   6.598  71.778  1.00  0.00    -0.354 OA 
BRANCH   5   6
HETATM    6  C   UNK     1     -13.315   7.781  71.606  1.00  0.00    -0.342 C  
BRANCH   6   7
HETATM    7  C   UNK     1     -12.457   8.995  71.936  1.00  0.00    -0.454 C  
BRANCH   7   8
HETATM    8  C   UNK     1     -13.159  10.314  71.596  1.00  0.00    -0.553 C  
BRANCH   8   9
HETATM    9  C   UNK     1     -12.183  11.289  70.944  1.00  0.00    -0.460 C  
BRANCH   9  10
HETATM   10  C   UNK     1     -12.121  11.122  69.428  1.00  0.00    -0.396 C  
BRANCH  10  11
HETATM   11  C   UNK     1     -10.689  11.198  68.931  1.00  0.00    -0.207 C  
HETATM   12  O   UNK     1      -9.819  10.390  69.241  1.00  0.00    -0.212 OA 
HETATM   13  N   UNK     1     -10.457  12.268  68.096  1.00  0.00    -0.210 N  
HETATM   14  H   UNK     1     -11.210  12.930  67.909  1.00  0.00     0.000 HD 
BRANCH  13  15
HETATM   15  C   UNK     1      -9.160  12.469  67.481  1.00  0.00    -0.187 C  
BRANCH  15  16
HETATM   16  C   UNK     1      -9.061  11.836  66.090  1.00  0.00    -0.189 C  
BRANCH  16  17
HETATM   17  C   UNK     1     -10.424  11.790  65.400  1.00  0.00    -0.317 C  
BRANCH  17  18
HETATM   18  C   UNK     1     -10.574  12.873  64.322  1.00  0.00    -0.430 C  
BRANCH  18  19
HETATM   19  C   UNK     1     -11.791  13.786  64.538  1.00  0.00    -0.417 C  
HETATM   20  N   UNK     1     -12.309  14.310  63.240  1.00  0.00    -1.092 NA 
HETATM   21  C   UNK     1     -11.415  14.980  65.430  1.00  0.00    -0.287 C  
HETATM   22  O   UNK     1     -11.312  14.950  66.641  1.00  0.00    -0.349 OA 
HETATM   23  O   UNK     1     -11.160  16.087  64.679  1.00  0.00    -0.548 OA 
HETATM   24  H1  UNK     1     -13.117  14.916  63.383  1.00  0.00     0.000 HD 
HETATM   25  H2  UNK     1     -12.518  13.555  62.587  1.00  0.00     0.000 HD 
ENDBRANCH  18  19
ENDBRANCH  17  18
ENDBRANCH  16  17
ENDBRANCH  15  16
ENDBRANCH  13  15
ENDBRANCH  10  11
ENDBRANCH   9  10
ENDBRANCH   8   9
ENDBRANCH   7   8
ENDBRANCH   6   7
ENDBRANCH   5   6
ENDBRANCH   4   5
ENDBRANCH   3   4
ENDBRANCH   2   3
TORSDOF 14
ENDMDL
MODEL       92
REMARK 921   NORMALIZED FREE ENERGY PREDICTED BY IDOCK:   -4.35 KCAL/MOL
REMARK 922        TOTAL FREE ENERGY PREDICTED BY IDOCK:   -8.84 KCAL/MOL
REMARK 923 INTER-LIGAND FREE ENERGY PREDICTED BY IDOCK:   -7.92 KCAL/MOL
REMARK 924 INTRA-LIGAND FREE ENERGY PREDICTED BY IDOCK:   -0.91 KCAL/MOL
REMARK 927      BINDING AFFINITY PREDICTED BY RF-SCORE:    0.00 PKD
ROOT
HETATM    1  C   UNK     1     -10.035  14.994  68.179  1.00  0.00    -0.220 C  
HETATM    2  O   UNK     1     -10.522  16.322  68.300  1.00  0.00    -0.260 OA 
ENDROOT
BRANCH   2   3
HETATM    3  C   UNK     1     -11.152  16.534  69.564  1.00  0.00    -0.245 C  
BRANCH   3   4
HETATM    4  C   UNK     1     -12.126  15.393  69.834  1.00  0.00    -0.355 C  
BRANCH   4   5
HETATM    5  O   UNK     1     -13.067  15.799  70.825  1.00  0.00    -0.522 OA 
BRANCH   5   6
HETATM    6  C   UNK     1     -13.549  14.687  71.576  1.00  0.00    -0.405 C  
BRANCH   6   7
HETATM    7  C   UNK     1     -12.941  13.406  71.018  1.00  0.00    -0.260 C  
BRANCH   7   8
HETATM    8  C   UNK     1     -12.979  12.255  72.029  1.00  0.00    -0.375 C  
BRANCH   8   9
HETATM    9  C   UNK     1     -12.982  10.909  71.310  1.00  0.00    -0.492 C  
BRANCH   9  10
HETATM   10  C   UNK     1     -11.578  10.455  70.921  1.00  0.00    -0.428 C  
BRANCH  10  11
HETATM   11  C   UNK     1     -11.259  10.842  69.488  1.00  0.00    -0.281 C  
HETATM   12  O   UNK     1     -12.115  11.013  68.625  1.00  0.00    -0.551 OA 
HETATM   13  N   UNK     1      -9.911  10.980  69.246  1.00  0.00    -0.406 N  
HETATM   14  H   UNK     1      -9.245  10.783  69.994  1.00  0.00     0.000 HD 
BRANCH  13  15
HETATM   15  C   UNK     1      -9.423  11.400  67.948  1.00  0.00    -0.174 C  
BRANCH  15  16
HETATM   16  C   UNK     1      -8.824  10.246  67.140  1.00  0.00    -0.141 C  
BRANCH  16  17
HETATM   17  C   UNK     1      -8.747  10.587  65.652  1.00  0.00    -0.191 C  
BRANCH  17  18
HETATM   18  C   UNK     1     -10.016  10.183  64.889  1.00  0.00    -0.358 C  
BRANCH  18  19
HETATM   19  C   UNK     1     -10.586  11.306  64.010  1.00  0.00    -0.386 C  
HETATM   20  N   UNK     1      -9.510  11.972  63.220  1.00  0.00    -0.667 NA 
HETATM   21  C   UNK     1     -11.280  12.368  64.879  1.00  0.00    -0.311 C  
HETATM   22  O   UNK     1     -12.395  12.271  65.355  1.00  0.00    -0.582 OA 
HETATM   23  O   UNK     1     -10.458  13.433  65.095  1.00  0.00    -0.315 OA 
HETATM   24  H1  UNK     1      -9.888  12.718  62.636  1.00  0.00     0.000 HD 
HETATM   25  H2  UNK     1      -8.978  11.298  62.669  1.00  0.00     0.000 HD 
ENDBRANCH  18  19
ENDBRANCH  17  18
ENDBRANCH  16  17
ENDBRANCH  15  16
ENDBRANCH  13  15
ENDBRANCH  10  11
ENDBRANCH   9  10
ENDBRANCH   8   9
ENDBRANCH   7   8
ENDBRANCH   6   7
ENDBRANCH   5   6
ENDBRANCH   4   5
ENDBRANCH   3   4
ENDBRANCH   2   3
TORSDOF 14
ENDMDL
MODEL       93
REMARK 921   NORMALIZED FREE ENERGY PREDICTED BY IDOCK:   -4.34 KCAL/MOL
REMARK 922        TOTAL FREE ENERGY PREDICTED BY IDOCK:   -8.83 KCAL/MOL
REMARK 923 INTER-LIGAND FREE ENERGY PREDICTED BY IDOCK:   -7.52 KCAL/MOL
REMARK 924 INTRA-LIGAND FREE ENERGY PREDICTED BY IDOCK:   -1.31 KCAL/MOL
REMARK 927      BINDING AFFINITY PREDICTED BY RF-SCORE:    0.00 PKD
ROOT
HETATM    1  C   UNK     1      -7.685   7.440  64.053  1.00  0.00    -0.121 C  
HETATM    2  O   UNK     1      -7.622   8.336  65.153  1.00  0.00    -0.084 OA 
ENDROOT
BRANCH   2   3
HETATM    3  C   UNK     1      -8.925   8.662  65.637  1.00  0.00    -0.182 C  
BRANCH   3   4
HETATM    4  C   UNK     1      -8.970   8.434  67.143  1.00  0.00    -0.137 C  
BRANCH   4   5
HETATM    5  O   UNK     1     -10.022   9.213  67.708  1.00  0.00    -0.169 OA 
BRANCH   5   6
HETATM    6  C   UNK     1     -10.402   8.726  68.993  1.00  0.00    -0.213 C  
BRANCH   6   7
HETATM    7  C   UNK     1     -10.314   9.861  70.004  1.00  0.00    -0.320 C  
BRANCH   7   8
HETATM    8  C   UNK     1     -11.360   9.733  71.117  1.00  0.00    -0.459 C  
BRANCH   8   9
HETATM    9  C   UNK     1     -12.618  10.521  70.765  1.00  0.00    -0.474 C  
BRANCH   9  10
HETATM   10  C   UNK     1     -13.318  11.080  72.001  1.00  0.00    -0.393 C  
BRANCH  10  11
HETATM   11  C   UNK     1     -13.345  12.597  71.970  1.00  0.00    -0.454 C  
HETATM   12  O   UNK     1     -14.075  13.278  72.684  1.00  0.00    -0.744 OA 
HETATM   13  N   UNK     1     -12.469  13.140  71.057  1.00  0.00    -0.364 N  
HETATM   14  H   UNK     1     -11.918  12.522  70.461  1.00  0.00     0.000 HD 
BRANCH  13  15
HETATM   15  C   UNK     1     -12.318  14.576  70.928  1.00  0.00    -0.345 C  
BRANCH  15  16
HETATM   16  C   UNK     1     -11.697  14.988  69.591  1.00  0.00    -0.353 C  
BRANCH  16  17
HETATM   17  C   UNK     1     -11.460  13.777  68.689  1.00  0.00    -0.336 C  
BRANCH  17  18
HETATM   18  C   UNK     1     -11.890  14.032  67.237  1.00  0.00    -0.445 C  
BRANCH  18  19
HETATM   19  C   UNK     1     -11.750  12.799  66.332  1.00  0.00    -0.403 C  
HETATM   20  N   UNK     1     -11.704  11.542  67.135  1.00  0.00    -0.577 NA 
HETATM   21  C   UNK     1     -10.462  12.890  65.497  1.00  0.00    -0.289 C  
HETATM   22  O   UNK     1     -10.320  13.557  64.490  1.00  0.00    -0.423 OA 
HETATM   23  O   UNK     1      -9.464  12.154  66.060  1.00  0.00    -0.239 OA 
HETATM   24  H1  UNK     1     -11.612  10.723  66.534  1.00  0.00     0.000 HD 
HETATM   25  H2  UNK     1     -12.512  11.463  67.753  1.00  0.00     0.000 HD 
ENDBRANCH  18  19
ENDBRANCH  17  18
ENDBRANCH  16  17
ENDBRANCH  15  16
ENDBRANCH  13  15
ENDBRANCH  10  11
ENDBRANCH   9  10
ENDBRANCH   8   9
ENDBRANCH   7   8
ENDBRANCH   6   7
ENDBRANCH   5   6
ENDBRANCH   4   5
ENDBRANCH   3   4
ENDBRANCH   2   3
TORSDOF 14
ENDMDL
MODEL       94
REMARK 921   NORMALIZED FREE ENERGY PREDICTED BY IDOCK:   -4.34 KCAL/MOL
REMARK 922        TOTAL FREE ENERGY PREDICTED BY IDOCK:   -8.83 KCAL/MOL
REMARK 923 INTER-LIGAND FREE ENERGY PREDICTED BY IDOCK:   -7.96 KCAL/MOL
REMARK 924 INTRA-LIGAND FREE ENERGY PREDICTED BY IDOCK:   -0.87 KCAL/MOL
REMARK 927      BINDING AFFINITY PREDICTED BY RF-SCORE:    0.00 PKD
ROOT
HETATM    1  C   UNK     1     -12.688  15.618  73.559  1.00  0.00    -0.561 C  
HETATM    2  O   UNK     1     -12.665  16.121  72.231  1.00  0.00    -0.438 OA 
ENDROOT
BRANCH   2   3
HETATM    3  C   UNK     1     -13.338  15.242  71.328  1.00  0.00    -0.510 C  
BRANCH   3   4
HETATM    4  C   UNK     1     -12.316  14.321  70.673  1.00  0.00    -0.361 C  
BRANCH   4   5
HETATM    5  O   UNK     1     -11.674  15.011  69.603  1.00  0.00    -0.284 OA 
BRANCH   5   6
HETATM    6  C   UNK     1     -11.181  14.106  68.618  1.00  0.00    -0.266 C  
BRANCH   6   7
HETATM    7  C   UNK     1     -11.863  14.395  67.287  1.00  0.00    -0.434 C  
BRANCH   7   8
HETATM    8  C   UNK     1     -10.877  14.887  66.222  1.00  0.00    -0.331 C  
BRANCH   8   9
HETATM    9  C   UNK     1     -11.418  14.611  64.822  1.00  0.00    -0.410 C  
BRANCH   9  10
HETATM   10  C   UNK     1     -12.139  13.269  64.732  1.00  0.00    -0.456 C  
BRANCH  10  11
HETATM   11  C   UNK     1     -11.171  12.154  64.383  1.00  0.00    -0.341 C  
HETATM   12  O   UNK     1     -10.735  11.963  63.252  1.00  0.00    -0.394 OA 
HETATM   13  N   UNK     1     -10.827  11.371  65.462  1.00  0.00    -0.253 N  
HETATM   14  H   UNK     1     -11.255  11.553  66.370  1.00  0.00     0.000 HD 
BRANCH  13  15
HETATM   15  C   UNK     1      -9.868  10.292  65.328  1.00  0.00    -0.306 C  
BRANCH  15  16
HETATM   16  C   UNK     1      -9.895   9.328  66.516  1.00  0.00    -0.331 C  
BRANCH  16  17
HETATM   17  C   UNK     1     -10.662   9.919  67.699  1.00  0.00    -0.339 C  
BRANCH  17  18
HETATM   18  C   UNK     1     -10.442   9.127  68.997  1.00  0.00    -0.238 C  
BRANCH  18  19
HETATM   19  C   UNK     1     -10.427  10.008  70.255  1.00  0.00    -0.272 C  
HETATM   20  N   UNK     1      -9.350   9.584  71.198  1.00  0.00    -0.337 NA 
HETATM   21  C   UNK     1     -11.776   9.921  70.987  1.00  0.00    -0.382 C  
HETATM   22  O   UNK     1     -12.789  10.514  70.671  1.00  0.00    -0.358 OA 
HETATM   23  O   UNK     1     -11.709   9.043  72.028  1.00  0.00    -0.357 OA 
HETATM   24  H1  UNK     1      -9.339  10.169  72.033  1.00  0.00     0.000 HD 
HETATM   25  H2  UNK     1      -8.438   9.567  70.741  1.00  0.00     0.000 HD 
ENDBRANCH  18  19
ENDBRANCH  17  18
ENDBRANCH  16  17
ENDBRANCH  15  16
ENDBRANCH  13  15
ENDBRANCH  10  11
ENDBRANCH   9  10
ENDBRANCH   8   9
ENDBRANCH   7   8
ENDBRANCH   6   7
ENDBRANCH   5   6
ENDBRANCH   4   5
ENDBRANCH   3   4
ENDBRANCH   2   3
TORSDOF 14
ENDMDL
MODEL       95
REMARK 921   NORMALIZED FREE ENERGY PREDICTED BY IDOCK:   -4.34 KCAL/MOL
REMARK 922        TOTAL FREE ENERGY PREDICTED BY IDOCK:   -8.82 KCAL/MOL
REMARK 923 INTER-LIGAND FREE ENERGY PREDICTED BY IDOCK:   -8.35 KCAL/MOL
REMARK 924 INTRA-LIGAND FREE ENERGY PREDICTED BY IDOCK:   -0.48 KCAL/MOL
REMARK 927      BINDING AFFINITY PREDICTED BY RF-SCORE:    0.00 PKD
ROOT
HETATM    1  C   UNK     1     -10.123   4.880  71.086  1.00  0.00    -0.207 C  
HETATM    2  O   UNK     1     -10.434   5.310  69.769  1.00  0.00    -0.291 OA 
ENDROOT
BRANCH   2   3
HETATM    3  C   UNK     1     -11.453   6.311  69.773  1.00  0.00    -0.379 C  
BRANCH   3   4
HETATM    4  C   UNK     1     -11.538   6.931  71.162  1.00  0.00    -0.319 C  
BRANCH   4   5
HETATM    5  O   UNK     1     -12.894   7.262  71.450  1.00  0.00    -0.366 OA 
BRANCH   5   6
HETATM    6  C   UNK     1     -12.996   8.516  72.121  1.00  0.00    -0.363 C  
BRANCH   6   7
HETATM    7  C   UNK     1     -13.131   9.626  71.086  1.00  0.00    -0.383 C  
BRANCH   7   8
HETATM    8  C   UNK     1     -13.134  11.019  71.723  1.00  0.00    -0.554 C  
BRANCH   8   9
HETATM    9  C   UNK     1     -12.400  12.019  70.834  1.00  0.00    -0.384 C  
BRANCH   9  10
HETATM   10  C   UNK     1     -11.596  11.333  69.732  1.00  0.00    -0.408 C  
BRANCH  10  11
HETATM   11  C   UNK     1     -11.765  12.055  68.407  1.00  0.00    -0.332 C  
HETATM   12  O   UNK     1     -11.971  11.480  67.343  1.00  0.00    -0.623 OA 
HETATM   13  N   UNK     1     -11.661  13.423  68.514  1.00  0.00    -0.336 N  
HETATM   14  H   UNK     1     -11.447  13.841  69.420  1.00  0.00     0.000 HD 
BRANCH  13  15
HETATM   15  C   UNK     1     -11.852  14.280  67.361  1.00  0.00    -0.409 C  
BRANCH  15  16
HETATM   16  C   UNK     1     -10.632  15.158  67.068  1.00  0.00    -0.300 C  
BRANCH  16  17
HETATM   17  C   UNK     1     -10.757  16.528  67.733  1.00  0.00    -0.329 C  
BRANCH  17  18
HETATM   18  C   UNK     1      -9.408  17.063  68.237  1.00  0.00    -0.255 C  
BRANCH  18  19
HETATM   19  C   UNK     1      -9.311  18.596  68.217  1.00  0.00    -0.328 C  
HETATM   20  N   UNK     1     -10.273  19.210  69.179  1.00  0.00    -0.541 NA 
HETATM   21  C   UNK     1      -9.618  19.134  66.811  1.00  0.00    -0.331 C  
HETATM   22  O   UNK     1      -8.842  19.144  65.874  1.00  0.00    -0.450 OA 
HETATM   23  O   UNK     1     -10.908  19.565  66.725  1.00  0.00    -0.460 OA 
HETATM   24  H1  UNK     1     -10.209  20.227  69.166  1.00  0.00     0.000 HD 
HETATM   25  H2  UNK     1     -10.150  18.838  70.121  1.00  0.00     0.000 HD 
ENDBRANCH  18  19
ENDBRANCH  17  18
ENDBRANCH  16  17
ENDBRANCH  15  16
ENDBRANCH  13  15
ENDBRANCH  10  11
ENDBRANCH   9  10
ENDBRANCH   8   9
ENDBRANCH   7   8
ENDBRANCH   6   7
ENDBRANCH   5   6
ENDBRANCH   4   5
ENDBRANCH   3   4
ENDBRANCH   2   3
TORSDOF 14
ENDMDL
MODEL       96
REMARK 921   NORMALIZED FREE ENERGY PREDICTED BY IDOCK:   -4.34 KCAL/MOL
REMARK 922        TOTAL FREE ENERGY PREDICTED BY IDOCK:   -8.82 KCAL/MOL
REMARK 923 INTER-LIGAND FREE ENERGY PREDICTED BY IDOCK:   -7.84 KCAL/MOL
REMARK 924 INTRA-LIGAND FREE ENERGY PREDICTED BY IDOCK:   -0.98 KCAL/MOL
REMARK 927      BINDING AFFINITY PREDICTED BY RF-SCORE:    0.00 PKD
ROOT
HETATM    1  C   UNK     1     -11.599   9.758  70.931  1.00  0.00    -0.361 C  
HETATM    2  O   UNK     1     -11.581   8.359  70.685  1.00  0.00    -0.270 OA 
ENDROOT
BRANCH   2   3
HETATM    3  C   UNK     1     -10.248   7.874  70.523  1.00  0.00    -0.198 C  
BRANCH   3   4
HETATM    4  C   UNK     1      -9.586   8.612  69.366  1.00  0.00    -0.166 C  
BRANCH   4   5
HETATM    5  O   UNK     1      -9.574   7.771  68.214  1.00  0.00    -0.151 OA 
BRANCH   5   6
HETATM    6  C   UNK     1     -10.387   8.303  67.170  1.00  0.00    -0.317 C  
BRANCH   6   7
HETATM    7  C   UNK     1      -9.593   9.354  66.405  1.00  0.00    -0.285 C  
BRANCH   7   8
HETATM    8  C   UNK     1     -10.482  10.486  65.879  1.00  0.00    -0.224 C  
BRANCH   8   9
HETATM    9  C   UNK     1     -10.015  10.938  64.498  1.00  0.00    -0.376 C  
BRANCH   9  10
HETATM   10  C   UNK     1     -11.176  11.357  63.601  1.00  0.00    -0.366 C  
BRANCH  10  11
HETATM   11  C   UNK     1     -11.895  12.566  64.171  1.00  0.00    -0.411 C  
HETATM   12  O   UNK     1     -13.041  12.531  64.607  1.00  0.00    -0.845 OA 
HETATM   13  N   UNK     1     -11.135  13.713  64.151  1.00  0.00    -0.574 N  
HETATM   14  H   UNK     1     -10.202  13.689  63.737  1.00  0.00     0.000 HD 
BRANCH  13  15
HETATM   15  C   UNK     1     -11.637  14.954  64.707  1.00  0.00    -0.410 C  
BRANCH  15  16
HETATM   16  C   UNK     1     -11.025  15.280  66.072  1.00  0.00    -0.317 C  
BRANCH  16  17
HETATM   17  C   UNK     1     -11.760  14.558  67.201  1.00  0.00    -0.420 C  
BRANCH  17  18
HETATM   18  C   UNK     1     -11.835  15.398  68.484  1.00  0.00    -0.293 C  
BRANCH  18  19
HETATM   19  C   UNK     1     -11.010  14.819  69.643  1.00  0.00    -0.261 C  
HETATM   20  N   UNK     1     -10.824  13.345  69.491  1.00  0.00    -0.449 NA 
HETATM   21  C   UNK     1     -11.709  15.085  70.986  1.00  0.00    -0.332 C  
HETATM   22  O   UNK     1     -11.691  16.139  71.593  1.00  0.00    -0.467 OA 
HETATM   23  O   UNK     1     -12.405  13.989  71.398  1.00  0.00    -0.350 OA 
HETATM   24  H1  UNK     1     -10.276  12.961  70.260  1.00  0.00     0.000 HD 
HETATM   25  H2  UNK     1     -10.416  13.111  68.586  1.00  0.00     0.000 HD 
ENDBRANCH  18  19
ENDBRANCH  17  18
ENDBRANCH  16  17
ENDBRANCH  15  16
ENDBRANCH  13  15
ENDBRANCH  10  11
ENDBRANCH   9  10
ENDBRANCH   8   9
ENDBRANCH   7   8
ENDBRANCH   6   7
ENDBRANCH   5   6
ENDBRANCH   4   5
ENDBRANCH   3   4
ENDBRANCH   2   3
TORSDOF 14
ENDMDL
MODEL       97
REMARK 921   NORMALIZED FREE ENERGY PREDICTED BY IDOCK:   -4.34 KCAL/MOL
REMARK 922        TOTAL FREE ENERGY PREDICTED BY IDOCK:   -8.82 KCAL/MOL
REMARK 923 INTER-LIGAND FREE ENERGY PREDICTED BY IDOCK:   -7.70 KCAL/MOL
REMARK 924 INTRA-LIGAND FREE ENERGY PREDICTED BY IDOCK:   -1.12 KCAL/MOL
REMARK 927      BINDING AFFINITY PREDICTED BY RF-SCORE:    0.00 PKD
ROOT
HETATM    1  C   UNK     1      -8.427   9.352  67.917  1.00  0.00    -0.116 C  
HETATM    2  O   UNK     1      -9.844   9.275  67.951  1.00  0.00    -0.155 OA 
ENDROOT
BRANCH   2   3
HETATM    3  C   UNK     1     -10.339   8.322  67.009  1.00  0.00    -0.323 C  
BRANCH   3   4
HETATM    4  C   UNK     1      -9.338   7.179  66.884  1.00  0.00    -0.155 C  
BRANCH   4   5
HETATM    5  O   UNK     1     -10.011   5.938  67.086  1.00  0.00    -0.133 OA 
BRANCH   5   6
HETATM    6  C   UNK     1     -10.970   6.028  68.137  1.00  0.00    -0.246 C  
BRANCH   6   7
HETATM    7  C   UNK     1     -10.388   5.405  69.399  1.00  0.00    -0.339 C  
BRANCH   7   8
HETATM    8  C   UNK     1     -10.987   6.008  70.675  1.00  0.00    -0.376 C  
BRANCH   8   9
HETATM    9  C   UNK     1     -11.493   7.424  70.414  1.00  0.00    -0.250 C  
BRANCH   9  10
HETATM   10  C   UNK     1     -11.651   8.230  71.700  1.00  0.00    -0.337 C  
BRANCH  10  11
HETATM   11  C   UNK     1     -12.198   9.616  71.409  1.00  0.00    -0.385 C  
HETATM   12  O   UNK     1     -12.933  10.230  72.176  1.00  0.00    -0.416 OA 
HETATM   13  N   UNK     1     -11.791  10.119  70.194  1.00  0.00    -0.384 N  
HETATM   14  H   UNK     1     -11.213   9.543  69.581  1.00  0.00     0.000 HD 
BRANCH  13  15
HETATM   15  C   UNK     1     -12.169  11.453  69.772  1.00  0.00    -0.265 C  
BRANCH  15  16
HETATM   16  C   UNK     1     -11.177  12.063  68.779  1.00  0.00    -0.316 C  
BRANCH  16  17
HETATM   17  C   UNK     1     -11.896  12.713  67.597  1.00  0.00    -0.390 C  
BRANCH  17  18
HETATM   18  C   UNK     1     -11.417  12.166  66.245  1.00  0.00    -0.433 C  
BRANCH  18  19
HETATM   19  C   UNK     1     -11.682  13.120  65.071  1.00  0.00    -0.337 C  
HETATM   20  N   UNK     1     -13.014  13.780  65.202  1.00  0.00    -0.762 NA 
HETATM   21  C   UNK     1     -11.647  12.354  63.739  1.00  0.00    -0.473 C  
HETATM   22  O   UNK     1     -10.641  12.017  63.145  1.00  0.00    -0.383 OA 
HETATM   23  O   UNK     1     -12.908  12.050  63.319  1.00  0.00    -0.732 OA 
HETATM   24  H1  UNK     1     -13.191  14.413  64.422  1.00  0.00     0.000 HD 
HETATM   25  H2  UNK     1     -13.111  14.254  66.100  1.00  0.00     0.000 HD 
ENDBRANCH  18  19
ENDBRANCH  17  18
ENDBRANCH  16  17
ENDBRANCH  15  16
ENDBRANCH  13  15
ENDBRANCH  10  11
ENDBRANCH   9  10
ENDBRANCH   8   9
ENDBRANCH   7   8
ENDBRANCH   6   7
ENDBRANCH   5   6
ENDBRANCH   4   5
ENDBRANCH   3   4
ENDBRANCH   2   3
TORSDOF 14
ENDMDL
MODEL       98
REMARK 921   NORMALIZED FREE ENERGY PREDICTED BY IDOCK:   -4.34 KCAL/MOL
REMARK 922        TOTAL FREE ENERGY PREDICTED BY IDOCK:   -8.82 KCAL/MOL
REMARK 923 INTER-LIGAND FREE ENERGY PREDICTED BY IDOCK:   -8.03 KCAL/MOL
REMARK 924 INTRA-LIGAND FREE ENERGY PREDICTED BY IDOCK:   -0.80 KCAL/MOL
REMARK 927      BINDING AFFINITY PREDICTED BY RF-SCORE:    0.00 PKD
ROOT
HETATM    1  C   UNK     1     -14.313   8.471  71.986  1.00  0.00    -0.447 C  
HETATM    2  O   UNK     1     -13.901   7.238  71.413  1.00  0.00    -0.394 OA 
ENDROOT
BRANCH   2   3
HETATM    3  C   UNK     1     -12.483   7.181  71.259  1.00  0.00    -0.386 C  
BRANCH   3   4
HETATM    4  C   UNK     1     -11.827   7.981  72.378  1.00  0.00    -0.372 C  
BRANCH   4   5
HETATM    5  O   UNK     1     -10.887   8.896  71.817  1.00  0.00    -0.317 OA 
BRANCH   5   6
HETATM    6  C   UNK     1     -10.922   8.874  70.392  1.00  0.00    -0.244 C  
BRANCH   6   7
HETATM    7  C   UNK     1     -10.798  10.299  69.867  1.00  0.00    -0.355 C  
BRANCH   7   8
HETATM    8  C   UNK     1     -12.045  11.139  70.163  1.00  0.00    -0.443 C  
BRANCH   8   9
HETATM    9  C   UNK     1     -11.863  12.567  69.657  1.00  0.00    -0.382 C  
BRANCH   9  10
HETATM   10  C   UNK     1     -10.778  12.670  68.588  1.00  0.00    -0.269 C  
BRANCH  10  11
HETATM   11  C   UNK     1     -11.386  12.926  67.221  1.00  0.00    -0.310 C  
HETATM   12  O   UNK     1     -11.970  12.069  66.566  1.00  0.00    -0.616 OA 
HETATM   13  N   UNK     1     -11.215  14.220  66.782  1.00  0.00    -0.322 N  
HETATM   14  H   UNK     1     -10.684  14.878  67.353  1.00  0.00     0.000 HD 
BRANCH  13  15
HETATM   15  C   UNK     1     -11.779  14.663  65.522  1.00  0.00    -0.316 C  
BRANCH  15  16
HETATM   16  C   UNK     1     -11.023  15.851  64.922  1.00  0.00    -0.427 C  
BRANCH  16  17
HETATM   17  C   UNK     1      -9.936  16.358  65.869  1.00  0.00    -0.358 C  
BRANCH  17  18
HETATM   18  C   UNK     1     -10.392  17.572  66.692  1.00  0.00    -0.319 C  
BRANCH  18  19
HETATM   19  C   UNK     1      -9.774  17.626  68.097  1.00  0.00    -0.310 C  
HETATM   20  N   UNK     1     -10.773  17.253  69.141  1.00  0.00    -0.350 NA 
HETATM   21  C   UNK     1      -9.256  19.040  68.402  1.00  0.00    -0.352 C  
HETATM   22  O   UNK     1      -8.209  19.510  68.000  1.00  0.00    -0.301 OA 
HETATM   23  O   UNK     1     -10.155  19.736  69.153  1.00  0.00    -0.438 OA 
HETATM   24  H1  UNK     1     -10.363  17.288  70.074  1.00  0.00     0.000 HD 
HETATM   25  H2  UNK     1     -11.192  16.342  68.950  1.00  0.00     0.000 HD 
ENDBRANCH  18  19
ENDBRANCH  17  18
ENDBRANCH  16  17
ENDBRANCH  15  16
ENDBRANCH  13  15
ENDBRANCH  10  11
ENDBRANCH   9  10
ENDBRANCH   8   9
ENDBRANCH   7   8
ENDBRANCH   6   7
ENDBRANCH   5   6
ENDBRANCH   4   5
ENDBRANCH   3   4
ENDBRANCH   2   3
TORSDOF 14
ENDMDL
MODEL       99
REMARK 921   NORMALIZED FREE ENERGY PREDICTED BY IDOCK:   -4.34 KCAL/MOL
REMARK 922        TOTAL FREE ENERGY PREDICTED BY IDOCK:   -8.82 KCAL/MOL
REMARK 923 INTER-LIGAND FREE ENERGY PREDICTED BY IDOCK:   -7.69 KCAL/MOL
REMARK 924 INTRA-LIGAND FREE ENERGY PREDICTED BY IDOCK:   -1.13 KCAL/MOL
REMARK 927      BINDING AFFINITY PREDICTED BY RF-SCORE:    0.00 PKD
ROOT
HETATM    1  C   UNK     1      -8.853   7.018  66.222  1.00  0.00    -0.148 C  
HETATM    2  O   UNK     1      -9.379   8.334  66.127  1.00  0.00    -0.203 OA 
ENDROOT
BRANCH   2   3
HETATM    3  C   UNK     1      -8.397   9.315  66.464  1.00  0.00    -0.126 C  
BRANCH   3   4
HETATM    4  C   UNK     1      -8.744  10.627  65.770  1.00  0.00    -0.182 C  
BRANCH   4   5
HETATM    5  O   UNK     1     -10.088  10.572  65.298  1.00  0.00    -0.279 OA 
BRANCH   5   6
HETATM    6  C   UNK     1     -10.168  10.879  63.908  1.00  0.00    -0.354 C  
BRANCH   6   7
HETATM    7  C   UNK     1     -10.436  12.369  63.741  1.00  0.00    -0.475 C  
BRANCH   7   8
HETATM    8  C   UNK     1     -11.918  12.669  63.491  1.00  0.00    -0.630 C  
BRANCH   8   9
HETATM    9  C   UNK     1     -12.713  12.569  64.790  1.00  0.00    -0.415 C  
BRANCH   9  10
HETATM   10  C   UNK     1     -12.775  13.898  65.537  1.00  0.00    -0.536 C  
BRANCH  10  11
HETATM   11  C   UNK     1     -11.938  13.850  66.803  1.00  0.00    -0.438 C  
HETATM   12  O   UNK     1     -11.614  14.846  67.441  1.00  0.00    -0.355 OA 
HETATM   13  N   UNK     1     -11.574  12.573  67.167  1.00  0.00    -0.350 N  
HETATM   14  H   UNK     1     -11.838  11.787  66.573  1.00  0.00     0.000 HD 
BRANCH  13  15
HETATM   15  C   UNK     1     -10.820  12.328  68.381  1.00  0.00    -0.230 C  
BRANCH  15  16
HETATM   16  C   UNK     1     -11.718  12.005  69.578  1.00  0.00    -0.408 C  
BRANCH  16  17
HETATM   17  C   UNK     1     -11.677  10.517  69.921  1.00  0.00    -0.372 C  
BRANCH  17  18
HETATM   18  C   UNK     1     -12.338  10.206  71.272  1.00  0.00    -0.501 C  
BRANCH  18  19
HETATM   19  C   UNK     1     -11.794   8.935  71.942  1.00  0.00    -0.370 C  
HETATM   20  N   UNK     1     -10.323   8.798  71.726  1.00  0.00    -0.315 NA 
HETATM   21  C   UNK     1     -12.488   7.689  71.372  1.00  0.00    -0.333 C  
HETATM   22  O   UNK     1     -13.596   7.294  71.683  1.00  0.00    -0.377 OA 
HETATM   23  O   UNK     1     -11.716   7.094  70.419  1.00  0.00    -0.289 OA 
HETATM   24  H1  UNK     1      -9.962   7.955  72.170  1.00  0.00     0.000 HD 
HETATM   25  H2  UNK     1      -9.820   9.630  72.035  1.00  0.00     0.000 HD 
ENDBRANCH  18  19
ENDBRANCH  17  18
ENDBRANCH  16  17
ENDBRANCH  15  16
ENDBRANCH  13  15
ENDBRANCH  10  11
ENDBRANCH   9  10
ENDBRANCH   8   9
ENDBRANCH   7   8
ENDBRANCH   6   7
ENDBRANCH   5   6
ENDBRANCH   4   5
ENDBRANCH   3   4
ENDBRANCH   2   3
TORSDOF 14
ENDMDL
MODEL      100
REMARK 921   NORMALIZED FREE ENERGY PREDICTED BY IDOCK:   -4.34 KCAL/MOL
REMARK 922        TOTAL FREE ENERGY PREDICTED BY IDOCK:   -8.82 KCAL/MOL
REMARK 923 INTER-LIGAND FREE ENERGY PREDICTED BY IDOCK:   -7.91 KCAL/MOL
REMARK 924 INTRA-LIGAND FREE ENERGY PREDICTED BY IDOCK:   -0.91 KCAL/MOL
REMARK 927      BINDING AFFINITY PREDICTED BY RF-SCORE:    0.00 PKD
ROOT
HETATM    1  C   UNK     1      -5.792  12.403  69.768  1.00  0.00    -0.123 C  
HETATM    2  O   UNK     1      -6.677  11.297  69.869  1.00  0.00    -0.134 OA 
ENDROOT
BRANCH   2   3
HETATM    3  C   UNK     1      -7.473  11.155  68.692  1.00  0.00    -0.119 C  
BRANCH   3   4
HETATM    4  C   UNK     1      -8.567  10.126  68.951  1.00  0.00    -0.141 C  
BRANCH   4   5
HETATM    5  O   UNK     1      -8.488   9.681  70.303  1.00  0.00    -0.189 OA 
BRANCH   5   6
HETATM    6  C   UNK     1      -9.302   8.531  70.525  1.00  0.00    -0.170 C  
BRANCH   6   7
HETATM    7  C   UNK     1      -9.893   8.601  71.927  1.00  0.00    -0.384 C  
BRANCH   7   8
HETATM    8  C   UNK     1     -11.417   8.764  71.909  1.00  0.00    -0.428 C  
BRANCH   8   9
HETATM    9  C   UNK     1     -11.820   9.945  71.030  1.00  0.00    -0.463 C  
BRANCH   9  10
HETATM   10  C   UNK     1     -12.931  10.782  71.657  1.00  0.00    -0.581 C  
BRANCH  10  11
HETATM   11  C   UNK     1     -12.825  12.235  71.228  1.00  0.00    -0.239 C  
HETATM   12  O   UNK     1     -13.292  13.168  71.872  1.00  0.00    -0.435 OA 
HETATM   13  N   UNK     1     -12.153  12.404  70.039  1.00  0.00    -0.296 N  
HETATM   14  H   UNK     1     -11.824  11.585  69.527  1.00  0.00     0.000 HD 
BRANCH  13  15
HETATM   15  C   UNK     1     -11.906  13.728  69.502  1.00  0.00    -0.339 C  
BRANCH  15  16
HETATM   16  C   UNK     1     -12.010  13.775  67.975  1.00  0.00    -0.390 C  
BRANCH  16  17
HETATM   17  C   UNK     1     -10.918  12.933  67.315  1.00  0.00    -0.289 C  
BRANCH  17  18
HETATM   18  C   UNK     1     -11.472  12.000  66.228  1.00  0.00    -0.408 C  
BRANCH  18  19
HETATM   19  C   UNK     1     -11.020  12.378  64.809  1.00  0.00    -0.301 C  
HETATM   20  N   UNK     1     -10.021  13.486  64.838  1.00  0.00    -0.602 NA 
HETATM   21  C   UNK     1     -12.223  12.828  63.965  1.00  0.00    -0.441 C  
HETATM   22  O   UNK     1     -13.029  12.087  63.434  1.00  0.00    -0.772 OA 
HETATM   23  O   UNK     1     -12.305  14.187  63.921  1.00  0.00    -0.660 OA 
HETATM   24  H1  UNK     1      -9.720  13.736  63.896  1.00  0.00     0.000 HD 
HETATM   25  H2  UNK     1      -9.227  13.259  65.436  1.00  0.00     0.000 HD 
ENDBRANCH  18  19
ENDBRANCH  17  18
ENDBRANCH  16  17
ENDBRANCH  15  16
ENDBRANCH  13  15
ENDBRANCH  10  11
ENDBRANCH   9  10
ENDBRANCH   8   9
ENDBRANCH   7   8
ENDBRANCH   6   7
ENDBRANCH   5   6
ENDBRANCH   4   5
ENDBRANCH   3   4
ENDBRANCH   2   3
TORSDOF 14
ENDMDL
MODEL      101
REMARK 921   NORMALIZED FREE ENERGY PREDICTED BY IDOCK:   -4.33 KCAL/MOL
REMARK 922        TOTAL FREE ENERGY PREDICTED BY IDOCK:   -8.80 KCAL/MOL
REMARK 923 INTER-LIGAND FREE ENERGY PREDICTED BY IDOCK:   -8.04 KCAL/MOL
REMARK 924 INTRA-LIGAND FREE ENERGY PREDICTED BY IDOCK:   -0.76 KCAL/MOL
REMARK 927      BINDING AFFINITY PREDICTED BY RF-SCORE:    0.00 PKD
ROOT
HETATM    1  C   UNK     1     -13.455  12.534  72.167  1.00  0.00    -0.422 C  
HETATM    2  O   UNK     1     -14.364  13.521  72.633  1.00  0.00    -0.716 OA 
ENDROOT
BRANCH   2   3
HETATM    3  C   UNK     1     -14.198  14.756  71.936  1.00  0.00    -0.544 C  
BRANCH   3   4
HETATM    4  C   UNK     1     -12.847  14.752  71.230  1.00  0.00    -0.338 C  
BRANCH   4   5
HETATM    5  O   UNK     1     -12.344  16.085  71.165  1.00  0.00    -0.422 OA 
BRANCH   5   6
HETATM    6  C   UNK     1     -11.271  16.194  70.232  1.00  0.00    -0.381 C  
BRANCH   6   7
HETATM    7  C   UNK     1     -11.422  15.114  69.169  1.00  0.00    -0.322 C  
BRANCH   7   8
HETATM    8  C   UNK     1     -11.150  15.645  67.757  1.00  0.00    -0.311 C  
BRANCH   8   9
HETATM    9  C   UNK     1     -10.949  14.492  66.779  1.00  0.00    -0.316 C  
BRANCH   9  10
HETATM   10  C   UNK     1     -12.270  13.968  66.220  1.00  0.00    -0.493 C  
BRANCH  10  11
HETATM   11  C   UNK     1     -12.033  12.833  65.241  1.00  0.00    -0.429 C  
HETATM   12  O   UNK     1     -12.889  12.415  64.467  1.00  0.00    -0.680 OA 
HETATM   13  N   UNK     1     -10.761  12.312  65.306  1.00  0.00    -0.282 N  
HETATM   14  H   UNK     1     -10.106  12.674  65.999  1.00  0.00     0.000 HD 
BRANCH  13  15
HETATM   15  C   UNK     1     -10.336  11.259  64.405  1.00  0.00    -0.329 C  
BRANCH  15  16
HETATM   16  C   UNK     1     -10.033   9.946  65.131  1.00  0.00    -0.278 C  
BRANCH  16  17
HETATM   17  C   UNK     1     -10.156  10.105  66.646  1.00  0.00    -0.283 C  
BRANCH  17  18
HETATM   18  C   UNK     1      -9.829   8.809  67.402  1.00  0.00    -0.250 C  
BRANCH  18  19
HETATM   19  C   UNK     1     -10.143   7.537  66.600  1.00  0.00    -0.193 C  
HETATM   20  N   UNK     1     -11.227   6.743  67.250  1.00  0.00    -0.701 NA 
HETATM   21  C   UNK     1      -8.893   6.651  66.486  1.00  0.00    -0.139 C  
HETATM   22  O   UNK     1      -7.972   6.826  65.711  1.00  0.00    -0.100 OA 
HETATM   23  O   UNK     1      -8.919   5.651  67.412  1.00  0.00    -0.110 OA 
HETATM   24  H1  UNK     1     -11.437   5.899  66.717  1.00  0.00     0.000 HD 
HETATM   25  H2  UNK     1     -12.064   7.306  67.403  1.00  0.00     0.000 HD 
ENDBRANCH  18  19
ENDBRANCH  17  18
ENDBRANCH  16  17
ENDBRANCH  15  16
ENDBRANCH  13  15
ENDBRANCH  10  11
ENDBRANCH   9  10
ENDBRANCH   8   9
ENDBRANCH   7   8
ENDBRANCH   6   7
ENDBRANCH   5   6
ENDBRANCH   4   5
ENDBRANCH   3   4
ENDBRANCH   2   3
TORSDOF 14
ENDMDL
MODEL      102
REMARK 921   NORMALIZED FREE ENERGY PREDICTED BY IDOCK:   -4.32 KCAL/MOL
REMARK 922        TOTAL FREE ENERGY PREDICTED BY IDOCK:   -8.79 KCAL/MOL
REMARK 923 INTER-LIGAND FREE ENERGY PREDICTED BY IDOCK:   -7.73 KCAL/MOL
REMARK 924 INTRA-LIGAND FREE ENERGY PREDICTED BY IDOCK:   -1.06 KCAL/MOL
REMARK 927      BINDING AFFINITY PREDICTED BY RF-SCORE:    0.00 PKD
ROOT
HETATM    1  C   UNK     1     -10.364  16.907  69.037  1.00  0.00    -0.333 C  
HETATM    2  O   UNK     1     -10.373  15.489  68.963  1.00  0.00    -0.214 OA 
ENDROOT
BRANCH   2   3
HETATM    3  C   UNK     1     -10.961  15.033  67.744  1.00  0.00    -0.298 C  
BRANCH   3   4
HETATM    4  C   UNK     1     -10.113  15.511  66.572  1.00  0.00    -0.279 C  
BRANCH   4   5
HETATM    5  O   UNK     1     -10.864  15.394  65.365  1.00  0.00    -0.346 OA 
BRANCH   5   6
HETATM    6  C   UNK     1     -11.916  14.440  65.494  1.00  0.00    -0.358 C  
BRANCH   6   7
HETATM    7  C   UNK     1     -11.915  13.528  64.274  1.00  0.00    -0.479 C  
BRANCH   7   8
HETATM    8  C   UNK     1     -11.618  12.070  64.638  1.00  0.00    -0.364 C  
BRANCH   8   9
HETATM    9  C   UNK     1     -10.267  11.955  65.339  1.00  0.00    -0.300 C  
BRANCH   9  10
HETATM   10  C   UNK     1      -9.917  10.512  65.692  1.00  0.00    -0.332 C  
BRANCH  10  11
HETATM   11  C   UNK     1     -10.417  10.155  67.080  1.00  0.00    -0.246 C  
HETATM   12  O   UNK     1     -10.895   9.064  67.370  1.00  0.00    -0.230 OA 
HETATM   13  N   UNK     1     -10.283  11.181  67.988  1.00  0.00    -0.176 N  
HETATM   14  H   UNK     1      -9.916  12.081  67.678  1.00  0.00     0.000 HD 
BRANCH  13  15
HETATM   15  C   UNK     1     -10.655  11.003  69.378  1.00  0.00    -0.174 C  
BRANCH  15  16
HETATM   16  C   UNK     1     -11.816  11.907  69.799  1.00  0.00    -0.411 C  
BRANCH  16  17
HETATM   17  C   UNK     1     -13.025  11.089  70.255  1.00  0.00    -0.067 C  
BRANCH  17  18
HETATM   18  C   UNK     1     -12.866  10.552  71.684  1.00  0.00    -0.581 C  
BRANCH  18  19
HETATM   19  C   UNK     1     -13.330   9.096  71.846  1.00  0.00    -0.427 C  
HETATM   20  N   UNK     1     -13.946   8.872  73.187  1.00  0.00    -1.215 NA 
HETATM   21  C   UNK     1     -12.142   8.134  71.689  1.00  0.00    -0.304 C  
HETATM   22  O   UNK     1     -11.652   7.785  70.631  1.00  0.00    -0.281 OA 
HETATM   23  O   UNK     1     -11.664   7.747  72.905  1.00  0.00    -0.315 OA 
HETATM   24  H1  UNK     1     -14.254   7.906  73.294  1.00  0.00     0.000 HD 
HETATM   25  H2  UNK     1     -14.705   9.530  73.366  1.00  0.00     0.000 HD 
ENDBRANCH  18  19
ENDBRANCH  17  18
ENDBRANCH  16  17
ENDBRANCH  15  16
ENDBRANCH  13  15
ENDBRANCH  10  11
ENDBRANCH   9  10
ENDBRANCH   8   9
ENDBRANCH   7   8
ENDBRANCH   6   7
ENDBRANCH   5   6
ENDBRANCH   4   5
ENDBRANCH   3   4
ENDBRANCH   2   3
TORSDOF 14
ENDMDL
MODEL      103
REMARK 921   NORMALIZED FREE ENERGY PREDICTED BY IDOCK:   -4.32 KCAL/MOL
REMARK 922        TOTAL FREE ENERGY PREDICTED BY IDOCK:   -8.79 KCAL/MOL
REMARK 923 INTER-LIGAND FREE ENERGY PREDICTED BY IDOCK:   -7.55 KCAL/MOL
REMARK 924 INTRA-LIGAND FREE ENERGY PREDICTED BY IDOCK:   -1.24 KCAL/MOL
REMARK 927      BINDING AFFINITY PREDICTED BY RF-SCORE:    0.00 PKD
ROOT
HETATM    1  C   UNK     1     -13.290  12.360  72.022  1.00  0.00    -0.407 C  
HETATM    2  O   UNK     1     -12.604  11.764  70.930  1.00  0.00    -0.349 OA 
ENDROOT
BRANCH   2   3
HETATM    3  C   UNK     1     -12.129  10.459  71.262  1.00  0.00    -0.362 C  
BRANCH   3   4
HETATM    4  C   UNK     1     -13.248   9.677  71.937  1.00  0.00    -0.446 C  
BRANCH   4   5
HETATM    5  O   UNK     1     -12.721   8.468  72.478  1.00  0.00    -0.362 OA 
BRANCH   5   6
HETATM    6  C   UNK     1     -12.644   7.442  71.490  1.00  0.00    -0.367 C  
BRANCH   6   7
HETATM    7  C   UNK     1     -11.662   6.375  71.954  1.00  0.00    -0.378 C  
BRANCH   7   8
HETATM    8  C   UNK     1     -10.669   5.980  70.855  1.00  0.00    -0.329 C  
BRANCH   8   9
HETATM    9  C   UNK     1     -11.236   6.309  69.477  1.00  0.00    -0.500 C  
BRANCH   9  10
HETATM   10  C   UNK     1     -10.187   6.918  68.549  1.00  0.00    -0.187 C  
BRANCH  10  11
HETATM   11  C   UNK     1     -10.135   8.427  68.705  1.00  0.00    -0.193 C  
HETATM   12  O   UNK     1      -9.360   9.005  69.461  1.00  0.00    -0.154 OA 
HETATM   13  N   UNK     1     -11.047   9.089  67.914  1.00  0.00    -0.480 N  
HETATM   14  H   UNK     1     -11.694   8.551  67.337  1.00  0.00     0.000 HD 
BRANCH  13  15
HETATM   15  C   UNK     1     -11.102  10.537  67.889  1.00  0.00    -0.304 C  
BRANCH  15  16
HETATM   16  C   UNK     1     -10.455  11.132  66.636  1.00  0.00    -0.298 C  
BRANCH  16  17
HETATM   17  C   UNK     1     -11.123  12.446  66.231  1.00  0.00    -0.344 C  
BRANCH  17  18
HETATM   18  C   UNK     1     -11.696  13.208  67.435  1.00  0.00    -0.419 C  
BRANCH  18  19
HETATM   19  C   UNK     1     -10.656  14.073  68.163  1.00  0.00    -0.248 C  
HETATM   20  N   UNK     1     -10.786  13.940  69.644  1.00  0.00    -0.442 NA 
HETATM   21  C   UNK     1     -10.832  15.553  67.790  1.00  0.00    -0.309 C  
HETATM   22  O   UNK     1     -10.440  16.073  66.763  1.00  0.00    -0.303 OA 
HETATM   23  O   UNK     1     -11.538  16.216  68.749  1.00  0.00    -0.368 OA 
HETATM   24  H1  UNK     1     -10.095  14.513  70.128  1.00  0.00     0.000 HD 
HETATM   25  H2  UNK     1     -10.735  12.964  69.938  1.00  0.00     0.000 HD 
ENDBRANCH  18  19
ENDBRANCH  17  18
ENDBRANCH  16  17
ENDBRANCH  15  16
ENDBRANCH  13  15
ENDBRANCH  10  11
ENDBRANCH   9  10
ENDBRANCH   8   9
ENDBRANCH   7   8
ENDBRANCH   6   7
ENDBRANCH   5   6
ENDBRANCH   4   5
ENDBRANCH   3   4
ENDBRANCH   2   3
TORSDOF 14
ENDMDL
MODEL      104
REMARK 921   NORMALIZED FREE ENERGY PREDICTED BY IDOCK:   -4.32 KCAL/MOL
REMARK 922        TOTAL FREE ENERGY PREDICTED BY IDOCK:   -8.78 KCAL/MOL
REMARK 923 INTER-LIGAND FREE ENERGY PREDICTED BY IDOCK:   -7.35 KCAL/MOL
REMARK 924 INTRA-LIGAND FREE ENERGY PREDICTED BY IDOCK:   -1.43 KCAL/MOL
REMARK 927      BINDING AFFINITY PREDICTED BY RF-SCORE:    0.00 PKD
ROOT
HETATM    1  C   UNK     1      -8.973   8.239  72.917  1.00  0.00    -0.254 C  
HETATM    2  O   UNK     1      -9.286   8.485  71.554  1.00  0.00    -0.178 OA 
ENDROOT
BRANCH   2   3
HETATM    3  C   UNK     1      -9.870   7.337  70.937  1.00  0.00    -0.184 C  
BRANCH   3   4
HETATM    4  C   UNK     1     -10.272   6.340  72.017  1.00  0.00    -0.189 C  
BRANCH   4   5
HETATM    5  O   UNK     1     -11.693   6.230  72.054  1.00  0.00    -0.308 OA 
BRANCH   5   6
HETATM    6  C   UNK     1     -12.310   7.094  71.102  1.00  0.00    -0.364 C  
BRANCH   6   7
HETATM    7  C   UNK     1     -13.739   7.382  71.542  1.00  0.00    -0.467 C  
BRANCH   7   8
HETATM    8  C   UNK     1     -13.971   8.870  71.828  1.00  0.00    -0.448 C  
BRANCH   8   9
HETATM    9  C   UNK     1     -12.641   9.608  71.942  1.00  0.00    -0.481 C  
BRANCH   9  10
HETATM   10  C   UNK     1     -12.654  10.946  71.207  1.00  0.00    -0.526 C  
BRANCH  10  11
HETATM   11  C   UNK     1     -11.932  10.842  69.877  1.00  0.00    -0.353 C  
HETATM   12  O   UNK     1     -12.507  10.790  68.794  1.00  0.00    -0.366 OA 
HETATM   13  N   UNK     1     -10.561  10.808  70.001  1.00  0.00    -0.459 N  
HETATM   14  H   UNK     1     -10.142  10.812  70.931  1.00  0.00     0.000 HD 
BRANCH  13  15
HETATM   15  C   UNK     1      -9.705  10.768  68.832  1.00  0.00    -0.198 C  
BRANCH  15  16
HETATM   16  C   UNK     1      -9.246  12.158  68.387  1.00  0.00    -0.154 C  
BRANCH  16  17
HETATM   17  C   UNK     1      -9.110  12.242  66.867  1.00  0.00    -0.208 C  
BRANCH  17  18
HETATM   18  C   UNK     1      -9.894  13.420  66.270  1.00  0.00    -0.295 C  
BRANCH  18  19
HETATM   19  C   UNK     1     -11.035  12.985  65.338  1.00  0.00    -0.275 C  
HETATM   20  N   UNK     1     -12.104  12.266  66.092  1.00  0.00    -0.627 NA 
HETATM   21  C   UNK     1     -10.504  12.053  64.238  1.00  0.00    -0.328 C  
HETATM   22  O   UNK     1      -9.916  12.410  63.235  1.00  0.00    -0.392 OA 
HETATM   23  O   UNK     1     -10.736  10.748  64.552  1.00  0.00    -0.297 OA 
HETATM   24  H1  UNK     1     -12.862  11.978  65.474  1.00  0.00     0.000 HD 
HETATM   25  H2  UNK     1     -12.449  12.822  66.875  1.00  0.00     0.000 HD 
ENDBRANCH  18  19
ENDBRANCH  17  18
ENDBRANCH  16  17
ENDBRANCH  15  16
ENDBRANCH  13  15
ENDBRANCH  10  11
ENDBRANCH   9  10
ENDBRANCH   8   9
ENDBRANCH   7   8
ENDBRANCH   6   7
ENDBRANCH   5   6
ENDBRANCH   4   5
ENDBRANCH   3   4
ENDBRANCH   2   3
TORSDOF 14
ENDMDL
MODEL      105
REMARK 921   NORMALIZED FREE ENERGY PREDICTED BY IDOCK:   -4.32 KCAL/MOL
REMARK 922        TOTAL FREE ENERGY PREDICTED BY IDOCK:   -8.78 KCAL/MOL
REMARK 923 INTER-LIGAND FREE ENERGY PREDICTED BY IDOCK:   -7.42 KCAL/MOL
REMARK 924 INTRA-LIGAND FREE ENERGY PREDICTED BY IDOCK:   -1.36 KCAL/MOL
REMARK 927      BINDING AFFINITY PREDICTED BY RF-SCORE:    0.00 PKD
ROOT
HETATM    1  C   UNK     1     -10.581   4.935  66.159  1.00  0.00    -0.271 C  
HETATM    2  O   UNK     1     -10.715   5.773  67.298  1.00  0.00    -0.259 OA 
ENDROOT
BRANCH   2   3
HETATM    3  C   UNK     1      -9.703   6.780  67.326  1.00  0.00    -0.140 C  
BRANCH   3   4
HETATM    4  C   UNK     1     -10.296   8.097  66.840  1.00  0.00    -0.331 C  
BRANCH   4   5
HETATM    5  O   UNK     1     -10.417   8.996  67.940  1.00  0.00    -0.231 OA 
BRANCH   5   6
HETATM    6  C   UNK     1     -10.115  10.336  67.557  1.00  0.00    -0.198 C  
BRANCH   6   7
HETATM    7  C   UNK     1     -11.408  11.138  67.484  1.00  0.00    -0.351 C  
BRANCH   7   8
HETATM    8  C   UNK     1     -11.233  12.457  66.725  1.00  0.00    -0.363 C  
BRANCH   8   9
HETATM    9  C   UNK     1     -12.029  13.573  67.396  1.00  0.00    -0.398 C  
BRANCH   9  10
HETATM   10  C   UNK     1     -11.260  14.226  68.541  1.00  0.00    -0.289 C  
BRANCH  10  11
HETATM   11  C   UNK     1     -12.093  14.254  69.810  1.00  0.00    -0.347 C  
HETATM   12  O   UNK     1     -12.700  15.246  70.202  1.00  0.00    -0.322 OA 
HETATM   13  N   UNK     1     -12.102  13.053  70.483  1.00  0.00    -0.493 N  
HETATM   14  H   UNK     1     -11.544  12.276  70.130  1.00  0.00     0.000 HD 
BRANCH  13  15
HETATM   15  C   UNK     1     -12.891  12.876  71.686  1.00  0.00    -0.268 C  
BRANCH  15  16
HETATM   16  C   UNK     1     -13.283  11.416  71.927  1.00  0.00    -0.485 C  
BRANCH  16  17
HETATM   17  C   UNK     1     -12.385  10.460  71.142  1.00  0.00    -0.505 C  
BRANCH  17  18
HETATM   18  C   UNK     1     -12.798   8.991  71.313  1.00  0.00    -0.296 C  
BRANCH  18  19
HETATM   19  C   UNK     1     -11.644   8.001  71.094  1.00  0.00    -0.282 C  
HETATM   20  N   UNK     1     -11.955   7.046  69.990  1.00  0.00    -0.614 NA 
HETATM   21  C   UNK     1     -11.377   7.195  72.375  1.00  0.00    -0.274 C  
HETATM   22  O   UNK     1     -10.758   7.594  73.343  1.00  0.00    -0.379 OA 
HETATM   23  O   UNK     1     -11.973   5.971  72.313  1.00  0.00    -0.318 OA 
HETATM   24  H1  UNK     1     -11.189   6.389  69.844  1.00  0.00     0.000 HD 
HETATM   25  H2  UNK     1     -12.198   7.535  69.129  1.00  0.00     0.000 HD 
ENDBRANCH  18  19
ENDBRANCH  17  18
ENDBRANCH  16  17
ENDBRANCH  15  16
ENDBRANCH  13  15
ENDBRANCH  10  11
ENDBRANCH   9  10
ENDBRANCH   8   9
ENDBRANCH   7   8
ENDBRANCH   6   7
ENDBRANCH   5   6
ENDBRANCH   4   5
ENDBRANCH   3   4
ENDBRANCH   2   3
TORSDOF 14
ENDMDL
MODEL      106
REMARK 921   NORMALIZED FREE ENERGY PREDICTED BY IDOCK:   -4.31 KCAL/MOL
REMARK 922        TOTAL FREE ENERGY PREDICTED BY IDOCK:   -8.77 KCAL/MOL
REMARK 923 INTER-LIGAND FREE ENERGY PREDICTED BY IDOCK:   -8.13 KCAL/MOL
REMARK 924 INTRA-LIGAND FREE ENERGY PREDICTED BY IDOCK:   -0.64 KCAL/MOL
REMARK 927      BINDING AFFINITY PREDICTED BY RF-SCORE:    0.00 PKD
ROOT
HETATM    1  C   UNK     1      -9.875   4.109  71.650  1.00  0.00    -0.184 C  
HETATM    2  O   UNK     1     -10.507   3.788  72.881  1.00  0.00    -0.166 OA 
ENDROOT
BRANCH   2   3
HETATM    3  C   UNK     1     -11.132   4.933  73.461  1.00  0.00    -0.332 C  
BRANCH   3   4
HETATM    4  C   UNK     1     -10.068   5.802  74.121  1.00  0.00    -0.257 C  
BRANCH   4   5
HETATM    5  O   UNK     1     -10.301   7.169  73.790  1.00  0.00    -0.351 OA 
BRANCH   5   6
HETATM    6  C   UNK     1     -11.282   7.299  72.763  1.00  0.00    -0.304 C  
BRANCH   6   7
HETATM    7  C   UNK     1     -11.126   8.658  72.094  1.00  0.00    -0.434 C  
BRANCH   7   8
HETATM    8  C   UNK     1     -12.477   9.306  71.771  1.00  0.00    -0.458 C  
BRANCH   8   9
HETATM    9  C   UNK     1     -12.280  10.726  71.247  1.00  0.00    -0.426 C  
BRANCH   9  10
HETATM   10  C   UNK     1     -12.392  10.806  69.727  1.00  0.00    -0.305 C  
BRANCH  10  11
HETATM   11  C   UNK     1     -11.073  10.452  69.066  1.00  0.00    -0.248 C  
HETATM   12  O   UNK     1      -9.978  10.751  69.532  1.00  0.00    -0.174 OA 
HETATM   13  N   UNK     1     -11.222   9.762  67.884  1.00  0.00    -0.505 N  
HETATM   14  H   UNK     1     -12.160   9.579  67.525  1.00  0.00     0.000 HD 
BRANCH  13  15
HETATM   15  C   UNK     1     -10.070   9.291  67.141  1.00  0.00    -0.236 C  
BRANCH  15  16
HETATM   16  C   UNK     1      -9.984   9.896  65.738  1.00  0.00    -0.347 C  
BRANCH  16  17
HETATM   17  C   UNK     1      -9.216  11.217  65.745  1.00  0.00    -0.236 C  
BRANCH  17  18
HETATM   18  C   UNK     1      -9.993  12.353  65.062  1.00  0.00    -0.219 C  
BRANCH  18  19
HETATM   19  C   UNK     1     -11.295  11.887  64.393  1.00  0.00    -0.326 C  
HETATM   20  N   UNK     1     -11.049  11.426  62.996  1.00  0.00    -0.840 NA 
HETATM   21  C   UNK     1     -12.318  13.034  64.354  1.00  0.00    -0.376 C  
HETATM   22  O   UNK     1     -13.009  13.394  65.288  1.00  0.00    -0.681 OA 
HETATM   23  O   UNK     1     -12.321  13.642  63.135  1.00  0.00    -0.729 OA 
HETATM   24  H1  UNK     1     -11.913  11.116  62.552  1.00  0.00     0.000 HD 
HETATM   25  H2  UNK     1     -10.330  10.702  62.961  1.00  0.00     0.000 HD 
ENDBRANCH  18  19
ENDBRANCH  17  18
ENDBRANCH  16  17
ENDBRANCH  15  16
ENDBRANCH  13  15
ENDBRANCH  10  11
ENDBRANCH   9  10
ENDBRANCH   8   9
ENDBRANCH   7   8
ENDBRANCH   6   7
ENDBRANCH   5   6
ENDBRANCH   4   5
ENDBRANCH   3   4
ENDBRANCH   2   3
TORSDOF 14
ENDMDL
MODEL      107
REMARK 921   NORMALIZED FREE ENERGY PREDICTED BY IDOCK:   -4.30 KCAL/MOL
REMARK 922        TOTAL FREE ENERGY PREDICTED BY IDOCK:   -8.74 KCAL/MOL
REMARK 923 INTER-LIGAND FREE ENERGY PREDICTED BY IDOCK:   -7.81 KCAL/MOL
REMARK 924 INTRA-LIGAND FREE ENERGY PREDICTED BY IDOCK:   -0.94 KCAL/MOL
REMARK 927      BINDING AFFINITY PREDICTED BY RF-SCORE:    0.00 PKD
ROOT
HETATM    1  C   UNK     1     -13.477  12.385  72.132  1.00  0.00    -0.378 C  
HETATM    2  O   UNK     1     -13.224  13.730  72.510  1.00  0.00    -0.478 OA 
ENDROOT
BRANCH   2   3
HETATM    3  C   UNK     1     -14.031  14.642  71.765  1.00  0.00    -0.477 C  
BRANCH   3   4
HETATM    4  C   UNK     1     -13.136  15.467  70.848  1.00  0.00    -0.468 C  
BRANCH   4   5
HETATM    5  O   UNK     1     -11.784  15.036  70.995  1.00  0.00    -0.292 OA 
BRANCH   5   6
HETATM    6  C   UNK     1     -11.293  14.436  69.798  1.00  0.00    -0.237 C  
BRANCH   6   7
HETATM    7  C   UNK     1     -11.767  15.249  68.600  1.00  0.00    -0.367 C  
BRANCH   7   8
HETATM    8  C   UNK     1     -11.772  14.429  67.306  1.00  0.00    -0.429 C  
BRANCH   8   9
HETATM    9  C   UNK     1     -10.494  14.676  66.509  1.00  0.00    -0.290 C  
BRANCH   9  10
HETATM   10  C   UNK     1     -10.732  14.631  65.002  1.00  0.00    -0.448 C  
BRANCH  10  11
HETATM   11  C   UNK     1     -10.559  13.221  64.466  1.00  0.00    -0.419 C  
HETATM   12  O   UNK     1     -11.240  12.751  63.560  1.00  0.00    -0.450 OA 
HETATM   13  N   UNK     1      -9.561  12.516  65.099  1.00  0.00    -0.468 N  
HETATM   14  H   UNK     1      -9.056  12.947  65.874  1.00  0.00     0.000 HD 
BRANCH  13  15
HETATM   15  C   UNK     1      -9.214  11.171  64.681  1.00  0.00    -0.119 C  
BRANCH  15  16
HETATM   16  C   UNK     1     -10.144  10.110  65.276  1.00  0.00    -0.344 C  
BRANCH  16  17
HETATM   17  C   UNK     1      -9.473   9.364  66.429  1.00  0.00    -0.259 C  
BRANCH  17  18
HETATM   18  C   UNK     1     -10.486   8.838  67.457  1.00  0.00    -0.340 C  
BRANCH  18  19
HETATM   19  C   UNK     1     -10.757   9.821  68.606  1.00  0.00    -0.216 C  
HETATM   20  N   UNK     1     -11.853  10.772  68.256  1.00  0.00    -0.765 NA 
HETATM   21  C   UNK     1      -9.492  10.632  68.929  1.00  0.00    -0.192 C  
HETATM   22  O   UNK     1      -8.548  10.236  69.585  1.00  0.00    -0.170 OA 
HETATM   23  O   UNK     1      -9.537  11.859  68.337  1.00  0.00    -0.203 OA 
HETATM   24  H1  UNK     1     -12.033  11.424  69.019  1.00  0.00     0.000 HD 
HETATM   25  H2  UNK     1     -12.701  10.280  67.975  1.00  0.00     0.000 HD 
ENDBRANCH  18  19
ENDBRANCH  17  18
ENDBRANCH  16  17
ENDBRANCH  15  16
ENDBRANCH  13  15
ENDBRANCH  10  11
ENDBRANCH   9  10
ENDBRANCH   8   9
ENDBRANCH   7   8
ENDBRANCH   6   7
ENDBRANCH   5   6
ENDBRANCH   4   5
ENDBRANCH   3   4
ENDBRANCH   2   3
TORSDOF 14
ENDMDL
MODEL      108
REMARK 921   NORMALIZED FREE ENERGY PREDICTED BY IDOCK:   -4.28 KCAL/MOL
REMARK 922        TOTAL FREE ENERGY PREDICTED BY IDOCK:   -8.72 KCAL/MOL
REMARK 923 INTER-LIGAND FREE ENERGY PREDICTED BY IDOCK:   -7.91 KCAL/MOL
REMARK 924 INTRA-LIGAND FREE ENERGY PREDICTED BY IDOCK:   -0.81 KCAL/MOL
REMARK 927      BINDING AFFINITY PREDICTED BY RF-SCORE:    0.00 PKD
ROOT
HETATM    1  C   UNK     1     -13.210  13.106  71.722  1.00  0.00    -0.403 C  
HETATM    2  O   UNK     1     -12.351  12.415  70.826  1.00  0.00    -0.377 OA 
ENDROOT
BRANCH   2   3
HETATM    3  C   UNK     1     -12.453  11.000  70.993  1.00  0.00    -0.409 C  
BRANCH   3   4
HETATM    4  C   UNK     1     -13.558  10.694  71.996  1.00  0.00    -0.085 C  
BRANCH   4   5
HETATM    5  O   UNK     1     -13.475   9.326  72.389  1.00  0.00    -0.451 OA 
BRANCH   5   6
HETATM    6  C   UNK     1     -12.859   8.528  71.380  1.00  0.00    -0.255 C  
BRANCH   6   7
HETATM    7  C   UNK     1     -12.144   7.355  72.039  1.00  0.00    -0.325 C  
BRANCH   7   8
HETATM    8  C   UNK     1     -10.675   7.256  71.615  1.00  0.00    -0.239 C  
BRANCH   8   9
HETATM    9  C   UNK     1     -10.444   8.000  70.302  1.00  0.00    -0.222 C  
BRANCH   9  10
HETATM   10  C   UNK     1      -9.322   9.030  70.408  1.00  0.00    -0.244 C  
BRANCH  10  11
HETATM   11  C   UNK     1      -9.234   9.869  69.147  1.00  0.00    -0.180 C  
HETATM   12  O   UNK     1      -8.828   9.439  68.072  1.00  0.00    -0.124 OA 
HETATM   13  N   UNK     1      -9.654  11.168  69.325  1.00  0.00    -0.418 N  
HETATM   14  H   UNK     1      -9.941  11.479  70.253  1.00  0.00     0.000 HD 
BRANCH  13  15
HETATM   15  C   UNK     1      -9.693  12.100  68.216  1.00  0.00    -0.216 C  
BRANCH  15  16
HETATM   16  C   UNK     1     -11.092  12.240  67.611  1.00  0.00    -0.318 C  
BRANCH  16  17
HETATM   17  C   UNK     1     -11.435  13.702  67.327  1.00  0.00    -0.370 C  
BRANCH  17  18
HETATM   18  C   UNK     1     -12.118  13.892  65.965  1.00  0.00    -0.465 C  
BRANCH  18  19
HETATM   19  C   UNK     1     -11.146  14.287  64.842  1.00  0.00    -0.390 C  
HETATM   20  N   UNK     1      -9.727  14.097  65.265  1.00  0.00    -0.567 NA 
HETATM   21  C   UNK     1     -11.345  15.761  64.454  1.00  0.00    -0.265 C  
HETATM   22  O   UNK     1     -12.232  16.188  63.739  1.00  0.00    -0.934 OA 
HETATM   23  O   UNK     1     -10.416  16.553  65.058  1.00  0.00    -0.652 OA 
HETATM   24  H1  UNK     1      -9.082  14.358  64.520  1.00  0.00     0.000 HD 
HETATM   25  H2  UNK     1      -9.558  13.145  65.590  1.00  0.00     0.000 HD 
ENDBRANCH  18  19
ENDBRANCH  17  18
ENDBRANCH  16  17
ENDBRANCH  15  16
ENDBRANCH  13  15
ENDBRANCH  10  11
ENDBRANCH   9  10
ENDBRANCH   8   9
ENDBRANCH   7   8
ENDBRANCH   6   7
ENDBRANCH   5   6
ENDBRANCH   4   5
ENDBRANCH   3   4
ENDBRANCH   2   3
TORSDOF 14
ENDMDL
MODEL      109
REMARK 921   NORMALIZED FREE ENERGY PREDICTED BY IDOCK:   -4.28 KCAL/MOL
REMARK 922        TOTAL FREE ENERGY PREDICTED BY IDOCK:   -8.72 KCAL/MOL
REMARK 923 INTER-LIGAND FREE ENERGY PREDICTED BY IDOCK:   -8.28 KCAL/MOL
REMARK 924 INTRA-LIGAND FREE ENERGY PREDICTED BY IDOCK:   -0.44 KCAL/MOL
REMARK 927      BINDING AFFINITY PREDICTED BY RF-SCORE:    0.00 PKD
ROOT
HETATM    1  C   UNK     1     -14.410   8.196  71.775  1.00  0.00    -0.484 C  
HETATM    2  O   UNK     1     -13.857   9.366  71.190  1.00  0.00    -0.269 OA 
ENDROOT
BRANCH   2   3
HETATM    3  C   UNK     1     -12.468   9.495  71.495  1.00  0.00    -0.376 C  
BRANCH   3   4
HETATM    4  C   UNK     1     -12.018   8.281  72.299  1.00  0.00    -0.386 C  
BRANCH   4   5
HETATM    5  O   UNK     1     -10.890   7.685  71.664  1.00  0.00    -0.224 OA 
BRANCH   5   6
HETATM    6  C   UNK     1     -10.921   6.263  71.768  1.00  0.00    -0.258 C  
BRANCH   6   7
HETATM    7  C   UNK     1     -10.398   5.656  70.473  1.00  0.00    -0.327 C  
BRANCH   7   8
HETATM    8  C   UNK     1     -11.177   6.142  69.246  1.00  0.00    -0.438 C  
BRANCH   8   9
HETATM    9  C   UNK     1     -10.300   6.088  67.998  1.00  0.00    -0.250 C  
BRANCH   9  10
HETATM   10  C   UNK     1     -10.696   7.141  66.965  1.00  0.00    -0.420 C  
BRANCH  10  11
HETATM   11  C   UNK     1      -9.614   8.195  66.822  1.00  0.00    -0.217 C  
HETATM   12  O   UNK     1      -8.908   8.574  67.752  1.00  0.00    -0.136 OA 
HETATM   13  N   UNK     1      -9.500   8.690  65.543  1.00  0.00    -0.443 N  
HETATM   14  H   UNK     1     -10.143   8.366  64.820  1.00  0.00     0.000 HD 
BRANCH  13  15
HETATM   15  C   UNK     1      -8.481   9.665  65.206  1.00  0.00    -0.146 C  
BRANCH  15  16
HETATM   16  C   UNK     1      -9.006  10.780  64.298  1.00  0.00    -0.172 C  
BRANCH  16  17
HETATM   17  C   UNK     1     -10.532  10.864  64.343  1.00  0.00    -0.403 C  
BRANCH  17  18
HETATM   18  C   UNK     1     -11.079  12.051  63.537  1.00  0.00    -0.519 C  
BRANCH  18  19
HETATM   19  C   UNK     1     -12.196  12.819  64.260  1.00  0.00    -0.425 C  
HETATM   20  N   UNK     1     -12.294  14.223  63.764  1.00  0.00    -1.063 NA 
HETATM   21  C   UNK     1     -11.930  12.855  65.773  1.00  0.00    -0.443 C  
HETATM   22  O   UNK     1     -12.150  11.945  66.550  1.00  0.00    -0.568 OA 
HETATM   23  O   UNK     1     -11.361  14.038  66.139  1.00  0.00    -0.310 OA 
HETATM   24  H1  UNK     1     -13.036  14.733  64.243  1.00  0.00     0.000 HD 
HETATM   25  H2  UNK     1     -12.412  14.255  62.751  1.00  0.00     0.000 HD 
ENDBRANCH  18  19
ENDBRANCH  17  18
ENDBRANCH  16  17
ENDBRANCH  15  16
ENDBRANCH  13  15
ENDBRANCH  10  11
ENDBRANCH   9  10
ENDBRANCH   8   9
ENDBRANCH   7   8
ENDBRANCH   6   7
ENDBRANCH   5   6
ENDBRANCH   4   5
ENDBRANCH   3   4
ENDBRANCH   2   3
TORSDOF 14
ENDMDL
MODEL      110
REMARK 921   NORMALIZED FREE ENERGY PREDICTED BY IDOCK:   -4.27 KCAL/MOL
REMARK 922        TOTAL FREE ENERGY PREDICTED BY IDOCK:   -8.70 KCAL/MOL
REMARK 923 INTER-LIGAND FREE ENERGY PREDICTED BY IDOCK:   -7.06 KCAL/MOL
REMARK 924 INTRA-LIGAND FREE ENERGY PREDICTED BY IDOCK:   -1.64 KCAL/MOL
REMARK 927      BINDING AFFINITY PREDICTED BY RF-SCORE:    0.00 PKD
ROOT
HETATM    1  C   UNK     1     -11.998  14.951  64.626  1.00  0.00    -0.401 C  
HETATM    2  O   UNK     1     -12.777  13.821  64.263  1.00  0.00    -0.659 OA 
ENDROOT
BRANCH   2   3
HETATM    3  C   UNK     1     -11.988  12.833  63.599  1.00  0.00    -0.539 C  
BRANCH   3   4
HETATM    4  C   UNK     1     -10.594  12.812  64.215  1.00  0.00    -0.400 C  
BRANCH   4   5
HETATM    5  O   UNK     1     -10.601  11.981  65.374  1.00  0.00    -0.260 OA 
BRANCH   5   6
HETATM    6  C   UNK     1      -9.725  12.480  66.382  1.00  0.00    -0.249 C  
BRANCH   6   7
HETATM    7  C   UNK     1     -10.553  13.047  67.527  1.00  0.00    -0.237 C  
BRANCH   7   8
HETATM    8  C   UNK     1     -11.780  12.184  67.842  1.00  0.00    -0.403 C  
BRANCH   8   9
HETATM    9  C   UNK     1     -11.409  11.055  68.801  1.00  0.00    -0.349 C  
BRANCH   9  10
HETATM   10  C   UNK     1     -11.757  11.387  70.250  1.00  0.00    -0.397 C  
BRANCH  10  11
HETATM   11  C   UNK     1     -12.329  10.174  70.962  1.00  0.00    -0.373 C  
HETATM   12  O   UNK     1     -13.521   9.885  70.958  1.00  0.00    -0.363 OA 
HETATM   13  N   UNK     1     -11.377   9.428  71.619  1.00  0.00    -0.389 N  
HETATM   14  H   UNK     1     -10.407   9.742  71.621  1.00  0.00     0.000 HD 
BRANCH  13  15
HETATM   15  C   UNK     1     -11.732   8.202  72.308  1.00  0.00    -0.379 C  
BRANCH  15  16
HETATM   16  C   UNK     1     -10.526   7.519  72.956  1.00  0.00    -0.396 C  
BRANCH  16  17
HETATM   17  C   UNK     1      -9.309   8.443  72.986  1.00  0.00    -0.249 C  
BRANCH  17  18
HETATM   18  C   UNK     1      -8.094   7.839  72.267  1.00  0.00    -0.141 C  
BRANCH  18  19
HETATM   19  C   UNK     1      -7.829   8.459  70.887  1.00  0.00    -0.098 C  
HETATM   20  N   UNK     1      -8.417   9.827  70.788  1.00  0.00    -0.378 NA 
HETATM   21  C   UNK     1      -8.440   7.586  69.779  1.00  0.00    -0.135 C  
HETATM   22  O   UNK     1      -7.950   6.564  69.336  1.00  0.00    -0.110 OA 
HETATM   23  O   UNK     1      -9.646   8.079  69.380  1.00  0.00    -0.160 OA 
HETATM   24  H1  UNK     1      -8.240  10.239  69.872  1.00  0.00     0.000 HD 
HETATM   25  H2  UNK     1      -8.087  10.432  71.541  1.00  0.00     0.000 HD 
ENDBRANCH  18  19
ENDBRANCH  17  18
ENDBRANCH  16  17
ENDBRANCH  15  16
ENDBRANCH  13  15
ENDBRANCH  10  11
ENDBRANCH   9  10
ENDBRANCH   8   9
ENDBRANCH   7   8
ENDBRANCH   6   7
ENDBRANCH   5   6
ENDBRANCH   4   5
ENDBRANCH   3   4
ENDBRANCH   2   3
TORSDOF 14
ENDMDL
MODEL      111
REMARK 921   NORMALIZED FREE ENERGY PREDICTED BY IDOCK:   -4.27 KCAL/MOL
REMARK 922        TOTAL FREE ENERGY PREDICTED BY IDOCK:   -8.70 KCAL/MOL
REMARK 923 INTER-LIGAND FREE ENERGY PREDICTED BY IDOCK:   -7.71 KCAL/MOL
REMARK 924 INTRA-LIGAND FREE ENERGY PREDICTED BY IDOCK:   -0.99 KCAL/MOL
REMARK 927      BINDING AFFINITY PREDICTED BY RF-SCORE:    0.00 PKD
ROOT
HETATM    1  C   UNK     1     -10.425   9.473  70.805  1.00  0.00    -0.314 C  
HETATM    2  O   UNK     1     -10.850  10.309  69.738  1.00  0.00    -0.247 OA 
ENDROOT
BRANCH   2   3
HETATM    3  C   UNK     1     -12.090  10.950  70.039  1.00  0.00    -0.355 C  
BRANCH   3   4
HETATM    4  C   UNK     1     -12.730  10.260  71.238  1.00  0.00    -0.421 C  
BRANCH   4   5
HETATM    5  O   UNK     1     -13.309  11.242  72.094  1.00  0.00    -0.457 OA 
BRANCH   5   6
HETATM    6  C   UNK     1     -13.095  12.562  71.599  1.00  0.00    -0.315 C  
BRANCH   6   7
HETATM    7  C   UNK     1     -13.825  13.555  72.492  1.00  0.00    -0.624 C  
BRANCH   7   8
HETATM    8  C   UNK     1     -13.087  14.894  72.600  1.00  0.00    -0.520 C  
BRANCH   8   9
HETATM    9  C   UNK     1     -12.938  15.537  71.224  1.00  0.00    -0.565 C  
BRANCH   9  10
HETATM   10  C   UNK     1     -11.477  15.736  70.831  1.00  0.00    -0.438 C  
BRANCH  10  11
HETATM   11  C   UNK     1     -11.230  15.275  69.406  1.00  0.00    -0.285 C  
HETATM   12  O   UNK     1     -11.724  15.817  68.422  1.00  0.00    -0.366 OA 
HETATM   13  N   UNK     1     -10.397  14.183  69.322  1.00  0.00    -0.427 N  
HETATM   14  H   UNK     1     -10.050  13.750  70.179  1.00  0.00     0.000 HD 
BRANCH  13  15
HETATM   15  C   UNK     1     -10.003  13.639  68.038  1.00  0.00    -0.247 C  
BRANCH  15  16
HETATM   16  C   UNK     1      -8.815  12.680  68.141  1.00  0.00    -0.194 C  
BRANCH  16  17
HETATM   17  C   UNK     1      -8.987  11.474  67.219  1.00  0.00    -0.162 C  
BRANCH  17  18
HETATM   18  C   UNK     1     -10.155  11.647  66.236  1.00  0.00    -0.254 C  
BRANCH  18  19
HETATM   19  C   UNK     1     -10.222  10.549  65.165  1.00  0.00    -0.288 C  
HETATM   20  N   UNK     1      -9.669   9.260  65.677  1.00  0.00    -0.413 NA 
HETATM   21  C   UNK     1      -9.419  10.962  63.921  1.00  0.00    -0.261 C  
HETATM   22  O   UNK     1      -9.802  11.728  63.057  1.00  0.00    -0.398 OA 
HETATM   23  O   UNK     1      -8.182  10.391  63.927  1.00  0.00    -0.159 OA 
HETATM   24  H1  UNK     1      -9.713   8.531  64.966  1.00  0.00     0.000 HD 
HETATM   25  H2  UNK     1     -10.130   8.972  66.540  1.00  0.00     0.000 HD 
ENDBRANCH  18  19
ENDBRANCH  17  18
ENDBRANCH  16  17
ENDBRANCH  15  16
ENDBRANCH  13  15
ENDBRANCH  10  11
ENDBRANCH   9  10
ENDBRANCH   8   9
ENDBRANCH   7   8
ENDBRANCH   6   7
ENDBRANCH   5   6
ENDBRANCH   4   5
ENDBRANCH   3   4
ENDBRANCH   2   3
TORSDOF 14
ENDMDL
MODEL      112
REMARK 921   NORMALIZED FREE ENERGY PREDICTED BY IDOCK:   -4.27 KCAL/MOL
REMARK 922        TOTAL FREE ENERGY PREDICTED BY IDOCK:   -8.70 KCAL/MOL
REMARK 923 INTER-LIGAND FREE ENERGY PREDICTED BY IDOCK:   -7.72 KCAL/MOL
REMARK 924 INTRA-LIGAND FREE ENERGY PREDICTED BY IDOCK:   -0.98 KCAL/MOL
REMARK 927      BINDING AFFINITY PREDICTED BY RF-SCORE:    0.00 PKD
ROOT
HETATM    1  C   UNK     1     -10.389  17.404  65.857  1.00  0.00    -0.269 C  
HETATM    2  O   UNK     1     -10.541  16.014  65.607  1.00  0.00    -0.357 OA 
ENDROOT
BRANCH   2   3
HETATM    3  C   UNK     1     -11.393  15.775  64.486  1.00  0.00    -0.316 C  
BRANCH   3   4
HETATM    4  C   UNK     1     -12.121  14.451  64.686  1.00  0.00    -0.471 C  
BRANCH   4   5
HETATM    5  O   UNK     1     -12.529  13.940  63.419  1.00  0.00    -0.833 OA 
BRANCH   5   6
HETATM    6  C   UNK     1     -12.196  12.561  63.279  1.00  0.00    -0.413 C  
BRANCH   6   7
HETATM    7  C   UNK     1     -10.757  12.346  63.729  1.00  0.00    -0.492 C  
BRANCH   7   8
HETATM    8  C   UNK     1     -10.473  10.886  64.098  1.00  0.00    -0.397 C  
BRANCH   8   9
HETATM    9  C   UNK     1     -10.069  10.771  65.565  1.00  0.00    -0.335 C  
BRANCH   9  10
HETATM   10  C   UNK     1     -11.109  11.378  66.503  1.00  0.00    -0.312 C  
BRANCH  10  11
HETATM   11  C   UNK     1     -10.767  11.088  67.953  1.00  0.00    -0.219 C  
HETATM   12  O   UNK     1      -9.778  11.541  68.521  1.00  0.00    -0.190 OA 
HETATM   13  N   UNK     1     -11.677  10.263  68.574  1.00  0.00    -0.502 N  
HETATM   14  H   UNK     1     -12.458   9.884  68.037  1.00  0.00     0.000 HD 
BRANCH  13  15
HETATM   15  C   UNK     1     -11.544   9.923  69.977  1.00  0.00    -0.175 C  
BRANCH  15  16
HETATM   16  C   UNK     1     -12.601  10.601  70.852  1.00  0.00    -0.503 C  
BRANCH  16  17
HETATM   17  C   UNK     1     -12.199  12.032  71.206  1.00  0.00    -0.022 C  
BRANCH  17  18
HETATM   18  C   UNK     1     -12.775  13.065  70.227  1.00  0.00     0.022 C  
BRANCH  18  19
HETATM   19  C   UNK     1     -12.295  14.499  70.496  1.00  0.00    -0.337 C  
HETATM   20  N   UNK     1     -13.435  15.461  70.485  1.00  0.00    -0.793 NA 
HETATM   21  C   UNK     1     -11.280  14.934  69.426  1.00  0.00    -0.283 C  
HETATM   22  O   UNK     1     -10.105  14.621  69.400  1.00  0.00    -0.167 OA 
HETATM   23  O   UNK     1     -11.881  15.691  68.465  1.00  0.00    -0.355 OA 
HETATM   24  H1  UNK     1     -13.117  16.413  70.664  1.00  0.00     0.000 HD 
HETATM   25  H2  UNK     1     -14.167  15.182  71.139  1.00  0.00     0.000 HD 
ENDBRANCH  18  19
ENDBRANCH  17  18
ENDBRANCH  16  17
ENDBRANCH  15  16
ENDBRANCH  13  15
ENDBRANCH  10  11
ENDBRANCH   9  10
ENDBRANCH   8   9
ENDBRANCH   7   8
ENDBRANCH   6   7
ENDBRANCH   5   6
ENDBRANCH   4   5
ENDBRANCH   3   4
ENDBRANCH   2   3
TORSDOF 14
ENDMDL
MODEL      113
REMARK 921   NORMALIZED FREE ENERGY PREDICTED BY IDOCK:   -4.27 KCAL/MOL
REMARK 922        TOTAL FREE ENERGY PREDICTED BY IDOCK:   -8.70 KCAL/MOL
REMARK 923 INTER-LIGAND FREE ENERGY PREDICTED BY IDOCK:   -8.09 KCAL/MOL
REMARK 924 INTRA-LIGAND FREE ENERGY PREDICTED BY IDOCK:   -0.60 KCAL/MOL
REMARK 927      BINDING AFFINITY PREDICTED BY RF-SCORE:    0.00 PKD
ROOT
HETATM    1  C   UNK     1     -10.465  19.754  65.723  1.00  0.00    -0.445 C  
HETATM    2  O   UNK     1     -10.830  18.455  65.278  1.00  0.00    -0.624 OA 
ENDROOT
BRANCH   2   3
HETATM    3  C   UNK     1     -10.317  17.443  66.145  1.00  0.00    -0.327 C  
BRANCH   3   4
HETATM    4  C   UNK     1     -10.537  16.078  65.504  1.00  0.00    -0.398 C  
BRANCH   4   5
HETATM    5  O   UNK     1     -11.453  16.207  64.419  1.00  0.00    -0.453 OA 
BRANCH   5   6
HETATM    6  C   UNK     1     -12.296  15.062  64.308  1.00  0.00    -0.226 C  
BRANCH   6   7
HETATM    7  C   UNK     1     -12.477  14.439  65.685  1.00  0.00    -0.345 C  
BRANCH   7   8
HETATM    8  C   UNK     1     -12.227  12.927  65.678  1.00  0.00    -0.519 C  
BRANCH   8   9
HETATM    9  C   UNK     1     -11.514  12.494  66.955  1.00  0.00    -0.419 C  
BRANCH   9  10
HETATM   10  C   UNK     1     -10.784  11.164  66.790  1.00  0.00    -0.326 C  
BRANCH  10  11
HETATM   11  C   UNK     1     -10.893  10.324  68.050  1.00  0.00    -0.275 C  
HETATM   12  O   UNK     1     -10.652   9.122  68.087  1.00  0.00    -0.219 OA 
HETATM   13  N   UNK     1     -11.295  11.044  69.153  1.00  0.00    -0.254 N  
HETATM   14  H   UNK     1     -11.521  12.033  69.050  1.00  0.00     0.000 HD 
BRANCH  13  15
HETATM   15  C   UNK     1     -11.400  10.419  70.456  1.00  0.00    -0.341 C  
BRANCH  15  16
HETATM   16  C   UNK     1     -12.771  10.629  71.104  1.00  0.00    -0.522 C  
BRANCH  16  17
HETATM   17  C   UNK     1     -13.132   9.473  72.036  1.00  0.00    -0.528 C  
BRANCH  17  18
HETATM   18  C   UNK     1     -11.963   8.498  72.243  1.00  0.00    -0.454 C  
BRANCH  18  19
HETATM   19  C   UNK     1     -12.157   7.151  71.531  1.00  0.00    -0.342 C  
HETATM   20  N   UNK     1     -12.987   6.221  72.352  1.00  0.00    -0.440 NA 
HETATM   21  C   UNK     1     -10.799   6.484  71.265  1.00  0.00    -0.249 C  
HETATM   22  O   UNK     1     -10.037   6.772  70.361  1.00  0.00    -0.182 OA 
HETATM   23  O   UNK     1     -10.523   5.544  72.212  1.00  0.00    -0.202 OA 
HETATM   24  H1  UNK     1     -13.117   5.327  71.879  1.00  0.00     0.000 HD 
HETATM   25  H2  UNK     1     -13.881   6.642  72.607  1.00  0.00     0.000 HD 
ENDBRANCH  18  19
ENDBRANCH  17  18
ENDBRANCH  16  17
ENDBRANCH  15  16
ENDBRANCH  13  15
ENDBRANCH  10  11
ENDBRANCH   9  10
ENDBRANCH   8   9
ENDBRANCH   7   8
ENDBRANCH   6   7
ENDBRANCH   5   6
ENDBRANCH   4   5
ENDBRANCH   3   4
ENDBRANCH   2   3
TORSDOF 14
ENDMDL
MODEL      114
REMARK 921   NORMALIZED FREE ENERGY PREDICTED BY IDOCK:   -4.27 KCAL/MOL
REMARK 922        TOTAL FREE ENERGY PREDICTED BY IDOCK:   -8.69 KCAL/MOL
REMARK 923 INTER-LIGAND FREE ENERGY PREDICTED BY IDOCK:   -7.70 KCAL/MOL
REMARK 924 INTRA-LIGAND FREE ENERGY PREDICTED BY IDOCK:   -0.99 KCAL/MOL
REMARK 927      BINDING AFFINITY PREDICTED BY RF-SCORE:    0.00 PKD
ROOT
HETATM    1  C   UNK     1      -9.677  20.368  65.713  1.00  0.00     0.051 C  
HETATM    2  O   UNK     1      -9.522  19.896  67.044  1.00  0.00    -0.337 OA 
ENDROOT
BRANCH   2   3
HETATM    3  C   UNK     1     -10.668  19.160  67.473  1.00  0.00    -0.458 C  
BRANCH   3   4
HETATM    4  C   UNK     1     -10.594  17.747  66.909  1.00  0.00    -0.244 C  
BRANCH   4   5
HETATM    5  O   UNK     1      -9.994  16.883  67.872  1.00  0.00    -0.259 OA 
BRANCH   5   6
HETATM    6  C   UNK     1     -10.974  16.259  68.698  1.00  0.00    -0.340 C  
BRANCH   6   7
HETATM    7  C   UNK     1     -10.290  15.663  69.921  1.00  0.00    -0.322 C  
BRANCH   7   8
HETATM    8  C   UNK     1     -11.233  15.567  71.126  1.00  0.00    -0.423 C  
BRANCH   8   9
HETATM    9  C   UNK     1     -12.673  15.359  70.666  1.00  0.00    -0.490 C  
BRANCH   9  10
HETATM   10  C   UNK     1     -13.511  14.613  71.701  1.00  0.00    -0.452 C  
BRANCH  10  11
HETATM   11  C   UNK     1     -13.254  13.118  71.633  1.00  0.00    -0.346 C  
HETATM   12  O   UNK     1     -13.652  12.322  72.477  1.00  0.00    -0.335 OA 
HETATM   13  N   UNK     1     -12.525  12.739  70.529  1.00  0.00    -0.253 N  
HETATM   14  H   UNK     1     -12.185  13.453  69.883  1.00  0.00     0.000 HD 
BRANCH  13  15
HETATM   15  C   UNK     1     -12.231  11.344  70.268  1.00  0.00    -0.349 C  
BRANCH  15  16
HETATM   16  C   UNK     1     -11.343  11.146  69.037  1.00  0.00    -0.343 C  
BRANCH  16  17
HETATM   17  C   UNK     1     -10.975  12.483  68.393  1.00  0.00    -0.277 C  
BRANCH  17  18
HETATM   18  C   UNK     1     -11.809  12.780  67.139  1.00  0.00    -0.415 C  
BRANCH  18  19
HETATM   19  C   UNK     1     -10.970  12.884  65.856  1.00  0.00    -0.276 C  
HETATM   20  N   UNK     1      -9.640  13.504  66.130  1.00  0.00    -0.429 NA 
HETATM   21  C   UNK     1     -11.698  13.737  64.806  1.00  0.00    -0.381 C  
HETATM   22  O   UNK     1     -12.608  13.355  64.095  1.00  0.00    -0.636 OA 
HETATM   23  O   UNK     1     -11.223  15.014  64.801  1.00  0.00    -0.390 OA 
HETATM   24  H1  UNK     1      -9.083  13.573  65.279  1.00  0.00     0.000 HD 
HETATM   25  H2  UNK     1      -9.140  13.007  66.867  1.00  0.00     0.000 HD 
ENDBRANCH  18  19
ENDBRANCH  17  18
ENDBRANCH  16  17
ENDBRANCH  15  16
ENDBRANCH  13  15
ENDBRANCH  10  11
ENDBRANCH   9  10
ENDBRANCH   8   9
ENDBRANCH   7   8
ENDBRANCH   6   7
ENDBRANCH   5   6
ENDBRANCH   4   5
ENDBRANCH   3   4
ENDBRANCH   2   3
TORSDOF 14
ENDMDL
MODEL      115
REMARK 921   NORMALIZED FREE ENERGY PREDICTED BY IDOCK:   -4.26 KCAL/MOL
REMARK 922        TOTAL FREE ENERGY PREDICTED BY IDOCK:   -8.69 KCAL/MOL
REMARK 923 INTER-LIGAND FREE ENERGY PREDICTED BY IDOCK:   -7.70 KCAL/MOL
REMARK 924 INTRA-LIGAND FREE ENERGY PREDICTED BY IDOCK:   -0.98 KCAL/MOL
REMARK 927      BINDING AFFINITY PREDICTED BY RF-SCORE:    0.00 PKD
ROOT
HETATM    1  C   UNK     1      -9.927  18.003  66.866  1.00  0.00    -0.340 C  
HETATM    2  O   UNK     1     -10.581  16.798  66.493  1.00  0.00    -0.287 OA 
ENDROOT
BRANCH   2   3
HETATM    3  C   UNK     1      -9.755  15.995  65.649  1.00  0.00    -0.238 C  
BRANCH   3   4
HETATM    4  C   UNK     1     -10.592  14.864  65.062  1.00  0.00    -0.422 C  
BRANCH   4   5
HETATM    5  O   UNK     1     -11.665  14.559  65.951  1.00  0.00    -0.361 OA 
BRANCH   5   6
HETATM    6  C   UNK     1     -12.567  13.615  65.377  1.00  0.00    -0.491 C  
BRANCH   6   7
HETATM    7  C   UNK     1     -12.158  13.347  63.935  1.00  0.00    -0.514 C  
BRANCH   7   8
HETATM    8  C   UNK     1     -12.043  11.849  63.632  1.00  0.00    -0.580 C  
BRANCH   8   9
HETATM    9  C   UNK     1     -10.579  11.434  63.518  1.00  0.00    -0.468 C  
BRANCH   9  10
HETATM   10  C   UNK     1     -10.159  10.477  64.630  1.00  0.00    -0.408 C  
BRANCH  10  11
HETATM   11  C   UNK     1      -9.953  11.221  65.938  1.00  0.00    -0.234 C  
HETATM   12  O   UNK     1      -9.042  12.021  66.127  1.00  0.00    -0.203 OA 
HETATM   13  N   UNK     1     -10.889  10.908  66.897  1.00  0.00    -0.266 N  
HETATM   14  H   UNK     1     -11.599  10.203  66.694  1.00  0.00     0.000 HD 
BRANCH  13  15
HETATM   15  C   UNK     1     -10.884  11.563  68.190  1.00  0.00    -0.215 C  
BRANCH  15  16
HETATM   16  C   UNK     1     -12.034  11.105  69.090  1.00  0.00    -0.413 C  
BRANCH  16  17
HETATM   17  C   UNK     1     -11.521  10.589  70.434  1.00  0.00    -0.427 C  
BRANCH  17  18
HETATM   18  C   UNK     1     -10.384   9.570  70.277  1.00  0.00    -0.321 C  
BRANCH  18  19
HETATM   19  C   UNK     1     -10.738   8.172  70.806  1.00  0.00    -0.222 C  
HETATM   20  N   UNK     1     -12.157   7.823  70.501  1.00  0.00    -0.492 NA 
HETATM   21  C   UNK     1     -10.538   8.107  72.329  1.00  0.00    -0.309 C  
HETATM   22  O   UNK     1      -9.469   7.973  72.894  1.00  0.00    -0.225 OA 
HETATM   23  O   UNK     1     -11.722   8.271  72.983  1.00  0.00    -0.265 OA 
HETATM   24  H1  UNK     1     -12.392   6.895  70.852  1.00  0.00     0.000 HD 
HETATM   25  H2  UNK     1     -12.358   7.909  69.505  1.00  0.00     0.000 HD 
ENDBRANCH  18  19
ENDBRANCH  17  18
ENDBRANCH  16  17
ENDBRANCH  15  16
ENDBRANCH  13  15
ENDBRANCH  10  11
ENDBRANCH   9  10
ENDBRANCH   8   9
ENDBRANCH   7   8
ENDBRANCH   6   7
ENDBRANCH   5   6
ENDBRANCH   4   5
ENDBRANCH   3   4
ENDBRANCH   2   3
TORSDOF 14
ENDMDL
MODEL      116
REMARK 921   NORMALIZED FREE ENERGY PREDICTED BY IDOCK:   -4.26 KCAL/MOL
REMARK 922        TOTAL FREE ENERGY PREDICTED BY IDOCK:   -8.68 KCAL/MOL
REMARK 923 INTER-LIGAND FREE ENERGY PREDICTED BY IDOCK:   -7.64 KCAL/MOL
REMARK 924 INTRA-LIGAND FREE ENERGY PREDICTED BY IDOCK:   -1.05 KCAL/MOL
REMARK 927      BINDING AFFINITY PREDICTED BY RF-SCORE:    0.00 PKD
ROOT
HETATM    1  C   UNK     1     -12.045  13.887  66.414  1.00  0.00    -0.455 C  
HETATM    2  O   UNK     1     -12.729  14.174  65.203  1.00  0.00    -0.616 OA 
ENDROOT
BRANCH   2   3
HETATM    3  C   UNK     1     -12.372  13.255  64.171  1.00  0.00    -0.341 C  
BRANCH   3   4
HETATM    4  C   UNK     1     -10.969  12.724  64.439  1.00  0.00    -0.361 C  
BRANCH   4   5
HETATM    5  O   UNK     1     -10.363  12.343  63.206  1.00  0.00    -0.376 OA 
BRANCH   5   6
HETATM    6  C   UNK     1      -9.978  10.970  63.214  1.00  0.00    -0.369 C  
BRANCH   6   7
HETATM    7  C   UNK     1     -10.040  10.442  64.641  1.00  0.00    -0.378 C  
BRANCH   7   8
HETATM    8  C   UNK     1      -8.984   9.364  64.910  1.00  0.00    -0.256 C  
BRANCH   8   9
HETATM    9  C   UNK     1      -8.921   9.033  66.398  1.00  0.00    -0.189 C  
BRANCH   9  10
HETATM   10  C   UNK     1     -10.303   9.013  67.047  1.00  0.00    -0.339 C  
BRANCH  10  11
HETATM   11  C   UNK     1     -10.376  10.000  68.198  1.00  0.00    -0.194 C  
HETATM   12  O   UNK     1      -9.392  10.536  68.697  1.00  0.00    -0.156 OA 
HETATM   13  N   UNK     1     -11.661  10.238  68.632  1.00  0.00    -0.512 N  
HETATM   14  H   UNK     1     -12.437   9.730  68.205  1.00  0.00     0.000 HD 
BRANCH  13  15
HETATM   15  C   UNK     1     -11.930  11.196  69.686  1.00  0.00    -0.359 C  
BRANCH  15  16
HETATM   16  C   UNK     1     -13.136  10.808  70.544  1.00  0.00    -0.140 C  
BRANCH  16  17
HETATM   17  C   UNK     1     -12.704  10.334  71.932  1.00  0.00    -0.478 C  
BRANCH  17  18
HETATM   18  C   UNK     1     -12.804   8.810  72.091  1.00  0.00    -0.456 C  
BRANCH  18  19
HETATM   19  C   UNK     1     -11.585   8.056  71.538  1.00  0.00    -0.275 C  
HETATM   20  N   UNK     1     -11.889   7.434  70.216  1.00  0.00    -0.517 NA 
HETATM   21  C   UNK     1     -11.154   6.947  72.510  1.00  0.00    -0.266 C  
HETATM   22  O   UNK     1     -10.503   7.112  73.525  1.00  0.00    -0.328 OA 
HETATM   23  O   UNK     1     -11.641   5.737  72.115  1.00  0.00    -0.276 OA 
HETATM   24  H1  UNK     1     -11.080   6.934  69.849  1.00  0.00     0.000 HD 
HETATM   25  H2  UNK     1     -12.238   8.122  69.549  1.00  0.00     0.000 HD 
ENDBRANCH  18  19
ENDBRANCH  17  18
ENDBRANCH  16  17
ENDBRANCH  15  16
ENDBRANCH  13  15
ENDBRANCH  10  11
ENDBRANCH   9  10
ENDBRANCH   8   9
ENDBRANCH   7   8
ENDBRANCH   6   7
ENDBRANCH   5   6
ENDBRANCH   4   5
ENDBRANCH   3   4
ENDBRANCH   2   3
TORSDOF 14
ENDMDL
MODEL      117
REMARK 921   NORMALIZED FREE ENERGY PREDICTED BY IDOCK:   -4.26 KCAL/MOL
REMARK 922        TOTAL FREE ENERGY PREDICTED BY IDOCK:   -8.68 KCAL/MOL
REMARK 923 INTER-LIGAND FREE ENERGY PREDICTED BY IDOCK:   -7.77 KCAL/MOL
REMARK 924 INTRA-LIGAND FREE ENERGY PREDICTED BY IDOCK:   -0.92 KCAL/MOL
REMARK 927      BINDING AFFINITY PREDICTED BY RF-SCORE:    0.00 PKD
ROOT
HETATM    1  C   UNK     1      -9.856   7.276  70.538  1.00  0.00    -0.183 C  
HETATM    2  O   UNK     1     -11.031   7.439  71.318  1.00  0.00    -0.238 OA 
ENDROOT
BRANCH   2   3
HETATM    3  C   UNK     1     -11.031   8.689  72.008  1.00  0.00    -0.362 C  
BRANCH   3   4
HETATM    4  C   UNK     1     -12.346   9.410  71.737  1.00  0.00    -0.394 C  
BRANCH   4   5
HETATM    5  O   UNK     1     -12.285  10.040  70.460  1.00  0.00    -0.268 OA 
BRANCH   5   6
HETATM    6  C   UNK     1     -12.145  11.454  70.580  1.00  0.00    -0.394 C  
BRANCH   6   7
HETATM    7  C   UNK     1     -11.443  11.994  69.340  1.00  0.00    -0.361 C  
BRANCH   7   8
HETATM    8  C   UNK     1     -11.516  11.019  68.160  1.00  0.00    -0.374 C  
BRANCH   8   9
HETATM    9  C   UNK     1     -10.671  11.525  66.994  1.00  0.00    -0.300 C  
BRANCH   9  10
HETATM   10  C   UNK     1     -11.525  12.083  65.858  1.00  0.00    -0.392 C  
BRANCH  10  11
HETATM   11  C   UNK     1     -11.816  13.557  66.071  1.00  0.00    -0.379 C  
HETATM   12  O   UNK     1     -12.838  14.111  65.680  1.00  0.00    -0.529 OA 
HETATM   13  N   UNK     1     -10.815  14.219  66.746  1.00  0.00    -0.295 N  
HETATM   14  H   UNK     1      -9.969  13.714  67.009  1.00  0.00     0.000 HD 
BRANCH  13  15
HETATM   15  C   UNK     1     -10.945  15.621  67.090  1.00  0.00    -0.270 C  
BRANCH  15  16
HETATM   16  C   UNK     1     -11.457  15.835  68.516  1.00  0.00    -0.381 C  
BRANCH  16  17
HETATM   17  C   UNK     1     -10.612  16.867  69.264  1.00  0.00    -0.325 C  
BRANCH  17  18
HETATM   18  C   UNK     1      -9.334  17.244  68.501  1.00  0.00    -0.276 C  
BRANCH  18  19
HETATM   19  C   UNK     1      -9.284  18.722  68.085  1.00  0.00    -0.314 C  
HETATM   20  N   UNK     1     -10.529  19.439  68.487  1.00  0.00    -0.480 NA 
HETATM   21  C   UNK     1      -9.122  18.845  66.562  1.00  0.00    -0.327 C  
HETATM   22  O   UNK     1      -8.079  18.711  65.950  1.00  0.00    -0.483 OA 
HETATM   23  O   UNK     1     -10.322  19.081  65.962  1.00  0.00    -0.440 OA 
HETATM   24  H1  UNK     1     -10.496  20.420  68.211  1.00  0.00     0.000 HD 
HETATM   25  H2  UNK     1     -10.715  19.336  69.485  1.00  0.00     0.000 HD 
ENDBRANCH  18  19
ENDBRANCH  17  18
ENDBRANCH  16  17
ENDBRANCH  15  16
ENDBRANCH  13  15
ENDBRANCH  10  11
ENDBRANCH   9  10
ENDBRANCH   8   9
ENDBRANCH   7   8
ENDBRANCH   6   7
ENDBRANCH   5   6
ENDBRANCH   4   5
ENDBRANCH   3   4
ENDBRANCH   2   3
TORSDOF 14
ENDMDL
MODEL      118
REMARK 921   NORMALIZED FREE ENERGY PREDICTED BY IDOCK:   -4.25 KCAL/MOL
REMARK 922        TOTAL FREE ENERGY PREDICTED BY IDOCK:   -8.66 KCAL/MOL
REMARK 923 INTER-LIGAND FREE ENERGY PREDICTED BY IDOCK:   -7.73 KCAL/MOL
REMARK 924 INTRA-LIGAND FREE ENERGY PREDICTED BY IDOCK:   -0.93 KCAL/MOL
REMARK 927      BINDING AFFINITY PREDICTED BY RF-SCORE:    0.00 PKD
ROOT
HETATM    1  C   UNK     1      -9.226   8.489  66.168  1.00  0.00    -0.211 C  
HETATM    2  O   UNK     1     -10.455   8.095  66.761  1.00  0.00    -0.326 OA 
ENDROOT
BRANCH   2   3
HETATM    3  C   UNK     1     -10.502   6.684  66.976  1.00  0.00    -0.298 C  
BRANCH   3   4
HETATM    4  C   UNK     1     -11.158   6.406  68.323  1.00  0.00    -0.267 C  
BRANCH   4   5
HETATM    5  O   UNK     1     -10.344   5.504  69.069  1.00  0.00    -0.210 OA 
BRANCH   5   6
HETATM    6  C   UNK     1     -10.749   5.441  70.435  1.00  0.00    -0.206 C  
BRANCH   6   7
HETATM    7  C   UNK     1     -11.844   6.470  70.679  1.00  0.00    -0.398 C  
BRANCH   7   8
HETATM    8  C   UNK     1     -11.790   7.053  72.096  1.00  0.00    -0.314 C  
BRANCH   8   9
HETATM    9  C   UNK     1     -11.416   8.532  72.054  1.00  0.00    -0.431 C  
BRANCH   9  10
HETATM   10  C   UNK     1     -11.793   9.188  70.728  1.00  0.00    -0.280 C  
BRANCH  10  11
HETATM   11  C   UNK     1     -10.589   9.864  70.095  1.00  0.00    -0.297 C  
HETATM   12  O   UNK     1      -9.430   9.621  70.413  1.00  0.00    -0.252 OA 
HETATM   13  N   UNK     1     -10.926  10.781  69.126  1.00  0.00    -0.225 N  
HETATM   14  H   UNK     1     -11.910  10.971  68.934  1.00  0.00     0.000 HD 
BRANCH  13  15
HETATM   15  C   UNK     1      -9.905  11.483  68.373  1.00  0.00    -0.204 C  
BRANCH  15  16
HETATM   16  C   UNK     1     -10.481  12.299  67.213  1.00  0.00    -0.236 C  
BRANCH  16  17
HETATM   17  C   UNK     1     -11.608  13.219  67.682  1.00  0.00    -0.386 C  
BRANCH  17  18
HETATM   18  C   UNK     1     -12.280  13.965  66.520  1.00  0.00    -0.482 C  
BRANCH  18  19
HETATM   19  C   UNK     1     -11.313  14.321  65.381  1.00  0.00    -0.329 C  
HETATM   20  N   UNK     1     -10.488  15.515  65.727  1.00  0.00    -0.337 NA 
HETATM   21  C   UNK     1     -12.092  14.625  64.091  1.00  0.00    -0.320 C  
HETATM   22  O   UNK     1     -12.560  13.793  63.338  1.00  0.00    -0.842 OA 
HETATM   23  O   UNK     1     -12.238  15.968  63.916  1.00  0.00    -0.883 OA 
HETATM   24  H1  UNK     1      -9.845  15.752  64.971  1.00  0.00     0.000 HD 
HETATM   25  H2  UNK     1      -9.995  15.387  66.611  1.00  0.00     0.000 HD 
ENDBRANCH  18  19
ENDBRANCH  17  18
ENDBRANCH  16  17
ENDBRANCH  15  16
ENDBRANCH  13  15
ENDBRANCH  10  11
ENDBRANCH   9  10
ENDBRANCH   8   9
ENDBRANCH   7   8
ENDBRANCH   6   7
ENDBRANCH   5   6
ENDBRANCH   4   5
ENDBRANCH   3   4
ENDBRANCH   2   3
TORSDOF 14
ENDMDL
MODEL      119
REMARK 921   NORMALIZED FREE ENERGY PREDICTED BY IDOCK:   -4.25 KCAL/MOL
REMARK 922        TOTAL FREE ENERGY PREDICTED BY IDOCK:   -8.66 KCAL/MOL
REMARK 923 INTER-LIGAND FREE ENERGY PREDICTED BY IDOCK:   -7.80 KCAL/MOL
REMARK 924 INTRA-LIGAND FREE ENERGY PREDICTED BY IDOCK:   -0.86 KCAL/MOL
REMARK 927      BINDING AFFINITY PREDICTED BY RF-SCORE:    0.00 PKD
ROOT
HETATM    1  C   UNK     1     -13.381  12.341  72.031  1.00  0.00    -0.386 C  
HETATM    2  O   UNK     1     -14.253  13.253  72.684  1.00  0.00    -0.724 OA 
ENDROOT
BRANCH   2   3
HETATM    3  C   UNK     1     -14.103  14.577  72.170  1.00  0.00    -0.524 C  
BRANCH   3   4
HETATM    4  C   UNK     1     -12.890  14.621  71.248  1.00  0.00    -0.335 C  
BRANCH   4   5
HETATM    5  O   UNK     1     -12.370  15.948  71.214  1.00  0.00    -0.423 OA 
BRANCH   5   6
HETATM    6  C   UNK     1     -11.212  16.035  70.387  1.00  0.00    -0.387 C  
BRANCH   6   7
HETATM    7  C   UNK     1     -11.356  15.064  69.222  1.00  0.00    -0.311 C  
BRANCH   7   8
HETATM    8  C   UNK     1     -11.267  15.769  67.863  1.00  0.00    -0.313 C  
BRANCH   8   9
HETATM    9  C   UNK     1     -10.720  14.819  66.801  1.00  0.00    -0.309 C  
BRANCH   9  10
HETATM   10  C   UNK     1     -11.824  14.028  66.106  1.00  0.00    -0.422 C  
BRANCH  10  11
HETATM   11  C   UNK     1     -11.480  12.551  66.048  1.00  0.00    -0.377 C  
HETATM   12  O   UNK     1     -11.392  11.915  65.002  1.00  0.00    -0.317 OA 
HETATM   13  N   UNK     1     -11.278  11.988  67.288  1.00  0.00    -0.291 N  
HETATM   14  H   UNK     1     -11.407  12.558  68.124  1.00  0.00     0.000 HD 
BRANCH  13  15
HETATM   15  C   UNK     1     -10.885  10.599  67.424  1.00  0.00    -0.296 C  
BRANCH  15  16
HETATM   16  C   UNK     1      -9.978  10.358  68.634  1.00  0.00    -0.186 C  
BRANCH  16  17
HETATM   17  C   UNK     1     -10.510   9.228  69.514  1.00  0.00    -0.229 C  
BRANCH  17  18
HETATM   18  C   UNK     1     -10.851   9.700  70.935  1.00  0.00    -0.409 C  
BRANCH  18  19
HETATM   19  C   UNK     1     -11.151   8.548  71.907  1.00  0.00    -0.325 C  
HETATM   20  N   UNK     1     -10.160   7.443  71.757  1.00  0.00    -0.176 NA 
HETATM   21  C   UNK     1     -12.556   7.981  71.648  1.00  0.00    -0.322 C  
HETATM   22  O   UNK     1     -13.599   8.479  72.027  1.00  0.00    -0.360 OA 
HETATM   23  O   UNK     1     -12.493   6.853  70.885  1.00  0.00    -0.378 OA 
HETATM   24  H1  UNK     1     -10.359   6.679  72.402  1.00  0.00     0.000 HD 
HETATM   25  H2  UNK     1      -9.203   7.781  71.861  1.00  0.00     0.000 HD 
ENDBRANCH  18  19
ENDBRANCH  17  18
ENDBRANCH  16  17
ENDBRANCH  15  16
ENDBRANCH  13  15
ENDBRANCH  10  11
ENDBRANCH   9  10
ENDBRANCH   8   9
ENDBRANCH   7   8
ENDBRANCH   6   7
ENDBRANCH   5   6
ENDBRANCH   4   5
ENDBRANCH   3   4
ENDBRANCH   2   3
TORSDOF 14
ENDMDL
MODEL      120
REMARK 921   NORMALIZED FREE ENERGY PREDICTED BY IDOCK:   -4.25 KCAL/MOL
REMARK 922        TOTAL FREE ENERGY PREDICTED BY IDOCK:   -8.65 KCAL/MOL
REMARK 923 INTER-LIGAND FREE ENERGY PREDICTED BY IDOCK:   -7.60 KCAL/MOL
REMARK 924 INTRA-LIGAND FREE ENERGY PREDICTED BY IDOCK:   -1.05 KCAL/MOL
REMARK 927      BINDING AFFINITY PREDICTED BY RF-SCORE:    0.00 PKD
ROOT
HETATM    1  C   UNK     1     -10.368   8.291  72.484  1.00  0.00    -0.331 C  
HETATM    2  O   UNK     1     -11.612   7.671  72.775  1.00  0.00    -0.337 OA 
ENDROOT
BRANCH   2   3
HETATM    3  C   UNK     1     -11.693   6.366  72.201  1.00  0.00    -0.321 C  
BRANCH   3   4
HETATM    4  C   UNK     1     -11.792   6.493  70.685  1.00  0.00    -0.335 C  
BRANCH   4   5
HETATM    5  O   UNK     1     -10.746   5.738  70.078  1.00  0.00    -0.285 OA 
BRANCH   5   6
HETATM    6  C   UNK     1     -10.333   6.316  68.841  1.00  0.00    -0.204 C  
BRANCH   6   7
HETATM    7  C   UNK     1     -10.532   7.824  68.904  1.00  0.00    -0.208 C  
BRANCH   7   8
HETATM    8  C   UNK     1      -9.211   8.591  68.779  1.00  0.00    -0.142 C  
BRANCH   8   9
HETATM    9  C   UNK     1      -9.345   9.992  69.370  1.00  0.00    -0.237 C  
BRANCH   9  10
HETATM   10  C   UNK     1      -9.187  11.084  68.315  1.00  0.00    -0.165 C  
BRANCH  10  11
HETATM   11  C   UNK     1     -10.136  10.858  67.152  1.00  0.00    -0.198 C  
HETATM   12  O   UNK     1     -11.356  10.814  67.271  1.00  0.00    -0.397 OA 
HETATM   13  N   UNK     1      -9.492  10.704  65.945  1.00  0.00    -0.187 N  
HETATM   14  H   UNK     1      -8.472  10.708  65.916  1.00  0.00     0.000 HD 
BRANCH  13  15
HETATM   15  C   UNK     1     -10.240  10.535  64.715  1.00  0.00    -0.303 C  
BRANCH  15  16
HETATM   16  C   UNK     1     -10.187  11.773  63.816  1.00  0.00    -0.434 C  
BRANCH  16  17
HETATM   17  C   UNK     1     -11.588  12.221  63.399  1.00  0.00    -0.530 C  
BRANCH  17  18
HETATM   18  C   UNK     1     -12.482  12.551  64.602  1.00  0.00    -0.539 C  
BRANCH  18  19
HETATM   19  C   UNK     1     -12.470  14.039  64.983  1.00  0.00    -0.425 C  
HETATM   20  N   UNK     1     -12.166  14.897  63.800  1.00  0.00    -1.026 NA 
HETATM   21  C   UNK     1     -11.411  14.308  66.064  1.00  0.00    -0.347 C  
HETATM   22  O   UNK     1     -11.541  14.078  67.251  1.00  0.00    -0.328 OA 
HETATM   23  O   UNK     1     -10.267  14.801  65.513  1.00  0.00    -0.324 OA 
HETATM   24  H1  UNK     1     -12.158  15.885  64.053  1.00  0.00     0.000 HD 
HETATM   25  H2  UNK     1     -12.808  14.713  63.029  1.00  0.00     0.000 HD 
ENDBRANCH  18  19
ENDBRANCH  17  18
ENDBRANCH  16  17
ENDBRANCH  15  16
ENDBRANCH  13  15
ENDBRANCH  10  11
ENDBRANCH   9  10
ENDBRANCH   8   9
ENDBRANCH   7   8
ENDBRANCH   6   7
ENDBRANCH   5   6
ENDBRANCH   4   5
ENDBRANCH   3   4
ENDBRANCH   2   3
TORSDOF 14
ENDMDL
MODEL      121
REMARK 921   NORMALIZED FREE ENERGY PREDICTED BY IDOCK:   -4.24 KCAL/MOL
REMARK 922        TOTAL FREE ENERGY PREDICTED BY IDOCK:   -8.65 KCAL/MOL
REMARK 923 INTER-LIGAND FREE ENERGY PREDICTED BY IDOCK:   -7.48 KCAL/MOL
REMARK 924 INTRA-LIGAND FREE ENERGY PREDICTED BY IDOCK:   -1.17 KCAL/MOL
REMARK 927      BINDING AFFINITY PREDICTED BY RF-SCORE:    0.00 PKD
ROOT
HETATM    1  C   UNK     1      -7.344  14.031  68.373  1.00  0.00    -0.113 C  
HETATM    2  O   UNK     1      -6.858  14.745  67.246  1.00  0.00    -0.255 OA 
ENDROOT
BRANCH   2   3
HETATM    3  C   UNK     1      -6.874  16.155  67.474  1.00  0.00    -0.165 C  
BRANCH   3   4
HETATM    4  C   UNK     1      -7.347  16.425  68.897  1.00  0.00    -0.214 C  
BRANCH   4   5
HETATM    5  O   UNK     1      -7.970  17.707  68.953  1.00  0.00    -0.262 OA 
BRANCH   5   6
HETATM    6  C   UNK     1      -7.008  18.759  68.917  1.00  0.00    -0.308 C  
BRANCH   6   7
HETATM    7  C   UNK     1      -7.357  19.715  67.785  1.00  0.00    -0.306 C  
BRANCH   7   8
HETATM    8  C   UNK     1      -8.869  19.918  67.639  1.00  0.00    -0.406 C  
BRANCH   8   9
HETATM    9  C   UNK     1      -9.411  19.096  66.472  1.00  0.00    -0.395 C  
BRANCH   9  10
HETATM   10  C   UNK     1     -10.596  18.223  66.878  1.00  0.00    -0.356 C  
BRANCH  10  11
HETATM   11  C   UNK     1     -10.501  16.848  66.242  1.00  0.00    -0.262 C  
HETATM   12  O   UNK     1     -10.142  16.660  65.084  1.00  0.00    -0.539 OA 
HETATM   13  N   UNK     1     -10.861  15.827  67.092  1.00  0.00    -0.315 N  
HETATM   14  H   UNK     1     -11.191  16.050  68.032  1.00  0.00     0.000 HD 
BRANCH  13  15
HETATM   15  C   UNK     1     -10.778  14.442  66.675  1.00  0.00    -0.292 C  
BRANCH  15  16
HETATM   16  C   UNK     1     -11.355  13.476  67.713  1.00  0.00    -0.327 C  
BRANCH  16  17
HETATM   17  C   UNK     1     -11.149  13.996  69.135  1.00  0.00    -0.294 C  
BRANCH  17  18
HETATM   18  C   UNK     1     -12.266  13.552  70.091  1.00  0.00    -0.400 C  
BRANCH  18  19
HETATM   19  C   UNK     1     -13.121  14.716  70.615  1.00  0.00    -0.271 C  
HETATM   20  N   UNK     1     -12.662  16.020  70.053  1.00  0.00    -0.585 NA 
HETATM   21  C   UNK     1     -13.043  14.792  72.148  1.00  0.00    -0.341 C  
HETATM   22  O   UNK     1     -13.659  14.084  72.922  1.00  0.00    -0.676 OA 
HETATM   23  O   UNK     1     -12.144  15.737  72.544  1.00  0.00    -0.396 OA 
HETATM   24  H1  UNK     1     -13.230  16.792  70.401  1.00  0.00     0.000 HD 
HETATM   25  H2  UNK     1     -12.639  16.001  69.034  1.00  0.00     0.000 HD 
ENDBRANCH  18  19
ENDBRANCH  17  18
ENDBRANCH  16  17
ENDBRANCH  15  16
ENDBRANCH  13  15
ENDBRANCH  10  11
ENDBRANCH   9  10
ENDBRANCH   8   9
ENDBRANCH   7   8
ENDBRANCH   6   7
ENDBRANCH   5   6
ENDBRANCH   4   5
ENDBRANCH   3   4
ENDBRANCH   2   3
TORSDOF 14
ENDMDL
MODEL      122
REMARK 921   NORMALIZED FREE ENERGY PREDICTED BY IDOCK:   -4.24 KCAL/MOL
REMARK 922        TOTAL FREE ENERGY PREDICTED BY IDOCK:   -8.65 KCAL/MOL
REMARK 923 INTER-LIGAND FREE ENERGY PREDICTED BY IDOCK:   -7.55 KCAL/MOL
REMARK 924 INTRA-LIGAND FREE ENERGY PREDICTED BY IDOCK:   -1.10 KCAL/MOL
REMARK 927      BINDING AFFINITY PREDICTED BY RF-SCORE:    0.00 PKD
ROOT
HETATM    1  C   UNK     1     -13.175  10.708  71.720  1.00  0.00    -0.421 C  
HETATM    2  O   UNK     1     -11.959  10.683  70.986  1.00  0.00    -0.343 OA 
ENDROOT
BRANCH   2   3
HETATM    3  C   UNK     1     -11.191   9.518  71.288  1.00  0.00    -0.382 C  
BRANCH   3   4
HETATM    4  C   UNK     1     -12.032   8.572  72.137  1.00  0.00    -0.383 C  
BRANCH   4   5
HETATM    5  O   UNK     1     -11.260   7.418  72.464  1.00  0.00    -0.277 OA 
BRANCH   5   6
HETATM    6  C   UNK     1     -11.642   6.293  71.676  1.00  0.00    -0.297 C  
BRANCH   6   7
HETATM    7  C   UNK     1     -10.389   5.564  71.207  1.00  0.00    -0.297 C  
BRANCH   7   8
HETATM    8  C   UNK     1      -9.630   6.345  70.128  1.00  0.00    -0.173 C  
BRANCH   8   9
HETATM    9  C   UNK     1     -10.560   6.705  68.973  1.00  0.00    -0.273 C  
BRANCH   9  10
HETATM   10  C   UNK     1      -9.832   6.739  67.631  1.00  0.00    -0.155 C  
BRANCH  10  11
HETATM   11  C   UNK     1      -9.991   8.092  66.962  1.00  0.00    -0.254 C  
HETATM   12  O   UNK     1      -9.459   8.388  65.896  1.00  0.00    -0.188 OA 
HETATM   13  N   UNK     1     -10.791   8.961  67.669  1.00  0.00    -0.487 N  
HETATM   14  H   UNK     1     -11.171   8.671  68.570  1.00  0.00     0.000 HD 
BRANCH  13  15
HETATM   15  C   UNK     1     -11.101  10.280  67.154  1.00  0.00    -0.091 C  
BRANCH  15  16
HETATM   16  C   UNK     1     -10.177  11.365  67.712  1.00  0.00    -0.202 C  
BRANCH  16  17
HETATM   17  C   UNK     1     -10.556  12.748  67.183  1.00  0.00    -0.249 C  
BRANCH  17  18
HETATM   18  C   UNK     1     -11.842  12.725  66.344  1.00  0.00    -0.472 C  
BRANCH  18  19
HETATM   19  C   UNK     1     -11.644  13.227  64.906  1.00  0.00    -0.325 C  
HETATM   20  N   UNK     1     -12.649  14.274  64.557  1.00  0.00    -0.677 NA 
HETATM   21  C   UNK     1     -11.784  12.067  63.908  1.00  0.00    -0.446 C  
HETATM   22  O   UNK     1     -10.926  11.241  63.662  1.00  0.00    -0.385 OA 
HETATM   23  O   UNK     1     -13.030  12.047  63.356  1.00  0.00    -0.772 OA 
HETATM   24  H1  UNK     1     -12.518  14.608  63.603  1.00  0.00     0.000 HD 
HETATM   25  H2  UNK     1     -12.638  15.043  65.228  1.00  0.00     0.000 HD 
ENDBRANCH  18  19
ENDBRANCH  17  18
ENDBRANCH  16  17
ENDBRANCH  15  16
ENDBRANCH  13  15
ENDBRANCH  10  11
ENDBRANCH   9  10
ENDBRANCH   8   9
ENDBRANCH   7   8
ENDBRANCH   6   7
ENDBRANCH   5   6
ENDBRANCH   4   5
ENDBRANCH   3   4
ENDBRANCH   2   3
TORSDOF 14
ENDMDL
MODEL      123
REMARK 921   NORMALIZED FREE ENERGY PREDICTED BY IDOCK:   -4.24 KCAL/MOL
REMARK 922        TOTAL FREE ENERGY PREDICTED BY IDOCK:   -8.64 KCAL/MOL
REMARK 923 INTER-LIGAND FREE ENERGY PREDICTED BY IDOCK:   -7.87 KCAL/MOL
REMARK 924 INTRA-LIGAND FREE ENERGY PREDICTED BY IDOCK:   -0.77 KCAL/MOL
REMARK 927      BINDING AFFINITY PREDICTED BY RF-SCORE:    0.00 PKD
ROOT
HETATM    1  C   UNK     1      -9.463   6.721  73.829  1.00  0.00    -0.188 C  
HETATM    2  O   UNK     1     -10.711   6.066  74.003  1.00  0.00    -0.229 OA 
ENDROOT
BRANCH   2   3
HETATM    3  C   UNK     1     -11.073   5.315  72.843  1.00  0.00    -0.305 C  
BRANCH   3   4
HETATM    4  C   UNK     1     -12.107   6.100  72.044  1.00  0.00    -0.198 C  
BRANCH   4   5
HETATM    5  O   UNK     1     -11.502   6.608  70.858  1.00  0.00    -0.306 OA 
BRANCH   5   6
HETATM    6  C   UNK     1     -11.390   8.030  70.895  1.00  0.00    -0.276 C  
BRANCH   6   7
HETATM    7  C   UNK     1     -12.496   8.594  71.777  1.00  0.00    -0.397 C  
BRANCH   7   8
HETATM    8  C   UNK     1     -12.995   9.957  71.284  1.00  0.00    -0.488 C  
BRANCH   8   9
HETATM    9  C   UNK     1     -11.851  10.757  70.669  1.00  0.00    -0.460 C  
BRANCH   9  10
HETATM   10  C   UNK     1     -12.158  11.208  69.243  1.00  0.00    -0.377 C  
BRANCH  10  11
HETATM   11  C   UNK     1     -10.945  11.037  68.346  1.00  0.00    -0.230 C  
HETATM   12  O   UNK     1     -10.974  10.448  67.270  1.00  0.00    -0.288 OA 
HETATM   13  N   UNK     1      -9.802  11.607  68.859  1.00  0.00    -0.397 N  
HETATM   14  H   UNK     1      -9.831  12.047  69.779  1.00  0.00     0.000 HD 
BRANCH  13  15
HETATM   15  C   UNK     1      -8.559  11.592  68.114  1.00  0.00    -0.156 C  
BRANCH  15  16
HETATM   16  C   UNK     1      -8.343  12.869  67.299  1.00  0.00    -0.185 C  
BRANCH  16  17
HETATM   17  C   UNK     1      -9.546  13.806  67.398  1.00  0.00    -0.229 C  
BRANCH  17  18
HETATM   18  C   UNK     1      -9.987  14.344  66.029  1.00  0.00    -0.337 C  
BRANCH  18  19
HETATM   19  C   UNK     1     -11.447  14.820  66.000  1.00  0.00    -0.316 C  
HETATM   20  N   UNK     1     -12.389  13.691  66.256  1.00  0.00    -0.430 NA 
HETATM   21  C   UNK     1     -11.785  15.434  64.632  1.00  0.00    -0.267 C  
HETATM   22  O   UNK     1     -11.486  16.556  64.270  1.00  0.00    -1.000 OA 
HETATM   23  O   UNK     1     -12.431  14.533  63.840  1.00  0.00    -0.814 OA 
HETATM   24  H1  UNK     1     -13.358  14.007  66.238  1.00  0.00     0.000 HD 
HETATM   25  H2  UNK     1     -12.169  13.210  67.129  1.00  0.00     0.000 HD 
ENDBRANCH  18  19
ENDBRANCH  17  18
ENDBRANCH  16  17
ENDBRANCH  15  16
ENDBRANCH  13  15
ENDBRANCH  10  11
ENDBRANCH   9  10
ENDBRANCH   8   9
ENDBRANCH   7   8
ENDBRANCH   6   7
ENDBRANCH   5   6
ENDBRANCH   4   5
ENDBRANCH   3   4
ENDBRANCH   2   3
TORSDOF 14
ENDMDL
MODEL      124
REMARK 921   NORMALIZED FREE ENERGY PREDICTED BY IDOCK:   -4.23 KCAL/MOL
REMARK 922        TOTAL FREE ENERGY PREDICTED BY IDOCK:   -8.62 KCAL/MOL
REMARK 923 INTER-LIGAND FREE ENERGY PREDICTED BY IDOCK:   -7.71 KCAL/MOL
REMARK 924 INTRA-LIGAND FREE ENERGY PREDICTED BY IDOCK:   -0.91 KCAL/MOL
REMARK 927      BINDING AFFINITY PREDICTED BY RF-SCORE:    0.00 PKD
ROOT
HETATM    1  C   UNK     1      -6.492   9.941  64.403  1.00  0.00    -0.125 C  
HETATM    2  O   UNK     1      -7.406   9.848  65.486  1.00  0.00    -0.110 OA 
ENDROOT
BRANCH   2   3
HETATM    3  C   UNK     1      -8.665  10.437  65.158  1.00  0.00    -0.181 C  
BRANCH   3   4
HETATM    4  C   UNK     1      -9.784   9.507  65.614  1.00  0.00    -0.290 C  
BRANCH   4   5
HETATM    5  O   UNK     1      -9.355   8.776  66.760  1.00  0.00    -0.157 OA 
BRANCH   5   6
HETATM    6  C   UNK     1     -10.249   8.951  67.857  1.00  0.00    -0.222 C  
BRANCH   6   7
HETATM    7  C   UNK     1     -10.486   7.604  68.528  1.00  0.00    -0.206 C  
BRANCH   7   8
HETATM    8  C   UNK     1     -10.082   7.610  70.006  1.00  0.00    -0.204 C  
BRANCH   8   9
HETATM    9  C   UNK     1     -11.286   7.920  70.890  1.00  0.00    -0.290 C  
BRANCH   9  10
HETATM   10  C   UNK     1     -11.068   9.158  71.756  1.00  0.00    -0.437 C  
BRANCH  10  11
HETATM   11  C   UNK     1     -11.871  10.335  71.233  1.00  0.00    -0.335 C  
HETATM   12  O   UNK     1     -12.999  10.615  71.625  1.00  0.00    -0.420 OA 
HETATM   13  N   UNK     1     -11.209  11.061  70.268  1.00  0.00    -0.472 N  
HETATM   14  H   UNK     1     -10.288  10.754  69.953  1.00  0.00     0.000 HD 
BRANCH  13  15
HETATM   15  C   UNK     1     -11.799  12.254  69.694  1.00  0.00    -0.324 C  
BRANCH  15  16
HETATM   16  C   UNK     1     -11.614  12.333  68.176  1.00  0.00    -0.396 C  
BRANCH  16  17
HETATM   17  C   UNK     1     -11.143  13.721  67.742  1.00  0.00    -0.288 C  
BRANCH  17  18
HETATM   18  C   UNK     1     -11.708  14.133  66.375  1.00  0.00    -0.404 C  
BRANCH  18  19
HETATM   19  C   UNK     1     -11.282  13.200  65.231  1.00  0.00    -0.291 C  
HETATM   20  N   UNK     1     -10.181  13.803  64.423  1.00  0.00    -0.729 NA 
HETATM   21  C   UNK     1     -12.471  12.917  64.299  1.00  0.00    -0.349 C  
HETATM   22  O   UNK     1     -13.366  12.123  64.519  1.00  0.00    -0.691 OA 
HETATM   23  O   UNK     1     -12.425  13.715  63.195  1.00  0.00    -0.786 OA 
HETATM   24  H1  UNK     1      -9.899  13.184  63.664  1.00  0.00     0.000 HD 
HETATM   25  H2  UNK     1      -9.388  14.065  65.009  1.00  0.00     0.000 HD 
ENDBRANCH  18  19
ENDBRANCH  17  18
ENDBRANCH  16  17
ENDBRANCH  15  16
ENDBRANCH  13  15
ENDBRANCH  10  11
ENDBRANCH   9  10
ENDBRANCH   8   9
ENDBRANCH   7   8
ENDBRANCH   6   7
ENDBRANCH   5   6
ENDBRANCH   4   5
ENDBRANCH   3   4
ENDBRANCH   2   3
TORSDOF 14
ENDMDL
MODEL      125
REMARK 921   NORMALIZED FREE ENERGY PREDICTED BY IDOCK:   -4.23 KCAL/MOL
REMARK 922        TOTAL FREE ENERGY PREDICTED BY IDOCK:   -8.62 KCAL/MOL
REMARK 923 INTER-LIGAND FREE ENERGY PREDICTED BY IDOCK:   -8.14 KCAL/MOL
REMARK 924 INTRA-LIGAND FREE ENERGY PREDICTED BY IDOCK:   -0.48 KCAL/MOL
REMARK 927      BINDING AFFINITY PREDICTED BY RF-SCORE:    0.00 PKD
ROOT
HETATM    1  C   UNK     1     -11.580  15.938  64.470  1.00  0.00    -0.232 C  
HETATM    2  O   UNK     1     -12.571  15.005  64.067  1.00  0.00    -0.817 OA 
ENDROOT
BRANCH   2   3
HETATM    3  C   UNK     1     -12.950  14.148  65.145  1.00  0.00    -0.177 C  
BRANCH   3   4
HETATM    4  C   UNK     1     -12.470  12.732  64.849  1.00  0.00    -0.497 C  
BRANCH   4   5
HETATM    5  O   UNK     1     -11.903  12.168  66.030  1.00  0.00    -0.522 OA 
BRANCH   5   6
HETATM    6  C   UNK     1     -11.214  13.150  66.800  1.00  0.00    -0.299 C  
BRANCH   6   7
HETATM    7  C   UNK     1     -11.866  13.256  68.173  1.00  0.00    -0.388 C  
BRANCH   7   8
HETATM    8  C   UNK     1     -11.896  14.696  68.694  1.00  0.00    -0.346 C  
BRANCH   8   9
HETATM    9  C   UNK     1     -11.700  14.723  70.208  1.00  0.00    -0.351 C  
BRANCH   9  10
HETATM   10  C   UNK     1     -13.014  14.928  70.959  1.00  0.00    -0.437 C  
BRANCH  10  11
HETATM   11  C   UNK     1     -13.286  13.771  71.902  1.00  0.00    -0.414 C  
HETATM   12  O   UNK     1     -13.618  13.914  73.074  1.00  0.00    -0.628 OA 
HETATM   13  N   UNK     1     -13.123  12.537  71.313  1.00  0.00    -0.215 N  
HETATM   14  H   UNK     1     -12.804  12.481  70.345  1.00  0.00     0.000 HD 
BRANCH  13  15
HETATM   15  C   UNK     1     -13.395  11.317  72.046  1.00  0.00    -0.280 C  
BRANCH  15  16
HETATM   16  C   UNK     1     -12.988  10.060  71.273  1.00  0.00    -0.495 C  
BRANCH  16  17
HETATM   17  C   UNK     1     -11.621   9.545  71.724  1.00  0.00    -0.382 C  
BRANCH  17  18
HETATM   18  C   UNK     1     -11.342   8.115  71.240  1.00  0.00    -0.300 C  
BRANCH  18  19
HETATM   19  C   UNK     1     -10.473   7.299  72.209  1.00  0.00    -0.214 C  
HETATM   20  N   UNK     1     -10.976   7.410  73.610  1.00  0.00    -0.555 NA 
HETATM   21  C   UNK     1      -9.019   7.795  72.173  1.00  0.00    -0.137 C  
HETATM   22  O   UNK     1      -8.200   7.517  71.318  1.00  0.00    -0.099 OA 
HETATM   23  O   UNK     1      -8.767   8.639  73.213  1.00  0.00    -0.352 OA 
HETATM   24  H1  UNK     1     -10.400   6.868  74.253  1.00  0.00     0.000 HD 
HETATM   25  H2  UNK     1     -11.960   7.148  73.676  1.00  0.00     0.000 HD 
ENDBRANCH  18  19
ENDBRANCH  17  18
ENDBRANCH  16  17
ENDBRANCH  15  16
ENDBRANCH  13  15
ENDBRANCH  10  11
ENDBRANCH   9  10
ENDBRANCH   8   9
ENDBRANCH   7   8
ENDBRANCH   6   7
ENDBRANCH   5   6
ENDBRANCH   4   5
ENDBRANCH   3   4
ENDBRANCH   2   3
TORSDOF 14
ENDMDL
MODEL      126
REMARK 921   NORMALIZED FREE ENERGY PREDICTED BY IDOCK:   -4.22 KCAL/MOL
REMARK 922        TOTAL FREE ENERGY PREDICTED BY IDOCK:   -8.60 KCAL/MOL
REMARK 923 INTER-LIGAND FREE ENERGY PREDICTED BY IDOCK:   -7.81 KCAL/MOL
REMARK 924 INTRA-LIGAND FREE ENERGY PREDICTED BY IDOCK:   -0.78 KCAL/MOL
REMARK 927      BINDING AFFINITY PREDICTED BY RF-SCORE:    0.00 PKD
ROOT
HETATM    1  C   UNK     1      -9.914  19.460  68.156  1.00  0.00    -0.413 C  
HETATM    2  O   UNK     1     -10.207  20.269  67.026  1.00  0.00    -0.435 OA 
ENDROOT
BRANCH   2   3
HETATM    3  C   UNK     1     -10.520  19.474  65.882  1.00  0.00    -0.491 C  
BRANCH   3   4
HETATM    4  C   UNK     1     -10.178  18.018  66.177  1.00  0.00    -0.363 C  
BRANCH   4   5
HETATM    5  O   UNK     1     -10.663  17.195  65.119  1.00  0.00    -0.680 OA 
BRANCH   5   6
HETATM    6  C   UNK     1     -10.755  15.829  65.518  1.00  0.00    -0.383 C  
BRANCH   6   7
HETATM    7  C   UNK     1     -11.580  15.063  64.492  1.00  0.00    -0.346 C  
BRANCH   7   8
HETATM    8  C   UNK     1     -12.453  13.981  65.137  1.00  0.00    -0.472 C  
BRANCH   8   9
HETATM    9  C   UNK     1     -12.373  12.682  64.341  1.00  0.00    -0.523 C  
BRANCH   9  10
HETATM   10  C   UNK     1     -10.969  12.415  63.805  1.00  0.00    -0.501 C  
BRANCH  10  11
HETATM   11  C   UNK     1     -10.228  11.428  64.689  1.00  0.00    -0.294 C  
HETATM   12  O   UNK     1     -10.198  10.219  64.481  1.00  0.00    -0.314 OA 
HETATM   13  N   UNK     1      -9.592  12.022  65.756  1.00  0.00    -0.300 N  
HETATM   14  H   UNK     1      -9.688  13.027  65.901  1.00  0.00     0.000 HD 
BRANCH  13  15
HETATM   15  C   UNK     1      -8.788  11.242  66.676  1.00  0.00    -0.175 C  
BRANCH  15  16
HETATM   16  C   UNK     1      -9.236  11.399  68.131  1.00  0.00    -0.178 C  
BRANCH  16  17
HETATM   17  C   UNK     1     -10.713  11.044  68.303  1.00  0.00    -0.235 C  
BRANCH  17  18
HETATM   18  C   UNK     1     -10.989  10.291  69.613  1.00  0.00    -0.314 C  
BRANCH  18  19
HETATM   19  C   UNK     1     -10.201   8.979  69.741  1.00  0.00    -0.205 C  
HETATM   20  N   UNK     1     -11.117   7.801  69.777  1.00  0.00    -0.427 NA 
HETATM   21  C   UNK     1      -9.361   8.981  71.028  1.00  0.00    -0.271 C  
HETATM   22  O   UNK     1      -8.297   9.551  71.175  1.00  0.00    -0.285 OA 
HETATM   23  O   UNK     1      -9.990   8.291  72.021  1.00  0.00    -0.208 OA 
HETATM   24  H1  UNK     1     -10.595   6.929  69.862  1.00  0.00     0.000 HD 
HETATM   25  H2  UNK     1     -11.741   7.787  68.969  1.00  0.00     0.000 HD 
ENDBRANCH  18  19
ENDBRANCH  17  18
ENDBRANCH  16  17
ENDBRANCH  15  16
ENDBRANCH  13  15
ENDBRANCH  10  11
ENDBRANCH   9  10
ENDBRANCH   8   9
ENDBRANCH   7   8
ENDBRANCH   6   7
ENDBRANCH   5   6
ENDBRANCH   4   5
ENDBRANCH   3   4
ENDBRANCH   2   3
TORSDOF 14
ENDMDL
MODEL      127
REMARK 921   NORMALIZED FREE ENERGY PREDICTED BY IDOCK:   -4.22 KCAL/MOL
REMARK 922        TOTAL FREE ENERGY PREDICTED BY IDOCK:   -8.60 KCAL/MOL
REMARK 923 INTER-LIGAND FREE ENERGY PREDICTED BY IDOCK:   -7.53 KCAL/MOL
REMARK 924 INTRA-LIGAND FREE ENERGY PREDICTED BY IDOCK:   -1.07 KCAL/MOL
REMARK 927      BINDING AFFINITY PREDICTED BY RF-SCORE:    0.00 PKD
ROOT
HETATM    1  C   UNK     1     -13.469  14.972  71.371  1.00  0.00    -0.446 C  
HETATM    2  O   UNK     1     -12.414  15.036  70.422  1.00  0.00    -0.327 OA 
ENDROOT
BRANCH   2   3
HETATM    3  C   UNK     1     -11.857  13.745  70.171  1.00  0.00    -0.290 C  
BRANCH   3   4
HETATM    4  C   UNK     1     -12.700  12.692  70.881  1.00  0.00    -0.188 C  
BRANCH   4   5
HETATM    5  O   UNK     1     -12.134  11.403  70.656  1.00  0.00    -0.361 OA 
BRANCH   5   6
HETATM    6  C   UNK     1     -11.728  11.238  69.299  1.00  0.00    -0.334 C  
BRANCH   6   7
HETATM    7  C   UNK     1     -10.444  10.419  69.258  1.00  0.00    -0.257 C  
BRANCH   7   8
HETATM    8  C   UNK     1      -9.739  10.511  67.901  1.00  0.00    -0.171 C  
BRANCH   8   9
HETATM    9  C   UNK     1     -10.753  10.734  66.782  1.00  0.00    -0.291 C  
BRANCH   9  10
HETATM   10  C   UNK     1     -10.230  10.275  65.424  1.00  0.00    -0.312 C  
BRANCH  10  11
HETATM   11  C   UNK     1     -10.544  11.298  64.347  1.00  0.00    -0.345 C  
HETATM   12  O   UNK     1      -9.945  11.363  63.278  1.00  0.00    -0.342 OA 
HETATM   13  N   UNK     1     -11.569  12.151  64.687  1.00  0.00    -0.336 N  
HETATM   14  H   UNK     1     -12.001  12.074  65.609  1.00  0.00     0.000 HD 
BRANCH  13  15
HETATM   15  C   UNK     1     -12.045  13.157  63.758  1.00  0.00    -0.495 C  
BRANCH  15  16
HETATM   16  C   UNK     1     -12.018  14.568  64.351  1.00  0.00    -0.467 C  
BRANCH  16  17
HETATM   17  C   UNK     1     -10.661  14.884  64.981  1.00  0.00    -0.451 C  
BRANCH  17  18
HETATM   18  C   UNK     1     -10.778  15.277  66.460  1.00  0.00    -0.311 C  
BRANCH  18  19
HETATM   19  C   UNK     1      -9.738  16.319  66.901  1.00  0.00    -0.238 C  
HETATM   20  N   UNK     1      -9.388  16.156  68.343  1.00  0.00    -0.201 NA 
HETATM   21  C   UNK     1     -10.279  17.741  66.688  1.00  0.00    -0.361 C  
HETATM   22  O   UNK     1     -10.315  18.331  65.625  1.00  0.00    -0.607 OA 
HETATM   23  O   UNK     1     -10.768  18.254  67.852  1.00  0.00    -0.397 OA 
HETATM   24  H1  UNK     1      -8.697  16.847  68.635  1.00  0.00     0.000 HD 
HETATM   25  H2  UNK     1      -9.078  15.206  68.548  1.00  0.00     0.000 HD 
ENDBRANCH  18  19
ENDBRANCH  17  18
ENDBRANCH  16  17
ENDBRANCH  15  16
ENDBRANCH  13  15
ENDBRANCH  10  11
ENDBRANCH   9  10
ENDBRANCH   8   9
ENDBRANCH   7   8
ENDBRANCH   6   7
ENDBRANCH   5   6
ENDBRANCH   4   5
ENDBRANCH   3   4
ENDBRANCH   2   3
TORSDOF 14
ENDMDL
MODEL      128
REMARK 921   NORMALIZED FREE ENERGY PREDICTED BY IDOCK:   -4.20 KCAL/MOL
REMARK 922        TOTAL FREE ENERGY PREDICTED BY IDOCK:   -8.57 KCAL/MOL
REMARK 923 INTER-LIGAND FREE ENERGY PREDICTED BY IDOCK:   -7.20 KCAL/MOL
REMARK 924 INTRA-LIGAND FREE ENERGY PREDICTED BY IDOCK:   -1.37 KCAL/MOL
REMARK 927      BINDING AFFINITY PREDICTED BY RF-SCORE:    0.00 PKD
ROOT
HETATM    1  C   UNK     1     -12.160  13.557  70.215  1.00  0.00    -0.355 C  
HETATM    2  O   UNK     1     -12.072  14.190  68.946  1.00  0.00    -0.345 OA 
ENDROOT
BRANCH   2   3
HETATM    3  C   UNK     1     -11.966  15.608  69.075  1.00  0.00    -0.304 C  
BRANCH   3   4
HETATM    4  C   UNK     1     -10.710  15.944  69.871  1.00  0.00    -0.334 C  
BRANCH   4   5
HETATM    5  O   UNK     1      -9.750  16.547  69.006  1.00  0.00    -0.247 OA 
BRANCH   5   6
HETATM    6  C   UNK     1     -10.373  17.378  68.029  1.00  0.00    -0.362 C  
BRANCH   6   7
HETATM    7  C   UNK     1      -9.628  17.241  66.708  1.00  0.00    -0.279 C  
BRANCH   7   8
HETATM    8  C   UNK     1      -9.727  15.826  66.128  1.00  0.00    -0.351 C  
BRANCH   8   9
HETATM    9  C   UNK     1     -10.750  15.780  64.996  1.00  0.00    -0.443 C  
BRANCH   9  10
HETATM   10  C   UNK     1     -11.904  14.826  65.294  1.00  0.00    -0.276 C  
BRANCH  10  11
HETATM   11  C   UNK     1     -11.993  13.735  64.243  1.00  0.00    -0.443 C  
HETATM   12  O   UNK     1     -12.676  13.825  63.228  1.00  0.00    -0.783 OA 
HETATM   13  N   UNK     1     -11.230  12.628  64.539  1.00  0.00    -0.317 N  
HETATM   14  H   UNK     1     -10.715  12.595  65.419  1.00  0.00     0.000 HD 
BRANCH  13  15
HETATM   15  C   UNK     1     -11.147  11.509  63.621  1.00  0.00    -0.385 C  
BRANCH  15  16
HETATM   16  C   UNK     1      -9.714  11.224  63.165  1.00  0.00    -0.408 C  
BRANCH  16  17
HETATM   17  C   UNK     1      -8.903  10.539  64.265  1.00  0.00    -0.209 C  
BRANCH  17  18
HETATM   18  C   UNK     1      -9.773   9.662  65.177  1.00  0.00    -0.287 C  
BRANCH  18  19
HETATM   19  C   UNK     1      -9.451   9.825  66.670  1.00  0.00    -0.171 C  
HETATM   20  N   UNK     1      -9.707   8.559  67.419  1.00  0.00    -0.159 NA 
HETATM   21  C   UNK     1     -10.312  10.937  67.288  1.00  0.00    -0.216 C  
HETATM   22  O   UNK     1     -10.102  12.131  67.185  1.00  0.00    -0.205 OA 
HETATM   23  O   UNK     1     -11.390  10.415  67.938  1.00  0.00    -0.324 OA 
HETATM   24  H1  UNK     1      -9.492   8.666  68.409  1.00  0.00     0.000 HD 
HETATM   25  H2  UNK     1      -9.201   7.773  67.009  1.00  0.00     0.000 HD 
ENDBRANCH  18  19
ENDBRANCH  17  18
ENDBRANCH  16  17
ENDBRANCH  15  16
ENDBRANCH  13  15
ENDBRANCH  10  11
ENDBRANCH   9  10
ENDBRANCH   8   9
ENDBRANCH   7   8
ENDBRANCH   6   7
ENDBRANCH   5   6
ENDBRANCH   4   5
ENDBRANCH   3   4
ENDBRANCH   2   3
TORSDOF 14
ENDMDL
MODEL      129
REMARK 921   NORMALIZED FREE ENERGY PREDICTED BY IDOCK:   -4.20 KCAL/MOL
REMARK 922        TOTAL FREE ENERGY PREDICTED BY IDOCK:   -8.57 KCAL/MOL
REMARK 923 INTER-LIGAND FREE ENERGY PREDICTED BY IDOCK:   -7.85 KCAL/MOL
REMARK 924 INTRA-LIGAND FREE ENERGY PREDICTED BY IDOCK:   -0.72 KCAL/MOL
REMARK 927      BINDING AFFINITY PREDICTED BY RF-SCORE:    0.00 PKD
ROOT
HETATM    1  C   UNK     1     -10.900   5.850  71.744  1.00  0.00    -0.260 C  
HETATM    2  O   UNK     1     -11.067   7.233  71.467  1.00  0.00    -0.234 OA 
ENDROOT
BRANCH   2   3
HETATM    3  C   UNK     1     -11.588   7.934  72.596  1.00  0.00    -0.377 C  
BRANCH   3   4
HETATM    4  C   UNK     1     -12.576   8.990  72.116  1.00  0.00    -0.391 C  
BRANCH   4   5
HETATM    5  O   UNK     1     -12.150   9.498  70.854  1.00  0.00    -0.291 OA 
BRANCH   5   6
HETATM    6  C   UNK     1     -12.233  10.920  70.807  1.00  0.00    -0.383 C  
BRANCH   6   7
HETATM    7  C   UNK     1     -13.207  11.399  71.876  1.00  0.00    -0.485 C  
BRANCH   7   8
HETATM    8  C   UNK     1     -13.262  12.928  71.970  1.00  0.00    -0.549 C  
BRANCH   8   9
HETATM    9  C   UNK     1     -12.647  13.565  70.726  1.00  0.00    -0.382 C  
BRANCH   9  10
HETATM   10  C   UNK     1     -12.016  14.923  71.022  1.00  0.00    -0.376 C  
BRANCH  10  11
HETATM   11  C   UNK     1     -11.412  15.526  69.767  1.00  0.00    -0.331 C  
HETATM   12  O   UNK     1     -12.033  15.678  68.720  1.00  0.00    -0.348 OA 
HETATM   13  N   UNK     1     -10.091  15.886  69.915  1.00  0.00    -0.246 N  
HETATM   14  H   UNK     1      -9.616  15.697  70.797  1.00  0.00     0.000 HD 
BRANCH  13  15
HETATM   15  C   UNK     1      -9.366  16.531  68.837  1.00  0.00    -0.256 C  
BRANCH  15  16
HETATM   16  C   UNK     1      -9.222  18.041  69.042  1.00  0.00    -0.057 C  
BRANCH  16  17
HETATM   17  C   UNK     1     -10.390  18.803  68.417  1.00  0.00    -0.360 C  
BRANCH  17  18
HETATM   18  C   UNK     1      -9.938  20.077  67.689  1.00  0.00    -0.566 C  
BRANCH  18  19
HETATM   19  C   UNK     1      -9.694  19.869  66.187  1.00  0.00    -0.427 C  
HETATM   20  N   UNK     1     -10.560  18.781  65.644  1.00  0.00    -0.578 NA 
HETATM   21  C   UNK     1      -8.225  19.497  65.928  1.00  0.00    -0.164 C  
HETATM   22  O   UNK     1      -7.295  20.279  65.899  1.00  0.00    -0.274 OA 
HETATM   23  O   UNK     1      -8.083  18.150  65.780  1.00  0.00    -0.520 OA 
HETATM   24  H1  UNK     1     -10.398  18.643  64.647  1.00  0.00     0.000 HD 
HETATM   25  H2  UNK     1     -11.546  18.952  65.844  1.00  0.00     0.000 HD 
ENDBRANCH  18  19
ENDBRANCH  17  18
ENDBRANCH  16  17
ENDBRANCH  15  16
ENDBRANCH  13  15
ENDBRANCH  10  11
ENDBRANCH   9  10
ENDBRANCH   8   9
ENDBRANCH   7   8
ENDBRANCH   6   7
ENDBRANCH   5   6
ENDBRANCH   4   5
ENDBRANCH   3   4
ENDBRANCH   2   3
TORSDOF 14
ENDMDL
MODEL      130
REMARK 921   NORMALIZED FREE ENERGY PREDICTED BY IDOCK:   -4.18 KCAL/MOL
REMARK 922        TOTAL FREE ENERGY PREDICTED BY IDOCK:   -8.53 KCAL/MOL
REMARK 923 INTER-LIGAND FREE ENERGY PREDICTED BY IDOCK:   -7.54 KCAL/MOL
REMARK 924 INTRA-LIGAND FREE ENERGY PREDICTED BY IDOCK:   -0.99 KCAL/MOL
REMARK 927      BINDING AFFINITY PREDICTED BY RF-SCORE:    0.00 PKD
ROOT
HETATM    1  C   UNK     1     -11.235   5.142  72.946  1.00  0.00    -0.294 C  
HETATM    2  O   UNK     1     -10.411   6.224  72.539  1.00  0.00    -0.193 OA 
ENDROOT
BRANCH   2   3
HETATM    3  C   UNK     1     -10.741   7.424  73.239  1.00  0.00    -0.391 C  
BRANCH   3   4
HETATM    4  C   UNK     1     -11.158   8.491  72.233  1.00  0.00    -0.360 C  
BRANCH   4   5
HETATM    5  O   UNK     1     -10.792   8.071  70.920  1.00  0.00    -0.223 OA 
BRANCH   5   6
HETATM    6  C   UNK     1     -11.049   9.089  69.955  1.00  0.00    -0.182 C  
BRANCH   6   7
HETATM    7  C   UNK     1     -11.829  10.218  70.616  1.00  0.00    -0.439 C  
BRANCH   7   8
HETATM    8  C   UNK     1     -12.273  11.285  69.609  1.00  0.00    -0.340 C  
BRANCH   8   9
HETATM    9  C   UNK     1     -11.064  11.898  68.907  1.00  0.00    -0.299 C  
BRANCH   9  10
HETATM   10  C   UNK     1     -11.329  12.175  67.430  1.00  0.00    -0.393 C  
BRANCH  10  11
HETATM   11  C   UNK     1     -10.763  13.522  67.019  1.00  0.00    -0.277 C  
HETATM   12  O   UNK     1     -10.821  13.962  65.875  1.00  0.00    -0.283 OA 
HETATM   13  N   UNK     1     -10.173  14.205  68.058  1.00  0.00    -0.228 N  
HETATM   14  H   UNK     1     -10.118  13.769  68.979  1.00  0.00     0.000 HD 
BRANCH  13  15
HETATM   15  C   UNK     1      -9.628  15.535  67.865  1.00  0.00    -0.206 C  
BRANCH  15  16
HETATM   16  C   UNK     1     -10.338  16.593  68.712  1.00  0.00    -0.301 C  
BRANCH  16  17
HETATM   17  C   UNK     1     -11.589  16.026  69.382  1.00  0.00    -0.320 C  
BRANCH  17  18
HETATM   18  C   UNK     1     -11.493  16.041  70.915  1.00  0.00    -0.451 C  
BRANCH  18  19
HETATM   19  C   UNK     1     -12.268  14.898  71.588  1.00  0.00    -0.345 C  
HETATM   20  N   UNK     1     -13.453  14.497  70.774  1.00  0.00    -0.481 NA 
HETATM   21  C   UNK     1     -12.757  15.329  72.980  1.00  0.00    -0.441 C  
HETATM   22  O   UNK     1     -12.076  15.364  73.987  1.00  0.00    -0.551 OA 
HETATM   23  O   UNK     1     -14.062  15.719  72.938  1.00  0.00    -0.542 OA 
HETATM   24  H1  UNK     1     -13.967  13.738  71.220  1.00  0.00     0.000 HD 
HETATM   25  H2  UNK     1     -13.187  14.258  69.818  1.00  0.00     0.000 HD 
ENDBRANCH  18  19
ENDBRANCH  17  18
ENDBRANCH  16  17
ENDBRANCH  15  16
ENDBRANCH  13  15
ENDBRANCH  10  11
ENDBRANCH   9  10
ENDBRANCH   8   9
ENDBRANCH   7   8
ENDBRANCH   6   7
ENDBRANCH   5   6
ENDBRANCH   4   5
ENDBRANCH   3   4
ENDBRANCH   2   3
TORSDOF 14
ENDMDL
MODEL      131
REMARK 921   NORMALIZED FREE ENERGY PREDICTED BY IDOCK:   -4.18 KCAL/MOL
REMARK 922        TOTAL FREE ENERGY PREDICTED BY IDOCK:   -8.52 KCAL/MOL
REMARK 923 INTER-LIGAND FREE ENERGY PREDICTED BY IDOCK:   -7.73 KCAL/MOL
REMARK 924 INTRA-LIGAND FREE ENERGY PREDICTED BY IDOCK:   -0.79 KCAL/MOL
REMARK 927      BINDING AFFINITY PREDICTED BY RF-SCORE:    0.00 PKD
ROOT
HETATM    1  C   UNK     1      -9.901  19.100  66.685  1.00  0.00    -0.353 C  
HETATM    2  O   UNK     1      -8.821  18.581  65.924  1.00  0.00    -0.482 OA 
ENDROOT
BRANCH   2   3
HETATM    3  C   UNK     1      -8.313  17.374  66.494  1.00  0.00    -0.273 C  
BRANCH   3   4
HETATM    4  C   UNK     1      -9.455  16.379  66.656  1.00  0.00    -0.256 C  
BRANCH   4   5
HETATM    5  O   UNK     1      -9.581  15.605  65.466  1.00  0.00    -0.307 OA 
BRANCH   5   6
HETATM    6  C   UNK     1     -10.731  14.763  65.508  1.00  0.00    -0.357 C  
BRANCH   6   7
HETATM    7  C   UNK     1     -11.396  14.894  66.872  1.00  0.00    -0.338 C  
BRANCH   7   8
HETATM    8  C   UNK     1     -11.303  13.603  67.692  1.00  0.00    -0.328 C  
BRANCH   8   9
HETATM    9  C   UNK     1     -10.799  13.898  69.102  1.00  0.00    -0.220 C  
BRANCH   9  10
HETATM   10  C   UNK     1     -11.648  14.948  69.814  1.00  0.00    -0.339 C  
BRANCH  10  11
HETATM   11  C   UNK     1     -12.309  14.366  71.049  1.00  0.00    -0.357 C  
HETATM   12  O   UNK     1     -12.546  15.016  72.063  1.00  0.00    -0.305 OA 
HETATM   13  N   UNK     1     -12.618  13.030  70.925  1.00  0.00    -0.323 N  
HETATM   14  H   UNK     1     -12.358  12.533  70.073  1.00  0.00     0.000 HD 
BRANCH  13  15
HETATM   15  C   UNK     1     -13.306  12.320  71.985  1.00  0.00    -0.386 C  
BRANCH  15  16
HETATM   16  C   UNK     1     -13.086  10.806  71.922  1.00  0.00    -0.557 C  
BRANCH  16  17
HETATM   17  C   UNK     1     -11.861  10.455  71.078  1.00  0.00    -0.458 C  
BRANCH  17  18
HETATM   18  C   UNK     1     -11.419   8.996  71.262  1.00  0.00    -0.390 C  
BRANCH  18  19
HETATM   19  C   UNK     1     -12.163   8.269  72.393  1.00  0.00    -0.352 C  
HETATM   20  N   UNK     1     -11.210   7.719  73.401  1.00  0.00    -0.520 NA 
HETATM   21  C   UNK     1     -12.997   7.108  71.827  1.00  0.00    -0.325 C  
HETATM   22  O   UNK     1     -14.078   7.217  71.281  1.00  0.00    -0.384 OA 
HETATM   23  O   UNK     1     -12.342   5.922  71.972  1.00  0.00    -0.121 OA 
HETATM   24  H1  UNK     1     -11.704   7.237  74.151  1.00  0.00     0.000 HD 
HETATM   25  H2  UNK     1     -10.591   8.443  73.765  1.00  0.00     0.000 HD 
ENDBRANCH  18  19
ENDBRANCH  17  18
ENDBRANCH  16  17
ENDBRANCH  15  16
ENDBRANCH  13  15
ENDBRANCH  10  11
ENDBRANCH   9  10
ENDBRANCH   8   9
ENDBRANCH   7   8
ENDBRANCH   6   7
ENDBRANCH   5   6
ENDBRANCH   4   5
ENDBRANCH   3   4
ENDBRANCH   2   3
TORSDOF 14
ENDMDL
MODEL      132
REMARK 921   NORMALIZED FREE ENERGY PREDICTED BY IDOCK:   -4.17 KCAL/MOL
REMARK 922        TOTAL FREE ENERGY PREDICTED BY IDOCK:   -8.52 KCAL/MOL
REMARK 923 INTER-LIGAND FREE ENERGY PREDICTED BY IDOCK:   -8.48 KCAL/MOL
REMARK 924 INTRA-LIGAND FREE ENERGY PREDICTED BY IDOCK:   -0.04 KCAL/MOL
REMARK 927      BINDING AFFINITY PREDICTED BY RF-SCORE:    0.00 PKD
ROOT
HETATM    1  C   UNK     1      -8.594   5.936  72.365  1.00  0.00    -0.120 C  
HETATM    2  O   UNK     1      -9.548   5.012  71.860  1.00  0.00    -0.144 OA 
ENDROOT
BRANCH   2   3
HETATM    3  C   UNK     1     -10.778   5.659  71.530  1.00  0.00    -0.242 C  
BRANCH   3   4
HETATM    4  C   UNK     1     -10.599   6.441  70.235  1.00  0.00    -0.237 C  
BRANCH   4   5
HETATM    5  O   UNK     1     -11.640   7.408  70.118  1.00  0.00    -0.191 OA 
BRANCH   5   6
HETATM    6  C   UNK     1     -12.439   7.462  71.298  1.00  0.00    -0.346 C  
BRANCH   6   7
HETATM    7  C   UNK     1     -12.047   8.689  72.110  1.00  0.00    -0.451 C  
BRANCH   7   8
HETATM    8  C   UNK     1     -13.172   9.728  72.175  1.00  0.00    -0.530 C  
BRANCH   8   9
HETATM    9  C   UNK     1     -12.902  10.873  71.202  1.00  0.00    -0.508 C  
BRANCH   9  10
HETATM   10  C   UNK     1     -13.085  12.242  71.851  1.00  0.00    -0.469 C  
BRANCH  10  11
HETATM   11  C   UNK     1     -12.582  13.347  70.940  1.00  0.00    -0.327 C  
HETATM   12  O   UNK     1     -13.102  14.455  70.866  1.00  0.00    -0.354 OA 
HETATM   13  N   UNK     1     -11.481  12.983  70.197  1.00  0.00    -0.519 N  
HETATM   14  H   UNK     1     -11.119  12.032  70.271  1.00  0.00     0.000 HD 
BRANCH  13  15
HETATM   15  C   UNK     1     -10.829  13.928  69.313  1.00  0.00    -0.135 C  
BRANCH  15  16
HETATM   16  C   UNK     1     -10.992  13.565  67.835  1.00  0.00    -0.275 C  
BRANCH  16  17
HETATM   17  C   UNK     1     -11.931  14.538  67.122  1.00  0.00    -0.373 C  
BRANCH  17  18
HETATM   18  C   UNK     1     -12.260  14.093  65.689  1.00  0.00    -0.449 C  
BRANCH  18  19
HETATM   19  C   UNK     1     -11.183  14.480  64.665  1.00  0.00    -0.353 C  
HETATM   20  N   UNK     1      -9.840  13.974  65.077  1.00  0.00    -0.588 NA 
HETATM   21  C   UNK     1     -11.104  16.009  64.522  1.00  0.00    -0.253 C  
HETATM   22  O   UNK     1     -11.868  16.696  63.872  1.00  0.00    -1.047 OA 
HETATM   23  O   UNK     1     -10.080  16.515  65.265  1.00  0.00    -0.564 OA 
HETATM   24  H1  UNK     1      -9.125  14.231  64.397  1.00  0.00     0.000 HD 
HETATM   25  H2  UNK     1      -9.854  12.968  65.244  1.00  0.00     0.000 HD 
ENDBRANCH  18  19
ENDBRANCH  17  18
ENDBRANCH  16  17
ENDBRANCH  15  16
ENDBRANCH  13  15
ENDBRANCH  10  11
ENDBRANCH   9  10
ENDBRANCH   8   9
ENDBRANCH   7   8
ENDBRANCH   6   7
ENDBRANCH   5   6
ENDBRANCH   4   5
ENDBRANCH   3   4
ENDBRANCH   2   3
TORSDOF 14
ENDMDL
MODEL      133
REMARK 921   NORMALIZED FREE ENERGY PREDICTED BY IDOCK:   -4.17 KCAL/MOL
REMARK 922        TOTAL FREE ENERGY PREDICTED BY IDOCK:   -8.51 KCAL/MOL
REMARK 923 INTER-LIGAND FREE ENERGY PREDICTED BY IDOCK:   -7.34 KCAL/MOL
REMARK 924 INTRA-LIGAND FREE ENERGY PREDICTED BY IDOCK:   -1.16 KCAL/MOL
REMARK 927      BINDING AFFINITY PREDICTED BY RF-SCORE:    0.00 PKD
ROOT
HETATM    1  C   UNK     1     -13.379   7.297  71.528  1.00  0.00    -0.369 C  
HETATM    2  O   UNK     1     -14.228   8.375  71.892  1.00  0.00    -0.414 OA 
ENDROOT
BRANCH   2   3
HETATM    3  C   UNK     1     -13.476   9.516  72.306  1.00  0.00    -0.440 C  
BRANCH   3   4
HETATM    4  C   UNK     1     -12.775  10.119  71.095  1.00  0.00    -0.396 C  
BRANCH   4   5
HETATM    5  O   UNK     1     -12.644  11.527  71.277  1.00  0.00    -0.383 OA 
BRANCH   5   6
HETATM    6  C   UNK     1     -13.509  12.006  72.304  1.00  0.00    -0.134 C  
BRANCH   6   7
HETATM    7  C   UNK     1     -13.259  13.493  72.514  1.00  0.00    -0.551 C  
BRANCH   7   8
HETATM    8  C   UNK     1     -14.020  14.360  71.505  1.00  0.00    -0.454 C  
BRANCH   8   9
HETATM    9  C   UNK     1     -13.261  15.655  71.229  1.00  0.00    -0.515 C  
BRANCH   9  10
HETATM   10  C   UNK     1     -11.755  15.431  71.113  1.00  0.00    -0.418 C  
BRANCH  10  11
HETATM   11  C   UNK     1     -11.366  15.088  69.686  1.00  0.00    -0.286 C  
HETATM   12  O   UNK     1     -11.475  15.869  68.746  1.00  0.00    -0.357 OA 
HETATM   13  N   UNK     1     -10.878  13.808  69.547  1.00  0.00    -0.445 N  
HETATM   14  H   UNK     1     -10.851  13.191  70.359  1.00  0.00     0.000 HD 
BRANCH  13  15
HETATM   15  C   UNK     1     -10.404  13.324  68.266  1.00  0.00    -0.249 C  
BRANCH  15  16
HETATM   16  C   UNK     1     -11.536  12.820  67.368  1.00  0.00    -0.415 C  
BRANCH  16  17
HETATM   17  C   UNK     1     -11.429  11.314  67.126  1.00  0.00    -0.217 C  
BRANCH  17  18
HETATM   18  C   UNK     1      -9.976  10.847  66.959  1.00  0.00    -0.227 C  
BRANCH  18  19
HETATM   19  C   UNK     1      -9.696   9.478  67.597  1.00  0.00    -0.154 C  
HETATM   20  N   UNK     1     -10.965   8.764  67.922  1.00  0.00    -0.491 NA 
HETATM   21  C   UNK     1      -8.886   9.645  68.892  1.00  0.00    -0.136 C  
HETATM   22  O   UNK     1      -7.687   9.840  68.954  1.00  0.00    -0.078 OA 
HETATM   23  O   UNK     1      -9.699   9.595  69.985  1.00  0.00    -0.213 OA 
HETATM   24  H1  UNK     1     -10.780   7.855  68.345  1.00  0.00     0.000 HD 
HETATM   25  H2  UNK     1     -11.568   8.680  67.103  1.00  0.00     0.000 HD 
ENDBRANCH  18  19
ENDBRANCH  17  18
ENDBRANCH  16  17
ENDBRANCH  15  16
ENDBRANCH  13  15
ENDBRANCH  10  11
ENDBRANCH   9  10
ENDBRANCH   8   9
ENDBRANCH   7   8
ENDBRANCH   6   7
ENDBRANCH   5   6
ENDBRANCH   4   5
ENDBRANCH   3   4
ENDBRANCH   2   3
TORSDOF 14
ENDMDL
MODEL      134
REMARK 921   NORMALIZED FREE ENERGY PREDICTED BY IDOCK:   -4.16 KCAL/MOL
REMARK 922        TOTAL FREE ENERGY PREDICTED BY IDOCK:   -8.49 KCAL/MOL
REMARK 923 INTER-LIGAND FREE ENERGY PREDICTED BY IDOCK:   -7.08 KCAL/MOL
REMARK 924 INTRA-LIGAND FREE ENERGY PREDICTED BY IDOCK:   -1.41 KCAL/MOL
REMARK 927      BINDING AFFINITY PREDICTED BY RF-SCORE:    0.00 PKD
ROOT
HETATM    1  C   UNK     1     -13.063  11.129  71.836  1.00  0.00    -0.408 C  
HETATM    2  O   UNK     1     -12.821   9.731  71.788  1.00  0.00    -0.370 OA 
ENDROOT
BRANCH   2   3
HETATM    3  C   UNK     1     -13.933   8.990  72.290  1.00  0.00    -0.455 C  
BRANCH   3   4
HETATM    4  C   UNK     1     -13.924   7.596  71.675  1.00  0.00    -0.408 C  
BRANCH   4   5
HETATM    5  O   UNK     1     -12.608   7.289  71.219  1.00  0.00    -0.355 OA 
BRANCH   5   6
HETATM    6  C   UNK     1     -12.009   6.260  72.004  1.00  0.00    -0.300 C  
BRANCH   6   7
HETATM    7  C   UNK     1     -11.042   6.890  72.998  1.00  0.00    -0.267 C  
BRANCH   7   8
HETATM    8  C   UNK     1      -9.683   6.183  73.016  1.00  0.00    -0.160 C  
BRANCH   8   9
HETATM    9  C   UNK     1      -8.643   7.000  72.253  1.00  0.00    -0.129 C  
BRANCH   9  10
HETATM   10  C   UNK     1      -8.954   8.494  72.268  1.00  0.00    -0.299 C  
BRANCH  10  11
HETATM   11  C   UNK     1      -9.025   9.048  70.856  1.00  0.00    -0.243 C  
HETATM   12  O   UNK     1      -8.045   9.436  70.229  1.00  0.00    -0.129 OA 
HETATM   13  N   UNK     1     -10.303   9.076  70.345  1.00  0.00    -0.199 N  
HETATM   14  H   UNK     1     -11.084   8.779  70.931  1.00  0.00     0.000 HD 
BRANCH  13  15
HETATM   15  C   UNK     1     -10.557   9.521  68.989  1.00  0.00    -0.219 C  
BRANCH  15  16
HETATM   16  C   UNK     1     -10.722  11.040  68.887  1.00  0.00    -0.249 C  
BRANCH  16  17
HETATM   17  C   UNK     1     -11.619  11.426  67.711  1.00  0.00    -0.325 C  
BRANCH  17  18
HETATM   18  C   UNK     1     -10.879  12.261  66.656  1.00  0.00    -0.296 C  
BRANCH  18  19
HETATM   19  C   UNK     1     -11.254  13.751  66.682  1.00  0.00    -0.318 C  
HETATM   20  N   UNK     1     -12.302  14.026  67.708  1.00  0.00    -0.498 NA 
HETATM   21  C   UNK     1     -11.788  14.193  65.310  1.00  0.00    -0.367 C  
HETATM   22  O   UNK     1     -11.105  14.454  64.338  1.00  0.00    -0.318 OA 
HETATM   23  O   UNK     1     -13.151  14.210  65.300  1.00  0.00    -0.763 OA 
HETATM   24  H1  UNK     1     -12.551  15.015  67.725  1.00  0.00     0.000 HD 
HETATM   25  H2  UNK     1     -12.019  13.695  68.630  1.00  0.00     0.000 HD 
ENDBRANCH  18  19
ENDBRANCH  17  18
ENDBRANCH  16  17
ENDBRANCH  15  16
ENDBRANCH  13  15
ENDBRANCH  10  11
ENDBRANCH   9  10
ENDBRANCH   8   9
ENDBRANCH   7   8
ENDBRANCH   6   7
ENDBRANCH   5   6
ENDBRANCH   4   5
ENDBRANCH   3   4
ENDBRANCH   2   3
TORSDOF 14
ENDMDL
MODEL      135
REMARK 921   NORMALIZED FREE ENERGY PREDICTED BY IDOCK:   -4.15 KCAL/MOL
REMARK 922        TOTAL FREE ENERGY PREDICTED BY IDOCK:   -8.48 KCAL/MOL
REMARK 923 INTER-LIGAND FREE ENERGY PREDICTED BY IDOCK:   -7.65 KCAL/MOL
REMARK 924 INTRA-LIGAND FREE ENERGY PREDICTED BY IDOCK:   -0.83 KCAL/MOL
REMARK 927      BINDING AFFINITY PREDICTED BY RF-SCORE:    0.00 PKD
ROOT
HETATM    1  C   UNK     1     -14.319   8.571  72.009  1.00  0.00    -0.447 C  
HETATM    2  O   UNK     1     -14.020   7.354  71.341  1.00  0.00    -0.411 OA 
ENDROOT
BRANCH   2   3
HETATM    3  C   UNK     1     -12.660   6.969  71.541  1.00  0.00    -0.385 C  
BRANCH   3   4
HETATM    4  C   UNK     1     -11.748   8.104  71.090  1.00  0.00    -0.283 C  
BRANCH   4   5
HETATM    5  O   UNK     1     -10.802   7.605  70.148  1.00  0.00    -0.244 OA 
BRANCH   5   6
HETATM    6  C   UNK     1     -11.236   6.375  69.571  1.00  0.00    -0.412 C  
BRANCH   6   7
HETATM    7  C   UNK     1     -10.909   6.378  68.084  1.00  0.00    -0.386 C  
BRANCH   7   8
HETATM    8  C   UNK     1      -9.596   7.108  67.778  1.00  0.00    -0.146 C  
BRANCH   8   9
HETATM    9  C   UNK     1      -9.772   8.054  66.593  1.00  0.00    -0.313 C  
BRANCH   9  10
HETATM   10  C   UNK     1     -10.780   9.164  66.881  1.00  0.00    -0.149 C  
BRANCH  10  11
HETATM   11  C   UNK     1     -10.163  10.248  67.746  1.00  0.00    -0.187 C  
HETATM   12  O   UNK     1     -10.449  10.419  68.926  1.00  0.00    -0.187 OA 
HETATM   13  N   UNK     1      -9.247  11.026  67.075  1.00  0.00    -0.153 N  
HETATM   14  H   UNK     1      -9.081  10.862  66.081  1.00  0.00     0.000 HD 
BRANCH  13  15
HETATM   15  C   UNK     1      -8.514  12.075  67.756  1.00  0.00    -0.157 C  
BRANCH  15  16
HETATM   16  C   UNK     1      -8.652  13.435  67.068  1.00  0.00    -0.168 C  
BRANCH  16  17
HETATM   17  C   UNK     1      -9.992  13.562  66.344  1.00  0.00    -0.296 C  
BRANCH  17  18
HETATM   18  C   UNK     1      -9.955  14.603  65.216  1.00  0.00    -0.329 C  
BRANCH  18  19
HETATM   19  C   UNK     1     -11.010  15.709  65.369  1.00  0.00    -0.333 C  
HETATM   20  N   UNK     1     -11.294  16.369  64.061  1.00  0.00    -1.539 NA 
HETATM   21  C   UNK     1     -10.525  16.780  66.360  1.00  0.00    -0.269 C  
HETATM   22  O   UNK     1     -10.553  16.684  67.572  1.00  0.00    -0.319 OA 
HETATM   23  O   UNK     1     -10.006  17.853  65.700  1.00  0.00    -0.539 OA 
HETATM   24  H1  UNK     1     -11.995  17.103  64.163  1.00  0.00     0.000 HD 
HETATM   25  H2  UNK     1     -11.564  15.690  63.350  1.00  0.00     0.000 HD 
ENDBRANCH  18  19
ENDBRANCH  17  18
ENDBRANCH  16  17
ENDBRANCH  15  16
ENDBRANCH  13  15
ENDBRANCH  10  11
ENDBRANCH   9  10
ENDBRANCH   8   9
ENDBRANCH   7   8
ENDBRANCH   6   7
ENDBRANCH   5   6
ENDBRANCH   4   5
ENDBRANCH   3   4
ENDBRANCH   2   3
TORSDOF 14
ENDMDL
MODEL      136
REMARK 921   NORMALIZED FREE ENERGY PREDICTED BY IDOCK:   -4.15 KCAL/MOL
REMARK 922        TOTAL FREE ENERGY PREDICTED BY IDOCK:   -8.47 KCAL/MOL
REMARK 923 INTER-LIGAND FREE ENERGY PREDICTED BY IDOCK:   -7.84 KCAL/MOL
REMARK 924 INTRA-LIGAND FREE ENERGY PREDICTED BY IDOCK:   -0.63 KCAL/MOL
REMARK 927      BINDING AFFINITY PREDICTED BY RF-SCORE:    0.00 PKD
ROOT
HETATM    1  C   UNK     1     -11.033   6.389  67.059  1.00  0.00    -0.389 C  
HETATM    2  O   UNK     1     -10.086   7.441  66.949  1.00  0.00    -0.219 OA 
ENDROOT
BRANCH   2   3
HETATM    3  C   UNK     1      -8.969   7.058  66.145  1.00  0.00    -0.136 C  
BRANCH   3   4
HETATM    4  C   UNK     1      -8.247   8.310  65.664  1.00  0.00    -0.134 C  
BRANCH   4   5
HETATM    5  O   UNK     1      -8.282   8.359  64.239  1.00  0.00    -0.159 OA 
BRANCH   5   6
HETATM    6  C   UNK     1      -8.795   9.604  63.771  1.00  0.00    -0.231 C  
BRANCH   6   7
HETATM    7  C   UNK     1      -9.076  10.509  64.963  1.00  0.00    -0.231 C  
BRANCH   7   8
HETATM    8  C   UNK     1     -10.530  10.994  64.997  1.00  0.00    -0.344 C  
BRANCH   8   9
HETATM    9  C   UNK     1     -10.915  11.628  63.664  1.00  0.00    -0.507 C  
BRANCH   9  10
HETATM   10  C   UNK     1     -12.292  12.286  63.711  1.00  0.00    -0.637 C  
BRANCH  10  11
HETATM   11  C   UNK     1     -12.249  13.579  64.505  1.00  0.00    -0.398 C  
HETATM   12  O   UNK     1     -13.037  13.848  65.406  1.00  0.00    -0.752 OA 
HETATM   13  N   UNK     1     -11.238  14.427  64.113  1.00  0.00    -0.579 N  
HETATM   14  H   UNK     1     -10.641  14.166  63.328  1.00  0.00     0.000 HD 
BRANCH  13  15
HETATM   15  C   UNK     1     -11.009  15.684  64.797  1.00  0.00    -0.400 C  
BRANCH  15  16
HETATM   16  C   UNK     1      -9.779  15.646  65.707  1.00  0.00    -0.380 C  
BRANCH  16  17
HETATM   17  C   UNK     1      -9.747  16.847  66.653  1.00  0.00    -0.283 C  
BRANCH  17  18
HETATM   18  C   UNK     1      -8.514  17.735  66.432  1.00  0.00    -0.270 C  
BRANCH  18  19
HETATM   19  C   UNK     1      -8.809  19.237  66.566  1.00  0.00    -0.346 C  
HETATM   20  N   UNK     1      -8.011  20.034  65.589  1.00  0.00    -0.495 NA 
HETATM   21  C   UNK     1      -8.472  19.726  67.984  1.00  0.00    -0.296 C  
HETATM   22  O   UNK     1      -9.170  19.572  68.968  1.00  0.00    -0.364 OA 
HETATM   23  O   UNK     1      -7.247  20.322  68.014  1.00  0.00    -0.290 OA 
HETATM   24  H1  UNK     1      -8.208  21.030  65.677  1.00  0.00     0.000 HD 
HETATM   25  H2  UNK     1      -8.155  19.707  64.633  1.00  0.00     0.000 HD 
ENDBRANCH  18  19
ENDBRANCH  17  18
ENDBRANCH  16  17
ENDBRANCH  15  16
ENDBRANCH  13  15
ENDBRANCH  10  11
ENDBRANCH   9  10
ENDBRANCH   8   9
ENDBRANCH   7   8
ENDBRANCH   6   7
ENDBRANCH   5   6
ENDBRANCH   4   5
ENDBRANCH   3   4
ENDBRANCH   2   3
TORSDOF 14
ENDMDL
MODEL      137
REMARK 921   NORMALIZED FREE ENERGY PREDICTED BY IDOCK:   -4.15 KCAL/MOL
REMARK 922        TOTAL FREE ENERGY PREDICTED BY IDOCK:   -8.47 KCAL/MOL
REMARK 923 INTER-LIGAND FREE ENERGY PREDICTED BY IDOCK:   -7.68 KCAL/MOL
REMARK 924 INTRA-LIGAND FREE ENERGY PREDICTED BY IDOCK:   -0.79 KCAL/MOL
REMARK 927      BINDING AFFINITY PREDICTED BY RF-SCORE:    0.00 PKD
ROOT
HETATM    1  C   UNK     1     -13.148  10.100  70.591  1.00  0.00    -0.210 C  
HETATM    2  O   UNK     1     -13.279  10.192  72.002  1.00  0.00    -0.443 OA 
ENDROOT
BRANCH   2   3
HETATM    3  C   UNK     1     -13.722   8.957  72.567  1.00  0.00    -0.414 C  
BRANCH   3   4
HETATM    4  C   UNK     1     -13.652   7.869  71.503  1.00  0.00    -0.310 C  
BRANCH   4   5
HETATM    5  O   UNK     1     -12.666   6.908  71.873  1.00  0.00    -0.336 OA 
BRANCH   5   6
HETATM    6  C   UNK     1     -11.597   6.866  70.930  1.00  0.00    -0.337 C  
BRANCH   6   7
HETATM    7  C   UNK     1     -10.293   6.585  71.665  1.00  0.00    -0.232 C  
BRANCH   7   8
HETATM    8  C   UNK     1      -9.701   7.846  72.304  1.00  0.00    -0.269 C  
BRANCH   8   9
HETATM    9  C   UNK     1      -9.991   9.071  71.441  1.00  0.00    -0.388 C  
BRANCH   9  10
HETATM   10  C   UNK     1      -8.989   9.228  70.300  1.00  0.00    -0.261 C  
BRANCH  10  11
HETATM   11  C   UNK     1      -9.675   9.717  69.038  1.00  0.00    -0.177 C  
HETATM   12  O   UNK     1     -10.221   8.973  68.230  1.00  0.00    -0.189 OA 
HETATM   13  N   UNK     1      -9.625  11.084  68.884  1.00  0.00    -0.291 N  
HETATM   14  H   UNK     1      -9.120  11.648  69.569  1.00  0.00     0.000 HD 
BRANCH  13  15
HETATM   15  C   UNK     1     -10.277  11.736  67.766  1.00  0.00    -0.191 C  
BRANCH  15  16
HETATM   16  C   UNK     1      -9.360  11.876  66.547  1.00  0.00    -0.222 C  
BRANCH  16  17
HETATM   17  C   UNK     1      -9.959  11.196  65.317  1.00  0.00    -0.311 C  
BRANCH  17  18
HETATM   18  C   UNK     1     -10.760  12.168  64.439  1.00  0.00    -0.366 C  
BRANCH  18  19
HETATM   19  C   UNK     1     -12.055  12.664  65.100  1.00  0.00    -0.455 C  
HETATM   20  N   UNK     1     -13.255  12.246  64.318  1.00  0.00    -0.761 NA 
HETATM   21  C   UNK     1     -12.051  14.198  65.203  1.00  0.00    -0.414 C  
HETATM   22  O   UNK     1     -11.457  14.847  66.043  1.00  0.00    -0.343 OA 
HETATM   23  O   UNK     1     -12.771  14.755  64.189  1.00  0.00    -0.758 OA 
HETATM   24  H1  UNK     1     -14.115  12.575  64.757  1.00  0.00     0.000 HD 
HETATM   25  H2  UNK     1     -13.273  11.237  64.170  1.00  0.00     0.000 HD 
ENDBRANCH  18  19
ENDBRANCH  17  18
ENDBRANCH  16  17
ENDBRANCH  15  16
ENDBRANCH  13  15
ENDBRANCH  10  11
ENDBRANCH   9  10
ENDBRANCH   8   9
ENDBRANCH   7   8
ENDBRANCH   6   7
ENDBRANCH   5   6
ENDBRANCH   4   5
ENDBRANCH   3   4
ENDBRANCH   2   3
TORSDOF 14
ENDMDL
MODEL      138
REMARK 921   NORMALIZED FREE ENERGY PREDICTED BY IDOCK:   -4.14 KCAL/MOL
REMARK 922        TOTAL FREE ENERGY PREDICTED BY IDOCK:   -8.45 KCAL/MOL
REMARK 923 INTER-LIGAND FREE ENERGY PREDICTED BY IDOCK:   -7.78 KCAL/MOL
REMARK 924 INTRA-LIGAND FREE ENERGY PREDICTED BY IDOCK:   -0.67 KCAL/MOL
REMARK 927      BINDING AFFINITY PREDICTED BY RF-SCORE:    0.00 PKD
ROOT
HETATM    1  C   UNK     1      -9.001   9.124  66.087  1.00  0.00    -0.173 C  
HETATM    2  O   UNK     1      -8.799   7.887  65.420  1.00  0.00    -0.103 OA 
ENDROOT
BRANCH   2   3
HETATM    3  C   UNK     1      -8.811   6.791  66.336  1.00  0.00    -0.144 C  
BRANCH   3   4
HETATM    4  C   UNK     1     -10.234   6.260  66.458  1.00  0.00    -0.100 C  
BRANCH   4   5
HETATM    5  O   UNK     1     -10.340   5.455  67.630  1.00  0.00    -0.193 OA 
BRANCH   5   6
HETATM    6  C   UNK     1     -10.658   6.239  68.778  1.00  0.00    -0.262 C  
BRANCH   6   7
HETATM    7  C   UNK     1     -10.561   5.366  70.022  1.00  0.00    -0.354 C  
BRANCH   7   8
HETATM    8  C   UNK     1     -10.050   6.143  71.240  1.00  0.00    -0.227 C  
BRANCH   8   9
HETATM    9  C   UNK     1     -11.164   6.324  72.268  1.00  0.00    -0.325 C  
BRANCH   9  10
HETATM   10  C   UNK     1     -11.269   7.764  72.763  1.00  0.00    -0.456 C  
BRANCH  10  11
HETATM   11  C   UNK     1     -12.271   8.551  71.938  1.00  0.00    -0.352 C  
HETATM   12  O   UNK     1     -13.338   8.089  71.546  1.00  0.00    -0.327 OA 
HETATM   13  N   UNK     1     -11.866   9.838  71.669  1.00  0.00    -0.390 N  
HETATM   14  H   UNK     1     -10.948  10.152  71.987  1.00  0.00     0.000 HD 
BRANCH  13  15
HETATM   15  C   UNK     1     -12.721  10.755  70.941  1.00  0.00    -0.384 C  
BRANCH  15  16
HETATM   16  C   UNK     1     -11.930  11.734  70.069  1.00  0.00    -0.421 C  
BRANCH  16  17
HETATM   17  C   UNK     1     -12.235  13.185  70.441  1.00  0.00    -0.389 C  
BRANCH  17  18
HETATM   18  C   UNK     1     -12.956  13.307  71.791  1.00  0.00    -0.430 C  
BRANCH  18  19
HETATM   19  C   UNK     1     -13.595  14.685  72.021  1.00  0.00    -0.400 C  
HETATM   20  N   UNK     1     -13.696  15.453  70.746  1.00  0.00    -0.845 NA 
HETATM   21  C   UNK     1     -12.759  15.504  73.017  1.00  0.00    -0.454 C  
HETATM   22  O   UNK     1     -12.775  15.374  74.227  1.00  0.00    -0.520 OA 
HETATM   23  O   UNK     1     -11.945  16.381  72.365  1.00  0.00    -0.530 OA 
HETATM   24  H1  UNK     1     -14.121  16.367  70.898  1.00  0.00     0.000 HD 
HETATM   25  H2  UNK     1     -14.193  14.924  70.029  1.00  0.00     0.000 HD 
ENDBRANCH  18  19
ENDBRANCH  17  18
ENDBRANCH  16  17
ENDBRANCH  15  16
ENDBRANCH  13  15
ENDBRANCH  10  11
ENDBRANCH   9  10
ENDBRANCH   8   9
ENDBRANCH   7   8
ENDBRANCH   6   7
ENDBRANCH   5   6
ENDBRANCH   4   5
ENDBRANCH   3   4
ENDBRANCH   2   3
TORSDOF 14
ENDMDL
MODEL      139
REMARK 921   NORMALIZED FREE ENERGY PREDICTED BY IDOCK:   -4.12 KCAL/MOL
REMARK 922        TOTAL FREE ENERGY PREDICTED BY IDOCK:   -8.43 KCAL/MOL
REMARK 923 INTER-LIGAND FREE ENERGY PREDICTED BY IDOCK:   -6.96 KCAL/MOL
REMARK 924 INTRA-LIGAND FREE ENERGY PREDICTED BY IDOCK:   -1.47 KCAL/MOL
REMARK 927      BINDING AFFINITY PREDICTED BY RF-SCORE:    0.00 PKD
ROOT
HETATM    1  C   UNK     1      -7.928   8.142  73.223  1.00  0.00    -0.178 C  
HETATM    2  O   UNK     1      -8.768   8.946  72.406  1.00  0.00    -0.400 OA 
ENDROOT
BRANCH   2   3
HETATM    3  C   UNK     1     -10.141   8.585  72.554  1.00  0.00    -0.249 C  
BRANCH   3   4
HETATM    4  C   UNK     1     -10.897   8.968  71.287  1.00  0.00    -0.315 C  
BRANCH   4   5
HETATM    5  O   UNK     1      -9.968   9.389  70.291  1.00  0.00    -0.203 OA 
BRANCH   5   6
HETATM    6  C   UNK     1      -9.905   8.462  69.208  1.00  0.00    -0.186 C  
BRANCH   6   7
HETATM    7  C   UNK     1      -9.894   9.231  67.894  1.00  0.00    -0.200 C  
BRANCH   7   8
HETATM    8  C   UNK     1     -10.133  10.731  68.094  1.00  0.00    -0.183 C  
BRANCH   8   9
HETATM    9  C   UNK     1      -9.105  11.548  67.315  1.00  0.00    -0.164 C  
BRANCH   9  10
HETATM   10  C   UNK     1      -8.518  10.772  66.139  1.00  0.00    -0.167 C  
BRANCH  10  11
HETATM   11  C   UNK     1      -9.379  10.932  64.899  1.00  0.00    -0.224 C  
HETATM   12  O   UNK     1      -9.643  10.011  64.132  1.00  0.00    -0.292 OA 
HETATM   13  N   UNK     1      -9.837  12.217  64.715  1.00  0.00    -0.447 N  
HETATM   14  H   UNK     1      -9.550  12.950  65.364  1.00  0.00     0.000 HD 
BRANCH  13  15
HETATM   15  C   UNK     1     -10.720  12.546  63.613  1.00  0.00    -0.430 C  
BRANCH  15  16
HETATM   16  C   UNK     1     -12.193  12.587  64.029  1.00  0.00    -0.566 C  
BRANCH  16  17
HETATM   17  C   UNK     1     -12.345  12.597  65.550  1.00  0.00    -0.455 C  
BRANCH  17  18
HETATM   18  C   UNK     1     -12.530  14.014  66.112  1.00  0.00    -0.467 C  
BRANCH  18  19
HETATM   19  C   UNK     1     -11.563  14.349  67.258  1.00  0.00    -0.379 C  
HETATM   20  N   UNK     1     -12.277  15.008  68.391  1.00  0.00    -0.577 NA 
HETATM   21  C   UNK     1     -10.454  15.292  66.766  1.00  0.00    -0.293 C  
HETATM   22  O   UNK     1      -9.473  14.956  66.131  1.00  0.00    -0.284 OA 
HETATM   23  O   UNK     1     -10.734  16.585  67.094  1.00  0.00    -0.303 OA 
HETATM   24  H1  UNK     1     -11.635  15.230  69.152  1.00  0.00     0.000 HD 
HETATM   25  H2  UNK     1     -13.064  14.446  68.716  1.00  0.00     0.000 HD 
ENDBRANCH  18  19
ENDBRANCH  17  18
ENDBRANCH  16  17
ENDBRANCH  15  16
ENDBRANCH  13  15
ENDBRANCH  10  11
ENDBRANCH   9  10
ENDBRANCH   8   9
ENDBRANCH   7   8
ENDBRANCH   6   7
ENDBRANCH   5   6
ENDBRANCH   4   5
ENDBRANCH   3   4
ENDBRANCH   2   3
TORSDOF 14
ENDMDL
MODEL      140
REMARK 921   NORMALIZED FREE ENERGY PREDICTED BY IDOCK:   -4.11 KCAL/MOL
REMARK 922        TOTAL FREE ENERGY PREDICTED BY IDOCK:   -8.41 KCAL/MOL
REMARK 923 INTER-LIGAND FREE ENERGY PREDICTED BY IDOCK:   -7.40 KCAL/MOL
REMARK 924 INTRA-LIGAND FREE ENERGY PREDICTED BY IDOCK:   -1.01 KCAL/MOL
REMARK 927      BINDING AFFINITY PREDICTED BY RF-SCORE:    0.00 PKD
ROOT
HETATM    1  C   UNK     1      -7.194  10.560  69.501  1.00  0.00    -0.137 C  
HETATM    2  O   UNK     1      -7.086  11.393  68.355  1.00  0.00    -0.070 OA 
ENDROOT
BRANCH   2   3
HETATM    3  C   UNK     1      -8.042  12.453  68.387  1.00  0.00    -0.143 C  
BRANCH   3   4
HETATM    4  C   UNK     1      -9.387  11.927  67.900  1.00  0.00    -0.187 C  
BRANCH   4   5
HETATM    5  O   UNK     1      -9.348  11.766  66.484  1.00  0.00    -0.198 OA 
BRANCH   5   6
HETATM    6  C   UNK     1     -10.491  11.060  66.006  1.00  0.00    -0.245 C  
BRANCH   6   7
HETATM    7  C   UNK     1     -11.614  12.052  65.735  1.00  0.00    -0.353 C  
BRANCH   7   8
HETATM    8  C   UNK     1     -11.194  13.153  64.754  1.00  0.00    -0.347 C  
BRANCH   8   9
HETATM    9  C   UNK     1     -11.815  14.490  65.150  1.00  0.00    -0.374 C  
BRANCH   9  10
HETATM   10  C   UNK     1     -10.912  15.673  64.810  1.00  0.00    -0.418 C  
BRANCH  10  11
HETATM   11  C   UNK     1     -10.224  16.206  66.053  1.00  0.00    -0.356 C  
HETATM   12  O   UNK     1      -9.552  17.233  66.069  1.00  0.00    -0.455 OA 
HETATM   13  N   UNK     1     -10.423  15.422  67.166  1.00  0.00    -0.284 N  
HETATM   14  H   UNK     1     -10.957  14.557  67.081  1.00  0.00     0.000 HD 
BRANCH  13  15
HETATM   15  C   UNK     1      -9.888  15.807  68.458  1.00  0.00    -0.209 C  
BRANCH  15  16
HETATM   16  C   UNK     1     -10.885  16.613  69.294  1.00  0.00    -0.310 C  
BRANCH  16  17
HETATM   17  C   UNK     1     -11.297  15.855  70.556  1.00  0.00    -0.409 C  
BRANCH  17  18
HETATM   18  C   UNK     1     -11.931  14.492  70.242  1.00  0.00    -0.379 C  
BRANCH  18  19
HETATM   19  C   UNK     1     -13.363  14.345  70.779  1.00  0.00    -0.155 C  
HETATM   20  N   UNK     1     -13.957  15.675  71.104  1.00  0.00    -0.726 NA 
HETATM   21  C   UNK     1     -13.374  13.483  72.051  1.00  0.00    -0.475 C  
HETATM   22  O   UNK     1     -13.314  12.268  72.080  1.00  0.00    -0.526 OA 
HETATM   23  O   UNK     1     -13.411  14.263  73.167  1.00  0.00    -0.643 OA 
HETATM   24  H1  UNK     1     -14.907  15.578  71.460  1.00  0.00     0.000 HD 
HETATM   25  H2  UNK     1     -13.919  16.308  70.305  1.00  0.00     0.000 HD 
ENDBRANCH  18  19
ENDBRANCH  17  18
ENDBRANCH  16  17
ENDBRANCH  15  16
ENDBRANCH  13  15
ENDBRANCH  10  11
ENDBRANCH   9  10
ENDBRANCH   8   9
ENDBRANCH   7   8
ENDBRANCH   6   7
ENDBRANCH   5   6
ENDBRANCH   4   5
ENDBRANCH   3   4
ENDBRANCH   2   3
TORSDOF 14
ENDMDL
MODEL      141
REMARK 921   NORMALIZED FREE ENERGY PREDICTED BY IDOCK:   -4.11 KCAL/MOL
REMARK 922        TOTAL FREE ENERGY PREDICTED BY IDOCK:   -8.41 KCAL/MOL
REMARK 923 INTER-LIGAND FREE ENERGY PREDICTED BY IDOCK:   -7.40 KCAL/MOL
REMARK 924 INTRA-LIGAND FREE ENERGY PREDICTED BY IDOCK:   -1.01 KCAL/MOL
REMARK 927      BINDING AFFINITY PREDICTED BY RF-SCORE:    0.00 PKD
ROOT
HETATM    1  C   UNK     1      -6.625  10.305  68.033  1.00  0.00    -0.061 C  
HETATM    2  O   UNK     1      -7.858   9.657  68.309  1.00  0.00    -0.085 OA 
ENDROOT
BRANCH   2   3
HETATM    3  C   UNK     1      -8.760   9.760  67.206  1.00  0.00    -0.132 C  
BRANCH   3   4
HETATM    4  C   UNK     1      -8.100  10.566  66.095  1.00  0.00    -0.145 C  
BRANCH   4   5
HETATM    5  O   UNK     1      -8.625  10.154  64.835  1.00  0.00    -0.158 OA 
BRANCH   5   6
HETATM    6  C   UNK     1      -9.978  10.572  64.669  1.00  0.00    -0.347 C  
BRANCH   6   7
HETATM    7  C   UNK     1     -10.043  11.634  63.580  1.00  0.00    -0.455 C  
BRANCH   7   8
HETATM    8  C   UNK     1     -11.465  12.163  63.366  1.00  0.00    -0.501 C  
BRANCH   8   9
HETATM    9  C   UNK     1     -11.675  13.467  64.130  1.00  0.00    -0.466 C  
BRANCH   9  10
HETATM   10  C   UNK     1     -12.815  13.371  65.141  1.00  0.00    -0.380 C  
BRANCH  10  11
HETATM   11  C   UNK     1     -12.279  13.187  66.549  1.00  0.00    -0.291 C  
HETATM   12  O   UNK     1     -11.987  12.095  67.027  1.00  0.00    -0.593 OA 
HETATM   13  N   UNK     1     -12.154  14.368  67.244  1.00  0.00    -0.573 N  
HETATM   14  H   UNK     1     -12.453  15.241  66.807  1.00  0.00     0.000 HD 
BRANCH  13  15
HETATM   15  C   UNK     1     -11.604  14.393  68.585  1.00  0.00    -0.314 C  
BRANCH  15  16
HETATM   16  C   UNK     1     -11.893  15.705  69.318  1.00  0.00    -0.378 C  
BRANCH  16  17
HETATM   17  C   UNK     1     -10.671  16.623  69.324  1.00  0.00    -0.337 C  
BRANCH  17  18
HETATM   18  C   UNK     1      -9.795  16.443  68.076  1.00  0.00    -0.238 C  
BRANCH  18  19
HETATM   19  C   UNK     1     -10.237  17.310  66.887  1.00  0.00    -0.322 C  
HETATM   20  N   UNK     1     -10.240  16.525  65.618  1.00  0.00    -0.535 NA 
HETATM   21  C   UNK     1      -9.291  18.509  66.715  1.00  0.00    -0.297 C  
HETATM   22  O   UNK     1      -9.318  19.529  67.378  1.00  0.00    -0.303 OA 
HETATM   23  O   UNK     1      -8.369  18.266  65.742  1.00  0.00    -0.489 OA 
HETATM   24  H1  UNK     1     -10.534  17.100  64.829  1.00  0.00     0.000 HD 
HETATM   25  H2  UNK     1     -10.809  15.682  65.700  1.00  0.00     0.000 HD 
ENDBRANCH  18  19
ENDBRANCH  17  18
ENDBRANCH  16  17
ENDBRANCH  15  16
ENDBRANCH  13  15
ENDBRANCH  10  11
ENDBRANCH   9  10
ENDBRANCH   8   9
ENDBRANCH   7   8
ENDBRANCH   6   7
ENDBRANCH   5   6
ENDBRANCH   4   5
ENDBRANCH   3   4
ENDBRANCH   2   3
TORSDOF 14
ENDMDL
MODEL      142
REMARK 921   NORMALIZED FREE ENERGY PREDICTED BY IDOCK:   -4.11 KCAL/MOL
REMARK 922        TOTAL FREE ENERGY PREDICTED BY IDOCK:   -8.40 KCAL/MOL
REMARK 923 INTER-LIGAND FREE ENERGY PREDICTED BY IDOCK:   -7.16 KCAL/MOL
REMARK 924 INTRA-LIGAND FREE ENERGY PREDICTED BY IDOCK:   -1.23 KCAL/MOL
REMARK 927      BINDING AFFINITY PREDICTED BY RF-SCORE:    0.00 PKD
ROOT
HETATM    1  C   UNK     1     -12.141   9.661  71.491  1.00  0.00    -0.401 C  
HETATM    2  O   UNK     1     -13.300   8.865  71.692  1.00  0.00    -0.341 OA 
ENDROOT
BRANCH   2   3
HETATM    3  C   UNK     1     -13.027   7.481  71.472  1.00  0.00    -0.359 C  
BRANCH   3   4
HETATM    4  C   UNK     1     -11.624   7.334  70.896  1.00  0.00    -0.300 C  
BRANCH   4   5
HETATM    5  O   UNK     1     -11.645   6.383  69.834  1.00  0.00    -0.429 OA 
BRANCH   5   6
HETATM    6  C   UNK     1     -10.423   6.390  69.100  1.00  0.00    -0.229 C  
BRANCH   6   7
HETATM    7  C   UNK     1     -10.204   7.775  68.506  1.00  0.00    -0.227 C  
BRANCH   7   8
HETATM    8  C   UNK     1     -10.501   7.818  67.003  1.00  0.00    -0.419 C  
BRANCH   8   9
HETATM    9  C   UNK     1      -9.952   9.100  66.384  1.00  0.00    -0.358 C  
BRANCH   9  10
HETATM   10  C   UNK     1     -10.586  10.352  66.982  1.00  0.00    -0.305 C  
BRANCH  10  11
HETATM   11  C   UNK     1     -10.331  11.563  66.104  1.00  0.00    -0.245 C  
HETATM   12  O   UNK     1     -10.236  11.508  64.882  1.00  0.00    -0.247 OA 
HETATM   13  N   UNK     1     -10.213  12.737  66.814  1.00  0.00    -0.236 N  
HETATM   14  H   UNK     1     -10.259  12.714  67.833  1.00  0.00     0.000 HD 
BRANCH  13  15
HETATM   15  C   UNK     1     -10.023  14.005  66.137  1.00  0.00    -0.312 C  
BRANCH  15  16
HETATM   16  C   UNK     1     -11.008  15.079  66.607  1.00  0.00    -0.325 C  
BRANCH  16  17
HETATM   17  C   UNK     1     -10.387  15.975  67.679  1.00  0.00    -0.284 C  
BRANCH  17  18
HETATM   18  C   UNK     1     -10.717  15.503  69.103  1.00  0.00    -0.250 C  
BRANCH  18  19
HETATM   19  C   UNK     1     -12.150  14.970  69.254  1.00  0.00    -0.247 C  
HETATM   20  N   UNK     1     -12.968  15.861  70.129  1.00  0.00    -0.660 NA 
HETATM   21  C   UNK     1     -12.136  13.562  69.872  1.00  0.00    -0.341 C  
HETATM   22  O   UNK     1     -11.892  12.532  69.273  1.00  0.00    -0.304 OA 
HETATM   23  O   UNK     1     -12.389  13.615  71.209  1.00  0.00    -0.345 OA 
HETATM   24  H1  UNK     1     -13.919  15.508  70.229  1.00  0.00     0.000 HD 
HETATM   25  H2  UNK     1     -12.959  16.825  69.793  1.00  0.00     0.000 HD 
ENDBRANCH  18  19
ENDBRANCH  17  18
ENDBRANCH  16  17
ENDBRANCH  15  16
ENDBRANCH  13  15
ENDBRANCH  10  11
ENDBRANCH   9  10
ENDBRANCH   8   9
ENDBRANCH   7   8
ENDBRANCH   6   7
ENDBRANCH   5   6
ENDBRANCH   4   5
ENDBRANCH   3   4
ENDBRANCH   2   3
TORSDOF 14
ENDMDL
MODEL      143
REMARK 921   NORMALIZED FREE ENERGY PREDICTED BY IDOCK:   -4.10 KCAL/MOL
REMARK 922        TOTAL FREE ENERGY PREDICTED BY IDOCK:   -8.39 KCAL/MOL
REMARK 923 INTER-LIGAND FREE ENERGY PREDICTED BY IDOCK:   -7.52 KCAL/MOL
REMARK 924 INTRA-LIGAND FREE ENERGY PREDICTED BY IDOCK:   -0.87 KCAL/MOL
REMARK 927      BINDING AFFINITY PREDICTED BY RF-SCORE:    0.00 PKD
ROOT
HETATM    1  C   UNK     1      -7.847   7.656  69.602  1.00  0.00    -0.108 C  
HETATM    2  O   UNK     1      -8.339   6.992  68.447  1.00  0.00    -0.123 OA 
ENDROOT
BRANCH   2   3
HETATM    3  C   UNK     1      -7.922   7.649  67.249  1.00  0.00    -0.118 C  
BRANCH   3   4
HETATM    4  C   UNK     1      -8.989   8.656  66.835  1.00  0.00    -0.138 C  
BRANCH   4   5
HETATM    5  O   UNK     1      -8.381   9.927  66.619  1.00  0.00    -0.123 OA 
BRANCH   5   6
HETATM    6  C   UNK     1      -8.371  10.275  65.236  1.00  0.00    -0.163 C  
BRANCH   6   7
HETATM    7  C   UNK     1      -9.784  10.148  64.680  1.00  0.00    -0.377 C  
BRANCH   7   8
HETATM    8  C   UNK     1      -9.946  10.863  63.334  1.00  0.00    -0.414 C  
BRANCH   8   9
HETATM    9  C   UNK     1     -10.548  12.251  63.533  1.00  0.00    -0.488 C  
BRANCH   9  10
HETATM   10  C   UNK     1     -12.039  12.197  63.851  1.00  0.00    -0.584 C  
BRANCH  10  11
HETATM   11  C   UNK     1     -12.352  12.967  65.121  1.00  0.00    -0.493 C  
HETATM   12  O   UNK     1     -13.157  13.891  65.174  1.00  0.00    -0.773 OA 
HETATM   13  N   UNK     1     -11.640  12.528  66.215  1.00  0.00    -0.374 N  
HETATM   14  H   UNK     1     -10.954  11.783  66.100  1.00  0.00     0.000 HD 
BRANCH  13  15
HETATM   15  C   UNK     1     -11.850  13.109  67.526  1.00  0.00    -0.360 C  
BRANCH  15  16
HETATM   16  C   UNK     1     -10.699  12.820  68.492  1.00  0.00    -0.275 C  
BRANCH  16  17
HETATM   17  C   UNK     1     -10.624  11.334  68.843  1.00  0.00    -0.239 C  
BRANCH  17  18
HETATM   18  C   UNK     1     -11.964  10.781  69.349  1.00  0.00    -0.353 C  
BRANCH  18  19
HETATM   19  C   UNK     1     -11.861  10.079  70.712  1.00  0.00    -0.346 C  
HETATM   20  N   UNK     1     -11.707   8.603  70.548  1.00  0.00    -0.457 NA 
HETATM   21  C   UNK     1     -13.121  10.347  71.551  1.00  0.00    -0.431 C  
HETATM   22  O   UNK     1     -13.349  11.367  72.173  1.00  0.00    -0.469 OA 
HETATM   23  O   UNK     1     -13.990   9.301  71.472  1.00  0.00    -0.321 OA 
HETATM   24  H1  UNK     1     -11.638   8.137  71.452  1.00  0.00     0.000 HD 
HETATM   25  H2  UNK     1     -10.916   8.373  69.947  1.00  0.00     0.000 HD 
ENDBRANCH  18  19
ENDBRANCH  17  18
ENDBRANCH  16  17
ENDBRANCH  15  16
ENDBRANCH  13  15
ENDBRANCH  10  11
ENDBRANCH   9  10
ENDBRANCH   8   9
ENDBRANCH   7   8
ENDBRANCH   6   7
ENDBRANCH   5   6
ENDBRANCH   4   5
ENDBRANCH   3   4
ENDBRANCH   2   3
TORSDOF 14
ENDMDL
MODEL      144
REMARK 921   NORMALIZED FREE ENERGY PREDICTED BY IDOCK:   -4.08 KCAL/MOL
REMARK 922        TOTAL FREE ENERGY PREDICTED BY IDOCK:   -8.36 KCAL/MOL
REMARK 923 INTER-LIGAND FREE ENERGY PREDICTED BY IDOCK:   -7.30 KCAL/MOL
REMARK 924 INTRA-LIGAND FREE ENERGY PREDICTED BY IDOCK:   -1.06 KCAL/MOL
REMARK 927      BINDING AFFINITY PREDICTED BY RF-SCORE:    0.00 PKD
ROOT
HETATM    1  C   UNK     1     -10.221   7.582  73.410  1.00  0.00    -0.343 C  
HETATM    2  O   UNK     1     -11.391   7.590  72.605  1.00  0.00    -0.317 OA 
ENDROOT
BRANCH   2   3
HETATM    3  C   UNK     1     -11.654   6.300  72.053  1.00  0.00    -0.322 C  
BRANCH   3   4
HETATM    4  C   UNK     1     -10.365   5.735  71.468  1.00  0.00    -0.220 C  
BRANCH   4   5
HETATM    5  O   UNK     1     -10.636   5.162  70.191  1.00  0.00    -0.272 OA 
BRANCH   5   6
HETATM    6  C   UNK     1      -9.565   5.389  69.277  1.00  0.00    -0.145 C  
BRANCH   6   7
HETATM    7  C   UNK     1      -8.827   6.659  69.679  1.00  0.00    -0.143 C  
BRANCH   7   8
HETATM    8  C   UNK     1      -9.079   7.813  68.701  1.00  0.00    -0.136 C  
BRANCH   8   9
HETATM    9  C   UNK     1     -10.394   8.515  69.028  1.00  0.00    -0.229 C  
BRANCH   9  10
HETATM   10  C   UNK     1     -10.206   9.673  70.004  1.00  0.00    -0.296 C  
BRANCH  10  11
HETATM   11  C   UNK     1     -11.182  10.797  69.709  1.00  0.00    -0.297 C  
HETATM   12  O   UNK     1     -11.985  11.232  70.529  1.00  0.00    -0.343 OA 
HETATM   13  N   UNK     1     -11.083  11.283  68.425  1.00  0.00    -0.219 N  
HETATM   14  H   UNK     1     -10.424  10.852  67.775  1.00  0.00     0.000 HD 
BRANCH  13  15
HETATM   15  C   UNK     1     -11.898  12.397  67.981  1.00  0.00    -0.316 C  
BRANCH  15  16
HETATM   16  C   UNK     1     -11.153  13.733  68.033  1.00  0.00    -0.284 C  
BRANCH  16  17
HETATM   17  C   UNK     1     -11.554  14.642  66.872  1.00  0.00    -0.374 C  
BRANCH  17  18
HETATM   18  C   UNK     1     -12.322  13.890  65.775  1.00  0.00    -0.518 C  
BRANCH  18  19
HETATM   19  C   UNK     1     -11.559  13.800  64.445  1.00  0.00    -0.395 C  
HETATM   20  N   UNK     1     -12.474  13.995  63.282  1.00  0.00    -1.112 NA 
HETATM   21  C   UNK     1     -10.883  12.426  64.307  1.00  0.00    -0.355 C  
HETATM   22  O   UNK     1      -9.844  12.094  64.844  1.00  0.00    -0.237 OA 
HETATM   23  O   UNK     1     -11.630  11.592  63.530  1.00  0.00    -0.428 OA 
HETATM   24  H1  UNK     1     -11.967  13.936  62.400  1.00  0.00     0.000 HD 
HETATM   25  H2  UNK     1     -12.993  14.870  63.358  1.00  0.00     0.000 HD 
ENDBRANCH  18  19
ENDBRANCH  17  18
ENDBRANCH  16  17
ENDBRANCH  15  16
ENDBRANCH  13  15
ENDBRANCH  10  11
ENDBRANCH   9  10
ENDBRANCH   8   9
ENDBRANCH   7   8
ENDBRANCH   6   7
ENDBRANCH   5   6
ENDBRANCH   4   5
ENDBRANCH   3   4
ENDBRANCH   2   3
TORSDOF 14
ENDMDL
MODEL      145
REMARK 921   NORMALIZED FREE ENERGY PREDICTED BY IDOCK:   -4.08 KCAL/MOL
REMARK 922        TOTAL FREE ENERGY PREDICTED BY IDOCK:   -8.35 KCAL/MOL
REMARK 923 INTER-LIGAND FREE ENERGY PREDICTED BY IDOCK:   -6.99 KCAL/MOL
REMARK 924 INTRA-LIGAND FREE ENERGY PREDICTED BY IDOCK:   -1.36 KCAL/MOL
REMARK 927      BINDING AFFINITY PREDICTED BY RF-SCORE:    0.00 PKD
ROOT
HETATM    1  C   UNK     1     -10.245  11.678  68.612  1.00  0.00    -0.206 C  
HETATM    2  O   UNK     1     -10.943  11.316  67.429  1.00  0.00    -0.247 OA 
ENDROOT
BRANCH   2   3
HETATM    3  C   UNK     1     -10.895   9.906  67.205  1.00  0.00    -0.199 C  
BRANCH   3   4
HETATM    4  C   UNK     1      -9.440   9.468  67.094  1.00  0.00    -0.149 C  
BRANCH   4   5
HETATM    5  O   UNK     1      -9.162   9.085  65.749  1.00  0.00    -0.206 OA 
BRANCH   5   6
HETATM    6  C   UNK     1      -8.669  10.182  64.984  1.00  0.00    -0.173 C  
BRANCH   6   7
HETATM    7  C   UNK     1      -8.874   9.890  63.503  1.00  0.00    -0.251 C  
BRANCH   7   8
HETATM    8  C   UNK     1      -9.827  10.889  62.839  1.00  0.00    -0.313 C  
BRANCH   8   9
HETATM    9  C   UNK     1     -10.232  11.981  63.825  1.00  0.00    -0.447 C  
BRANCH   9  10
HETATM   10  C   UNK     1     -11.747  12.132  63.933  1.00  0.00    -0.546 C  
BRANCH  10  11
HETATM   11  C   UNK     1     -12.114  13.273  64.864  1.00  0.00    -0.397 C  
HETATM   12  O   UNK     1     -13.247  13.734  64.960  1.00  0.00    -0.733 OA 
HETATM   13  N   UNK     1     -11.047  13.746  65.595  1.00  0.00    -0.294 N  
HETATM   14  H   UNK     1     -10.120  13.350  65.441  1.00  0.00     0.000 HD 
BRANCH  13  15
HETATM   15  C   UNK     1     -11.221  14.797  66.578  1.00  0.00    -0.342 C  
BRANCH  15  16
HETATM   16  C   UNK     1     -10.512  16.096  66.186  1.00  0.00    -0.334 C  
BRANCH  16  17
HETATM   17  C   UNK     1      -8.994  15.956  66.286  1.00  0.00    -0.381 C  
BRANCH  17  18
HETATM   18  C   UNK     1      -8.274  17.312  66.247  1.00  0.00    -0.302 C  
BRANCH  18  19
HETATM   19  C   UNK     1      -7.960  17.878  67.640  1.00  0.00    -0.219 C  
HETATM   20  N   UNK     1      -8.069  16.822  68.689  1.00  0.00    -0.240 NA 
HETATM   21  C   UNK     1      -8.934  19.014  67.990  1.00  0.00    -0.308 C  
HETATM   22  O   UNK     1      -8.857  20.159  67.585  1.00  0.00    -0.328 OA 
HETATM   23  O   UNK     1      -9.943  18.563  68.787  1.00  0.00    -0.374 OA 
HETATM   24  H1  UNK     1      -7.860  17.198  69.614  1.00  0.00     0.000 HD 
HETATM   25  H2  UNK     1      -7.483  16.016  68.471  1.00  0.00     0.000 HD 
ENDBRANCH  18  19
ENDBRANCH  17  18
ENDBRANCH  16  17
ENDBRANCH  15  16
ENDBRANCH  13  15
ENDBRANCH  10  11
ENDBRANCH   9  10
ENDBRANCH   8   9
ENDBRANCH   7   8
ENDBRANCH   6   7
ENDBRANCH   5   6
ENDBRANCH   4   5
ENDBRANCH   3   4
ENDBRANCH   2   3
TORSDOF 14
ENDMDL
MODEL      146
REMARK 921   NORMALIZED FREE ENERGY PREDICTED BY IDOCK:   -4.08 KCAL/MOL
REMARK 922        TOTAL FREE ENERGY PREDICTED BY IDOCK:   -8.35 KCAL/MOL
REMARK 923 INTER-LIGAND FREE ENERGY PREDICTED BY IDOCK:   -6.87 KCAL/MOL
REMARK 924 INTRA-LIGAND FREE ENERGY PREDICTED BY IDOCK:   -1.48 KCAL/MOL
REMARK 927      BINDING AFFINITY PREDICTED BY RF-SCORE:    0.00 PKD
ROOT
HETATM    1  C   UNK     1     -10.520  19.262  65.856  1.00  0.00    -0.451 C  
HETATM    2  O   UNK     1      -9.623  18.186  66.092  1.00  0.00    -0.451 OA 
ENDROOT
BRANCH   2   3
HETATM    3  C   UNK     1      -9.956  17.482  67.289  1.00  0.00    -0.312 C  
BRANCH   3   4
HETATM    4  C   UNK     1      -8.676  17.164  68.052  1.00  0.00    -0.221 C  
BRANCH   4   5
HETATM    5  O   UNK     1      -8.486  15.751  68.089  1.00  0.00    -0.158 OA 
BRANCH   5   6
HETATM    6  C   UNK     1      -7.355  15.355  67.315  1.00  0.00    -0.204 C  
BRANCH   6   7
HETATM    7  C   UNK     1      -7.118  13.863  67.507  1.00  0.00    -0.175 C  
BRANCH   7   8
HETATM    8  C   UNK     1      -6.862  13.497  68.973  1.00  0.00    -0.107 C  
BRANCH   8   9
HETATM    9  C   UNK     1      -6.698  11.988  69.129  1.00  0.00    -0.101 C  
BRANCH   9  10
HETATM   10  C   UNK     1      -7.237  11.218  67.927  1.00  0.00    -0.086 C  
BRANCH  10  11
HETATM   11  C   UNK     1      -8.681  10.805  68.150  1.00  0.00    -0.130 C  
HETATM   12  O   UNK     1      -9.051  10.112  69.092  1.00  0.00    -0.161 OA 
HETATM   13  N   UNK     1      -9.540  11.284  67.186  1.00  0.00    -0.176 N  
HETATM   14  H   UNK     1      -9.167  11.821  66.403  1.00  0.00     0.000 HD 
BRANCH  13  15
HETATM   15  C   UNK     1     -10.967  11.038  67.267  1.00  0.00    -0.297 C  
BRANCH  15  16
HETATM   16  C   UNK     1     -11.735  12.210  67.883  1.00  0.00    -0.403 C  
BRANCH  16  17
HETATM   17  C   UNK     1     -11.086  13.549  67.532  1.00  0.00    -0.293 C  
BRANCH  17  18
HETATM   18  C   UNK     1     -11.834  14.290  66.414  1.00  0.00    -0.427 C  
BRANCH  18  19
HETATM   19  C   UNK     1     -11.091  14.278  65.070  1.00  0.00    -0.373 C  
HETATM   20  N   UNK     1     -10.999  15.651  64.492  1.00  0.00    -0.763 NA 
HETATM   21  C   UNK     1     -11.819  13.374  64.062  1.00  0.00    -0.445 C  
HETATM   22  O   UNK     1     -11.754  12.160  64.028  1.00  0.00    -0.373 OA 
HETATM   23  O   UNK     1     -12.601  14.111  63.224  1.00  0.00    -0.766 OA 
HETATM   24  H1  UNK     1     -10.506  15.644  63.600  1.00  0.00     0.000 HD 
HETATM   25  H2  UNK     1     -10.575  16.306  65.149  1.00  0.00     0.000 HD 
ENDBRANCH  18  19
ENDBRANCH  17  18
ENDBRANCH  16  17
ENDBRANCH  15  16
ENDBRANCH  13  15
ENDBRANCH  10  11
ENDBRANCH   9  10
ENDBRANCH   8   9
ENDBRANCH   7   8
ENDBRANCH   6   7
ENDBRANCH   5   6
ENDBRANCH   4   5
ENDBRANCH   3   4
ENDBRANCH   2   3
TORSDOF 14
ENDMDL
MODEL      147
REMARK 921   NORMALIZED FREE ENERGY PREDICTED BY IDOCK:   -4.07 KCAL/MOL
REMARK 922        TOTAL FREE ENERGY PREDICTED BY IDOCK:   -8.33 KCAL/MOL
REMARK 923 INTER-LIGAND FREE ENERGY PREDICTED BY IDOCK:   -6.90 KCAL/MOL
REMARK 924 INTRA-LIGAND FREE ENERGY PREDICTED BY IDOCK:   -1.43 KCAL/MOL
REMARK 927      BINDING AFFINITY PREDICTED BY RF-SCORE:    0.00 PKD
ROOT
HETATM    1  C   UNK     1     -10.783   7.319  67.314  1.00  0.00    -0.321 C  
HETATM    2  O   UNK     1      -9.993   7.077  68.470  1.00  0.00    -0.148 OA 
ENDROOT
BRANCH   2   3
HETATM    3  C   UNK     1     -10.702   6.295  69.432  1.00  0.00    -0.303 C  
BRANCH   3   4
HETATM    4  C   UNK     1     -11.480   7.224  70.356  1.00  0.00    -0.248 C  
BRANCH   4   5
HETATM    5  O   UNK     1     -10.615   7.701  71.384  1.00  0.00    -0.213 OA 
BRANCH   5   6
HETATM    6  C   UNK     1     -10.524   9.124  71.373  1.00  0.00    -0.344 C  
BRANCH   6   7
HETATM    7  C   UNK     1     -11.911   9.711  71.146  1.00  0.00    -0.448 C  
BRANCH   7   8
HETATM    8  C   UNK     1     -11.856  11.102  70.504  1.00  0.00    -0.448 C  
BRANCH   8   9
HETATM    9  C   UNK     1     -12.119  11.012  69.004  1.00  0.00    -0.285 C  
BRANCH   9  10
HETATM   10  C   UNK     1     -10.830  10.916  68.193  1.00  0.00    -0.283 C  
BRANCH  10  11
HETATM   11  C   UNK     1     -11.048  11.388  66.767  1.00  0.00    -0.281 C  
HETATM   12  O   UNK     1     -10.488  10.893  65.795  1.00  0.00    -0.248 OA 
HETATM   13  N   UNK     1     -11.939  12.433  66.668  1.00  0.00    -0.317 N  
HETATM   14  H   UNK     1     -12.342  12.831  67.517  1.00  0.00     0.000 HD 
BRANCH  13  15
HETATM   15  C   UNK     1     -12.314  12.977  65.378  1.00  0.00    -0.486 C  
BRANCH  15  16
HETATM   16  C   UNK     1     -11.876  14.433  65.200  1.00  0.00    -0.386 C  
BRANCH  16  17
HETATM   17  C   UNK     1     -10.365  14.541  64.994  1.00  0.00    -0.442 C  
BRANCH  17  18
HETATM   18  C   UNK     1      -9.735  15.659  65.836  1.00  0.00    -0.388 C  
BRANCH  18  19
HETATM   19  C   UNK     1     -10.647  16.164  66.965  1.00  0.00    -0.292 C  
HETATM   20  N   UNK     1     -10.567  17.648  67.101  1.00  0.00    -0.316 NA 
HETATM   21  C   UNK     1     -10.242  15.529  68.305  1.00  0.00    -0.222 C  
HETATM   22  O   UNK     1     -10.532  14.405  68.669  1.00  0.00    -0.234 OA 
HETATM   23  O   UNK     1      -9.464  16.380  69.031  1.00  0.00    -0.248 OA 
HETATM   24  H1  UNK     1     -11.172  17.982  67.850  1.00  0.00     0.000 HD 
HETATM   25  H2  UNK     1     -10.769  18.116  66.218  1.00  0.00     0.000 HD 
ENDBRANCH  18  19
ENDBRANCH  17  18
ENDBRANCH  16  17
ENDBRANCH  15  16
ENDBRANCH  13  15
ENDBRANCH  10  11
ENDBRANCH   9  10
ENDBRANCH   8   9
ENDBRANCH   7   8
ENDBRANCH   6   7
ENDBRANCH   5   6
ENDBRANCH   4   5
ENDBRANCH   3   4
ENDBRANCH   2   3
TORSDOF 14
ENDMDL
MODEL      148
REMARK 921   NORMALIZED FREE ENERGY PREDICTED BY IDOCK:   -4.07 KCAL/MOL
REMARK 922        TOTAL FREE ENERGY PREDICTED BY IDOCK:   -8.33 KCAL/MOL
REMARK 923 INTER-LIGAND FREE ENERGY PREDICTED BY IDOCK:   -7.54 KCAL/MOL
REMARK 924 INTRA-LIGAND FREE ENERGY PREDICTED BY IDOCK:   -0.79 KCAL/MOL
REMARK 927      BINDING AFFINITY PREDICTED BY RF-SCORE:    0.00 PKD
ROOT
HETATM    1  C   UNK     1      -8.310   5.769  70.476  1.00  0.00    -0.119 C  
HETATM    2  O   UNK     1      -8.456   5.532  71.868  1.00  0.00    -0.121 OA 
ENDROOT
BRANCH   2   3
HETATM    3  C   UNK     1      -9.632   6.155  72.384  1.00  0.00    -0.151 C  
BRANCH   3   4
HETATM    4  C   UNK     1     -10.711   6.152  71.308  1.00  0.00    -0.256 C  
BRANCH   4   5
HETATM    5  O   UNK     1     -11.993   6.267  71.922  1.00  0.00    -0.328 OA 
BRANCH   5   6
HETATM    6  C   UNK     1     -12.876   7.072  71.144  1.00  0.00    -0.270 C  
BRANCH   6   7
HETATM    7  C   UNK     1     -13.991   7.597  72.039  1.00  0.00    -0.311 C  
BRANCH   7   8
HETATM    8  C   UNK     1     -13.992   9.127  72.130  1.00  0.00    -0.466 C  
BRANCH   8   9
HETATM    9  C   UNK     1     -12.572   9.673  72.014  1.00  0.00    -0.443 C  
BRANCH   9  10
HETATM   10  C   UNK     1     -12.394  10.573  70.793  1.00  0.00    -0.474 C  
BRANCH  10  11
HETATM   11  C   UNK     1     -12.577  12.033  71.164  1.00  0.00    -0.271 C  
HETATM   12  O   UNK     1     -13.342  12.420  72.042  1.00  0.00    -0.507 OA 
HETATM   13  N   UNK     1     -11.801  12.888  70.415  1.00  0.00    -0.546 N  
HETATM   14  H   UNK     1     -11.215  12.511  69.669  1.00  0.00     0.000 HD 
BRANCH  13  15
HETATM   15  C   UNK     1     -11.802  14.316  70.667  1.00  0.00    -0.281 C  
BRANCH  15  16
HETATM   16  C   UNK     1     -11.500  15.138  69.412  1.00  0.00    -0.322 C  
BRANCH  16  17
HETATM   17  C   UNK     1     -10.991  14.254  68.274  1.00  0.00    -0.261 C  
BRANCH  17  18
HETATM   18  C   UNK     1     -12.025  14.087  67.151  1.00  0.00    -0.465 C  
BRANCH  18  19
HETATM   19  C   UNK     1     -11.899  12.755  66.397  1.00  0.00    -0.408 C  
HETATM   20  N   UNK     1     -11.663  11.621  67.338  1.00  0.00    -0.606 NA 
HETATM   21  C   UNK     1     -10.729  12.812  65.401  1.00  0.00    -0.284 C  
HETATM   22  O   UNK     1     -10.758  13.346  64.309  1.00  0.00    -0.407 OA 
HETATM   23  O   UNK     1      -9.618  12.219  65.921  1.00  0.00    -0.240 OA 
HETATM   24  H1  UNK     1     -11.580  10.737  66.837  1.00  0.00     0.000 HD 
HETATM   25  H2  UNK     1     -12.384  11.577  68.059  1.00  0.00     0.000 HD 
ENDBRANCH  18  19
ENDBRANCH  17  18
ENDBRANCH  16  17
ENDBRANCH  15  16
ENDBRANCH  13  15
ENDBRANCH  10  11
ENDBRANCH   9  10
ENDBRANCH   8   9
ENDBRANCH   7   8
ENDBRANCH   6   7
ENDBRANCH   5   6
ENDBRANCH   4   5
ENDBRANCH   3   4
ENDBRANCH   2   3
TORSDOF 14
ENDMDL
MODEL      149
REMARK 921   NORMALIZED FREE ENERGY PREDICTED BY IDOCK:   -4.05 KCAL/MOL
REMARK 922        TOTAL FREE ENERGY PREDICTED BY IDOCK:   -8.30 KCAL/MOL
REMARK 923 INTER-LIGAND FREE ENERGY PREDICTED BY IDOCK:   -7.77 KCAL/MOL
REMARK 924 INTRA-LIGAND FREE ENERGY PREDICTED BY IDOCK:   -0.53 KCAL/MOL
REMARK 927      BINDING AFFINITY PREDICTED BY RF-SCORE:    0.00 PKD
ROOT
HETATM    1  C   UNK     1     -12.354  16.458  73.355  1.00  0.00    -0.464 C  
HETATM    2  O   UNK     1     -12.555  15.143  73.853  1.00  0.00    -0.545 OA 
ENDROOT
BRANCH   2   3
HETATM    3  C   UNK     1     -13.186  14.308  72.882  1.00  0.00    -0.495 C  
BRANCH   3   4
HETATM    4  C   UNK     1     -12.519  14.524  71.528  1.00  0.00    -0.355 C  
BRANCH   4   5
HETATM    5  O   UNK     1     -12.337  13.266  70.884  1.00  0.00    -0.364 OA 
BRANCH   5   6
HETATM    6  C   UNK     1     -13.036  12.224  71.562  1.00  0.00    -0.289 C  
BRANCH   6   7
HETATM    7  C   UNK     1     -12.395  10.886  71.217  1.00  0.00    -0.448 C  
BRANCH   7   8
HETATM    8  C   UNK     1     -12.494  10.562  69.723  1.00  0.00    -0.133 C  
BRANCH   8   9
HETATM    9  C   UNK     1     -11.289  11.120  68.971  1.00  0.00    -0.343 C  
BRANCH   9  10
HETATM   10  C   UNK     1     -11.128  10.497  67.587  1.00  0.00    -0.375 C  
BRANCH  10  11
HETATM   11  C   UNK     1     -10.692  11.536  66.571  1.00  0.00    -0.273 C  
HETATM   12  O   UNK     1      -9.531  11.677  66.198  1.00  0.00    -0.213 OA 
HETATM   13  N   UNK     1     -11.729  12.313  66.105  1.00  0.00    -0.397 N  
HETATM   14  H   UNK     1     -12.666  12.178  66.483  1.00  0.00     0.000 HD 
BRANCH  13  15
HETATM   15  C   UNK     1     -11.509  13.321  65.086  1.00  0.00    -0.295 C  
BRANCH  15  16
HETATM   16  C   UNK     1     -11.650  14.747  65.626  1.00  0.00    -0.290 C  
BRANCH  16  17
HETATM   17  C   UNK     1     -10.311  15.292  66.120  1.00  0.00    -0.314 C  
BRANCH  17  18
HETATM   18  C   UNK     1     -10.477  16.490  67.066  1.00  0.00    -0.289 C  
BRANCH  18  19
HETATM   19  C   UNK     1      -9.839  17.783  66.535  1.00  0.00    -0.329 C  
HETATM   20  N   UNK     1      -8.440  17.544  66.073  1.00  0.00    -0.532 NA 
HETATM   21  C   UNK     1      -9.812  18.858  67.633  1.00  0.00    -0.331 C  
HETATM   22  O   UNK     1     -10.757  19.546  67.969  1.00  0.00    -0.385 OA 
HETATM   23  O   UNK     1      -8.588  18.915  68.228  1.00  0.00    -0.307 OA 
HETATM   24  H1  UNK     1      -8.017  18.402  65.720  1.00  0.00     0.000 HD 
HETATM   25  H2  UNK     1      -8.396  16.794  65.383  1.00  0.00     0.000 HD 
ENDBRANCH  18  19
ENDBRANCH  17  18
ENDBRANCH  16  17
ENDBRANCH  15  16
ENDBRANCH  13  15
ENDBRANCH  10  11
ENDBRANCH   9  10
ENDBRANCH   8   9
ENDBRANCH   7   8
ENDBRANCH   6   7
ENDBRANCH   5   6
ENDBRANCH   4   5
ENDBRANCH   3   4
ENDBRANCH   2   3
TORSDOF 14
ENDMDL
MODEL      150
REMARK 921   NORMALIZED FREE ENERGY PREDICTED BY IDOCK:   -4.04 KCAL/MOL
REMARK 922        TOTAL FREE ENERGY PREDICTED BY IDOCK:   -8.28 KCAL/MOL
REMARK 923 INTER-LIGAND FREE ENERGY PREDICTED BY IDOCK:   -7.76 KCAL/MOL
REMARK 924 INTRA-LIGAND FREE ENERGY PREDICTED BY IDOCK:   -0.51 KCAL/MOL
REMARK 927      BINDING AFFINITY PREDICTED BY RF-SCORE:    0.00 PKD
ROOT
HETATM    1  C   UNK     1     -10.180   7.691  66.967  1.00  0.00    -0.300 C  
HETATM    2  O   UNK     1      -9.859   6.886  68.093  1.00  0.00    -0.133 OA 
ENDROOT
BRANCH   2   3
HETATM    3  C   UNK     1     -10.928   5.997  68.420  1.00  0.00    -0.251 C  
BRANCH   3   4
HETATM    4  C   UNK     1     -11.222   6.099  69.912  1.00  0.00    -0.414 C  
BRANCH   4   5
HETATM    5  O   UNK     1     -11.460   7.462  70.255  1.00  0.00    -0.261 OA 
BRANCH   5   6
HETATM    6  C   UNK     1     -12.079   7.580  71.535  1.00  0.00    -0.316 C  
BRANCH   6   7
HETATM    7  C   UNK     1     -11.893   9.001  72.050  1.00  0.00    -0.426 C  
BRANCH   7   8
HETATM    8  C   UNK     1     -13.055   9.919  71.658  1.00  0.00    -0.538 C  
BRANCH   8   9
HETATM    9  C   UNK     1     -12.537  11.293  71.241  1.00  0.00    -0.487 C  
BRANCH   9  10
HETATM   10  C   UNK     1     -13.267  12.429  71.951  1.00  0.00    -0.486 C  
BRANCH  10  11
HETATM   11  C   UNK     1     -13.017  13.755  71.255  1.00  0.00    -0.334 C  
HETATM   12  O   UNK     1     -13.657  14.775  71.488  1.00  0.00    -0.365 OA 
HETATM   13  N   UNK     1     -11.999  13.702  70.330  1.00  0.00    -0.446 N  
HETATM   14  H   UNK     1     -11.530  12.813  70.150  1.00  0.00     0.000 HD 
BRANCH  13  15
HETATM   15  C   UNK     1     -11.581  14.888  69.608  1.00  0.00    -0.303 C  
BRANCH  15  16
HETATM   16  C   UNK     1     -10.276  14.681  68.837  1.00  0.00    -0.241 C  
BRANCH  16  17
HETATM   17  C   UNK     1     -10.022  15.822  67.852  1.00  0.00    -0.227 C  
BRANCH  17  18
HETATM   18  C   UNK     1     -10.549  17.170  68.365  1.00  0.00    -0.371 C  
BRANCH  18  19
HETATM   19  C   UNK     1     -10.615  18.254  67.280  1.00  0.00    -0.381 C  
HETATM   20  N   UNK     1      -9.959  17.798  66.019  1.00  0.00    -0.534 NA 
HETATM   21  C   UNK     1      -9.914  19.536  67.757  1.00  0.00    -0.381 C  
HETATM   22  O   UNK     1     -10.391  20.362  68.511  1.00  0.00    -0.278 OA 
HETATM   23  O   UNK     1      -8.647  19.611  67.260  1.00  0.00    -0.289 OA 
HETATM   24  H1  UNK     1     -10.003  18.517  65.298  1.00  0.00     0.000 HD 
HETATM   25  H2  UNK     1     -10.350  16.914  65.692  1.00  0.00     0.000 HD 
ENDBRANCH  18  19
ENDBRANCH  17  18
ENDBRANCH  16  17
ENDBRANCH  15  16
ENDBRANCH  13  15
ENDBRANCH  10  11
ENDBRANCH   9  10
ENDBRANCH   8   9
ENDBRANCH   7   8
ENDBRANCH   6   7
ENDBRANCH   5   6
ENDBRANCH   4   5
ENDBRANCH   3   4
ENDBRANCH   2   3
TORSDOF 14
ENDMDL
MODEL      151
REMARK 921   NORMALIZED FREE ENERGY PREDICTED BY IDOCK:   -4.03 KCAL/MOL
REMARK 922        TOTAL FREE ENERGY PREDICTED BY IDOCK:   -8.26 KCAL/MOL
REMARK 923 INTER-LIGAND FREE ENERGY PREDICTED BY IDOCK:   -7.43 KCAL/MOL
REMARK 924 INTRA-LIGAND FREE ENERGY PREDICTED BY IDOCK:   -0.83 KCAL/MOL
REMARK 927      BINDING AFFINITY PREDICTED BY RF-SCORE:    0.00 PKD
ROOT
HETATM    1  C   UNK     1      -8.985   5.190  73.653  1.00  0.00    -0.121 C  
HETATM    2  O   UNK     1      -8.941   6.395  72.901  1.00  0.00    -0.131 OA 
ENDROOT
BRANCH   2   3
HETATM    3  C   UNK     1      -9.700   7.430  73.529  1.00  0.00    -0.288 C  
BRANCH   3   4
HETATM    4  C   UNK     1     -11.128   7.392  72.999  1.00  0.00    -0.343 C  
BRANCH   4   5
HETATM    5  O   UNK     1     -11.353   8.526  72.165  1.00  0.00    -0.328 OA 
BRANCH   5   6
HETATM    6  C   UNK     1     -11.165   8.208  70.787  1.00  0.00    -0.261 C  
BRANCH   6   7
HETATM    7  C   UNK     1     -11.783   6.846  70.500  1.00  0.00    -0.401 C  
BRANCH   7   8
HETATM    8  C   UNK     1     -10.967   6.039  69.485  1.00  0.00    -0.467 C  
BRANCH   8   9
HETATM    9  C   UNK     1     -11.273   6.500  68.062  1.00  0.00    -0.251 C  
BRANCH   9  10
HETATM   10  C   UNK     1     -10.054   6.407  67.148  1.00  0.00    -0.217 C  
BRANCH  10  11
HETATM   11  C   UNK     1      -9.540   7.789  66.786  1.00  0.00    -0.212 C  
HETATM   12  O   UNK     1      -9.715   8.783  67.484  1.00  0.00    -0.153 OA 
HETATM   13  N   UNK     1      -8.858   7.822  65.591  1.00  0.00    -0.334 N  
HETATM   14  H   UNK     1      -8.781   6.971  65.034  1.00  0.00     0.000 HD 
BRANCH  13  15
HETATM   15  C   UNK     1      -8.247   9.046  65.112  1.00  0.00    -0.145 C  
BRANCH  15  16
HETATM   16  C   UNK     1      -9.031   9.689  63.965  1.00  0.00    -0.261 C  
BRANCH  16  17
HETATM   17  C   UNK     1     -10.065  10.687  64.486  1.00  0.00    -0.421 C  
BRANCH  17  18
HETATM   18  C   UNK     1     -10.152  11.950  63.618  1.00  0.00    -0.450 C  
BRANCH  18  19
HETATM   19  C   UNK     1     -10.751  13.158  64.353  1.00  0.00    -0.407 C  
HETATM   20  N   UNK     1     -10.649  12.994  65.833  1.00  0.00    -0.271 NA 
HETATM   21  C   UNK     1     -12.233  13.331  63.984  1.00  0.00    -0.410 C  
HETATM   22  O   UNK     1     -12.650  13.838  62.960  1.00  0.00    -0.721 OA 
HETATM   23  O   UNK     1     -13.039  12.793  64.941  1.00  0.00    -0.833 OA 
HETATM   24  H1  UNK     1     -11.046  13.796  66.322  1.00  0.00     0.000 HD 
HETATM   25  H2  UNK     1      -9.688  12.817  66.125  1.00  0.00     0.000 HD 
ENDBRANCH  18  19
ENDBRANCH  17  18
ENDBRANCH  16  17
ENDBRANCH  15  16
ENDBRANCH  13  15
ENDBRANCH  10  11
ENDBRANCH   9  10
ENDBRANCH   8   9
ENDBRANCH   7   8
ENDBRANCH   6   7
ENDBRANCH   5   6
ENDBRANCH   4   5
ENDBRANCH   3   4
ENDBRANCH   2   3
TORSDOF 14
ENDMDL
MODEL      152
REMARK 921   NORMALIZED FREE ENERGY PREDICTED BY IDOCK:   -4.03 KCAL/MOL
REMARK 922        TOTAL FREE ENERGY PREDICTED BY IDOCK:   -8.26 KCAL/MOL
REMARK 923 INTER-LIGAND FREE ENERGY PREDICTED BY IDOCK:   -7.88 KCAL/MOL
REMARK 924 INTRA-LIGAND FREE ENERGY PREDICTED BY IDOCK:   -0.38 KCAL/MOL
REMARK 927      BINDING AFFINITY PREDICTED BY RF-SCORE:    0.00 PKD
ROOT
HETATM    1  C   UNK     1     -10.122  19.596  68.549  1.00  0.00    -0.453 C  
HETATM    2  O   UNK     1     -10.876  19.589  67.345  1.00  0.00    -0.486 OA 
ENDROOT
BRANCH   2   3
HETATM    3  C   UNK     1     -10.042  19.362  66.208  1.00  0.00    -0.456 C  
BRANCH   3   4
HETATM    4  C   UNK     1      -9.519  17.931  66.250  1.00  0.00    -0.220 C  
BRANCH   4   5
HETATM    5  O   UNK     1     -10.393  17.086  65.505  1.00  0.00    -0.585 OA 
BRANCH   5   6
HETATM    6  C   UNK     1     -10.438  15.769  66.050  1.00  0.00    -0.338 C  
BRANCH   6   7
HETATM    7  C   UNK     1     -11.090  14.833  65.041  1.00  0.00    -0.412 C  
BRANCH   7   8
HETATM    8  C   UNK     1     -12.348  14.160  65.600  1.00  0.00    -0.473 C  
BRANCH   8   9
HETATM    9  C   UNK     1     -12.223  12.641  65.525  1.00  0.00    -0.501 C  
BRANCH   9  10
HETATM   10  C   UNK     1     -10.769  12.182  65.443  1.00  0.00    -0.323 C  
BRANCH  10  11
HETATM   11  C   UNK     1     -10.308  11.597  66.765  1.00  0.00    -0.222 C  
HETATM   12  O   UNK     1      -9.189  11.778  67.234  1.00  0.00    -0.167 OA 
HETATM   13  N   UNK     1     -11.271  10.837  67.390  1.00  0.00    -0.296 N  
HETATM   14  H   UNK     1     -12.169  10.688  66.931  1.00  0.00     0.000 HD 
BRANCH  13  15
HETATM   15  C   UNK     1     -11.028  10.244  68.691  1.00  0.00    -0.244 C  
BRANCH  15  16
HETATM   16  C   UNK     1     -11.863  10.890  69.800  1.00  0.00    -0.419 C  
BRANCH  16  17
HETATM   17  C   UNK     1     -12.183   9.892  70.912  1.00  0.00    -0.420 C  
BRANCH  17  18
HETATM   18  C   UNK     1     -10.920   9.307  71.559  1.00  0.00    -0.446 C  
BRANCH  18  19
HETATM   19  C   UNK     1     -10.990   7.789  71.777  1.00  0.00    -0.239 C  
HETATM   20  N   UNK     1      -9.861   7.092  71.093  1.00  0.00    -0.179 NA 
HETATM   21  C   UNK     1     -12.312   7.228  71.228  1.00  0.00    -0.366 C  
HETATM   22  O   UNK     1     -13.390   7.287  71.789  1.00  0.00    -0.350 OA 
HETATM   23  O   UNK     1     -12.135   6.688  69.990  1.00  0.00    -0.280 OA 
HETATM   24  H1  UNK     1      -9.907   6.084  71.238  1.00  0.00     0.000 HD 
HETATM   25  H2  UNK     1      -8.958   7.471  71.380  1.00  0.00     0.000 HD 
ENDBRANCH  18  19
ENDBRANCH  17  18
ENDBRANCH  16  17
ENDBRANCH  15  16
ENDBRANCH  13  15
ENDBRANCH  10  11
ENDBRANCH   9  10
ENDBRANCH   8   9
ENDBRANCH   7   8
ENDBRANCH   6   7
ENDBRANCH   5   6
ENDBRANCH   4   5
ENDBRANCH   3   4
ENDBRANCH   2   3
TORSDOF 14
ENDMDL
MODEL      153
REMARK 921   NORMALIZED FREE ENERGY PREDICTED BY IDOCK:   -4.03 KCAL/MOL
REMARK 922        TOTAL FREE ENERGY PREDICTED BY IDOCK:   -8.25 KCAL/MOL
REMARK 923 INTER-LIGAND FREE ENERGY PREDICTED BY IDOCK:   -7.24 KCAL/MOL
REMARK 924 INTRA-LIGAND FREE ENERGY PREDICTED BY IDOCK:   -1.01 KCAL/MOL
REMARK 927      BINDING AFFINITY PREDICTED BY RF-SCORE:    0.00 PKD
ROOT
HETATM    1  C   UNK     1     -10.458  14.300  68.441  1.00  0.00    -0.249 C  
HETATM    2  O   UNK     1     -11.688  14.994  68.591  1.00  0.00    -0.329 OA 
ENDROOT
BRANCH   2   3
HETATM    3  C   UNK     1     -11.568  16.073  69.519  1.00  0.00    -0.304 C  
BRANCH   3   4
HETATM    4  C   UNK     1     -11.647  15.522  70.938  1.00  0.00    -0.375 C  
BRANCH   4   5
HETATM    5  O   UNK     1     -12.933  15.805  71.485  1.00  0.00    -0.470 OA 
BRANCH   5   6
HETATM    6  C   UNK     1     -13.793  14.670  71.416  1.00  0.00    -0.403 C  
BRANCH   6   7
HETATM    7  C   UNK     1     -13.446  13.711  72.547  1.00  0.00    -0.675 C  
BRANCH   7   8
HETATM    8  C   UNK     1     -13.399  12.252  72.079  1.00  0.00    -0.491 C  
BRANCH   8   9
HETATM    9  C   UNK     1     -12.417  12.090  70.923  1.00  0.00    -0.384 C  
BRANCH   9  10
HETATM   10  C   UNK     1     -12.619  10.777  70.170  1.00  0.00    -0.309 C  
BRANCH  10  11
HETATM   11  C   UNK     1     -11.618   9.731  70.625  1.00  0.00    -0.313 C  
HETATM   12  O   UNK     1     -10.585   9.469  70.017  1.00  0.00    -0.211 OA 
HETATM   13  N   UNK     1     -11.984   9.097  71.791  1.00  0.00    -0.358 N  
HETATM   14  H   UNK     1     -12.876   9.328  72.229  1.00  0.00     0.000 HD 
BRANCH  13  15
HETATM   15  C   UNK     1     -11.122   8.107  72.407  1.00  0.00    -0.369 C  
BRANCH  15  16
HETATM   16  C   UNK     1     -11.541   6.672  72.076  1.00  0.00    -0.341 C  
BRANCH  16  17
HETATM   17  C   UNK     1     -10.373   5.866  71.510  1.00  0.00    -0.273 C  
BRANCH  17  18
HETATM   18  C   UNK     1     -10.706   5.217  70.158  1.00  0.00    -0.217 C  
BRANCH  18  19
HETATM   19  C   UNK     1     -10.235   6.042  68.951  1.00  0.00    -0.196 C  
HETATM   20  N   UNK     1     -11.325   6.924  68.441  1.00  0.00    -0.526 NA 
HETATM   21  C   UNK     1      -9.786   5.115  67.810  1.00  0.00    -0.156 C  
HETATM   22  O   UNK     1      -8.715   4.542  67.747  1.00  0.00    -0.102 OA 
HETATM   23  O   UNK     1     -10.774   4.971  66.882  1.00  0.00    -0.193 OA 
HETATM   24  H1  UNK     1     -11.013   7.472  67.640  1.00  0.00     0.000 HD 
HETATM   25  H2  UNK     1     -11.700   7.521  69.179  1.00  0.00     0.000 HD 
ENDBRANCH  18  19
ENDBRANCH  17  18
ENDBRANCH  16  17
ENDBRANCH  15  16
ENDBRANCH  13  15
ENDBRANCH  10  11
ENDBRANCH   9  10
ENDBRANCH   8   9
ENDBRANCH   7   8
ENDBRANCH   6   7
ENDBRANCH   5   6
ENDBRANCH   4   5
ENDBRANCH   3   4
ENDBRANCH   2   3
TORSDOF 14
ENDMDL
MODEL      154
REMARK 921   NORMALIZED FREE ENERGY PREDICTED BY IDOCK:   -4.01 KCAL/MOL
REMARK 922        TOTAL FREE ENERGY PREDICTED BY IDOCK:   -8.22 KCAL/MOL
REMARK 923 INTER-LIGAND FREE ENERGY PREDICTED BY IDOCK:   -7.35 KCAL/MOL
REMARK 924 INTRA-LIGAND FREE ENERGY PREDICTED BY IDOCK:   -0.87 KCAL/MOL
REMARK 927      BINDING AFFINITY PREDICTED BY RF-SCORE:    0.00 PKD
ROOT
HETATM    1  C   UNK     1     -12.907  13.796  65.835  1.00  0.00    -0.315 C  
HETATM    2  O   UNK     1     -12.843  14.341  64.525  1.00  0.00    -0.637 OA 
ENDROOT
BRANCH   2   3
HETATM    3  C   UNK     1     -11.931  13.615  63.701  1.00  0.00    -0.321 C  
BRANCH   3   4
HETATM    4  C   UNK     1     -12.455  12.198  63.505  1.00  0.00    -0.555 C  
BRANCH   4   5
HETATM    5  O   UNK     1     -11.361  11.283  63.516  1.00  0.00    -0.314 OA 
BRANCH   5   6
HETATM    6  C   UNK     1     -10.277  11.774  64.301  1.00  0.00    -0.302 C  
BRANCH   6   7
HETATM    7  C   UNK     1      -9.853  10.700  65.294  1.00  0.00    -0.334 C  
BRANCH   7   8
HETATM    8  C   UNK     1     -10.751  10.668  66.536  1.00  0.00    -0.218 C  
BRANCH   8   9
HETATM    9  C   UNK     1     -10.522   9.386  67.331  1.00  0.00    -0.343 C  
BRANCH   9  10
HETATM   10  C   UNK     1      -9.105   8.844  67.163  1.00  0.00    -0.160 C  
BRANCH  10  11
HETATM   11  C   UNK     1      -8.562   8.325  68.482  1.00  0.00    -0.133 C  
HETATM   12  O   UNK     1      -7.365   8.207  68.724  1.00  0.00    -0.084 OA 
HETATM   13  N   UNK     1      -9.546   7.994  69.385  1.00  0.00    -0.160 N  
HETATM   14  H   UNK     1     -10.526   8.074  69.111  1.00  0.00     0.000 HD 
BRANCH  13  15
HETATM   15  C   UNK     1      -9.214   7.534  70.719  1.00  0.00    -0.158 C  
BRANCH  15  16
HETATM   16  C   UNK     1      -9.492   8.587  71.794  1.00  0.00    -0.328 C  
BRANCH  16  17
HETATM   17  C   UNK     1     -10.433   8.050  72.873  1.00  0.00    -0.402 C  
BRANCH  17  18
HETATM   18  C   UNK     1     -11.882   7.924  72.380  1.00  0.00    -0.402 C  
BRANCH  18  19
HETATM   19  C   UNK     1     -12.706   9.206  72.568  1.00  0.00    -0.282 C  
HETATM   20  N   UNK     1     -14.107   8.893  72.975  1.00  0.00    -1.139 NA 
HETATM   21  C   UNK     1     -12.748  10.013  71.261  1.00  0.00    -0.399 C  
HETATM   22  O   UNK     1     -11.858  10.731  70.846  1.00  0.00    -0.326 OA 
HETATM   23  O   UNK     1     -13.909   9.786  70.585  1.00  0.00    -0.036 OA 
HETATM   24  H1  UNK     1     -14.654   9.744  73.100  1.00  0.00     0.000 HD 
HETATM   25  H2  UNK     1     -14.132   8.305  73.809  1.00  0.00     0.000 HD 
ENDBRANCH  18  19
ENDBRANCH  17  18
ENDBRANCH  16  17
ENDBRANCH  15  16
ENDBRANCH  13  15
ENDBRANCH  10  11
ENDBRANCH   9  10
ENDBRANCH   8   9
ENDBRANCH   7   8
ENDBRANCH   6   7
ENDBRANCH   5   6
ENDBRANCH   4   5
ENDBRANCH   3   4
ENDBRANCH   2   3
TORSDOF 14
ENDMDL
MODEL      155
REMARK 921   NORMALIZED FREE ENERGY PREDICTED BY IDOCK:   -4.00 KCAL/MOL
REMARK 922        TOTAL FREE ENERGY PREDICTED BY IDOCK:   -8.21 KCAL/MOL
REMARK 923 INTER-LIGAND FREE ENERGY PREDICTED BY IDOCK:   -7.31 KCAL/MOL
REMARK 924 INTRA-LIGAND FREE ENERGY PREDICTED BY IDOCK:   -0.90 KCAL/MOL
REMARK 927      BINDING AFFINITY PREDICTED BY RF-SCORE:    0.00 PKD
ROOT
HETATM    1  C   UNK     1      -8.425   7.537  74.174  1.00  0.00    -0.218 C  
HETATM    2  O   UNK     1      -8.461   6.132  74.377  1.00  0.00    -0.118 OA 
ENDROOT
BRANCH   2   3
HETATM    3  C   UNK     1      -9.205   5.475  73.351  1.00  0.00    -0.131 C  
BRANCH   3   4
HETATM    4  C   UNK     1     -10.595   5.141  73.878  1.00  0.00    -0.293 C  
BRANCH   4   5
HETATM    5  O   UNK     1     -11.534   5.201  72.807  1.00  0.00    -0.268 OA 
BRANCH   5   6
HETATM    6  C   UNK     1     -11.063   6.026  71.744  1.00  0.00    -0.276 C  
BRANCH   6   7
HETATM    7  C   UNK     1     -12.208   6.897  71.243  1.00  0.00    -0.427 C  
BRANCH   7   8
HETATM    8  C   UNK     1     -12.440   8.122  72.135  1.00  0.00    -0.364 C  
BRANCH   8   9
HETATM    9  C   UNK     1     -11.325   9.146  71.942  1.00  0.00    -0.416 C  
BRANCH   9  10
HETATM   10  C   UNK     1     -11.544  10.016  70.707  1.00  0.00    -0.444 C  
BRANCH  10  11
HETATM   11  C   UNK     1     -10.353   9.938  69.770  1.00  0.00    -0.246 C  
HETATM   12  O   UNK     1      -9.856   8.882  69.390  1.00  0.00    -0.175 OA 
HETATM   13  N   UNK     1      -9.879  11.172  69.385  1.00  0.00    -0.425 N  
HETATM   14  H   UNK     1     -10.308  12.015  69.767  1.00  0.00     0.000 HD 
BRANCH  13  15
HETATM   15  C   UNK     1      -8.781  11.292  68.446  1.00  0.00    -0.159 C  
BRANCH  15  16
HETATM   16  C   UNK     1      -9.161  12.080  67.190  1.00  0.00    -0.190 C  
BRANCH  16  17
HETATM   17  C   UNK     1     -10.141  11.298  66.315  1.00  0.00    -0.271 C  
BRANCH  17  18
HETATM   18  C   UNK     1     -10.725  12.151  65.180  1.00  0.00    -0.333 C  
BRANCH  18  19
HETATM   19  C   UNK     1     -12.012  12.893  65.572  1.00  0.00    -0.436 C  
HETATM   20  N   UNK     1     -13.153  12.494  64.697  1.00  0.00    -0.837 NA 
HETATM   21  C   UNK     1     -11.814  14.412  65.451  1.00  0.00    -0.366 C  
HETATM   22  O   UNK     1     -11.245  15.116  66.264  1.00  0.00    -0.337 OA 
HETATM   23  O   UNK     1     -12.322  14.877  64.276  1.00  0.00    -0.579 OA 
HETATM   24  H1  UNK     1     -14.008  12.986  64.957  1.00  0.00     0.000 HD 
HETATM   25  H2  UNK     1     -13.289  11.483  64.695  1.00  0.00     0.000 HD 
ENDBRANCH  18  19
ENDBRANCH  17  18
ENDBRANCH  16  17
ENDBRANCH  15  16
ENDBRANCH  13  15
ENDBRANCH  10  11
ENDBRANCH   9  10
ENDBRANCH   8   9
ENDBRANCH   7   8
ENDBRANCH   6   7
ENDBRANCH   5   6
ENDBRANCH   4   5
ENDBRANCH   3   4
ENDBRANCH   2   3
TORSDOF 14
ENDMDL
MODEL      156
REMARK 921   NORMALIZED FREE ENERGY PREDICTED BY IDOCK:   -4.00 KCAL/MOL
REMARK 922        TOTAL FREE ENERGY PREDICTED BY IDOCK:   -8.20 KCAL/MOL
REMARK 923 INTER-LIGAND FREE ENERGY PREDICTED BY IDOCK:   -6.94 KCAL/MOL
REMARK 924 INTRA-LIGAND FREE ENERGY PREDICTED BY IDOCK:   -1.25 KCAL/MOL
REMARK 927      BINDING AFFINITY PREDICTED BY RF-SCORE:    0.00 PKD
ROOT
HETATM    1  C   UNK     1     -12.788  15.786  73.131  1.00  0.00    -0.522 C  
HETATM    2  O   UNK     1     -13.444  14.538  73.306  1.00  0.00    -0.581 OA 
ENDROOT
BRANCH   2   3
HETATM    3  C   UNK     1     -13.576  13.840  72.067  1.00  0.00    -0.479 C  
BRANCH   3   4
HETATM    4  C   UNK     1     -13.162  14.763  70.927  1.00  0.00    -0.356 C  
BRANCH   4   5
HETATM    5  O   UNK     1     -12.524  13.998  69.907  1.00  0.00    -0.333 OA 
BRANCH   5   6
HETATM    6  C   UNK     1     -11.687  14.812  69.089  1.00  0.00    -0.313 C  
BRANCH   6   7
HETATM    7  C   UNK     1     -11.772  14.324  67.648  1.00  0.00    -0.421 C  
BRANCH   7   8
HETATM    8  C   UNK     1     -10.726  13.249  67.335  1.00  0.00    -0.266 C  
BRANCH   8   9
HETATM    9  C   UNK     1     -11.403  11.932  66.968  1.00  0.00    -0.392 C  
BRANCH   9  10
HETATM   10  C   UNK     1     -10.516  11.045  66.098  1.00  0.00    -0.301 C  
BRANCH  10  11
HETATM   11  C   UNK     1      -9.984   9.865  66.890  1.00  0.00    -0.212 C  
HETATM   12  O   UNK     1     -10.469   8.739  66.837  1.00  0.00    -0.285 OA 
HETATM   13  N   UNK     1      -8.901  10.180  67.679  1.00  0.00    -0.125 N  
HETATM   14  H   UNK     1      -8.569  11.144  67.713  1.00  0.00     0.000 HD 
BRANCH  13  15
HETATM   15  C   UNK     1      -8.226   9.165  68.463  1.00  0.00    -0.115 C  
BRANCH  15  16
HETATM   16  C   UNK     1      -7.899   9.634  69.883  1.00  0.00    -0.157 C  
BRANCH  16  17
HETATM   17  C   UNK     1      -9.035   9.313  70.853  1.00  0.00    -0.273 C  
BRANCH  17  18
HETATM   18  C   UNK     1      -9.737   7.989  70.519  1.00  0.00    -0.179 C  
BRANCH  18  19
HETATM   19  C   UNK     1     -11.239   8.146  70.240  1.00  0.00    -0.182 C  
HETATM   20  N   UNK     1     -11.566   9.539  69.815  1.00  0.00    -0.446 NA 
HETATM   21  C   UNK     1     -12.056   7.817  71.500  1.00  0.00    -0.309 C  
HETATM   22  O   UNK     1     -12.320   6.699  71.897  1.00  0.00    -0.342 OA 
HETATM   23  O   UNK     1     -12.417   8.955  72.157  1.00  0.00    -0.358 OA 
HETATM   24  H1  UNK     1     -12.563   9.644  69.629  1.00  0.00     0.000 HD 
HETATM   25  H2  UNK     1     -11.004   9.828  69.014  1.00  0.00     0.000 HD 
ENDBRANCH  18  19
ENDBRANCH  17  18
ENDBRANCH  16  17
ENDBRANCH  15  16
ENDBRANCH  13  15
ENDBRANCH  10  11
ENDBRANCH   9  10
ENDBRANCH   8   9
ENDBRANCH   7   8
ENDBRANCH   6   7
ENDBRANCH   5   6
ENDBRANCH   4   5
ENDBRANCH   3   4
ENDBRANCH   2   3
TORSDOF 14
ENDMDL
MODEL      157
REMARK 921   NORMALIZED FREE ENERGY PREDICTED BY IDOCK:   -3.99 KCAL/MOL
REMARK 922        TOTAL FREE ENERGY PREDICTED BY IDOCK:   -8.19 KCAL/MOL
REMARK 923 INTER-LIGAND FREE ENERGY PREDICTED BY IDOCK:   -7.50 KCAL/MOL
REMARK 924 INTRA-LIGAND FREE ENERGY PREDICTED BY IDOCK:   -0.69 KCAL/MOL
REMARK 927      BINDING AFFINITY PREDICTED BY RF-SCORE:    0.00 PKD
ROOT
HETATM    1  C   UNK     1      -7.971  11.269  66.636  1.00  0.00    -0.159 C  
HETATM    2  O   UNK     1      -9.154  10.483  66.650  1.00  0.00    -0.152 OA 
ENDROOT
BRANCH   2   3
HETATM    3  C   UNK     1     -10.177  11.066  65.843  1.00  0.00    -0.254 C  
BRANCH   3   4
HETATM    4  C   UNK     1     -10.427  12.495  66.308  1.00  0.00    -0.246 C  
BRANCH   4   5
HETATM    5  O   UNK     1     -11.598  13.002  65.672  1.00  0.00    -0.325 OA 
BRANCH   5   6
HETATM    6  C   UNK     1     -12.225  14.014  66.457  1.00  0.00    -0.451 C  
BRANCH   6   7
HETATM    7  C   UNK     1     -11.175  14.692  67.327  1.00  0.00    -0.344 C  
BRANCH   7   8
HETATM    8  C   UNK     1     -11.763  15.231  68.636  1.00  0.00    -0.367 C  
BRANCH   8   9
HETATM    9  C   UNK     1     -12.121  14.084  69.576  1.00  0.00    -0.397 C  
BRANCH   9  10
HETATM   10  C   UNK     1     -12.721  14.577  70.891  1.00  0.00    -0.411 C  
BRANCH  10  11
HETATM   11  C   UNK     1     -13.282  13.421  71.699  1.00  0.00    -0.364 C  
HETATM   12  O   UNK     1     -14.149  13.550  72.558  1.00  0.00    -0.731 OA 
HETATM   13  N   UNK     1     -12.721  12.206  71.376  1.00  0.00    -0.327 N  
HETATM   14  H   UNK     1     -11.974  12.167  70.682  1.00  0.00     0.000 HD 
BRANCH  13  15
HETATM   15  C   UNK     1     -13.174  10.981  72.005  1.00  0.00    -0.342 C  
BRANCH  15  16
HETATM   16  C   UNK     1     -12.923   9.744  71.140  1.00  0.00    -0.431 C  
BRANCH  16  17
HETATM   17  C   UNK     1     -12.450   8.560  71.983  1.00  0.00    -0.417 C  
BRANCH  17  18
HETATM   18  C   UNK     1     -12.352   7.261  71.170  1.00  0.00    -0.381 C  
BRANCH  18  19
HETATM   19  C   UNK     1     -11.661   6.116  71.925  1.00  0.00    -0.279 C  
HETATM   20  N   UNK     1     -11.255   6.542  73.297  1.00  0.00    -0.479 NA 
HETATM   21  C   UNK     1     -10.406   5.653  71.168  1.00  0.00    -0.232 C  
HETATM   22  O   UNK     1     -10.399   4.922  70.196  1.00  0.00    -0.265 OA 
HETATM   23  O   UNK     1      -9.283   6.213  71.699  1.00  0.00    -0.146 OA 
HETATM   24  H1  UNK     1     -10.797   5.782  73.799  1.00  0.00     0.000 HD 
HETATM   25  H2  UNK     1     -12.046   6.915  73.823  1.00  0.00     0.000 HD 
ENDBRANCH  18  19
ENDBRANCH  17  18
ENDBRANCH  16  17
ENDBRANCH  15  16
ENDBRANCH  13  15
ENDBRANCH  10  11
ENDBRANCH   9  10
ENDBRANCH   8   9
ENDBRANCH   7   8
ENDBRANCH   6   7
ENDBRANCH   5   6
ENDBRANCH   4   5
ENDBRANCH   3   4
ENDBRANCH   2   3
TORSDOF 14
ENDMDL
MODEL      158
REMARK 921   NORMALIZED FREE ENERGY PREDICTED BY IDOCK:   -3.99 KCAL/MOL
REMARK 922        TOTAL FREE ENERGY PREDICTED BY IDOCK:   -8.18 KCAL/MOL
REMARK 923 INTER-LIGAND FREE ENERGY PREDICTED BY IDOCK:   -7.57 KCAL/MOL
REMARK 924 INTRA-LIGAND FREE ENERGY PREDICTED BY IDOCK:   -0.61 KCAL/MOL
REMARK 927      BINDING AFFINITY PREDICTED BY RF-SCORE:    0.00 PKD
ROOT
HETATM    1  C   UNK     1      -8.498  18.857  67.182  1.00  0.00    -0.276 C  
HETATM    2  O   UNK     1      -9.047  19.231  65.927  1.00  0.00    -0.429 OA 
ENDROOT
BRANCH   2   3
HETATM    3  C   UNK     1     -10.412  18.829  65.812  1.00  0.00    -0.271 C  
BRANCH   3   4
HETATM    4  C   UNK     1     -10.482  17.307  65.766  1.00  0.00    -0.229 C  
BRANCH   4   5
HETATM    5  O   UNK     1     -10.914  16.893  64.472  1.00  0.00    -0.989 OA 
BRANCH   5   6
HETATM    6  C   UNK     1     -11.556  15.620  64.517  1.00  0.00    -0.262 C  
BRANCH   6   7
HETATM    7  C   UNK     1     -10.586  14.591  65.080  1.00  0.00    -0.429 C  
BRANCH   7   8
HETATM    8  C   UNK     1     -11.039  13.153  64.806  1.00  0.00    -0.351 C  
BRANCH   8   9
HETATM    9  C   UNK     1     -11.209  12.385  66.114  1.00  0.00    -0.364 C  
BRANCH   9  10
HETATM   10  C   UNK     1     -10.554  13.096  67.295  1.00  0.00    -0.250 C  
BRANCH  10  11
HETATM   11  C   UNK     1     -11.485  13.132  68.493  1.00  0.00    -0.303 C  
HETATM   12  O   UNK     1     -12.333  14.001  68.668  1.00  0.00    -0.271 OA 
HETATM   13  N   UNK     1     -11.284  12.091  69.371  1.00  0.00    -0.399 N  
HETATM   14  H   UNK     1     -10.535  11.422  69.193  1.00  0.00     0.000 HD 
BRANCH  13  15
HETATM   15  C   UNK     1     -12.120  11.931  70.545  1.00  0.00    -0.331 C  
BRANCH  15  16
HETATM   16  C   UNK     1     -12.703  10.521  70.667  1.00  0.00    -0.441 C  
BRANCH  16  17
HETATM   17  C   UNK     1     -11.643   9.453  70.400  1.00  0.00    -0.241 C  
BRANCH  17  18
HETATM   18  C   UNK     1     -10.756   9.186  71.625  1.00  0.00    -0.441 C  
BRANCH  18  19
HETATM   19  C   UNK     1     -10.746   7.715  72.065  1.00  0.00    -0.227 C  
HETATM   20  N   UNK     1     -11.835   7.437  73.047  1.00  0.00    -0.548 NA 
HETATM   21  C   UNK     1      -9.400   7.358  72.716  1.00  0.00    -0.156 C  
HETATM   22  O   UNK     1      -8.370   7.113  72.118  1.00  0.00    -0.103 OA 
HETATM   23  O   UNK     1      -9.492   7.398  74.075  1.00  0.00    -0.262 OA 
HETATM   24  H1  UNK     1     -11.829   6.460  73.338  1.00  0.00     0.000 HD 
HETATM   25  H2  UNK     1     -12.747   7.713  72.683  1.00  0.00     0.000 HD 
ENDBRANCH  18  19
ENDBRANCH  17  18
ENDBRANCH  16  17
ENDBRANCH  15  16
ENDBRANCH  13  15
ENDBRANCH  10  11
ENDBRANCH   9  10
ENDBRANCH   8   9
ENDBRANCH   7   8
ENDBRANCH   6   7
ENDBRANCH   5   6
ENDBRANCH   4   5
ENDBRANCH   3   4
ENDBRANCH   2   3
TORSDOF 14
ENDMDL
MODEL      159
REMARK 921   NORMALIZED FREE ENERGY PREDICTED BY IDOCK:   -3.98 KCAL/MOL
REMARK 922        TOTAL FREE ENERGY PREDICTED BY IDOCK:   -8.18 KCAL/MOL
REMARK 923 INTER-LIGAND FREE ENERGY PREDICTED BY IDOCK:   -7.59 KCAL/MOL
REMARK 924 INTRA-LIGAND FREE ENERGY PREDICTED BY IDOCK:   -0.58 KCAL/MOL
REMARK 927      BINDING AFFINITY PREDICTED BY RF-SCORE:    0.00 PKD
ROOT
HETATM    1  C   UNK     1      -9.599   4.043  72.786  1.00  0.00    -0.132 C  
HETATM    2  O   UNK     1     -10.912   4.423  73.173  1.00  0.00    -0.229 OA 
ENDROOT
BRANCH   2   3
HETATM    3  C   UNK     1     -11.070   5.842  73.161  1.00  0.00    -0.221 C  
BRANCH   3   4
HETATM    4  C   UNK     1     -12.002   6.231  72.019  1.00  0.00    -0.300 C  
BRANCH   4   5
HETATM    5  O   UNK     1     -12.006   7.650  71.874  1.00  0.00    -0.277 OA 
BRANCH   5   6
HETATM    6  C   UNK     1     -10.910   8.249  72.561  1.00  0.00    -0.351 C  
BRANCH   6   7
HETATM    7  C   UNK     1     -10.073   9.045  71.568  1.00  0.00    -0.409 C  
BRANCH   7   8
HETATM    8  C   UNK     1     -10.937   9.867  70.605  1.00  0.00    -0.405 C  
BRANCH   8   9
HETATM    9  C   UNK     1     -10.639   9.485  69.158  1.00  0.00    -0.237 C  
BRANCH   9  10
HETATM   10  C   UNK     1     -10.991  10.602  68.179  1.00  0.00    -0.321 C  
BRANCH  10  11
HETATM   11  C   UNK     1      -9.974  10.679  67.054  1.00  0.00    -0.202 C  
HETATM   12  O   UNK     1      -8.780  10.896  67.232  1.00  0.00    -0.130 OA 
HETATM   13  N   UNK     1     -10.524  10.483  65.808  1.00  0.00    -0.190 N  
HETATM   14  H   UNK     1     -11.532  10.348  65.719  1.00  0.00     0.000 HD 
BRANCH  13  15
HETATM   15  C   UNK     1      -9.695  10.464  64.619  1.00  0.00    -0.329 C  
BRANCH  15  16
HETATM   16  C   UNK     1     -10.337  11.199  63.439  1.00  0.00    -0.419 C  
BRANCH  16  17
HETATM   17  C   UNK     1     -10.484  12.693  63.724  1.00  0.00    -0.411 C  
BRANCH  17  18
HETATM   18  C   UNK     1     -11.952  13.134  63.809  1.00  0.00    -0.572 C  
BRANCH  18  19
HETATM   19  C   UNK     1     -12.160  14.413  64.635  1.00  0.00    -0.471 C  
HETATM   20  N   UNK     1     -11.920  15.634  63.811  1.00  0.00    -1.021 NA 
HETATM   21  C   UNK     1     -11.199  14.439  65.835  1.00  0.00    -0.324 C  
HETATM   22  O   UNK     1     -11.353  13.827  66.874  1.00  0.00    -0.308 OA 
HETATM   23  O   UNK     1     -10.108  15.210  65.568  1.00  0.00    -0.332 OA 
HETATM   24  H1  UNK     1     -12.059  16.482  64.359  1.00  0.00     0.000 HD 
HETATM   25  H2  UNK     1     -12.494  15.635  62.967  1.00  0.00     0.000 HD 
ENDBRANCH  18  19
ENDBRANCH  17  18
ENDBRANCH  16  17
ENDBRANCH  15  16
ENDBRANCH  13  15
ENDBRANCH  10  11
ENDBRANCH   9  10
ENDBRANCH   8   9
ENDBRANCH   7   8
ENDBRANCH   6   7
ENDBRANCH   5   6
ENDBRANCH   4   5
ENDBRANCH   3   4
ENDBRANCH   2   3
TORSDOF 14
ENDMDL
MODEL      160
REMARK 921   NORMALIZED FREE ENERGY PREDICTED BY IDOCK:   -3.98 KCAL/MOL
REMARK 922        TOTAL FREE ENERGY PREDICTED BY IDOCK:   -8.17 KCAL/MOL
REMARK 923 INTER-LIGAND FREE ENERGY PREDICTED BY IDOCK:   -6.71 KCAL/MOL
REMARK 924 INTRA-LIGAND FREE ENERGY PREDICTED BY IDOCK:   -1.46 KCAL/MOL
REMARK 927      BINDING AFFINITY PREDICTED BY RF-SCORE:    0.00 PKD
ROOT
HETATM    1  C   UNK     1      -9.893   9.166  66.162  1.00  0.00    -0.293 C  
HETATM    2  O   UNK     1     -10.637   8.494  67.168  1.00  0.00    -0.303 OA 
ENDROOT
BRANCH   2   3
HETATM    3  C   UNK     1     -10.332   7.099  67.199  1.00  0.00    -0.289 C  
BRANCH   3   4
HETATM    4  C   UNK     1     -11.048   6.459  68.383  1.00  0.00    -0.285 C  
BRANCH   4   5
HETATM    5  O   UNK     1     -10.209   5.458  68.957  1.00  0.00    -0.199 OA 
BRANCH   5   6
HETATM    6  C   UNK     1     -10.491   5.272  70.342  1.00  0.00    -0.251 C  
BRANCH   6   7
HETATM    7  C   UNK     1     -11.382   6.407  70.828  1.00  0.00    -0.411 C  
BRANCH   7   8
HETATM    8  C   UNK     1     -11.013   6.873  72.241  1.00  0.00    -0.275 C  
BRANCH   8   9
HETATM    9  C   UNK     1     -10.872   8.391  72.286  1.00  0.00    -0.422 C  
BRANCH   9  10
HETATM   10  C   UNK     1     -11.265   9.051  70.967  1.00  0.00    -0.361 C  
BRANCH  10  11
HETATM   11  C   UNK     1     -10.047   9.611  70.256  1.00  0.00    -0.275 C  
HETATM   12  O   UNK     1      -8.921   9.136  70.361  1.00  0.00    -0.187 OA 
HETATM   13  N   UNK     1     -10.327  10.713  69.479  1.00  0.00    -0.340 N  
HETATM   14  H   UNK     1     -11.276  11.088  69.465  1.00  0.00     0.000 HD 
BRANCH  13  15
HETATM   15  C   UNK     1      -9.297  11.348  68.682  1.00  0.00    -0.150 C  
BRANCH  15  16
HETATM   16  C   UNK     1      -9.839  12.488  67.815  1.00  0.00    -0.204 C  
BRANCH  16  17
HETATM   17  C   UNK     1     -11.360  12.590  67.913  1.00  0.00    -0.343 C  
BRANCH  17  18
HETATM   18  C   UNK     1     -11.821  13.906  68.555  1.00  0.00    -0.401 C  
BRANCH  18  19
HETATM   19  C   UNK     1     -11.667  13.929  70.083  1.00  0.00    -0.244 C  
HETATM   20  N   UNK     1     -12.434  12.818  70.720  1.00  0.00    -0.322 NA 
HETATM   21  C   UNK     1     -12.176  15.262  70.655  1.00  0.00    -0.364 C  
HETATM   22  O   UNK     1     -11.563  16.312  70.648  1.00  0.00    -0.359 OA 
HETATM   23  O   UNK     1     -13.444  15.133  71.136  1.00  0.00    -0.430 OA 
HETATM   24  H1  UNK     1     -12.332  12.833  71.734  1.00  0.00     0.000 HD 
HETATM   25  H2  UNK     1     -12.174  11.912  70.330  1.00  0.00     0.000 HD 
ENDBRANCH  18  19
ENDBRANCH  17  18
ENDBRANCH  16  17
ENDBRANCH  15  16
ENDBRANCH  13  15
ENDBRANCH  10  11
ENDBRANCH   9  10
ENDBRANCH   8   9
ENDBRANCH   7   8
ENDBRANCH   6   7
ENDBRANCH   5   6
ENDBRANCH   4   5
ENDBRANCH   3   4
ENDBRANCH   2   3
TORSDOF 14
ENDMDL
MODEL      161
REMARK 921   NORMALIZED FREE ENERGY PREDICTED BY IDOCK:   -3.98 KCAL/MOL
REMARK 922        TOTAL FREE ENERGY PREDICTED BY IDOCK:   -8.16 KCAL/MOL
REMARK 923 INTER-LIGAND FREE ENERGY PREDICTED BY IDOCK:   -6.63 KCAL/MOL
REMARK 924 INTRA-LIGAND FREE ENERGY PREDICTED BY IDOCK:   -1.53 KCAL/MOL
REMARK 927      BINDING AFFINITY PREDICTED BY RF-SCORE:    0.00 PKD
ROOT
HETATM    1  C   UNK     1     -11.559  15.763  64.285  1.00  0.00    -0.191 C  
HETATM    2  O   UNK     1     -12.574  14.777  64.161  1.00  0.00    -0.784 OA 
ENDROOT
BRANCH   2   3
HETATM    3  C   UNK     1     -12.782  14.084  65.392  1.00  0.00    -0.471 C  
BRANCH   3   4
HETATM    4  C   UNK     1     -12.261  12.658  65.258  1.00  0.00    -0.475 C  
BRANCH   4   5
HETATM    5  O   UNK     1     -11.991  12.129  66.554  1.00  0.00    -0.618 OA 
BRANCH   5   6
HETATM    6  C   UNK     1     -11.936  13.159  67.539  1.00  0.00    -0.317 C  
BRANCH   6   7
HETATM    7  C   UNK     1     -11.494  12.557  68.866  1.00  0.00    -0.355 C  
BRANCH   7   8
HETATM    8  C   UNK     1     -11.922  13.411  70.064  1.00  0.00    -0.407 C  
BRANCH   8   9
HETATM    9  C   UNK     1     -12.270  14.828  69.616  1.00  0.00    -0.310 C  
BRANCH   9  10
HETATM   10  C   UNK     1     -11.209  15.845  70.032  1.00  0.00    -0.354 C  
BRANCH  10  11
HETATM   11  C   UNK     1     -10.354  16.253  68.847  1.00  0.00    -0.263 C  
HETATM   12  O   UNK     1     -10.681  17.116  68.038  1.00  0.00    -0.372 OA 
HETATM   13  N   UNK     1      -9.169  15.556  68.763  1.00  0.00    -0.197 N  
HETATM   14  H   UNK     1      -8.971  14.820  69.441  1.00  0.00     0.000 HD 
BRANCH  13  15
HETATM   15  C   UNK     1      -8.200  15.852  67.726  1.00  0.00    -0.146 C  
BRANCH  15  16
HETATM   16  C   UNK     1      -7.339  14.640  67.360  1.00  0.00    -0.195 C  
BRANCH  16  17
HETATM   17  C   UNK     1      -8.060  13.328  67.670  1.00  0.00    -0.174 C  
BRANCH  17  18
HETATM   18  C   UNK     1      -7.159  12.101  67.469  1.00  0.00    -0.135 C  
BRANCH  18  19
HETATM   19  C   UNK     1      -7.783  11.026  66.567  1.00  0.00    -0.154 C  
HETATM   20  N   UNK     1      -8.924  11.577  65.779  1.00  0.00    -0.355 NA 
HETATM   21  C   UNK     1      -8.298   9.849  67.412  1.00  0.00    -0.118 C  
HETATM   22  O   UNK     1      -7.611   8.960  67.876  1.00  0.00    -0.092 OA 
HETATM   23  O   UNK     1      -9.641   9.952  67.621  1.00  0.00    -0.146 OA 
HETATM   24  H1  UNK     1      -9.338  10.864  65.180  1.00  0.00     0.000 HD 
HETATM   25  H2  UNK     1      -8.646  12.401  65.244  1.00  0.00     0.000 HD 
ENDBRANCH  18  19
ENDBRANCH  17  18
ENDBRANCH  16  17
ENDBRANCH  15  16
ENDBRANCH  13  15
ENDBRANCH  10  11
ENDBRANCH   9  10
ENDBRANCH   8   9
ENDBRANCH   7   8
ENDBRANCH   6   7
ENDBRANCH   5   6
ENDBRANCH   4   5
ENDBRANCH   3   4
ENDBRANCH   2   3
TORSDOF 14
ENDMDL
MODEL      162
REMARK 921   NORMALIZED FREE ENERGY PREDICTED BY IDOCK:   -3.98 KCAL/MOL
REMARK 922        TOTAL FREE ENERGY PREDICTED BY IDOCK:   -8.16 KCAL/MOL
REMARK 923 INTER-LIGAND FREE ENERGY PREDICTED BY IDOCK:   -7.09 KCAL/MOL
REMARK 924 INTRA-LIGAND FREE ENERGY PREDICTED BY IDOCK:   -1.07 KCAL/MOL
REMARK 927      BINDING AFFINITY PREDICTED BY RF-SCORE:    0.00 PKD
ROOT
HETATM    1  C   UNK     1      -9.576  19.434  66.868  1.00  0.00    -0.339 C  
HETATM    2  O   UNK     1     -10.509  18.364  66.914  1.00  0.00    -0.379 OA 
ENDROOT
BRANCH   2   3
HETATM    3  C   UNK     1     -10.611  17.816  68.229  1.00  0.00    -0.319 C  
BRANCH   3   4
HETATM    4  C   UNK     1     -10.433  16.304  68.154  1.00  0.00    -0.289 C  
BRANCH   4   5
HETATM    5  O   UNK     1     -10.039  15.938  66.834  1.00  0.00    -0.253 OA 
BRANCH   5   6
HETATM    6  C   UNK     1     -10.512  14.639  66.487  1.00  0.00    -0.290 C  
BRANCH   6   7
HETATM    7  C   UNK     1     -11.661  14.262  67.413  1.00  0.00    -0.422 C  
BRANCH   7   8
HETATM    8  C   UNK     1     -12.001  12.769  67.342  1.00  0.00    -0.335 C  
BRANCH   8   9
HETATM    9  C   UNK     1     -11.749  12.097  68.689  1.00  0.00    -0.382 C  
BRANCH   9  10
HETATM   10  C   UNK     1     -12.139  12.989  69.865  1.00  0.00    -0.347 C  
BRANCH  10  11
HETATM   11  C   UNK     1     -12.754  12.171  70.986  1.00  0.00    -0.228 C  
HETATM   12  O   UNK     1     -13.252  12.666  71.992  1.00  0.00    -0.461 OA 
HETATM   13  N   UNK     1     -12.698  10.813  70.766  1.00  0.00    -0.361 N  
HETATM   14  H   UNK     1     -12.234  10.460  69.929  1.00  0.00     0.000 HD 
BRANCH  13  15
HETATM   15  C   UNK     1     -13.288   9.879  71.704  1.00  0.00    -0.389 C  
BRANCH  15  16
HETATM   16  C   UNK     1     -12.288   8.832  72.203  1.00  0.00    -0.458 C  
BRANCH  16  17
HETATM   17  C   UNK     1     -10.873   9.131  71.708  1.00  0.00    -0.416 C  
BRANCH  17  18
HETATM   18  C   UNK     1     -10.124   7.863  71.272  1.00  0.00    -0.210 C  
BRANCH  18  19
HETATM   19  C   UNK     1      -9.876   7.789  69.757  1.00  0.00    -0.178 C  
HETATM   20  N   UNK     1     -10.810   8.685  69.013  1.00  0.00    -0.429 NA 
HETATM   21  C   UNK     1     -10.074   6.352  69.251  1.00  0.00    -0.172 C  
HETATM   22  O   UNK     1      -9.265   5.449  69.356  1.00  0.00    -0.112 OA 
HETATM   23  O   UNK     1     -11.311   6.195  68.702  1.00  0.00    -0.319 OA 
HETATM   24  H1  UNK     1     -10.645   8.637  68.008  1.00  0.00     0.000 HD 
HETATM   25  H2  UNK     1     -10.760   9.645  69.355  1.00  0.00     0.000 HD 
ENDBRANCH  18  19
ENDBRANCH  17  18
ENDBRANCH  16  17
ENDBRANCH  15  16
ENDBRANCH  13  15
ENDBRANCH  10  11
ENDBRANCH   9  10
ENDBRANCH   8   9
ENDBRANCH   7   8
ENDBRANCH   6   7
ENDBRANCH   5   6
ENDBRANCH   4   5
ENDBRANCH   3   4
ENDBRANCH   2   3
TORSDOF 14
ENDMDL
MODEL      163
REMARK 921   NORMALIZED FREE ENERGY PREDICTED BY IDOCK:   -3.97 KCAL/MOL
REMARK 922        TOTAL FREE ENERGY PREDICTED BY IDOCK:   -8.15 KCAL/MOL
REMARK 923 INTER-LIGAND FREE ENERGY PREDICTED BY IDOCK:   -7.20 KCAL/MOL
REMARK 924 INTRA-LIGAND FREE ENERGY PREDICTED BY IDOCK:   -0.95 KCAL/MOL
REMARK 927      BINDING AFFINITY PREDICTED BY RF-SCORE:    0.00 PKD
ROOT
HETATM    1  C   UNK     1      -8.172   7.771  74.209  1.00  0.00    -0.238 C  
HETATM    2  O   UNK     1      -8.475   8.661  73.144  1.00  0.00    -0.398 OA 
ENDROOT
BRANCH   2   3
HETATM    3  C   UNK     1      -8.287   8.038  71.873  1.00  0.00    -0.131 C  
BRANCH   3   4
HETATM    4  C   UNK     1      -8.565   6.545  72.003  1.00  0.00    -0.125 C  
BRANCH   4   5
HETATM    5  O   UNK     1      -9.252   6.089  70.840  1.00  0.00    -0.152 OA 
BRANCH   5   6
HETATM    6  C   UNK     1     -10.180   7.062  70.364  1.00  0.00    -0.196 C  
BRANCH   6   7
HETATM    7  C   UNK     1     -11.589   6.491  70.448  1.00  0.00    -0.470 C  
BRANCH   7   8
HETATM    8  C   UNK     1     -12.295   6.871  71.754  1.00  0.00    -0.401 C  
BRANCH   8   9
HETATM    9  C   UNK     1     -11.911   8.286  72.180  1.00  0.00    -0.429 C  
BRANCH   9  10
HETATM   10  C   UNK     1     -13.125   9.203  72.304  1.00  0.00    -0.509 C  
BRANCH  10  11
HETATM   11  C   UNK     1     -13.020  10.375  71.344  1.00  0.00    -0.443 C  
HETATM   12  O   UNK     1     -13.393  11.511  71.617  1.00  0.00    -0.342 OA 
HETATM   13  N   UNK     1     -12.466  10.038  70.130  1.00  0.00    -0.513 N  
HETATM   14  H   UNK     1     -12.214   9.066  69.946  1.00  0.00     0.000 HD 
BRANCH  13  15
HETATM   15  C   UNK     1     -12.236  11.040  69.108  1.00  0.00    -0.159 C  
BRANCH  15  16
HETATM   16  C   UNK     1     -11.009  11.909  69.399  1.00  0.00    -0.156 C  
BRANCH  16  17
HETATM   17  C   UNK     1     -11.273  13.377  69.068  1.00  0.00    -0.323 C  
BRANCH  17  18
HETATM   18  C   UNK     1     -10.402  13.885  67.910  1.00  0.00    -0.240 C  
BRANCH  18  19
HETATM   19  C   UNK     1     -10.614  13.111  66.600  1.00  0.00    -0.279 C  
HETATM   20  N   UNK     1      -9.320  12.883  65.892  1.00  0.00    -0.462 NA 
HETATM   21  C   UNK     1     -11.552  13.888  65.663  1.00  0.00    -0.333 C  
HETATM   22  O   UNK     1     -12.764  13.928  65.752  1.00  0.00    -0.504 OA 
HETATM   23  O   UNK     1     -10.842  14.580  64.728  1.00  0.00    -0.399 OA 
HETATM   24  H1  UNK     1      -9.460  12.369  65.023  1.00  0.00     0.000 HD 
HETATM   25  H2  UNK     1      -8.639  12.421  66.495  1.00  0.00     0.000 HD 
ENDBRANCH  18  19
ENDBRANCH  17  18
ENDBRANCH  16  17
ENDBRANCH  15  16
ENDBRANCH  13  15
ENDBRANCH  10  11
ENDBRANCH   9  10
ENDBRANCH   8   9
ENDBRANCH   7   8
ENDBRANCH   6   7
ENDBRANCH   5   6
ENDBRANCH   4   5
ENDBRANCH   3   4
ENDBRANCH   2   3
TORSDOF 14
ENDMDL
MODEL      164
REMARK 921   NORMALIZED FREE ENERGY PREDICTED BY IDOCK:   -3.96 KCAL/MOL
REMARK 922        TOTAL FREE ENERGY PREDICTED BY IDOCK:   -8.14 KCAL/MOL
REMARK 923 INTER-LIGAND FREE ENERGY PREDICTED BY IDOCK:   -7.17 KCAL/MOL
REMARK 924 INTRA-LIGAND FREE ENERGY PREDICTED BY IDOCK:   -0.96 KCAL/MOL
REMARK 927      BINDING AFFINITY PREDICTED BY RF-SCORE:    0.00 PKD
ROOT
HETATM    1  C   UNK     1     -10.295  17.054  66.046  1.00  0.00    -0.315 C  
HETATM    2  O   UNK     1     -10.537  15.773  65.483  1.00  0.00    -0.360 OA 
ENDROOT
BRANCH   2   3
HETATM    3  C   UNK     1     -11.451  15.847  64.389  1.00  0.00    -0.264 C  
BRANCH   3   4
HETATM    4  C   UNK     1     -12.474  14.724  64.516  1.00  0.00    -0.253 C  
BRANCH   4   5
HETATM    5  O   UNK     1     -12.539  14.003  63.288  1.00  0.00    -0.801 OA 
BRANCH   5   6
HETATM    6  C   UNK     1     -12.225  12.624  63.474  1.00  0.00    -0.547 C  
BRANCH   6   7
HETATM    7  C   UNK     1     -12.209  12.312  64.964  1.00  0.00    -0.374 C  
BRANCH   7   8
HETATM    8  C   UNK     1     -10.993  11.473  65.370  1.00  0.00    -0.288 C  
BRANCH   8   9
HETATM    9  C   UNK     1     -10.820  11.476  66.887  1.00  0.00    -0.331 C  
BRANCH   9  10
HETATM   10  C   UNK     1     -11.578  12.620  67.555  1.00  0.00    -0.418 C  
BRANCH  10  11
HETATM   11  C   UNK     1     -11.890  12.292  69.004  1.00  0.00    -0.305 C  
HETATM   12  O   UNK     1     -11.877  13.124  69.905  1.00  0.00    -0.317 OA 
HETATM   13  N   UNK     1     -12.187  10.964  69.211  1.00  0.00    -0.488 N  
HETATM   14  H   UNK     1     -12.140  10.311  68.428  1.00  0.00     0.000 HD 
BRANCH  13  15
HETATM   15  C   UNK     1     -12.565  10.478  70.524  1.00  0.00    -0.339 C  
BRANCH  15  16
HETATM   16  C   UNK     1     -11.445   9.690  71.207  1.00  0.00    -0.463 C  
BRANCH  16  17
HETATM   17  C   UNK     1     -11.051   8.459  70.391  1.00  0.00    -0.240 C  
BRANCH  17  18
HETATM   18  C   UNK     1      -9.679   8.615  69.718  1.00  0.00    -0.176 C  
BRANCH  18  19
HETATM   19  C   UNK     1      -9.291   7.418  68.836  1.00  0.00    -0.145 C  
HETATM   20  N   UNK     1      -7.815   7.196  68.846  1.00  0.00    -0.113 NA 
HETATM   21  C   UNK     1      -9.738   7.654  67.385  1.00  0.00    -0.161 C  
HETATM   22  O   UNK     1     -10.869   7.507  66.962  1.00  0.00    -0.348 OA 
HETATM   23  O   UNK     1      -8.701   8.102  66.623  1.00  0.00    -0.128 OA 
HETATM   24  H1  UNK     1      -7.558   6.402  68.262  1.00  0.00     0.000 HD 
HETATM   25  H2  UNK     1      -7.459   7.093  69.797  1.00  0.00     0.000 HD 
ENDBRANCH  18  19
ENDBRANCH  17  18
ENDBRANCH  16  17
ENDBRANCH  15  16
ENDBRANCH  13  15
ENDBRANCH  10  11
ENDBRANCH   9  10
ENDBRANCH   8   9
ENDBRANCH   7   8
ENDBRANCH   6   7
ENDBRANCH   5   6
ENDBRANCH   4   5
ENDBRANCH   3   4
ENDBRANCH   2   3
TORSDOF 14
ENDMDL
MODEL      165
REMARK 921   NORMALIZED FREE ENERGY PREDICTED BY IDOCK:   -3.96 KCAL/MOL
REMARK 922        TOTAL FREE ENERGY PREDICTED BY IDOCK:   -8.14 KCAL/MOL
REMARK 923 INTER-LIGAND FREE ENERGY PREDICTED BY IDOCK:   -6.96 KCAL/MOL
REMARK 924 INTRA-LIGAND FREE ENERGY PREDICTED BY IDOCK:   -1.18 KCAL/MOL
REMARK 927      BINDING AFFINITY PREDICTED BY RF-SCORE:    0.00 PKD
ROOT
HETATM    1  C   UNK     1     -10.730   7.988  72.723  1.00  0.00    -0.362 C  
HETATM    2  O   UNK     1     -10.336   6.959  71.828  1.00  0.00    -0.198 OA 
ENDROOT
BRANCH   2   3
HETATM    3  C   UNK     1     -11.448   6.459  71.084  1.00  0.00    -0.323 C  
BRANCH   3   4
HETATM    4  C   UNK     1     -10.933   5.687  69.875  1.00  0.00    -0.239 C  
BRANCH   4   5
HETATM    5  O   UNK     1     -10.033   6.510  69.137  1.00  0.00    -0.142 OA 
BRANCH   5   6
HETATM    6  C   UNK     1     -10.558   6.841  67.853  1.00  0.00    -0.242 C  
BRANCH   6   7
HETATM    7  C   UNK     1     -10.467   8.347  67.649  1.00  0.00    -0.307 C  
BRANCH   7   8
HETATM    8  C   UNK     1      -9.354   8.982  68.491  1.00  0.00    -0.141 C  
BRANCH   8   9
HETATM    9  C   UNK     1      -9.887  10.183  69.267  1.00  0.00    -0.235 C  
BRANCH   9  10
HETATM   10  C   UNK     1     -11.261   9.916  69.878  1.00  0.00    -0.298 C  
BRANCH  10  11
HETATM   11  C   UNK     1     -11.904  11.207  70.352  1.00  0.00    -0.369 C  
HETATM   12  O   UNK     1     -12.646  11.277  71.327  1.00  0.00    -0.387 OA 
HETATM   13  N   UNK     1     -11.577  12.297  69.578  1.00  0.00    -0.359 N  
HETATM   14  H   UNK     1     -10.988  12.168  68.755  1.00  0.00     0.000 HD 
BRANCH  13  15
HETATM   15  C   UNK     1     -12.054  13.624  69.914  1.00  0.00    -0.341 C  
BRANCH  15  16
HETATM   16  C   UNK     1     -11.771  14.650  68.814  1.00  0.00    -0.357 C  
BRANCH  16  17
HETATM   17  C   UNK     1     -10.364  14.481  68.241  1.00  0.00    -0.236 C  
BRANCH  17  18
HETATM   18  C   UNK     1     -10.375  13.919  66.812  1.00  0.00    -0.272 C  
BRANCH  18  19
HETATM   19  C   UNK     1     -11.787  13.740  66.235  1.00  0.00    -0.398 C  
HETATM   20  N   UNK     1     -12.171  12.298  66.185  1.00  0.00    -0.585 NA 
HETATM   21  C   UNK     1     -11.862  14.313  64.811  1.00  0.00    -0.429 C  
HETATM   22  O   UNK     1     -11.973  15.491  64.531  1.00  0.00    -0.321 OA 
HETATM   23  O   UNK     1     -11.738  13.325  63.882  1.00  0.00    -0.415 OA 
HETATM   24  H1  UNK     1     -13.109  12.179  65.803  1.00  0.00     0.000 HD 
HETATM   25  H2  UNK     1     -12.080  11.855  67.100  1.00  0.00     0.000 HD 
ENDBRANCH  18  19
ENDBRANCH  17  18
ENDBRANCH  16  17
ENDBRANCH  15  16
ENDBRANCH  13  15
ENDBRANCH  10  11
ENDBRANCH   9  10
ENDBRANCH   8   9
ENDBRANCH   7   8
ENDBRANCH   6   7
ENDBRANCH   5   6
ENDBRANCH   4   5
ENDBRANCH   3   4
ENDBRANCH   2   3
TORSDOF 14
ENDMDL
MODEL      166
REMARK 921   NORMALIZED FREE ENERGY PREDICTED BY IDOCK:   -3.96 KCAL/MOL
REMARK 922        TOTAL FREE ENERGY PREDICTED BY IDOCK:   -8.13 KCAL/MOL
REMARK 923 INTER-LIGAND FREE ENERGY PREDICTED BY IDOCK:   -6.60 KCAL/MOL
REMARK 924 INTRA-LIGAND FREE ENERGY PREDICTED BY IDOCK:   -1.53 KCAL/MOL
REMARK 927      BINDING AFFINITY PREDICTED BY RF-SCORE:    0.00 PKD
ROOT
HETATM    1  C   UNK     1      -5.699   8.841  67.183  1.00  0.00    -0.042 C  
HETATM    2  O   UNK     1      -7.060   8.461  67.045  1.00  0.00    -0.076 OA 
ENDROOT
BRANCH   2   3
HETATM    3  C   UNK     1      -7.431   8.333  65.672  1.00  0.00    -0.081 C  
BRANCH   3   4
HETATM    4  C   UNK     1      -7.778   9.710  65.118  1.00  0.00    -0.117 C  
BRANCH   4   5
HETATM    5  O   UNK     1      -8.808  10.293  65.912  1.00  0.00    -0.150 OA 
BRANCH   5   6
HETATM    6  C   UNK     1     -10.036  10.385  65.192  1.00  0.00    -0.322 C  
BRANCH   6   7
HETATM    7  C   UNK     1      -9.768  11.010  63.829  1.00  0.00    -0.351 C  
BRANCH   7   8
HETATM    8  C   UNK     1     -10.518  12.333  63.637  1.00  0.00    -0.483 C  
BRANCH   8   9
HETATM    9  C   UNK     1     -11.991  12.173  64.003  1.00  0.00    -0.533 C  
BRANCH   9  10
HETATM   10  C   UNK     1     -12.412  13.106  65.135  1.00  0.00    -0.539 C  
BRANCH  10  11
HETATM   11  C   UNK     1     -12.132  14.554  64.779  1.00  0.00    -0.445 C  
HETATM   12  O   UNK     1     -12.752  15.174  63.920  1.00  0.00    -0.759 OA 
HETATM   13  N   UNK     1     -11.109  15.109  65.514  1.00  0.00    -0.345 N  
HETATM   14  H   UNK     1     -10.603  14.531  66.185  1.00  0.00     0.000 HD 
BRANCH  13  15
HETATM   15  C   UNK     1     -10.739  16.501  65.349  1.00  0.00    -0.259 C  
BRANCH  15  16
HETATM   16  C   UNK     1      -9.403  16.840  66.014  1.00  0.00    -0.245 C  
BRANCH  16  17
HETATM   17  C   UNK     1      -8.754  15.600  66.629  1.00  0.00    -0.333 C  
BRANCH  17  18
HETATM   18  C   UNK     1      -8.564  15.727  68.147  1.00  0.00    -0.164 C  
BRANCH  18  19
HETATM   19  C   UNK     1      -9.610  14.950  68.962  1.00  0.00    -0.204 C  
HETATM   20  N   UNK     1     -10.140  13.788  68.190  1.00  0.00    -0.238 NA 
HETATM   21  C   UNK     1     -10.787  15.865  69.335  1.00  0.00    -0.288 C  
HETATM   22  O   UNK     1     -10.790  16.677  70.240  1.00  0.00    -0.269 OA 
HETATM   23  O   UNK     1     -11.833  15.685  68.481  1.00  0.00    -0.355 OA 
HETATM   24  H1  UNK     1     -10.834  13.272  68.731  1.00  0.00     0.000 HD 
HETATM   25  H2  UNK     1      -9.389  13.179  67.866  1.00  0.00     0.000 HD 
ENDBRANCH  18  19
ENDBRANCH  17  18
ENDBRANCH  16  17
ENDBRANCH  15  16
ENDBRANCH  13  15
ENDBRANCH  10  11
ENDBRANCH   9  10
ENDBRANCH   8   9
ENDBRANCH   7   8
ENDBRANCH   6   7
ENDBRANCH   5   6
ENDBRANCH   4   5
ENDBRANCH   3   4
ENDBRANCH   2   3
TORSDOF 14
ENDMDL
MODEL      167
REMARK 921   NORMALIZED FREE ENERGY PREDICTED BY IDOCK:   -3.95 KCAL/MOL
REMARK 922        TOTAL FREE ENERGY PREDICTED BY IDOCK:   -8.12 KCAL/MOL
REMARK 923 INTER-LIGAND FREE ENERGY PREDICTED BY IDOCK:   -7.45 KCAL/MOL
REMARK 924 INTRA-LIGAND FREE ENERGY PREDICTED BY IDOCK:   -0.67 KCAL/MOL
REMARK 927      BINDING AFFINITY PREDICTED BY RF-SCORE:    0.00 PKD
ROOT
HETATM    1  C   UNK     1      -5.927  12.848  70.306  1.00  0.00    -0.126 C  
HETATM    2  O   UNK     1      -6.104  11.480  70.645  1.00  0.00    -0.319 OA 
ENDROOT
BRANCH   2   3
HETATM    3  C   UNK     1      -6.996  10.828  69.741  1.00  0.00    -0.141 C  
BRANCH   3   4
HETATM    4  C   UNK     1      -7.172   9.377  70.173  1.00  0.00    -0.096 C  
BRANCH   4   5
HETATM    5  O   UNK     1      -7.056   9.288  71.591  1.00  0.00    -0.310 OA 
BRANCH   5   6
HETATM    6  C   UNK     1      -7.500   8.022  72.074  1.00  0.00    -0.090 C  
BRANCH   6   7
HETATM    7  C   UNK     1      -8.170   8.212  73.429  1.00  0.00    -0.267 C  
BRANCH   7   8
HETATM    8  C   UNK     1      -9.577   7.607  73.472  1.00  0.00    -0.348 C  
BRANCH   8   9
HETATM    9  C   UNK     1     -10.365   7.990  72.223  1.00  0.00    -0.336 C  
BRANCH   9  10
HETATM   10  C   UNK     1     -11.867   8.075  72.487  1.00  0.00    -0.419 C  
BRANCH  10  11
HETATM   11  C   UNK     1     -12.447   9.357  71.918  1.00  0.00    -0.390 C  
HETATM   12  O   UNK     1     -13.580   9.757  72.164  1.00  0.00    -0.419 OA 
HETATM   13  N   UNK     1     -11.576  10.031  71.092  1.00  0.00    -0.377 N  
HETATM   14  H   UNK     1     -10.660   9.627  70.892  1.00  0.00     0.000 HD 
BRANCH  13  15
HETATM   15  C   UNK     1     -11.937  11.305  70.503  1.00  0.00    -0.371 C  
BRANCH  15  16
HETATM   16  C   UNK     1     -12.104  11.228  68.984  1.00  0.00    -0.325 C  
BRANCH  16  17
HETATM   17  C   UNK     1     -10.940  11.904  68.259  1.00  0.00    -0.273 C  
BRANCH  17  18
HETATM   18  C   UNK     1     -11.239  12.156  66.774  1.00  0.00    -0.375 C  
BRANCH  18  19
HETATM   19  C   UNK     1     -11.435  13.641  66.433  1.00  0.00    -0.338 C  
HETATM   20  N   UNK     1     -12.202  14.344  67.504  1.00  0.00    -0.619 NA 
HETATM   21  C   UNK     1     -12.201  13.791  65.109  1.00  0.00    -0.431 C  
HETATM   22  O   UNK     1     -11.718  13.673  63.999  1.00  0.00    -0.403 OA 
HETATM   23  O   UNK     1     -13.523  14.030  65.335  1.00  0.00    -0.679 OA 
HETATM   24  H1  UNK     1     -12.332  15.330  67.278  1.00  0.00     0.000 HD 
HETATM   25  H2  UNK     1     -11.765  14.224  68.418  1.00  0.00     0.000 HD 
ENDBRANCH  18  19
ENDBRANCH  17  18
ENDBRANCH  16  17
ENDBRANCH  15  16
ENDBRANCH  13  15
ENDBRANCH  10  11
ENDBRANCH   9  10
ENDBRANCH   8   9
ENDBRANCH   7   8
ENDBRANCH   6   7
ENDBRANCH   5   6
ENDBRANCH   4   5
ENDBRANCH   3   4
ENDBRANCH   2   3
TORSDOF 14
ENDMDL
MODEL      168
REMARK 921   NORMALIZED FREE ENERGY PREDICTED BY IDOCK:   -3.95 KCAL/MOL
REMARK 922        TOTAL FREE ENERGY PREDICTED BY IDOCK:   -8.12 KCAL/MOL
REMARK 923 INTER-LIGAND FREE ENERGY PREDICTED BY IDOCK:   -6.94 KCAL/MOL
REMARK 924 INTRA-LIGAND FREE ENERGY PREDICTED BY IDOCK:   -1.17 KCAL/MOL
REMARK 927      BINDING AFFINITY PREDICTED BY RF-SCORE:    0.00 PKD
ROOT
HETATM    1  C   UNK     1     -12.879  13.110  71.261  1.00  0.00    -0.296 C  
HETATM    2  O   UNK     1     -13.342  12.122  72.170  1.00  0.00    -0.522 OA 
ENDROOT
BRANCH   2   3
HETATM    3  C   UNK     1     -13.247  10.812  71.611  1.00  0.00    -0.383 C  
BRANCH   3   4
HETATM    4  C   UNK     1     -11.960  10.706  70.803  1.00  0.00    -0.374 C  
BRANCH   4   5
HETATM    5  O   UNK     1     -11.103   9.737  71.403  1.00  0.00    -0.359 OA 
BRANCH   5   6
HETATM    6  C   UNK     1     -10.087   9.306  70.500  1.00  0.00    -0.255 C  
BRANCH   6   7
HETATM    7  C   UNK     1     -10.611   9.405  69.074  1.00  0.00    -0.233 C  
BRANCH   7   8
HETATM    8  C   UNK     1     -10.137   8.241  68.197  1.00  0.00    -0.238 C  
BRANCH   8   9
HETATM    9  C   UNK     1     -10.191   8.624  66.721  1.00  0.00    -0.361 C  
BRANCH   9  10
HETATM   10  C   UNK     1      -9.509   9.961  66.443  1.00  0.00    -0.234 C  
BRANCH  10  11
HETATM   11  C   UNK     1     -10.265  10.748  65.388  1.00  0.00    -0.276 C  
HETATM   12  O   UNK     1     -10.180  10.525  64.185  1.00  0.00    -0.342 OA 
HETATM   13  N   UNK     1     -11.058  11.743  65.913  1.00  0.00    -0.315 N  
HETATM   14  H   UNK     1     -11.055  11.908  66.920  1.00  0.00     0.000 HD 
BRANCH  13  15
HETATM   15  C   UNK     1     -11.897  12.560  65.059  1.00  0.00    -0.396 C  
BRANCH  15  16
HETATM   16  C   UNK     1     -11.097  13.582  64.247  1.00  0.00    -0.371 C  
BRANCH  16  17
HETATM   17  C   UNK     1     -11.546  15.011  64.549  1.00  0.00    -0.346 C  
BRANCH  17  18
HETATM   18  C   UNK     1     -10.501  15.799  65.352  1.00  0.00    -0.438 C  
BRANCH  18  19
HETATM   19  C   UNK     1     -10.512  15.476  66.853  1.00  0.00    -0.301 C  
HETATM   20  N   UNK     1     -10.617  16.719  67.673  1.00  0.00    -0.331 NA 
HETATM   21  C   UNK     1      -9.224  14.737  67.252  1.00  0.00    -0.203 C  
HETATM   22  O   UNK     1      -9.004  13.555  67.071  1.00  0.00    -0.224 OA 
HETATM   23  O   UNK     1      -8.320  15.596  67.802  1.00  0.00    -0.143 OA 
HETATM   24  H1  UNK     1     -10.624  16.504  68.670  1.00  0.00     0.000 HD 
HETATM   25  H2  UNK     1     -11.427  17.277  67.404  1.00  0.00     0.000 HD 
ENDBRANCH  18  19
ENDBRANCH  17  18
ENDBRANCH  16  17
ENDBRANCH  15  16
ENDBRANCH  13  15
ENDBRANCH  10  11
ENDBRANCH   9  10
ENDBRANCH   8   9
ENDBRANCH   7   8
ENDBRANCH   6   7
ENDBRANCH   5   6
ENDBRANCH   4   5
ENDBRANCH   3   4
ENDBRANCH   2   3
TORSDOF 14
ENDMDL
MODEL      169
REMARK 921   NORMALIZED FREE ENERGY PREDICTED BY IDOCK:   -3.95 KCAL/MOL
REMARK 922        TOTAL FREE ENERGY PREDICTED BY IDOCK:   -8.11 KCAL/MOL
REMARK 923 INTER-LIGAND FREE ENERGY PREDICTED BY IDOCK:   -6.84 KCAL/MOL
REMARK 924 INTRA-LIGAND FREE ENERGY PREDICTED BY IDOCK:   -1.26 KCAL/MOL
REMARK 927      BINDING AFFINITY PREDICTED BY RF-SCORE:    0.00 PKD
ROOT
HETATM    1  C   UNK     1     -11.687   6.813  72.297  1.00  0.00    -0.263 C  
HETATM    2  O   UNK     1     -12.090   7.593  71.181  1.00  0.00    -0.308 OA 
ENDROOT
BRANCH   2   3
HETATM    3  C   UNK     1     -12.464   8.914  71.574  1.00  0.00    -0.324 C  
BRANCH   3   4
HETATM    4  C   UNK     1     -11.540   9.917  70.892  1.00  0.00    -0.373 C  
BRANCH   4   5
HETATM    5  O   UNK     1     -10.560   9.216  70.131  1.00  0.00    -0.208 OA 
BRANCH   5   6
HETATM    6  C   UNK     1      -9.237   9.588  70.511  1.00  0.00    -0.225 C  
BRANCH   6   7
HETATM    7  C   UNK     1      -8.238   8.854  69.627  1.00  0.00    -0.114 C  
BRANCH   7   8
HETATM    8  C   UNK     1      -8.876   7.678  68.879  1.00  0.00    -0.135 C  
BRANCH   8   9
HETATM    9  C   UNK     1      -8.676   7.827  67.374  1.00  0.00    -0.128 C  
BRANCH   9  10
HETATM   10  C   UNK     1      -9.936   8.323  66.668  1.00  0.00    -0.348 C  
BRANCH  10  11
HETATM   11  C   UNK     1      -9.848   9.811  66.381  1.00  0.00    -0.235 C  
HETATM   12  O   UNK     1      -9.346  10.278  65.363  1.00  0.00    -0.176 OA 
HETATM   13  N   UNK     1     -10.385  10.591  67.380  1.00  0.00    -0.210 N  
HETATM   14  H   UNK     1     -10.750  10.147  68.222  1.00  0.00     0.000 HD 
BRANCH  13  15
HETATM   15  C   UNK     1     -10.441  12.034  67.253  1.00  0.00    -0.218 C  
BRANCH  15  16
HETATM   16  C   UNK     1     -11.815  12.607  67.611  1.00  0.00    -0.390 C  
BRANCH  16  17
HETATM   17  C   UNK     1     -12.487  13.249  66.398  1.00  0.00    -0.231 C  
BRANCH  17  18
HETATM   18  C   UNK     1     -12.214  12.478  65.098  1.00  0.00    -0.509 C  
BRANCH  18  19
HETATM   19  C   UNK     1     -11.531  13.326  64.015  1.00  0.00    -0.388 C  
HETATM   20  N   UNK     1     -10.061  13.068  63.974  1.00  0.00    -0.717 NA 
HETATM   21  C   UNK     1     -11.755  14.822  64.285  1.00  0.00    -0.258 C  
HETATM   22  O   UNK     1     -12.770  15.441  64.028  1.00  0.00    -0.664 OA 
HETATM   23  O   UNK     1     -10.672  15.373  64.902  1.00  0.00    -0.420 OA 
HETATM   24  H1  UNK     1      -9.608  13.630  63.255  1.00  0.00     0.000 HD 
HETATM   25  H2  UNK     1      -9.858  12.075  63.857  1.00  0.00     0.000 HD 
ENDBRANCH  18  19
ENDBRANCH  17  18
ENDBRANCH  16  17
ENDBRANCH  15  16
ENDBRANCH  13  15
ENDBRANCH  10  11
ENDBRANCH   9  10
ENDBRANCH   8   9
ENDBRANCH   7   8
ENDBRANCH   6   7
ENDBRANCH   5   6
ENDBRANCH   4   5
ENDBRANCH   3   4
ENDBRANCH   2   3
TORSDOF 14
ENDMDL
MODEL      170
REMARK 921   NORMALIZED FREE ENERGY PREDICTED BY IDOCK:   -3.94 KCAL/MOL
REMARK 922        TOTAL FREE ENERGY PREDICTED BY IDOCK:   -8.10 KCAL/MOL
REMARK 923 INTER-LIGAND FREE ENERGY PREDICTED BY IDOCK:   -7.23 KCAL/MOL
REMARK 924 INTRA-LIGAND FREE ENERGY PREDICTED BY IDOCK:   -0.87 KCAL/MOL
REMARK 927      BINDING AFFINITY PREDICTED BY RF-SCORE:    0.00 PKD
ROOT
HETATM    1  C   UNK     1      -9.421  20.326  66.378  1.00  0.00    -0.301 C  
HETATM    2  O   UNK     1     -10.028  19.158  65.845  1.00  0.00    -0.458 OA 
ENDROOT
BRANCH   2   3
HETATM    3  C   UNK     1      -9.764  18.015  66.659  1.00  0.00    -0.332 C  
BRANCH   3   4
HETATM    4  C   UNK     1     -10.270  16.767  65.945  1.00  0.00    -0.328 C  
BRANCH   4   5
HETATM    5  O   UNK     1     -11.024  17.150  64.798  1.00  0.00    -0.898 OA 
BRANCH   5   6
HETATM    6  C   UNK     1     -11.683  16.033  64.207  1.00  0.00    -0.081 C  
BRANCH   6   7
HETATM    7  C   UNK     1     -11.263  14.763  64.935  1.00  0.00    -0.411 C  
BRANCH   7   8
HETATM    8  C   UNK     1     -11.544  13.500  64.112  1.00  0.00    -0.415 C  
BRANCH   8   9
HETATM    9  C   UNK     1     -10.314  12.596  64.080  1.00  0.00    -0.412 C  
BRANCH   9  10
HETATM   10  C   UNK     1     -10.684  11.116  64.047  1.00  0.00    -0.409 C  
BRANCH  10  11
HETATM   11  C   UNK     1      -9.468  10.247  64.314  1.00  0.00    -0.307 C  
HETATM   12  O   UNK     1      -8.403  10.367  63.718  1.00  0.00    -0.171 OA 
HETATM   13  N   UNK     1      -9.677   9.303  65.294  1.00  0.00    -0.454 N  
HETATM   14  H   UNK     1     -10.599   9.223  65.726  1.00  0.00     0.000 HD 
BRANCH  13  15
HETATM   15  C   UNK     1      -8.610   8.420  65.723  1.00  0.00    -0.159 C  
BRANCH  15  16
HETATM   16  C   UNK     1      -9.126   7.188  66.471  1.00  0.00    -0.182 C  
BRANCH  16  17
HETATM   17  C   UNK     1     -10.443   7.481  67.188  1.00  0.00    -0.407 C  
BRANCH  17  18
HETATM   18  C   UNK     1     -10.271   7.596  68.710  1.00  0.00    -0.210 C  
BRANCH  18  19
HETATM   19  C   UNK     1     -10.847   8.894  69.295  1.00  0.00    -0.096 C  
HETATM   20  N   UNK     1     -11.291   9.823  68.214  1.00  0.00    -0.521 NA 
HETATM   21  C   UNK     1      -9.791   9.612  70.151  1.00  0.00    -0.262 C  
HETATM   22  O   UNK     1      -9.488   9.317  71.291  1.00  0.00    -0.262 OA 
HETATM   23  O   UNK     1      -9.190  10.611  69.445  1.00  0.00    -0.158 OA 
HETATM   24  H1  UNK     1     -11.674  10.685  68.603  1.00  0.00     0.000 HD 
HETATM   25  H2  UNK     1     -11.951   9.372  67.580  1.00  0.00     0.000 HD 
ENDBRANCH  18  19
ENDBRANCH  17  18
ENDBRANCH  16  17
ENDBRANCH  15  16
ENDBRANCH  13  15
ENDBRANCH  10  11
ENDBRANCH   9  10
ENDBRANCH   8   9
ENDBRANCH   7   8
ENDBRANCH   6   7
ENDBRANCH   5   6
ENDBRANCH   4   5
ENDBRANCH   3   4
ENDBRANCH   2   3
TORSDOF 14
ENDMDL
MODEL      171
REMARK 921   NORMALIZED FREE ENERGY PREDICTED BY IDOCK:   -3.94 KCAL/MOL
REMARK 922        TOTAL FREE ENERGY PREDICTED BY IDOCK:   -8.10 KCAL/MOL
REMARK 923 INTER-LIGAND FREE ENERGY PREDICTED BY IDOCK:   -6.86 KCAL/MOL
REMARK 924 INTRA-LIGAND FREE ENERGY PREDICTED BY IDOCK:   -1.24 KCAL/MOL
REMARK 927      BINDING AFFINITY PREDICTED BY RF-SCORE:    0.00 PKD
ROOT
HETATM    1  C   UNK     1      -8.287   7.507  74.047  1.00  0.00    -0.196 C  
HETATM    2  O   UNK     1      -8.451   8.571  73.122  1.00  0.00    -0.365 OA 
ENDROOT
BRANCH   2   3
HETATM    3  C   UNK     1      -7.957   8.220  71.829  1.00  0.00    -0.128 C  
BRANCH   3   4
HETATM    4  C   UNK     1      -8.005   6.705  71.670  1.00  0.00    -0.103 C  
BRANCH   4   5
HETATM    5  O   UNK     1      -8.416   6.382  70.344  1.00  0.00    -0.127 OA 
BRANCH   5   6
HETATM    6  C   UNK     1      -9.429   7.270  69.878  1.00  0.00    -0.157 C  
BRANCH   6   7
HETATM    7  C   UNK     1     -10.682   6.470  69.547  1.00  0.00    -0.322 C  
BRANCH   7   8
HETATM    8  C   UNK     1     -11.742   6.566  70.650  1.00  0.00    -0.436 C  
BRANCH   8   9
HETATM    9  C   UNK     1     -11.534   7.825  71.486  1.00  0.00    -0.298 C  
BRANCH   9  10
HETATM   10  C   UNK     1     -12.840   8.352  72.075  1.00  0.00    -0.389 C  
BRANCH  10  11
HETATM   11  C   UNK     1     -13.132   9.756  71.579  1.00  0.00    -0.411 C  
HETATM   12  O   UNK     1     -13.770  10.585  72.222  1.00  0.00    -0.185 OA 
HETATM   13  N   UNK     1     -12.613  10.013  70.330  1.00  0.00    -0.520 N  
HETATM   14  H   UNK     1     -12.128   9.270  69.826  1.00  0.00     0.000 HD 
BRANCH  13  15
HETATM   15  C   UNK     1     -12.745  11.321  69.719  1.00  0.00     0.093 C  
BRANCH  15  16
HETATM   16  C   UNK     1     -11.559  12.238  70.025  1.00  0.00    -0.236 C  
BRANCH  16  17
HETATM   17  C   UNK     1     -11.839  13.677  69.592  1.00  0.00    -0.396 C  
BRANCH  17  18
HETATM   18  C   UNK     1     -12.996  14.313  70.376  1.00  0.00    -0.179 C  
BRANCH  18  19
HETATM   19  C   UNK     1     -12.744  14.381  71.890  1.00  0.00    -0.349 C  
HETATM   20  N   UNK     1     -13.793  13.636  72.646  1.00  0.00    -0.754 NA 
HETATM   21  C   UNK     1     -12.744  15.841  72.369  1.00  0.00    -0.453 C  
HETATM   22  O   UNK     1     -11.819  16.622  72.252  1.00  0.00    -0.466 OA 
HETATM   23  O   UNK     1     -13.949  16.176  72.909  1.00  0.00    -0.480 OA 
HETATM   24  H1  UNK     1     -13.626  13.680  73.650  1.00  0.00     0.000 HD 
HETATM   25  H2  UNK     1     -13.875  12.672  72.322  1.00  0.00     0.000 HD 
ENDBRANCH  18  19
ENDBRANCH  17  18
ENDBRANCH  16  17
ENDBRANCH  15  16
ENDBRANCH  13  15
ENDBRANCH  10  11
ENDBRANCH   9  10
ENDBRANCH   8   9
ENDBRANCH   7   8
ENDBRANCH   6   7
ENDBRANCH   5   6
ENDBRANCH   4   5
ENDBRANCH   3   4
ENDBRANCH   2   3
TORSDOF 14
ENDMDL
MODEL      172
REMARK 921   NORMALIZED FREE ENERGY PREDICTED BY IDOCK:   -3.94 KCAL/MOL
REMARK 922        TOTAL FREE ENERGY PREDICTED BY IDOCK:   -8.09 KCAL/MOL
REMARK 923 INTER-LIGAND FREE ENERGY PREDICTED BY IDOCK:   -7.06 KCAL/MOL
REMARK 924 INTRA-LIGAND FREE ENERGY PREDICTED BY IDOCK:   -1.04 KCAL/MOL
REMARK 927      BINDING AFFINITY PREDICTED BY RF-SCORE:    0.00 PKD
ROOT
HETATM    1  C   UNK     1      -9.500  19.564  66.442  1.00  0.00    -0.386 C  
HETATM    2  O   UNK     1     -10.387  18.565  66.925  1.00  0.00    -0.360 OA 
ENDROOT
BRANCH   2   3
HETATM    3  C   UNK     1     -10.243  17.344  66.198  1.00  0.00    -0.328 C  
BRANCH   3   4
HETATM    4  C   UNK     1     -10.188  16.181  67.182  1.00  0.00    -0.281 C  
BRANCH   4   5
HETATM    5  O   UNK     1     -11.144  16.392  68.219  1.00  0.00    -0.347 OA 
BRANCH   5   6
HETATM    6  C   UNK     1     -11.809  15.182  68.572  1.00  0.00    -0.281 C  
BRANCH   6   7
HETATM    7  C   UNK     1     -11.053  14.003  67.973  1.00  0.00    -0.282 C  
BRANCH   7   8
HETATM    8  C   UNK     1     -11.825  12.686  68.111  1.00  0.00    -0.366 C  
BRANCH   8   9
HETATM    9  C   UNK     1     -11.023  11.677  68.929  1.00  0.00    -0.282 C  
BRANCH   9  10
HETATM   10  C   UNK     1     -11.797  11.165  70.140  1.00  0.00    -0.449 C  
BRANCH  10  11
HETATM   11  C   UNK     1     -11.073  10.005  70.797  1.00  0.00    -0.334 C  
HETATM   12  O   UNK     1      -9.925   9.675  70.517  1.00  0.00    -0.260 OA 
HETATM   13  N   UNK     1     -11.833   9.351  71.741  1.00  0.00    -0.384 N  
HETATM   14  H   UNK     1     -12.797   9.645  71.900  1.00  0.00     0.000 HD 
BRANCH  13  15
HETATM   15  C   UNK     1     -11.285   8.252  72.511  1.00  0.00    -0.376 C  
BRANCH  15  16
HETATM   16  C   UNK     1     -11.940   6.910  72.174  1.00  0.00    -0.302 C  
BRANCH  16  17
HETATM   17  C   UNK     1     -11.111   6.123  71.159  1.00  0.00    -0.360 C  
BRANCH  17  18
HETATM   18  C   UNK     1     -11.579   6.352  69.715  1.00  0.00    -0.397 C  
BRANCH  18  19
HETATM   19  C   UNK     1     -10.445   6.755  68.760  1.00  0.00    -0.208 C  
HETATM   20  N   UNK     1     -10.821   7.948  67.947  1.00  0.00    -0.479 NA 
HETATM   21  C   UNK     1     -10.113   5.599  67.803  1.00  0.00    -0.171 C  
HETATM   22  O   UNK     1      -9.438   4.625  68.080  1.00  0.00    -0.132 OA 
HETATM   23  O   UNK     1     -10.718   5.778  66.596  1.00  0.00    -0.291 OA 
HETATM   24  H1  UNK     1     -10.068   8.216  67.314  1.00  0.00     0.000 HD 
HETATM   25  H2  UNK     1     -11.109   8.729  68.538  1.00  0.00     0.000 HD 
ENDBRANCH  18  19
ENDBRANCH  17  18
ENDBRANCH  16  17
ENDBRANCH  15  16
ENDBRANCH  13  15
ENDBRANCH  10  11
ENDBRANCH   9  10
ENDBRANCH   8   9
ENDBRANCH   7   8
ENDBRANCH   6   7
ENDBRANCH   5   6
ENDBRANCH   4   5
ENDBRANCH   3   4
ENDBRANCH   2   3
TORSDOF 14
ENDMDL
MODEL      173
REMARK 921   NORMALIZED FREE ENERGY PREDICTED BY IDOCK:   -3.93 KCAL/MOL
REMARK 922        TOTAL FREE ENERGY PREDICTED BY IDOCK:   -8.08 KCAL/MOL
REMARK 923 INTER-LIGAND FREE ENERGY PREDICTED BY IDOCK:   -7.51 KCAL/MOL
REMARK 924 INTRA-LIGAND FREE ENERGY PREDICTED BY IDOCK:   -0.58 KCAL/MOL
REMARK 927      BINDING AFFINITY PREDICTED BY RF-SCORE:    0.00 PKD
ROOT
HETATM    1  C   UNK     1     -10.960   6.069  69.580  1.00  0.00    -0.397 C  
HETATM    2  O   UNK     1     -12.010   6.820  70.172  1.00  0.00    -0.328 OA 
ENDROOT
BRANCH   2   3
HETATM    3  C   UNK     1     -12.056   6.628  71.586  1.00  0.00    -0.355 C  
BRANCH   3   4
HETATM    4  C   UNK     1     -12.066   7.988  72.274  1.00  0.00    -0.341 C  
BRANCH   4   5
HETATM    5  O   UNK     1     -12.362   9.001  71.315  1.00  0.00    -0.306 OA 
BRANCH   5   6
HETATM    6  C   UNK     1     -13.274   9.965  71.836  1.00  0.00    -0.458 C  
BRANCH   6   7
HETATM    7  C   UNK     1     -12.693  11.359  71.643  1.00  0.00    -0.427 C  
BRANCH   7   8
HETATM    8  C   UNK     1     -13.554  12.445  72.297  1.00  0.00    -0.371 C  
BRANCH   8   9
HETATM    9  C   UNK     1     -13.100  13.832  71.850  1.00  0.00    -0.474 C  
BRANCH   9  10
HETATM   10  C   UNK     1     -12.294  13.789  70.554  1.00  0.00    -0.429 C  
BRANCH  10  11
HETATM   11  C   UNK     1     -11.216  14.858  70.549  1.00  0.00    -0.202 C  
HETATM   12  O   UNK     1     -11.253  15.862  71.253  1.00  0.00    -0.353 OA 
HETATM   13  N   UNK     1     -10.188  14.592  69.673  1.00  0.00    -0.434 N  
HETATM   14  H   UNK     1     -10.234  13.761  69.084  1.00  0.00     0.000 HD 
BRANCH  13  15
HETATM   15  C   UNK     1      -9.042  15.474  69.575  1.00  0.00    -0.260 C  
BRANCH  15  16
HETATM   16  C   UNK     1      -8.326  15.365  68.226  1.00  0.00    -0.150 C  
BRANCH  16  17
HETATM   17  C   UNK     1      -9.225  15.825  67.078  1.00  0.00    -0.233 C  
BRANCH  17  18
HETATM   18  C   UNK     1      -9.803  17.228  67.309  1.00  0.00    -0.267 C  
BRANCH  18  19
HETATM   19  C   UNK     1      -9.399  18.242  66.229  1.00  0.00    -0.213 C  
HETATM   20  N   UNK     1      -7.930  18.200  65.971  1.00  0.00    -0.510 NA 
HETATM   21  C   UNK     1      -9.777  19.668  66.662  1.00  0.00    -0.390 C  
HETATM   22  O   UNK     1     -10.891  20.152  66.600  1.00  0.00    -0.277 OA 
HETATM   23  O   UNK     1      -8.699  20.321  67.180  1.00  0.00    -0.332 OA 
HETATM   24  H1  UNK     1      -7.662  18.873  65.253  1.00  0.00     0.000 HD 
HETATM   25  H2  UNK     1      -7.618  17.258  65.736  1.00  0.00     0.000 HD 
ENDBRANCH  18  19
ENDBRANCH  17  18
ENDBRANCH  16  17
ENDBRANCH  15  16
ENDBRANCH  13  15
ENDBRANCH  10  11
ENDBRANCH   9  10
ENDBRANCH   8   9
ENDBRANCH   7   8
ENDBRANCH   6   7
ENDBRANCH   5   6
ENDBRANCH   4   5
ENDBRANCH   3   4
ENDBRANCH   2   3
TORSDOF 14
ENDMDL
MODEL      174
REMARK 921   NORMALIZED FREE ENERGY PREDICTED BY IDOCK:   -3.92 KCAL/MOL
REMARK 922        TOTAL FREE ENERGY PREDICTED BY IDOCK:   -8.07 KCAL/MOL
REMARK 923 INTER-LIGAND FREE ENERGY PREDICTED BY IDOCK:   -7.24 KCAL/MOL
REMARK 924 INTRA-LIGAND FREE ENERGY PREDICTED BY IDOCK:   -0.83 KCAL/MOL
REMARK 927      BINDING AFFINITY PREDICTED BY RF-SCORE:    0.00 PKD
ROOT
HETATM    1  C   UNK     1     -12.213  13.844  70.638  1.00  0.00    -0.373 C  
HETATM    2  O   UNK     1     -13.022  13.857  71.806  1.00  0.00    -0.329 OA 
ENDROOT
BRANCH   2   3
HETATM    3  C   UNK     1     -13.464  12.543  72.150  1.00  0.00    -0.422 C  
BRANCH   3   4
HETATM    4  C   UNK     1     -12.845  11.540  71.184  1.00  0.00    -0.315 C  
BRANCH   4   5
HETATM    5  O   UNK     1     -12.917  10.233  71.750  1.00  0.00    -0.410 OA 
BRANCH   5   6
HETATM    6  C   UNK     1     -11.773   9.452  71.410  1.00  0.00    -0.378 C  
BRANCH   6   7
HETATM    7  C   UNK     1     -11.048  10.109  70.243  1.00  0.00    -0.384 C  
BRANCH   7   8
HETATM    8  C   UNK     1     -10.542   9.084  69.221  1.00  0.00    -0.226 C  
BRANCH   8   9
HETATM    9  C   UNK     1     -10.660   9.637  67.804  1.00  0.00    -0.320 C  
BRANCH   9  10
HETATM   10  C   UNK     1      -9.975  10.992  67.650  1.00  0.00    -0.196 C  
BRANCH  10  11
HETATM   11  C   UNK     1     -10.827  11.941  66.827  1.00  0.00    -0.266 C  
HETATM   12  O   UNK     1     -11.251  11.675  65.707  1.00  0.00    -0.303 OA 
HETATM   13  N   UNK     1     -11.078  13.137  67.460  1.00  0.00    -0.262 N  
HETATM   14  H   UNK     1     -10.664  13.317  68.375  1.00  0.00     0.000 HD 
BRANCH  13  15
HETATM   15  C   UNK     1     -11.923  14.145  66.849  1.00  0.00    -0.449 C  
BRANCH  15  16
HETATM   16  C   UNK     1     -11.122  15.204  66.088  1.00  0.00    -0.311 C  
BRANCH  16  17
HETATM   17  C   UNK     1      -9.752  15.435  66.726  1.00  0.00    -0.254 C  
BRANCH  17  18
HETATM   18  C   UNK     1      -9.090  16.733  66.243  1.00  0.00    -0.320 C  
BRANCH  18  19
HETATM   19  C   UNK     1      -9.003  17.816  67.328  1.00  0.00    -0.246 C  
HETATM   20  N   UNK     1      -9.729  17.401  68.564  1.00  0.00    -0.291 NA 
HETATM   21  C   UNK     1      -9.614  19.133  66.823  1.00  0.00    -0.331 C  
HETATM   22  O   UNK     1      -9.064  19.928  66.086  1.00  0.00    -0.374 OA 
HETATM   23  O   UNK     1     -10.891  19.281  67.273  1.00  0.00    -0.479 OA 
HETATM   24  H1  UNK     1      -9.671  18.120  69.285  1.00  0.00     0.000 HD 
HETATM   25  H2  UNK     1      -9.400  16.499  68.908  1.00  0.00     0.000 HD 
ENDBRANCH  18  19
ENDBRANCH  17  18
ENDBRANCH  16  17
ENDBRANCH  15  16
ENDBRANCH  13  15
ENDBRANCH  10  11
ENDBRANCH   9  10
ENDBRANCH   8   9
ENDBRANCH   7   8
ENDBRANCH   6   7
ENDBRANCH   5   6
ENDBRANCH   4   5
ENDBRANCH   3   4
ENDBRANCH   2   3
TORSDOF 14
ENDMDL
MODEL      175
REMARK 921   NORMALIZED FREE ENERGY PREDICTED BY IDOCK:   -3.92 KCAL/MOL
REMARK 922        TOTAL FREE ENERGY PREDICTED BY IDOCK:   -8.06 KCAL/MOL
REMARK 923 INTER-LIGAND FREE ENERGY PREDICTED BY IDOCK:   -7.12 KCAL/MOL
REMARK 924 INTRA-LIGAND FREE ENERGY PREDICTED BY IDOCK:   -0.94 KCAL/MOL
REMARK 927      BINDING AFFINITY PREDICTED BY RF-SCORE:    0.00 PKD
ROOT
HETATM    1  C   UNK     1      -8.098   6.570  66.218  1.00  0.00    -0.115 C  
HETATM    2  O   UNK     1      -8.337   7.752  66.969  1.00  0.00    -0.114 OA 
ENDROOT
BRANCH   2   3
HETATM    3  C   UNK     1      -9.662   7.773  67.501  1.00  0.00    -0.158 C  
BRANCH   3   4
HETATM    4  C   UNK     1     -10.431   6.568  66.974  1.00  0.00    -0.295 C  
BRANCH   4   5
HETATM    5  O   UNK     1     -11.121   5.939  68.052  1.00  0.00    -0.252 OA 
BRANCH   5   6
HETATM    6  C   UNK     1     -10.954   6.659  69.272  1.00  0.00    -0.295 C  
BRANCH   6   7
HETATM    7  C   UNK     1     -10.851   5.670  70.425  1.00  0.00    -0.326 C  
BRANCH   7   8
HETATM    8  C   UNK     1     -11.451   6.223  71.722  1.00  0.00    -0.355 C  
BRANCH   8   9
HETATM    9  C   UNK     1     -12.446   7.340  71.419  1.00  0.00    -0.418 C  
BRANCH   9  10
HETATM   10  C   UNK     1     -12.248   8.555  72.322  1.00  0.00    -0.454 C  
BRANCH  10  11
HETATM   11  C   UNK     1     -12.522   9.843  71.567  1.00  0.00    -0.411 C  
HETATM   12  O   UNK     1     -13.088  10.812  72.063  1.00  0.00    -0.483 OA 
HETATM   13  N   UNK     1     -12.076   9.818  70.265  1.00  0.00    -0.469 N  
HETATM   14  H   UNK     1     -11.650   8.967  69.897  1.00  0.00     0.000 HD 
BRANCH  13  15
HETATM   15  C   UNK     1     -12.201  10.982  69.410  1.00  0.00    -0.259 C  
BRANCH  15  16
HETATM   16  C   UNK     1     -10.947  11.233  68.567  1.00  0.00    -0.266 C  
BRANCH  16  17
HETATM   17  C   UNK     1     -11.264  11.206  67.072  1.00  0.00    -0.291 C  
BRANCH  17  18
HETATM   18  C   UNK     1     -10.180  11.893  66.229  1.00  0.00    -0.247 C  
BRANCH  18  19
HETATM   19  C   UNK     1     -10.661  13.183  65.548  1.00  0.00    -0.288 C  
HETATM   20  N   UNK     1     -10.016  13.362  64.214  1.00  0.00    -0.746 NA 
HETATM   21  C   UNK     1     -10.326  14.405  66.418  1.00  0.00    -0.287 C  
HETATM   22  O   UNK     1     -10.955  14.770  67.394  1.00  0.00    -0.295 OA 
HETATM   23  O   UNK     1      -9.189  15.016  65.983  1.00  0.00    -0.293 OA 
HETATM   24  H1  UNK     1     -10.336  14.218  63.762  1.00  0.00     0.000 HD 
HETATM   25  H2  UNK     1     -10.159  12.547  63.617  1.00  0.00     0.000 HD 
ENDBRANCH  18  19
ENDBRANCH  17  18
ENDBRANCH  16  17
ENDBRANCH  15  16
ENDBRANCH  13  15
ENDBRANCH  10  11
ENDBRANCH   9  10
ENDBRANCH   8   9
ENDBRANCH   7   8
ENDBRANCH   6   7
ENDBRANCH   5   6
ENDBRANCH   4   5
ENDBRANCH   3   4
ENDBRANCH   2   3
TORSDOF 14
ENDMDL
MODEL      176
REMARK 921   NORMALIZED FREE ENERGY PREDICTED BY IDOCK:   -3.92 KCAL/MOL
REMARK 922        TOTAL FREE ENERGY PREDICTED BY IDOCK:   -8.05 KCAL/MOL
REMARK 923 INTER-LIGAND FREE ENERGY PREDICTED BY IDOCK:   -7.36 KCAL/MOL
REMARK 924 INTRA-LIGAND FREE ENERGY PREDICTED BY IDOCK:   -0.69 KCAL/MOL
REMARK 927      BINDING AFFINITY PREDICTED BY RF-SCORE:    0.00 PKD
ROOT
HETATM    1  C   UNK     1     -13.901  13.411  72.270  1.00  0.00    -0.573 C  
HETATM    2  O   UNK     1     -12.804  14.312  72.290  1.00  0.00    -0.336 OA 
ENDROOT
BRANCH   2   3
HETATM    3  C   UNK     1     -13.090  15.500  71.550  1.00  0.00    -0.496 C  
BRANCH   3   4
HETATM    4  C   UNK     1     -12.081  15.636  70.417  1.00  0.00    -0.394 C  
BRANCH   4   5
HETATM    5  O   UNK     1     -11.289  14.453  70.343  1.00  0.00    -0.207 OA 
BRANCH   5   6
HETATM    6  C   UNK     1     -11.563  13.712  69.156  1.00  0.00    -0.309 C  
BRANCH   6   7
HETATM    7  C   UNK     1     -11.960  14.676  68.046  1.00  0.00    -0.292 C  
BRANCH   7   8
HETATM    8  C   UNK     1     -12.242  13.956  66.723  1.00  0.00    -0.438 C  
BRANCH   8   9
HETATM    9  C   UNK     1     -11.340  14.495  65.616  1.00  0.00    -0.336 C  
BRANCH   9  10
HETATM   10  C   UNK     1     -11.964  14.342  64.232  1.00  0.00    -0.449 C  
BRANCH  10  11
HETATM   11  C   UNK     1     -11.899  12.900  63.763  1.00  0.00    -0.504 C  
HETATM   12  O   UNK     1     -12.859  12.293  63.298  1.00  0.00    -0.719 OA 
HETATM   13  N   UNK     1     -10.654  12.332  63.914  1.00  0.00    -0.389 N  
HETATM   14  H   UNK     1      -9.905  12.874  64.347  1.00  0.00     0.000 HD 
BRANCH  13  15
HETATM   15  C   UNK     1     -10.389  10.979  63.467  1.00  0.00    -0.340 C  
BRANCH  15  16
HETATM   16  C   UNK     1      -8.896  10.643  63.450  1.00  0.00    -0.193 C  
BRANCH  16  17
HETATM   17  C   UNK     1      -8.641   9.207  63.906  1.00  0.00    -0.188 C  
BRANCH  17  18
HETATM   18  C   UNK     1      -7.945   9.138  65.273  1.00  0.00    -0.111 C  
BRANCH  18  19
HETATM   19  C   UNK     1      -8.290   7.873  66.072  1.00  0.00    -0.128 C  
HETATM   20  N   UNK     1      -8.971   6.860  65.213  1.00  0.00    -0.356 NA 
HETATM   21  C   UNK     1      -9.219   8.217  67.248  1.00  0.00    -0.138 C  
HETATM   22  O   UNK     1      -8.866   8.703  68.305  1.00  0.00    -0.140 OA 
HETATM   23  O   UNK     1     -10.518   7.950  66.936  1.00  0.00    -0.325 OA 
HETATM   24  H1  UNK     1      -9.200   6.020  65.743  1.00  0.00     0.000 HD 
HETATM   25  H2  UNK     1      -8.419   6.641  64.383  1.00  0.00     0.000 HD 
ENDBRANCH  18  19
ENDBRANCH  17  18
ENDBRANCH  16  17
ENDBRANCH  15  16
ENDBRANCH  13  15
ENDBRANCH  10  11
ENDBRANCH   9  10
ENDBRANCH   8   9
ENDBRANCH   7   8
ENDBRANCH   6   7
ENDBRANCH   5   6
ENDBRANCH   4   5
ENDBRANCH   3   4
ENDBRANCH   2   3
TORSDOF 14
ENDMDL
MODEL      177
REMARK 921   NORMALIZED FREE ENERGY PREDICTED BY IDOCK:   -3.91 KCAL/MOL
REMARK 922        TOTAL FREE ENERGY PREDICTED BY IDOCK:   -8.04 KCAL/MOL
REMARK 923 INTER-LIGAND FREE ENERGY PREDICTED BY IDOCK:   -6.84 KCAL/MOL
REMARK 924 INTRA-LIGAND FREE ENERGY PREDICTED BY IDOCK:   -1.20 KCAL/MOL
REMARK 927      BINDING AFFINITY PREDICTED BY RF-SCORE:    0.00 PKD
ROOT
HETATM    1  C   UNK     1     -10.849   7.265  73.204  1.00  0.00    -0.357 C  
HETATM    2  O   UNK     1     -11.992   7.564  72.415  1.00  0.00    -0.284 OA 
ENDROOT
BRANCH   2   3
HETATM    3  C   UNK     1     -12.127   8.970  72.203  1.00  0.00    -0.342 C  
BRANCH   3   4
HETATM    4  C   UNK     1     -11.911   9.275  70.725  1.00  0.00    -0.210 C  
BRANCH   4   5
HETATM    5  O   UNK     1     -10.725  10.051  70.571  1.00  0.00    -0.294 OA 
BRANCH   5   6
HETATM    6  C   UNK     1      -9.561   9.228  70.544  1.00  0.00    -0.262 C  
BRANCH   6   7
HETATM    7  C   UNK     1      -8.895   9.349  69.180  1.00  0.00    -0.143 C  
BRANCH   7   8
HETATM    8  C   UNK     1      -9.481   8.369  68.157  1.00  0.00    -0.148 C  
BRANCH   8   9
HETATM    9  C   UNK     1     -10.110   9.123  66.989  1.00  0.00    -0.316 C  
BRANCH   9  10
HETATM   10  C   UNK     1      -9.844  10.624  67.057  1.00  0.00    -0.222 C  
BRANCH  10  11
HETATM   11  C   UNK     1     -11.136  11.411  66.932  1.00  0.00    -0.295 C  
HETATM   12  O   UNK     1     -12.028  11.390  67.774  1.00  0.00    -0.637 OA 
HETATM   13  N   UNK     1     -11.213  12.152  65.774  1.00  0.00    -0.327 N  
HETATM   14  H   UNK     1     -10.457  12.096  65.091  1.00  0.00     0.000 HD 
BRANCH  13  15
HETATM   15  C   UNK     1     -12.351  13.011  65.511  1.00  0.00    -0.472 C  
BRANCH  15  16
HETATM   16  C   UNK     1     -11.942  14.449  65.181  1.00  0.00    -0.391 C  
BRANCH  16  17
HETATM   17  C   UNK     1     -10.429  14.575  65.011  1.00  0.00    -0.454 C  
BRANCH  17  18
HETATM   18  C   UNK     1      -9.748  15.197  66.239  1.00  0.00    -0.315 C  
BRANCH  18  19
HETATM   19  C   UNK     1     -10.730  15.884  67.200  1.00  0.00    -0.301 C  
HETATM   20  N   UNK     1     -10.523  17.362  67.217  1.00  0.00    -0.337 NA 
HETATM   21  C   UNK     1     -10.544  15.350  68.629  1.00  0.00    -0.239 C  
HETATM   22  O   UNK     1     -10.981  14.295  69.050  1.00  0.00    -0.247 OA 
HETATM   23  O   UNK     1      -9.775  16.196  69.369  1.00  0.00    -0.245 OA 
HETATM   24  H1  UNK     1     -11.175  17.818  67.855  1.00  0.00     0.000 HD 
HETATM   25  H2  UNK     1     -10.577  17.759  66.279  1.00  0.00     0.000 HD 
ENDBRANCH  18  19
ENDBRANCH  17  18
ENDBRANCH  16  17
ENDBRANCH  15  16
ENDBRANCH  13  15
ENDBRANCH  10  11
ENDBRANCH   9  10
ENDBRANCH   8   9
ENDBRANCH   7   8
ENDBRANCH   6   7
ENDBRANCH   5   6
ENDBRANCH   4   5
ENDBRANCH   3   4
ENDBRANCH   2   3
TORSDOF 14
ENDMDL
MODEL      178
REMARK 921   NORMALIZED FREE ENERGY PREDICTED BY IDOCK:   -3.90 KCAL/MOL
REMARK 922        TOTAL FREE ENERGY PREDICTED BY IDOCK:   -8.02 KCAL/MOL
REMARK 923 INTER-LIGAND FREE ENERGY PREDICTED BY IDOCK:   -6.66 KCAL/MOL
REMARK 924 INTRA-LIGAND FREE ENERGY PREDICTED BY IDOCK:   -1.36 KCAL/MOL
REMARK 927      BINDING AFFINITY PREDICTED BY RF-SCORE:    0.00 PKD
ROOT
HETATM    1  C   UNK     1      -6.526  11.304  69.540  1.00  0.00    -0.119 C  
HETATM    2  O   UNK     1      -6.188  11.155  68.169  1.00  0.00    -0.049 OA 
ENDROOT
BRANCH   2   3
HETATM    3  C   UNK     1      -6.989  11.996  67.339  1.00  0.00    -0.139 C  
BRANCH   3   4
HETATM    4  C   UNK     1      -8.440  11.914  67.797  1.00  0.00    -0.154 C  
BRANCH   4   5
HETATM    5  O   UNK     1      -9.273  11.609  66.681  1.00  0.00    -0.180 OA 
BRANCH   5   6
HETATM    6  C   UNK     1      -8.804  10.461  65.976  1.00  0.00    -0.160 C  
BRANCH   6   7
HETATM    7  C   UNK     1      -9.872  10.012  64.987  1.00  0.00    -0.374 C  
BRANCH   7   8
HETATM    8  C   UNK     1     -10.014  10.979  63.806  1.00  0.00    -0.404 C  
BRANCH   8   9
HETATM    9  C   UNK     1     -11.403  11.613  63.796  1.00  0.00    -0.482 C  
BRANCH   9  10
HETATM   10  C   UNK     1     -11.358  13.114  64.069  1.00  0.00    -0.437 C  
BRANCH  10  11
HETATM   11  C   UNK     1     -12.194  13.470  65.285  1.00  0.00    -0.441 C  
HETATM   12  O   UNK     1     -13.308  13.979  65.217  1.00  0.00    -0.741 OA 
HETATM   13  N   UNK     1     -11.578  13.168  66.478  1.00  0.00    -0.339 N  
HETATM   14  H   UNK     1     -10.633  12.784  66.472  1.00  0.00     0.000 HD 
BRANCH  13  15
HETATM   15  C   UNK     1     -12.251  13.386  67.744  1.00  0.00    -0.130 C  
BRANCH  15  16
HETATM   16  C   UNK     1     -11.438  14.260  68.702  1.00  0.00    -0.328 C  
BRANCH  16  17
HETATM   17  C   UNK     1     -11.200  15.654  68.121  1.00  0.00    -0.345 C  
BRANCH  17  18
HETATM   18  C   UNK     1      -9.899  16.289  68.631  1.00  0.00    -0.230 C  
BRANCH  18  19
HETATM   19  C   UNK     1      -9.572  17.635  67.966  1.00  0.00    -0.289 C  
HETATM   20  N   UNK     1     -10.817  18.395  67.648  1.00  0.00    -0.352 NA 
HETATM   21  C   UNK     1      -8.790  17.413  66.662  1.00  0.00    -0.254 C  
HETATM   22  O   UNK     1      -7.601  17.168  66.585  1.00  0.00    -0.208 OA 
HETATM   23  O   UNK     1      -9.618  17.479  65.581  1.00  0.00    -0.510 OA 
HETATM   24  H1  UNK     1     -10.600  19.289  67.207  1.00  0.00     0.000 HD 
HETATM   25  H2  UNK     1     -11.403  18.518  68.474  1.00  0.00     0.000 HD 
ENDBRANCH  18  19
ENDBRANCH  17  18
ENDBRANCH  16  17
ENDBRANCH  15  16
ENDBRANCH  13  15
ENDBRANCH  10  11
ENDBRANCH   9  10
ENDBRANCH   8   9
ENDBRANCH   7   8
ENDBRANCH   6   7
ENDBRANCH   5   6
ENDBRANCH   4   5
ENDBRANCH   3   4
ENDBRANCH   2   3
TORSDOF 14
ENDMDL
MODEL      179
REMARK 921   NORMALIZED FREE ENERGY PREDICTED BY IDOCK:   -3.90 KCAL/MOL
REMARK 922        TOTAL FREE ENERGY PREDICTED BY IDOCK:   -8.02 KCAL/MOL
REMARK 923 INTER-LIGAND FREE ENERGY PREDICTED BY IDOCK:   -7.00 KCAL/MOL
REMARK 924 INTRA-LIGAND FREE ENERGY PREDICTED BY IDOCK:   -1.02 KCAL/MOL
REMARK 927      BINDING AFFINITY PREDICTED BY RF-SCORE:    0.00 PKD
ROOT
HETATM    1  C   UNK     1     -11.319  16.026  68.767  1.00  0.00    -0.380 C  
HETATM    2  O   UNK     1     -11.296  14.606  68.745  1.00  0.00    -0.254 OA 
ENDROOT
BRANCH   2   3
HETATM    3  C   UNK     1     -11.723  14.097  67.481  1.00  0.00    -0.386 C  
BRANCH   3   4
HETATM    4  C   UNK     1     -10.842  14.681  66.383  1.00  0.00    -0.315 C  
BRANCH   4   5
HETATM    5  O   UNK     1     -11.640  14.964  65.236  1.00  0.00    -0.343 OA 
BRANCH   5   6
HETATM    6  C   UNK     1     -12.531  13.891  64.941  1.00  0.00    -0.391 C  
BRANCH   6   7
HETATM    7  C   UNK     1     -12.254  13.386  63.531  1.00  0.00    -0.468 C  
BRANCH   7   8
HETATM    8  C   UNK     1     -11.745  11.940  63.520  1.00  0.00    -0.550 C  
BRANCH   8   9
HETATM    9  C   UNK     1     -10.254  11.894  63.843  1.00  0.00    -0.420 C  
BRANCH   9  10
HETATM   10  C   UNK     1      -9.791  10.497  64.248  1.00  0.00    -0.402 C  
BRANCH  10  11
HETATM   11  C   UNK     1     -10.020  10.257  65.730  1.00  0.00    -0.271 C  
HETATM   12  O   UNK     1     -10.076  11.157  66.562  1.00  0.00    -0.210 OA 
HETATM   13  N   UNK     1     -10.155   8.926  66.053  1.00  0.00    -0.416 N  
HETATM   14  H   UNK     1     -10.057   8.220  65.323  1.00  0.00     0.000 HD 
BRANCH  13  15
HETATM   15  C   UNK     1     -10.436   8.511  67.413  1.00  0.00    -0.280 C  
BRANCH  15  16
HETATM   16  C   UNK     1      -9.272   7.748  68.050  1.00  0.00    -0.140 C  
BRANCH  16  17
HETATM   17  C   UNK     1      -8.692   8.508  69.243  1.00  0.00    -0.133 C  
BRANCH  17  18
HETATM   18  C   UNK     1      -9.719   9.439  69.902  1.00  0.00    -0.236 C  
BRANCH  18  19
HETATM   19  C   UNK     1     -10.109   9.012  71.326  1.00  0.00    -0.314 C  
HETATM   20  N   UNK     1      -8.905   8.878  72.197  1.00  0.00    -0.380 NA 
HETATM   21  C   UNK     1     -10.843   7.662  71.298  1.00  0.00    -0.231 C  
HETATM   22  O   UNK     1     -12.012   7.501  71.006  1.00  0.00    -0.302 OA 
HETATM   23  O   UNK     1      -9.994   6.640  71.601  1.00  0.00    -0.175 OA 
HETATM   24  H1  UNK     1      -9.163   8.594  73.142  1.00  0.00     0.000 HD 
HETATM   25  H2  UNK     1      -8.348   9.733  72.202  1.00  0.00     0.000 HD 
ENDBRANCH  18  19
ENDBRANCH  17  18
ENDBRANCH  16  17
ENDBRANCH  15  16
ENDBRANCH  13  15
ENDBRANCH  10  11
ENDBRANCH   9  10
ENDBRANCH   8   9
ENDBRANCH   7   8
ENDBRANCH   6   7
ENDBRANCH   5   6
ENDBRANCH   4   5
ENDBRANCH   3   4
ENDBRANCH   2   3
TORSDOF 14
ENDMDL
MODEL      180
REMARK 921   NORMALIZED FREE ENERGY PREDICTED BY IDOCK:   -3.89 KCAL/MOL
REMARK 922        TOTAL FREE ENERGY PREDICTED BY IDOCK:   -8.00 KCAL/MOL
REMARK 923 INTER-LIGAND FREE ENERGY PREDICTED BY IDOCK:   -6.45 KCAL/MOL
REMARK 924 INTRA-LIGAND FREE ENERGY PREDICTED BY IDOCK:   -1.56 KCAL/MOL
REMARK 927      BINDING AFFINITY PREDICTED BY RF-SCORE:    0.00 PKD
ROOT
HETATM    1  C   UNK     1     -10.042  14.376  68.250  1.00  0.00    -0.239 C  
HETATM    2  O   UNK     1     -11.445  14.592  68.195  1.00  0.00    -0.293 OA 
ENDROOT
BRANCH   2   3
HETATM    3  C   UNK     1     -12.001  14.105  66.973  1.00  0.00    -0.439 C  
BRANCH   3   4
HETATM    4  C   UNK     1     -11.366  12.761  66.637  1.00  0.00    -0.316 C  
BRANCH   4   5
HETATM    5  O   UNK     1     -12.031  11.729  67.361  1.00  0.00    -0.617 OA 
BRANCH   5   6
HETATM    6  C   UNK     1     -11.129  10.694  67.746  1.00  0.00    -0.321 C  
BRANCH   6   7
HETATM    7  C   UNK     1     -10.781  10.857  69.220  1.00  0.00    -0.271 C  
BRANCH   7   8
HETATM    8  C   UNK     1     -11.965  11.375  70.044  1.00  0.00    -0.442 C  
BRANCH   8   9
HETATM    9  C   UNK     1     -12.255  10.439  71.214  1.00  0.00    -0.491 C  
BRANCH   9  10
HETATM   10  C   UNK     1     -11.183   9.365  71.378  1.00  0.00    -0.452 C  
BRANCH  10  11
HETATM   11  C   UNK     1     -11.714   8.002  70.973  1.00  0.00    -0.277 C  
HETATM   12  O   UNK     1     -12.763   7.529  71.398  1.00  0.00    -0.342 OA 
HETATM   13  N   UNK     1     -10.899   7.341  70.082  1.00  0.00    -0.251 N  
HETATM   14  H   UNK     1     -10.017   7.768  69.798  1.00  0.00     0.000 HD 
BRANCH  13  15
HETATM   15  C   UNK     1     -11.274   6.049  69.541  1.00  0.00    -0.346 C  
BRANCH  15  16
HETATM   16  C   UNK     1     -10.902   5.896  68.064  1.00  0.00    -0.321 C  
BRANCH  16  17
HETATM   17  C   UNK     1     -10.609   7.251  67.419  1.00  0.00    -0.370 C  
BRANCH  17  18
HETATM   18  C   UNK     1      -9.207   7.314  66.795  1.00  0.00    -0.187 C  
BRANCH  18  19
HETATM   19  C   UNK     1      -8.398   8.545  67.232  1.00  0.00    -0.115 C  
HETATM   20  N   UNK     1      -7.368   8.903  66.213  1.00  0.00    -0.086 NA 
HETATM   21  C   UNK     1      -7.688   8.274  68.568  1.00  0.00    -0.112 C  
HETATM   22  O   UNK     1      -8.210   8.316  69.665  1.00  0.00    -0.114 OA 
HETATM   23  O   UNK     1      -6.386   7.927  68.365  1.00  0.00    -0.046 OA 
HETATM   24  H1  UNK     1      -6.832   9.720  66.502  1.00  0.00     0.000 HD 
HETATM   25  H2  UNK     1      -7.784   9.035  65.291  1.00  0.00     0.000 HD 
ENDBRANCH  18  19
ENDBRANCH  17  18
ENDBRANCH  16  17
ENDBRANCH  15  16
ENDBRANCH  13  15
ENDBRANCH  10  11
ENDBRANCH   9  10
ENDBRANCH   8   9
ENDBRANCH   7   8
ENDBRANCH   6   7
ENDBRANCH   5   6
ENDBRANCH   4   5
ENDBRANCH   3   4
ENDBRANCH   2   3
TORSDOF 14
ENDMDL
MODEL      181
REMARK 921   NORMALIZED FREE ENERGY PREDICTED BY IDOCK:   -3.87 KCAL/MOL
REMARK 922        TOTAL FREE ENERGY PREDICTED BY IDOCK:   -7.97 KCAL/MOL
REMARK 923 INTER-LIGAND FREE ENERGY PREDICTED BY IDOCK:   -7.44 KCAL/MOL
REMARK 924 INTRA-LIGAND FREE ENERGY PREDICTED BY IDOCK:   -0.53 KCAL/MOL
REMARK 927      BINDING AFFINITY PREDICTED BY RF-SCORE:    0.00 PKD
ROOT
HETATM    1  C   UNK     1      -8.905   5.648  65.656  1.00  0.00    -0.146 C  
HETATM    2  O   UNK     1      -7.988   6.018  66.675  1.00  0.00    -0.100 OA 
ENDROOT
BRANCH   2   3
HETATM    3  C   UNK     1      -7.522   7.356  66.498  1.00  0.00    -0.084 C  
BRANCH   3   4
HETATM    4  C   UNK     1      -8.348   8.032  65.410  1.00  0.00    -0.153 C  
BRANCH   4   5
HETATM    5  O   UNK     1      -7.473   8.622  64.451  1.00  0.00    -0.100 OA 
BRANCH   5   6
HETATM    6  C   UNK     1      -8.178   9.482  63.559  1.00  0.00    -0.164 C  
BRANCH   6   7
HETATM    7  C   UNK     1      -9.489   9.909  64.208  1.00  0.00    -0.280 C  
BRANCH   7   8
HETATM    8  C   UNK     1     -10.232  10.964  63.382  1.00  0.00    -0.356 C  
BRANCH   8   9
HETATM    9  C   UNK     1     -11.256  11.698  64.244  1.00  0.00    -0.392 C  
BRANCH   9  10
HETATM   10  C   UNK     1     -12.028  12.752  63.456  1.00  0.00    -0.633 C  
BRANCH  10  11
HETATM   11  C   UNK     1     -11.811  14.135  64.041  1.00  0.00    -0.271 C  
HETATM   12  O   UNK     1     -12.579  15.076  63.864  1.00  0.00    -0.813 OA 
HETATM   13  N   UNK     1     -10.661  14.236  64.792  1.00  0.00    -0.504 N  
HETATM   14  H   UNK     1     -10.040  13.430  64.868  1.00  0.00     0.000 HD 
BRANCH  13  15
HETATM   15  C   UNK     1     -10.319  15.467  65.475  1.00  0.00    -0.394 C  
BRANCH  15  16
HETATM   16  C   UNK     1     -10.768  15.476  66.938  1.00  0.00    -0.317 C  
BRANCH  16  17
HETATM   17  C   UNK     1      -9.803  16.275  67.814  1.00  0.00    -0.237 C  
BRANCH  17  18
HETATM   18  C   UNK     1     -10.497  17.429  68.552  1.00  0.00    -0.370 C  
BRANCH  18  19
HETATM   19  C   UNK     1      -9.797  18.783  68.366  1.00  0.00    -0.382 C  
HETATM   20  N   UNK     1     -10.467  19.852  69.164  1.00  0.00    -0.553 NA 
HETATM   21  C   UNK     1      -9.813  19.198  66.886  1.00  0.00    -0.335 C  
HETATM   22  O   UNK     1      -9.065  18.773  66.027  1.00  0.00    -0.479 OA 
HETATM   23  O   UNK     1     -10.820  20.082  66.640  1.00  0.00    -0.374 OA 
HETATM   24  H1  UNK     1     -10.002  20.751  69.041  1.00  0.00     0.000 HD 
HETATM   25  H2  UNK     1     -10.535  19.597  70.150  1.00  0.00     0.000 HD 
ENDBRANCH  18  19
ENDBRANCH  17  18
ENDBRANCH  16  17
ENDBRANCH  15  16
ENDBRANCH  13  15
ENDBRANCH  10  11
ENDBRANCH   9  10
ENDBRANCH   8   9
ENDBRANCH   7   8
ENDBRANCH   6   7
ENDBRANCH   5   6
ENDBRANCH   4   5
ENDBRANCH   3   4
ENDBRANCH   2   3
TORSDOF 14
ENDMDL
MODEL      182
REMARK 921   NORMALIZED FREE ENERGY PREDICTED BY IDOCK:   -3.87 KCAL/MOL
REMARK 922        TOTAL FREE ENERGY PREDICTED BY IDOCK:   -7.97 KCAL/MOL
REMARK 923 INTER-LIGAND FREE ENERGY PREDICTED BY IDOCK:   -6.88 KCAL/MOL
REMARK 924 INTRA-LIGAND FREE ENERGY PREDICTED BY IDOCK:   -1.08 KCAL/MOL
REMARK 927      BINDING AFFINITY PREDICTED BY RF-SCORE:    0.00 PKD
ROOT
HETATM    1  C   UNK     1     -11.863  15.465  70.666  1.00  0.00    -0.351 C  
HETATM    2  O   UNK     1     -12.215  15.585  69.295  1.00  0.00    -0.301 OA 
ENDROOT
BRANCH   2   3
HETATM    3  C   UNK     1     -11.072  15.857  68.484  1.00  0.00    -0.340 C  
BRANCH   3   4
HETATM    4  C   UNK     1     -10.985  14.812  67.378  1.00  0.00    -0.313 C  
BRANCH   4   5
HETATM    5  O   UNK     1     -12.264  14.210  67.194  1.00  0.00    -0.421 OA 
BRANCH   5   6
HETATM    6  C   UNK     1     -12.274  13.334  66.069  1.00  0.00    -0.424 C  
BRANCH   6   7
HETATM    7  C   UNK     1     -11.752  14.083  64.849  1.00  0.00    -0.385 C  
BRANCH   7   8
HETATM    8  C   UNK     1     -12.005  13.320  63.545  1.00  0.00    -0.537 C  
BRANCH   8   9
HETATM    9  C   UNK     1     -11.721  11.832  63.730  1.00  0.00    -0.499 C  
BRANCH   9  10
HETATM   10  C   UNK     1     -10.241  11.499  63.562  1.00  0.00    -0.462 C  
BRANCH  10  11
HETATM   11  C   UNK     1      -9.681  10.861  64.821  1.00  0.00    -0.271 C  
HETATM   12  O   UNK     1      -9.724   9.657  65.048  1.00  0.00    -0.289 OA 
HETATM   13  N   UNK     1      -9.120  11.770  65.689  1.00  0.00    -0.403 N  
HETATM   14  H   UNK     1      -9.152  12.765  65.464  1.00  0.00     0.000 HD 
BRANCH  13  15
HETATM   15  C   UNK     1      -8.485  11.336  66.918  1.00  0.00    -0.152 C  
BRANCH  15  16
HETATM   16  C   UNK     1      -9.376  11.535  68.146  1.00  0.00    -0.185 C  
BRANCH  16  17
HETATM   17  C   UNK     1      -9.346  10.313  69.063  1.00  0.00    -0.195 C  
BRANCH  17  18
HETATM   18  C   UNK     1     -10.243   9.175  68.555  1.00  0.00    -0.223 C  
BRANCH  18  19
HETATM   19  C   UNK     1      -9.755   7.779  68.971  1.00  0.00    -0.157 C  
HETATM   20  N   UNK     1      -9.768   6.836  67.814  1.00  0.00    -0.123 NA 
HETATM   21  C   UNK     1     -10.653   7.203  70.078  1.00  0.00    -0.232 C  
HETATM   22  O   UNK     1     -10.595   7.497  71.257  1.00  0.00    -0.215 OA 
HETATM   23  O   UNK     1     -11.573   6.342  69.559  1.00  0.00    -0.404 OA 
HETATM   24  H1  UNK     1      -9.443   5.909  68.090  1.00  0.00     0.000 HD 
HETATM   25  H2  UNK     1      -9.232   7.202  67.027  1.00  0.00     0.000 HD 
ENDBRANCH  18  19
ENDBRANCH  17  18
ENDBRANCH  16  17
ENDBRANCH  15  16
ENDBRANCH  13  15
ENDBRANCH  10  11
ENDBRANCH   9  10
ENDBRANCH   8   9
ENDBRANCH   7   8
ENDBRANCH   6   7
ENDBRANCH   5   6
ENDBRANCH   4   5
ENDBRANCH   3   4
ENDBRANCH   2   3
TORSDOF 14
ENDMDL
MODEL      183
REMARK 921   NORMALIZED FREE ENERGY PREDICTED BY IDOCK:   -3.86 KCAL/MOL
REMARK 922        TOTAL FREE ENERGY PREDICTED BY IDOCK:   -7.94 KCAL/MOL
REMARK 923 INTER-LIGAND FREE ENERGY PREDICTED BY IDOCK:   -7.20 KCAL/MOL
REMARK 924 INTRA-LIGAND FREE ENERGY PREDICTED BY IDOCK:   -0.74 KCAL/MOL
REMARK 927      BINDING AFFINITY PREDICTED BY RF-SCORE:    0.00 PKD
ROOT
HETATM    1  C   UNK     1      -7.895  11.783  66.977  1.00  0.00    -0.161 C  
HETATM    2  O   UNK     1      -7.348  10.479  66.842  1.00  0.00    -0.101 OA 
ENDROOT
BRANCH   2   3
HETATM    3  C   UNK     1      -7.462  10.001  65.501  1.00  0.00    -0.137 C  
BRANCH   3   4
HETATM    4  C   UNK     1      -8.806  10.434  64.929  1.00  0.00    -0.190 C  
BRANCH   4   5
HETATM    5  O   UNK     1      -8.816  10.210  63.521  1.00  0.00    -0.188 OA 
BRANCH   5   6
HETATM    6  C   UNK     1      -9.642  11.155  62.846  1.00  0.00    -0.348 C  
BRANCH   6   7
HETATM    7  C   UNK     1     -10.130  12.196  63.845  1.00  0.00    -0.387 C  
BRANCH   7   8
HETATM    8  C   UNK     1     -11.577  12.626  63.580  1.00  0.00    -0.584 C  
BRANCH   8   9
HETATM    9  C   UNK     1     -12.398  12.568  64.865  1.00  0.00    -0.539 C  
BRANCH   9  10
HETATM   10  C   UNK     1     -12.446  13.913  65.584  1.00  0.00    -0.538 C  
BRANCH  10  11
HETATM   11  C   UNK     1     -11.947  13.784  67.012  1.00  0.00    -0.413 C  
HETATM   12  O   UNK     1     -11.666  14.744  67.722  1.00  0.00    -0.346 OA 
HETATM   13  N   UNK     1     -11.837  12.478  67.435  1.00  0.00    -0.359 N  
HETATM   14  H   UNK     1     -12.046  11.721  66.784  1.00  0.00     0.000 HD 
BRANCH  13  15
HETATM   15  C   UNK     1     -11.430  12.163  68.790  1.00  0.00    -0.307 C  
BRANCH  15  16
HETATM   16  C   UNK     1     -11.694  10.702  69.162  1.00  0.00    -0.324 C  
BRANCH  16  17
HETATM   17  C   UNK     1     -10.517  10.099  69.928  1.00  0.00    -0.322 C  
BRANCH  17  18
HETATM   18  C   UNK     1     -10.195   8.666  69.480  1.00  0.00    -0.209 C  
BRANCH  18  19
HETATM   19  C   UNK     1     -10.690   7.593  70.462  1.00  0.00    -0.236 C  
HETATM   20  N   UNK     1     -12.011   7.042  70.039  1.00  0.00    -0.614 NA 
HETATM   21  C   UNK     1     -10.838   8.183  71.873  1.00  0.00    -0.270 C  
HETATM   22  O   UNK     1      -9.927   8.377  72.655  1.00  0.00    -0.288 OA 
HETATM   23  O   UNK     1     -12.135   8.513  72.129  1.00  0.00    -0.336 OA 
HETATM   24  H1  UNK     1     -12.339   6.329  70.690  1.00  0.00     0.000 HD 
HETATM   25  H2  UNK     1     -11.981   6.690  69.082  1.00  0.00     0.000 HD 
ENDBRANCH  18  19
ENDBRANCH  17  18
ENDBRANCH  16  17
ENDBRANCH  15  16
ENDBRANCH  13  15
ENDBRANCH  10  11
ENDBRANCH   9  10
ENDBRANCH   8   9
ENDBRANCH   7   8
ENDBRANCH   6   7
ENDBRANCH   5   6
ENDBRANCH   4   5
ENDBRANCH   3   4
ENDBRANCH   2   3
TORSDOF 14
ENDMDL
MODEL      184
REMARK 921   NORMALIZED FREE ENERGY PREDICTED BY IDOCK:   -3.85 KCAL/MOL
REMARK 922        TOTAL FREE ENERGY PREDICTED BY IDOCK:   -7.92 KCAL/MOL
REMARK 923 INTER-LIGAND FREE ENERGY PREDICTED BY IDOCK:   -6.93 KCAL/MOL
REMARK 924 INTRA-LIGAND FREE ENERGY PREDICTED BY IDOCK:   -0.99 KCAL/MOL
REMARK 927      BINDING AFFINITY PREDICTED BY RF-SCORE:    0.00 PKD
ROOT
HETATM    1  C   UNK     1     -10.239  14.567  65.173  1.00  0.00    -0.389 C  
HETATM    2  O   UNK     1     -11.207  15.148  66.034  1.00  0.00    -0.338 OA 
ENDROOT
BRANCH   2   3
HETATM    3  C   UNK     1     -11.855  14.160  66.835  1.00  0.00    -0.431 C  
BRANCH   3   4
HETATM    4  C   UNK     1     -12.056  12.898  66.005  1.00  0.00    -0.422 C  
BRANCH   4   5
HETATM    5  O   UNK     1     -11.981  11.755  66.854  1.00  0.00    -0.605 OA 
BRANCH   5   6
HETATM    6  C   UNK     1     -11.785  12.128  68.217  1.00  0.00    -0.342 C  
BRANCH   6   7
HETATM    7  C   UNK     1     -12.112  10.939  69.111  1.00  0.00    -0.292 C  
BRANCH   7   8
HETATM    8  C   UNK     1     -12.120  11.314  70.597  1.00  0.00    -0.480 C  
BRANCH   8   9
HETATM    9  C   UNK     1     -12.047  10.062  71.467  1.00  0.00    -0.475 C  
BRANCH   9  10
HETATM   10  C   UNK     1     -11.225   8.951  70.818  1.00  0.00    -0.321 C  
BRANCH  10  11
HETATM   11  C   UNK     1      -9.738   9.217  70.968  1.00  0.00    -0.289 C  
HETATM   12  O   UNK     1      -9.139   9.138  72.036  1.00  0.00    -0.337 OA 
HETATM   13  N   UNK     1      -9.123   9.560  69.785  1.00  0.00    -0.188 N  
HETATM   14  H   UNK     1      -9.682   9.650  68.937  1.00  0.00     0.000 HD 
BRANCH  13  15
HETATM   15  C   UNK     1      -7.693   9.794  69.726  1.00  0.00    -0.143 C  
BRANCH  15  16
HETATM   16  C   UNK     1      -7.297  10.750  68.598  1.00  0.00    -0.097 C  
BRANCH  16  17
HETATM   17  C   UNK     1      -8.493  11.092  67.710  1.00  0.00    -0.122 C  
BRANCH  17  18
HETATM   18  C   UNK     1      -8.249  10.739  66.235  1.00  0.00    -0.162 C  
BRANCH  18  19
HETATM   19  C   UNK     1      -9.481  10.145  65.536  1.00  0.00    -0.230 C  
HETATM   20  N   UNK     1      -9.530   8.662  65.696  1.00  0.00    -0.446 NA 
HETATM   21  C   UNK     1      -9.457  10.472  64.035  1.00  0.00    -0.289 C  
HETATM   22  O   UNK     1      -9.777  11.536  63.540  1.00  0.00    -0.304 OA 
HETATM   23  O   UNK     1      -8.977   9.419  63.315  1.00  0.00    -0.227 OA 
HETATM   24  H1  UNK     1     -10.348   8.268  65.233  1.00  0.00     0.000 HD 
HETATM   25  H2  UNK     1      -9.488   8.389  66.678  1.00  0.00     0.000 HD 
ENDBRANCH  18  19
ENDBRANCH  17  18
ENDBRANCH  16  17
ENDBRANCH  15  16
ENDBRANCH  13  15
ENDBRANCH  10  11
ENDBRANCH   9  10
ENDBRANCH   8   9
ENDBRANCH   7   8
ENDBRANCH   6   7
ENDBRANCH   5   6
ENDBRANCH   4   5
ENDBRANCH   3   4
ENDBRANCH   2   3
TORSDOF 14
ENDMDL
MODEL      185
REMARK 921   NORMALIZED FREE ENERGY PREDICTED BY IDOCK:   -3.84 KCAL/MOL
REMARK 922        TOTAL FREE ENERGY PREDICTED BY IDOCK:   -7.92 KCAL/MOL
REMARK 923 INTER-LIGAND FREE ENERGY PREDICTED BY IDOCK:   -7.19 KCAL/MOL
REMARK 924 INTRA-LIGAND FREE ENERGY PREDICTED BY IDOCK:   -0.72 KCAL/MOL
REMARK 927      BINDING AFFINITY PREDICTED BY RF-SCORE:    0.00 PKD
ROOT
HETATM    1  C   UNK     1     -13.459   7.363  71.485  1.00  0.00    -0.372 C  
HETATM    2  O   UNK     1     -12.350   6.478  71.557  1.00  0.00    -0.333 OA 
ENDROOT
BRANCH   2   3
HETATM    3  C   UNK     1     -11.631   6.439  70.325  1.00  0.00    -0.383 C  
BRANCH   3   4
HETATM    4  C   UNK     1     -10.452   7.401  70.405  1.00  0.00    -0.221 C  
BRANCH   4   5
HETATM    5  O   UNK     1     -10.753   8.582  69.664  1.00  0.00    -0.229 OA 
BRANCH   5   6
HETATM    6  C   UNK     1     -10.426   8.432  68.284  1.00  0.00    -0.163 C  
BRANCH   6   7
HETATM    7  C   UNK     1     -10.583   9.776  67.585  1.00  0.00    -0.333 C  
BRANCH   7   8
HETATM    8  C   UNK     1     -10.466  10.955  68.557  1.00  0.00    -0.209 C  
BRANCH   8   9
HETATM    9  C   UNK     1     -11.803  11.681  68.682  1.00  0.00    -0.370 C  
BRANCH   9  10
HETATM   10  C   UNK     1     -11.986  12.327  70.053  1.00  0.00    -0.379 C  
BRANCH  10  11
HETATM   11  C   UNK     1     -12.237  13.818  69.922  1.00  0.00    -0.321 C  
HETATM   12  O   UNK     1     -12.863  14.476  70.747  1.00  0.00    -0.342 OA 
HETATM   13  N   UNK     1     -11.694  14.365  68.781  1.00  0.00    -0.319 N  
HETATM   14  H   UNK     1     -11.220  13.758  68.111  1.00  0.00     0.000 HD 
BRANCH  13  15
HETATM   15  C   UNK     1     -11.785  15.787  68.516  1.00  0.00    -0.319 C  
BRANCH  15  16
HETATM   16  C   UNK     1     -10.778  16.605  69.329  1.00  0.00    -0.337 C  
BRANCH  16  17
HETATM   17  C   UNK     1      -9.381  16.542  68.713  1.00  0.00    -0.247 C  
BRANCH  17  18
HETATM   18  C   UNK     1      -9.416  16.475  67.179  1.00  0.00    -0.246 C  
BRANCH  18  19
HETATM   19  C   UNK     1      -9.134  17.824  66.501  1.00  0.00    -0.264 C  
HETATM   20  N   UNK     1      -8.498  18.783  67.451  1.00  0.00    -0.270 NA 
HETATM   21  C   UNK     1     -10.439  18.447  65.981  1.00  0.00    -0.374 C  
HETATM   22  O   UNK     1     -11.011  18.131  64.955  1.00  0.00    -0.718 OA 
HETATM   23  O   UNK     1     -10.913  19.382  66.851  1.00  0.00    -0.444 OA 
HETATM   24  H1  UNK     1      -8.310  19.678  67.001  1.00  0.00     0.000 HD 
HETATM   25  H2  UNK     1      -7.655  18.391  67.872  1.00  0.00     0.000 HD 
ENDBRANCH  18  19
ENDBRANCH  17  18
ENDBRANCH  16  17
ENDBRANCH  15  16
ENDBRANCH  13  15
ENDBRANCH  10  11
ENDBRANCH   9  10
ENDBRANCH   8   9
ENDBRANCH   7   8
ENDBRANCH   6   7
ENDBRANCH   5   6
ENDBRANCH   4   5
ENDBRANCH   3   4
ENDBRANCH   2   3
TORSDOF 14
ENDMDL
MODEL      186
REMARK 921   NORMALIZED FREE ENERGY PREDICTED BY IDOCK:   -3.84 KCAL/MOL
REMARK 922        TOTAL FREE ENERGY PREDICTED BY IDOCK:   -7.92 KCAL/MOL
REMARK 923 INTER-LIGAND FREE ENERGY PREDICTED BY IDOCK:   -6.73 KCAL/MOL
REMARK 924 INTRA-LIGAND FREE ENERGY PREDICTED BY IDOCK:   -1.18 KCAL/MOL
REMARK 927      BINDING AFFINITY PREDICTED BY RF-SCORE:    0.00 PKD
ROOT
HETATM    1  C   UNK     1      -7.452   7.983  73.194  1.00  0.00    -0.133 C  
HETATM    2  O   UNK     1      -8.373   8.794  72.480  1.00  0.00    -0.398 OA 
ENDROOT
BRANCH   2   3
HETATM    3  C   UNK     1      -9.705   8.293  72.590  1.00  0.00    -0.287 C  
BRANCH   3   4
HETATM    4  C   UNK     1     -10.603   9.039  71.610  1.00  0.00    -0.364 C  
BRANCH   4   5
HETATM    5  O   UNK     1      -9.873   9.314  70.416  1.00  0.00    -0.205 OA 
BRANCH   5   6
HETATM    6  C   UNK     1     -10.227   8.414  69.368  1.00  0.00    -0.208 C  
BRANCH   6   7
HETATM    7  C   UNK     1     -10.167   9.151  68.036  1.00  0.00    -0.258 C  
BRANCH   7   8
HETATM    8  C   UNK     1     -10.074  10.671  68.215  1.00  0.00    -0.176 C  
BRANCH   8   9
HETATM    9  C   UNK     1      -8.989  11.252  67.314  1.00  0.00    -0.149 C  
BRANCH   9  10
HETATM   10  C   UNK     1      -9.085  10.734  65.881  1.00  0.00    -0.208 C  
BRANCH  10  11
HETATM   11  C   UNK     1     -10.068  11.559  65.070  1.00  0.00    -0.270 C  
HETATM   12  O   UNK     1     -10.820  11.082  64.227  1.00  0.00    -0.353 OA 
HETATM   13  N   UNK     1     -10.032  12.902  65.371  1.00  0.00    -0.425 N  
HETATM   14  H   UNK     1      -9.355  13.245  66.053  1.00  0.00     0.000 HD 
BRANCH  13  15
HETATM   15  C   UNK     1     -10.941  13.835  64.736  1.00  0.00    -0.392 C  
BRANCH  15  16
HETATM   16  C   UNK     1     -12.183  14.120  65.584  1.00  0.00    -0.449 C  
BRANCH  16  17
HETATM   17  C   UNK     1     -11.886  13.979  67.076  1.00  0.00    -0.458 C  
BRANCH  17  18
HETATM   18  C   UNK     1     -11.871  15.331  67.804  1.00  0.00    -0.111 C  
BRANCH  18  19
HETATM   19  C   UNK     1     -11.308  15.252  69.230  1.00  0.00    -0.298 C  
HETATM   20  N   UNK     1     -10.204  14.252  69.320  1.00  0.00    -0.428 NA 
HETATM   21  C   UNK     1     -12.411  14.850  70.222  1.00  0.00    -0.341 C  
HETATM   22  O   UNK     1     -13.259  15.596  70.674  1.00  0.00    -0.487 OA 
HETATM   23  O   UNK     1     -12.352  13.518  70.502  1.00  0.00    -0.339 OA 
HETATM   24  H1  UNK     1      -9.829  14.200  70.267  1.00  0.00     0.000 HD 
HETATM   25  H2  UNK     1      -9.470  14.441  68.637  1.00  0.00     0.000 HD 
ENDBRANCH  18  19
ENDBRANCH  17  18
ENDBRANCH  16  17
ENDBRANCH  15  16
ENDBRANCH  13  15
ENDBRANCH  10  11
ENDBRANCH   9  10
ENDBRANCH   8   9
ENDBRANCH   7   8
ENDBRANCH   6   7
ENDBRANCH   5   6
ENDBRANCH   4   5
ENDBRANCH   3   4
ENDBRANCH   2   3
TORSDOF 14
ENDMDL
MODEL      187
REMARK 921   NORMALIZED FREE ENERGY PREDICTED BY IDOCK:   -3.84 KCAL/MOL
REMARK 922        TOTAL FREE ENERGY PREDICTED BY IDOCK:   -7.90 KCAL/MOL
REMARK 923 INTER-LIGAND FREE ENERGY PREDICTED BY IDOCK:   -7.11 KCAL/MOL
REMARK 924 INTRA-LIGAND FREE ENERGY PREDICTED BY IDOCK:   -0.80 KCAL/MOL
REMARK 927      BINDING AFFINITY PREDICTED BY RF-SCORE:    0.00 PKD
ROOT
HETATM    1  C   UNK     1      -6.000  14.893  67.985  1.00  0.00    -0.148 C  
HETATM    2  O   UNK     1      -5.648  15.900  67.047  1.00  0.00    -0.334 OA 
ENDROOT
BRANCH   2   3
HETATM    3  C   UNK     1      -6.744  16.777  66.785  1.00  0.00    -0.221 C  
BRANCH   3   4
HETATM    4  C   UNK     1      -7.588  16.910  68.047  1.00  0.00    -0.179 C  
BRANCH   4   5
HETATM    5  O   UNK     1      -8.964  16.734  67.716  1.00  0.00    -0.212 OA 
BRANCH   5   6
HETATM    6  C   UNK     1      -9.378  17.646  66.700  1.00  0.00    -0.278 C  
BRANCH   6   7
HETATM    7  C   UNK     1     -10.370  16.948  65.778  1.00  0.00    -0.298 C  
BRANCH   7   8
HETATM    8  C   UNK     1     -10.676  15.516  66.229  1.00  0.00    -0.307 C  
BRANCH   8   9
HETATM    9  C   UNK     1     -10.984  14.629  65.026  1.00  0.00    -0.415 C  
BRANCH   9  10
HETATM   10  C   UNK     1     -10.305  13.265  65.121  1.00  0.00    -0.336 C  
BRANCH  10  11
HETATM   11  C   UNK     1     -11.136  12.301  65.948  1.00  0.00    -0.322 C  
HETATM   12  O   UNK     1     -12.362  12.320  65.985  1.00  0.00    -0.609 OA 
HETATM   13  N   UNK     1     -10.378  11.399  66.660  1.00  0.00    -0.225 N  
HETATM   14  H   UNK     1      -9.360  11.459  66.622  1.00  0.00     0.000 HD 
BRANCH  13  15
HETATM   15  C   UNK     1     -11.002  10.365  67.462  1.00  0.00    -0.295 C  
BRANCH  15  16
HETATM   16  C   UNK     1     -10.593  10.433  68.936  1.00  0.00    -0.241 C  
BRANCH  16  17
HETATM   17  C   UNK     1     -11.653  11.143  69.778  1.00  0.00    -0.409 C  
BRANCH  17  18
HETATM   18  C   UNK     1     -12.195  10.258  70.910  1.00  0.00    -0.465 C  
BRANCH  18  19
HETATM   19  C   UNK     1     -11.701   8.805  70.841  1.00  0.00    -0.258 C  
HETATM   20  N   UNK     1     -12.839   7.843  70.916  1.00  0.00    -0.519 NA 
HETATM   21  C   UNK     1     -10.737   8.511  72.001  1.00  0.00    -0.340 C  
HETATM   22  O   UNK     1      -9.565   8.833  72.044  1.00  0.00    -0.290 OA 
HETATM   23  O   UNK     1     -11.381   7.873  73.019  1.00  0.00    -0.408 OA 
HETATM   24  H1  UNK     1     -12.511   6.879  70.870  1.00  0.00     0.000 HD 
HETATM   25  H2  UNK     1     -13.540   8.035  70.200  1.00  0.00     0.000 HD 
ENDBRANCH  18  19
ENDBRANCH  17  18
ENDBRANCH  16  17
ENDBRANCH  15  16
ENDBRANCH  13  15
ENDBRANCH  10  11
ENDBRANCH   9  10
ENDBRANCH   8   9
ENDBRANCH   7   8
ENDBRANCH   6   7
ENDBRANCH   5   6
ENDBRANCH   4   5
ENDBRANCH   3   4
ENDBRANCH   2   3
TORSDOF 14
ENDMDL
MODEL      188
REMARK 921   NORMALIZED FREE ENERGY PREDICTED BY IDOCK:   -3.83 KCAL/MOL
REMARK 922        TOTAL FREE ENERGY PREDICTED BY IDOCK:   -7.90 KCAL/MOL
REMARK 923 INTER-LIGAND FREE ENERGY PREDICTED BY IDOCK:   -7.07 KCAL/MOL
REMARK 924 INTRA-LIGAND FREE ENERGY PREDICTED BY IDOCK:   -0.84 KCAL/MOL
REMARK 927      BINDING AFFINITY PREDICTED BY RF-SCORE:    0.00 PKD
ROOT
HETATM    1  C   UNK     1      -7.900  15.813  67.070  1.00  0.00    -0.236 C  
HETATM    2  O   UNK     1      -8.850  14.991  66.406  1.00  0.00    -0.273 OA 
ENDROOT
BRANCH   2   3
HETATM    3  C   UNK     1      -9.831  15.773  65.725  1.00  0.00    -0.348 C  
BRANCH   3   4
HETATM    4  C   UNK     1     -11.220  15.293  66.129  1.00  0.00    -0.225 C  
BRANCH   4   5
HETATM    5  O   UNK     1     -11.912  14.820  64.975  1.00  0.00    -0.366 OA 
BRANCH   5   6
HETATM    6  C   UNK     1     -12.152  13.416  65.047  1.00  0.00    -0.401 C  
BRANCH   6   7
HETATM    7  C   UNK     1     -11.831  12.927  66.454  1.00  0.00    -0.478 C  
BRANCH   7   8
HETATM    8  C   UNK     1     -11.178  11.540  66.452  1.00  0.00    -0.307 C  
BRANCH   8   9
HETATM    9  C   UNK     1     -10.055  11.476  65.420  1.00  0.00    -0.304 C  
BRANCH   9  10
HETATM   10  C   UNK     1      -9.827  10.060  64.898  1.00  0.00    -0.352 C  
BRANCH  10  11
HETATM   11  C   UNK     1      -9.291   9.157  65.994  1.00  0.00    -0.238 C  
HETATM   12  O   UNK     1      -8.230   9.354  66.578  1.00  0.00    -0.113 OA 
HETATM   13  N   UNK     1     -10.114   8.088  66.271  1.00  0.00    -0.481 N  
HETATM   14  H   UNK     1     -10.963   7.954  65.722  1.00  0.00     0.000 HD 
BRANCH  13  15
HETATM   15  C   UNK     1      -9.791   7.150  67.328  1.00  0.00    -0.167 C  
BRANCH  15  16
HETATM   16  C   UNK     1     -11.024   6.419  67.866  1.00  0.00    -0.416 C  
BRANCH  16  17
HETATM   17  C   UNK     1     -10.779   5.868  69.270  1.00  0.00    -0.401 C  
BRANCH  17  18
HETATM   18  C   UNK     1     -11.714   6.489  70.317  1.00  0.00    -0.430 C  
BRANCH  18  19
HETATM   19  C   UNK     1     -10.970   7.118  71.505  1.00  0.00    -0.235 C  
HETATM   20  N   UNK     1     -11.854   7.221  72.703  1.00  0.00    -0.527 NA 
HETATM   21  C   UNK     1     -10.476   8.528  71.143  1.00  0.00    -0.221 C  
HETATM   22  O   UNK     1      -9.487   8.781  70.481  1.00  0.00    -0.164 OA 
HETATM   23  O   UNK     1     -11.325   9.479  71.623  1.00  0.00    -0.383 OA 
HETATM   24  H1  UNK     1     -11.360   7.638  73.491  1.00  0.00     0.000 HD 
HETATM   25  H2  UNK     1     -12.257   6.316  72.949  1.00  0.00     0.000 HD 
ENDBRANCH  18  19
ENDBRANCH  17  18
ENDBRANCH  16  17
ENDBRANCH  15  16
ENDBRANCH  13  15
ENDBRANCH  10  11
ENDBRANCH   9  10
ENDBRANCH   8   9
ENDBRANCH   7   8
ENDBRANCH   6   7
ENDBRANCH   5   6
ENDBRANCH   4   5
ENDBRANCH   3   4
ENDBRANCH   2   3
TORSDOF 14
ENDMDL
MODEL      189
REMARK 921   NORMALIZED FREE ENERGY PREDICTED BY IDOCK:   -3.83 KCAL/MOL
REMARK 922        TOTAL FREE ENERGY PREDICTED BY IDOCK:   -7.89 KCAL/MOL
REMARK 923 INTER-LIGAND FREE ENERGY PREDICTED BY IDOCK:   -6.45 KCAL/MOL
REMARK 924 INTRA-LIGAND FREE ENERGY PREDICTED BY IDOCK:   -1.43 KCAL/MOL
REMARK 927      BINDING AFFINITY PREDICTED BY RF-SCORE:    0.00 PKD
ROOT
HETATM    1  C   UNK     1      -6.901  18.553  65.760  1.00  0.00    -0.275 C  
HETATM    2  O   UNK     1      -7.722  17.402  65.888  1.00  0.00    -0.496 OA 
ENDROOT
BRANCH   2   3
HETATM    3  C   UNK     1      -8.664  17.548  66.952  1.00  0.00    -0.251 C  
BRANCH   3   4
HETATM    4  C   UNK     1      -8.484  16.400  67.938  1.00  0.00    -0.169 C  
BRANCH   4   5
HETATM    5  O   UNK     1      -7.120  15.985  67.938  1.00  0.00    -0.121 OA 
BRANCH   5   6
HETATM    6  C   UNK     1      -7.004  14.565  67.994  1.00  0.00    -0.141 C  
BRANCH   6   7
HETATM    7  C   UNK     1      -8.153  13.939  67.216  1.00  0.00    -0.162 C  
BRANCH   7   8
HETATM    8  C   UNK     1      -8.610  12.608  67.822  1.00  0.00    -0.179 C  
BRANCH   8   9
HETATM    9  C   UNK     1      -7.426  11.661  67.991  1.00  0.00    -0.100 C  
BRANCH   9  10
HETATM   10  C   UNK     1      -6.949  11.085  66.660  1.00  0.00    -0.140 C  
BRANCH  10  11
HETATM   11  C   UNK     1      -8.069  10.338  65.959  1.00  0.00    -0.139 C  
HETATM   12  O   UNK     1      -8.746   9.468  66.497  1.00  0.00    -0.131 OA 
HETATM   13  N   UNK     1      -8.252  10.730  64.652  1.00  0.00    -0.364 N  
HETATM   14  H   UNK     1      -7.630  11.430  64.247  1.00  0.00     0.000 HD 
BRANCH  13  15
HETATM   15  C   UNK     1      -9.314  10.166  63.843  1.00  0.00    -0.287 C  
BRANCH  15  16
HETATM   16  C   UNK     1     -10.126  11.233  63.105  1.00  0.00    -0.385 C  
BRANCH  16  17
HETATM   17  C   UNK     1     -10.451  12.417  64.015  1.00  0.00    -0.443 C  
BRANCH  17  18
HETATM   18  C   UNK     1     -11.556  12.092  65.031  1.00  0.00    -0.365 C  
BRANCH  18  19
HETATM   19  C   UNK     1     -12.487  13.278  65.323  1.00  0.00    -0.489 C  
HETATM   20  N   UNK     1     -12.487  14.255  64.194  1.00  0.00    -0.723 NA 
HETATM   21  C   UNK     1     -12.041  14.010  66.599  1.00  0.00    -0.456 C  
HETATM   22  O   UNK     1     -12.267  13.644  67.737  1.00  0.00    -0.321 OA 
HETATM   23  O   UNK     1     -11.305  15.115  66.294  1.00  0.00    -0.317 OA 
HETATM   24  H1  UNK     1     -13.106  15.042  64.387  1.00  0.00     0.000 HD 
HETATM   25  H2  UNK     1     -12.720  13.804  63.309  1.00  0.00     0.000 HD 
ENDBRANCH  18  19
ENDBRANCH  17  18
ENDBRANCH  16  17
ENDBRANCH  15  16
ENDBRANCH  13  15
ENDBRANCH  10  11
ENDBRANCH   9  10
ENDBRANCH   8   9
ENDBRANCH   7   8
ENDBRANCH   6   7
ENDBRANCH   5   6
ENDBRANCH   4   5
ENDBRANCH   3   4
ENDBRANCH   2   3
TORSDOF 14
ENDMDL
MODEL      190
REMARK 921   NORMALIZED FREE ENERGY PREDICTED BY IDOCK:   -3.82 KCAL/MOL
REMARK 922        TOTAL FREE ENERGY PREDICTED BY IDOCK:   -7.89 KCAL/MOL
REMARK 923 INTER-LIGAND FREE ENERGY PREDICTED BY IDOCK:   -6.47 KCAL/MOL
REMARK 924 INTRA-LIGAND FREE ENERGY PREDICTED BY IDOCK:   -1.42 KCAL/MOL
REMARK 927      BINDING AFFINITY PREDICTED BY RF-SCORE:    0.00 PKD
ROOT
HETATM    1  C   UNK     1      -5.708  10.768  70.589  1.00  0.00    -0.116 C  
HETATM    2  O   UNK     1      -5.743   9.687  69.668  1.00  0.00    -0.033 OA 
ENDROOT
BRANCH   2   3
HETATM    3  C   UNK     1      -6.574   9.984  68.545  1.00  0.00    -0.053 C  
BRANCH   3   4
HETATM    4  C   UNK     1      -7.983   9.472  68.818  1.00  0.00    -0.088 C  
BRANCH   4   5
HETATM    5  O   UNK     1      -8.527   8.923  67.619  1.00  0.00    -0.120 OA 
BRANCH   5   6
HETATM    6  C   UNK     1      -7.849   9.414  66.464  1.00  0.00    -0.097 C  
BRANCH   6   7
HETATM    7  C   UNK     1      -8.680   9.098  65.227  1.00  0.00    -0.219 C  
BRANCH   7   8
HETATM    8  C   UNK     1      -9.893  10.024  65.089  1.00  0.00    -0.388 C  
BRANCH   8   9
HETATM    9  C   UNK     1      -9.575  11.192  64.159  1.00  0.00    -0.290 C  
BRANCH   9  10
HETATM   10  C   UNK     1     -10.714  11.487  63.187  1.00  0.00    -0.281 C  
BRANCH  10  11
HETATM   11  C   UNK     1     -11.559  12.649  63.677  1.00  0.00    -0.503 C  
HETATM   12  O   UNK     1     -12.779  12.695  63.563  1.00  0.00    -0.719 OA 
HETATM   13  N   UNK     1     -10.820  13.652  64.262  1.00  0.00    -0.568 N  
HETATM   14  H   UNK     1      -9.803  13.576  64.289  1.00  0.00     0.000 HD 
BRANCH  13  15
HETATM   15  C   UNK     1     -11.464  14.816  64.839  1.00  0.00    -0.412 C  
BRANCH  15  16
HETATM   16  C   UNK     1     -11.714  14.669  66.342  1.00  0.00    -0.329 C  
BRANCH  16  17
HETATM   17  C   UNK     1     -10.954  13.475  66.920  1.00  0.00    -0.296 C  
BRANCH  17  18
HETATM   18  C   UNK     1     -11.893  12.378  67.443  1.00  0.00    -0.360 C  
BRANCH  18  19
HETATM   19  C   UNK     1     -11.298  11.564  68.601  1.00  0.00    -0.269 C  
HETATM   20  N   UNK     1     -11.290  10.105  68.287  1.00  0.00    -0.522 NA 
HETATM   21  C   UNK     1     -12.114  11.781  69.885  1.00  0.00    -0.287 C  
HETATM   22  O   UNK     1     -12.033  12.749  70.617  1.00  0.00    -0.300 OA 
HETATM   23  O   UNK     1     -12.993  10.758  70.082  1.00  0.00    -0.215 OA 
HETATM   24  H1  UNK     1     -10.894   9.564  69.056  1.00  0.00     0.000 HD 
HETATM   25  H2  UNK     1     -10.808   9.914  67.408  1.00  0.00     0.000 HD 
ENDBRANCH  18  19
ENDBRANCH  17  18
ENDBRANCH  16  17
ENDBRANCH  15  16
ENDBRANCH  13  15
ENDBRANCH  10  11
ENDBRANCH   9  10
ENDBRANCH   8   9
ENDBRANCH   7   8
ENDBRANCH   6   7
ENDBRANCH   5   6
ENDBRANCH   4   5
ENDBRANCH   3   4
ENDBRANCH   2   3
TORSDOF 14
ENDMDL
MODEL      191
REMARK 921   NORMALIZED FREE ENERGY PREDICTED BY IDOCK:   -3.82 KCAL/MOL
REMARK 922        TOTAL FREE ENERGY PREDICTED BY IDOCK:   -7.87 KCAL/MOL
REMARK 923 INTER-LIGAND FREE ENERGY PREDICTED BY IDOCK:   -7.00 KCAL/MOL
REMARK 924 INTRA-LIGAND FREE ENERGY PREDICTED BY IDOCK:   -0.87 KCAL/MOL
REMARK 927      BINDING AFFINITY PREDICTED BY RF-SCORE:    0.00 PKD
ROOT
HETATM    1  C   UNK     1      -9.432   7.169  66.691  1.00  0.00    -0.170 C  
HETATM    2  O   UNK     1      -8.862   6.374  67.720  1.00  0.00    -0.115 OA 
ENDROOT
BRANCH   2   3
HETATM    3  C   UNK     1      -9.788   5.398  68.200  1.00  0.00    -0.145 C  
BRANCH   3   4
HETATM    4  C   UNK     1     -10.897   6.101  68.975  1.00  0.00    -0.350 C  
BRANCH   4   5
HETATM    5  O   UNK     1     -10.587   6.083  70.366  1.00  0.00    -0.228 OA 
BRANCH   5   6
HETATM    6  C   UNK     1     -10.180   7.369  70.829  1.00  0.00    -0.197 C  
BRANCH   6   7
HETATM    7  C   UNK     1     -10.898   8.441  70.018  1.00  0.00    -0.225 C  
BRANCH   7   8
HETATM    8  C   UNK     1     -10.105   9.751  69.955  1.00  0.00    -0.288 C  
BRANCH   8   9
HETATM    9  C   UNK     1     -10.948  10.859  69.329  1.00  0.00    -0.295 C  
BRANCH   9  10
HETATM   10  C   UNK     1     -11.237  10.604  67.852  1.00  0.00    -0.376 C  
BRANCH  10  11
HETATM   11  C   UNK     1     -11.075  11.875  67.039  1.00  0.00    -0.302 C  
HETATM   12  O   UNK     1     -10.927  11.888  65.821  1.00  0.00    -0.293 OA 
HETATM   13  N   UNK     1     -11.107  13.020  67.804  1.00  0.00    -0.252 N  
HETATM   14  H   UNK     1     -11.190  12.943  68.818  1.00  0.00     0.000 HD 
BRANCH  13  15
HETATM   15  C   UNK     1     -11.024  14.331  67.192  1.00  0.00    -0.302 C  
BRANCH  15  16
HETATM   16  C   UNK     1     -11.182  15.467  68.205  1.00  0.00    -0.343 C  
BRANCH  16  17
HETATM   17  C   UNK     1     -12.284  15.163  69.219  1.00  0.00    -0.212 C  
BRANCH  17  18
HETATM   18  C   UNK     1     -11.737  14.956  70.638  1.00  0.00    -0.357 C  
BRANCH  18  19
HETATM   19  C   UNK     1     -12.624  15.571  71.731  1.00  0.00    -0.410 C  
HETATM   20  N   UNK     1     -11.905  16.655  72.464  1.00  0.00    -0.532 NA 
HETATM   21  C   UNK     1     -13.049  14.497  72.745  1.00  0.00    -0.497 C  
HETATM   22  O   UNK     1     -13.939  13.684  72.580  1.00  0.00    -0.733 OA 
HETATM   23  O   UNK     1     -12.260  14.536  73.855  1.00  0.00    -0.378 OA 
HETATM   24  H1  UNK     1     -12.494  17.063  73.189  1.00  0.00     0.000 HD 
HETATM   25  H2  UNK     1     -11.549  17.366  71.826  1.00  0.00     0.000 HD 
ENDBRANCH  18  19
ENDBRANCH  17  18
ENDBRANCH  16  17
ENDBRANCH  15  16
ENDBRANCH  13  15
ENDBRANCH  10  11
ENDBRANCH   9  10
ENDBRANCH   8   9
ENDBRANCH   7   8
ENDBRANCH   6   7
ENDBRANCH   5   6
ENDBRANCH   4   5
ENDBRANCH   3   4
ENDBRANCH   2   3
TORSDOF 14
ENDMDL
MODEL      192
REMARK 921   NORMALIZED FREE ENERGY PREDICTED BY IDOCK:   -3.81 KCAL/MOL
REMARK 922        TOTAL FREE ENERGY PREDICTED BY IDOCK:   -7.86 KCAL/MOL
REMARK 923 INTER-LIGAND FREE ENERGY PREDICTED BY IDOCK:   -6.38 KCAL/MOL
REMARK 924 INTRA-LIGAND FREE ENERGY PREDICTED BY IDOCK:   -1.49 KCAL/MOL
REMARK 927      BINDING AFFINITY PREDICTED BY RF-SCORE:    0.00 PKD
ROOT
HETATM    1  C   UNK     1     -10.906   8.213  72.407  1.00  0.00    -0.339 C  
HETATM    2  O   UNK     1     -11.815   8.614  71.393  1.00  0.00    -0.275 OA 
ENDROOT
BRANCH   2   3
HETATM    3  C   UNK     1     -11.821  10.032  71.226  1.00  0.00    -0.385 C  
BRANCH   3   4
HETATM    4  C   UNK     1     -11.658  10.361  69.747  1.00  0.00    -0.269 C  
BRANCH   4   5
HETATM    5  O   UNK     1     -10.303  10.721  69.489  1.00  0.00    -0.215 OA 
BRANCH   5   6
HETATM    6  C   UNK     1      -9.624   9.708  68.750  1.00  0.00    -0.152 C  
BRANCH   6   7
HETATM    7  C   UNK     1      -9.035  10.321  67.486  1.00  0.00    -0.138 C  
BRANCH   7   8
HETATM    8  C   UNK     1      -9.452   9.561  66.222  1.00  0.00    -0.267 C  
BRANCH   8   9
HETATM    9  C   UNK     1      -9.895  10.534  65.133  1.00  0.00    -0.359 C  
BRANCH   9  10
HETATM   10  C   UNK     1     -10.964  11.508  65.623  1.00  0.00    -0.296 C  
BRANCH  10  11
HETATM   11  C   UNK     1     -10.745  12.892  65.041  1.00  0.00    -0.305 C  
HETATM   12  O   UNK     1     -11.181  13.247  63.951  1.00  0.00    -0.373 OA 
HETATM   13  N   UNK     1     -10.004  13.717  65.858  1.00  0.00    -0.350 N  
HETATM   14  H   UNK     1      -9.633  13.352  66.736  1.00  0.00     0.000 HD 
BRANCH  13  15
HETATM   15  C   UNK     1      -9.743  15.095  65.491  1.00  0.00    -0.268 C  
BRANCH  15  16
HETATM   16  C   UNK     1      -9.765  16.041  66.694  1.00  0.00    -0.261 C  
BRANCH  16  17
HETATM   17  C   UNK     1      -8.803  15.577  67.788  1.00  0.00    -0.173 C  
BRANCH  17  18
HETATM   18  C   UNK     1      -9.531  15.165  69.076  1.00  0.00    -0.221 C  
BRANCH  18  19
HETATM   19  C   UNK     1     -11.031  15.495  69.063  1.00  0.00    -0.256 C  
HETATM   20  N   UNK     1     -11.404  16.360  70.221  1.00  0.00    -0.468 NA 
HETATM   21  C   UNK     1     -11.864  14.205  69.130  1.00  0.00    -0.341 C  
HETATM   22  O   UNK     1     -12.092  13.463  68.194  1.00  0.00    -0.335 OA 
HETATM   23  O   UNK     1     -12.287  13.964  70.403  1.00  0.00    -0.332 OA 
HETATM   24  H1  UNK     1     -12.399  16.579  70.212  1.00  0.00     0.000 HD 
HETATM   25  H2  UNK     1     -10.834  17.205  70.256  1.00  0.00     0.000 HD 
ENDBRANCH  18  19
ENDBRANCH  17  18
ENDBRANCH  16  17
ENDBRANCH  15  16
ENDBRANCH  13  15
ENDBRANCH  10  11
ENDBRANCH   9  10
ENDBRANCH   8   9
ENDBRANCH   7   8
ENDBRANCH   6   7
ENDBRANCH   5   6
ENDBRANCH   4   5
ENDBRANCH   3   4
ENDBRANCH   2   3
TORSDOF 14
ENDMDL
MODEL      193
REMARK 921   NORMALIZED FREE ENERGY PREDICTED BY IDOCK:   -3.81 KCAL/MOL
REMARK 922        TOTAL FREE ENERGY PREDICTED BY IDOCK:   -7.86 KCAL/MOL
REMARK 923 INTER-LIGAND FREE ENERGY PREDICTED BY IDOCK:   -7.15 KCAL/MOL
REMARK 924 INTRA-LIGAND FREE ENERGY PREDICTED BY IDOCK:   -0.71 KCAL/MOL
REMARK 927      BINDING AFFINITY PREDICTED BY RF-SCORE:    0.00 PKD
ROOT
HETATM    1  C   UNK     1      -9.607   3.893  69.825  1.00  0.00    -0.201 C  
HETATM    2  O   UNK     1      -9.051   3.786  71.128  1.00  0.00    -0.099 OA 
ENDROOT
BRANCH   2   3
HETATM    3  C   UNK     1      -9.842   2.944  71.966  1.00  0.00    -0.172 C  
BRANCH   3   4
HETATM    4  C   UNK     1     -10.544   3.799  73.014  1.00  0.00    -0.167 C  
BRANCH   4   5
HETATM    5  O   UNK     1      -9.848   5.035  73.159  1.00  0.00    -0.149 OA 
BRANCH   5   6
HETATM    6  C   UNK     1     -10.749   6.136  73.252  1.00  0.00    -0.260 C  
BRANCH   6   7
HETATM    7  C   UNK     1     -11.635   6.162  72.013  1.00  0.00    -0.364 C  
BRANCH   7   8
HETATM    8  C   UNK     1     -13.056   6.645  72.324  1.00  0.00     0.121 C  
BRANCH   8   9
HETATM    9  C   UNK     1     -13.524   7.648  71.273  1.00  0.00    -0.283 C  
BRANCH   9  10
HETATM   10  C   UNK     1     -13.411   9.092  71.757  1.00  0.00    -0.453 C  
BRANCH  10  11
HETATM   11  C   UNK     1     -12.160   9.753  71.207  1.00  0.00    -0.382 C  
HETATM   12  O   UNK     1     -11.058   9.670  71.739  1.00  0.00    -0.298 OA 
HETATM   13  N   UNK     1     -12.382  10.461  70.047  1.00  0.00    -0.503 N  
HETATM   14  H   UNK     1     -13.330  10.528  69.675  1.00  0.00     0.000 HD 
BRANCH  13  15
HETATM   15  C   UNK     1     -11.293  11.112  69.348  1.00  0.00    -0.283 C  
BRANCH  15  16
HETATM   16  C   UNK     1     -11.747  11.805  68.060  1.00  0.00    -0.363 C  
BRANCH  16  17
HETATM   17  C   UNK     1     -11.412  13.296  68.080  1.00  0.00    -0.344 C  
BRANCH  17  18
HETATM   18  C   UNK     1     -12.035  14.054  66.899  1.00  0.00    -0.479 C  
BRANCH  18  19
HETATM   19  C   UNK     1     -11.240  13.910  65.592  1.00  0.00    -0.306 C  
HETATM   20  N   UNK     1      -9.793  14.208  65.804  1.00  0.00    -0.446 NA 
HETATM   21  C   UNK     1     -11.785  14.873  64.524  1.00  0.00    -0.382 C  
HETATM   22  O   UNK     1     -12.783  14.691  63.854  1.00  0.00    -0.788 OA 
HETATM   23  O   UNK     1     -11.023  16.000  64.452  1.00  0.00    -0.554 OA 
HETATM   24  H1  UNK     1      -9.266  14.112  64.936  1.00  0.00     0.000 HD 
HETATM   25  H2  UNK     1      -9.398  13.634  66.548  1.00  0.00     0.000 HD 
ENDBRANCH  18  19
ENDBRANCH  17  18
ENDBRANCH  16  17
ENDBRANCH  15  16
ENDBRANCH  13  15
ENDBRANCH  10  11
ENDBRANCH   9  10
ENDBRANCH   8   9
ENDBRANCH   7   8
ENDBRANCH   6   7
ENDBRANCH   5   6
ENDBRANCH   4   5
ENDBRANCH   3   4
ENDBRANCH   2   3
TORSDOF 14
ENDMDL
MODEL      194
REMARK 921   NORMALIZED FREE ENERGY PREDICTED BY IDOCK:   -3.81 KCAL/MOL
REMARK 922        TOTAL FREE ENERGY PREDICTED BY IDOCK:   -7.86 KCAL/MOL
REMARK 923 INTER-LIGAND FREE ENERGY PREDICTED BY IDOCK:   -7.38 KCAL/MOL
REMARK 924 INTRA-LIGAND FREE ENERGY PREDICTED BY IDOCK:   -0.48 KCAL/MOL
REMARK 927      BINDING AFFINITY PREDICTED BY RF-SCORE:    0.00 PKD
ROOT
HETATM    1  C   UNK     1      -7.970   4.784  72.140  1.00  0.00    -0.106 C  
HETATM    2  O   UNK     1      -7.724   5.092  73.504  1.00  0.00    -0.097 OA 
ENDROOT
BRANCH   2   3
HETATM    3  C   UNK     1      -8.884   5.636  74.135  1.00  0.00    -0.122 C  
BRANCH   3   4
HETATM    4  C   UNK     1      -9.881   6.060  73.064  1.00  0.00    -0.168 C  
BRANCH   4   5
HETATM    5  O   UNK     1     -10.379   7.361  73.370  1.00  0.00    -0.312 OA 
BRANCH   5   6
HETATM    6  C   UNK     1     -11.724   7.525  72.925  1.00  0.00    -0.109 C  
BRANCH   6   7
HETATM    7  C   UNK     1     -11.770   8.617  71.866  1.00  0.00    -0.422 C  
BRANCH   7   8
HETATM    8  C   UNK     1     -12.967   9.556  72.049  1.00  0.00    -0.514 C  
BRANCH   8   9
HETATM    9  C   UNK     1     -12.820  10.792  71.165  1.00  0.00    -0.513 C  
BRANCH   9  10
HETATM   10  C   UNK     1     -12.042  10.501  69.884  1.00  0.00    -0.318 C  
BRANCH  10  11
HETATM   11  C   UNK     1     -11.875  11.759  69.052  1.00  0.00    -0.317 C  
HETATM   12  O   UNK     1     -11.817  11.760  67.827  1.00  0.00    -0.541 OA 
HETATM   13  N   UNK     1     -11.792  12.907  69.808  1.00  0.00    -0.375 N  
HETATM   14  H   UNK     1     -11.804  12.838  70.826  1.00  0.00     0.000 HD 
BRANCH  13  15
HETATM   15  C   UNK     1     -11.687  14.210  69.182  1.00  0.00    -0.327 C  
BRANCH  15  16
HETATM   16  C   UNK     1     -11.265  15.305  70.164  1.00  0.00    -0.313 C  
BRANCH  16  17
HETATM   17  C   UNK     1     -10.700  16.523  69.433  1.00  0.00    -0.330 C  
BRANCH  17  18
HETATM   18  C   UNK     1     -11.150  16.590  67.966  1.00  0.00    -0.275 C  
BRANCH  18  19
HETATM   19  C   UNK     1     -10.216  17.425  67.077  1.00  0.00    -0.323 C  
HETATM   20  N   UNK     1     -10.689  18.837  66.974  1.00  0.00    -0.409 NA 
HETATM   21  C   UNK     1     -10.148  16.829  65.662  1.00  0.00    -0.189 C  
HETATM   22  O   UNK     1      -9.482  15.866  65.334  1.00  0.00    -0.355 OA 
HETATM   23  O   UNK     1     -10.978  17.497  64.813  1.00  0.00    -0.950 OA 
HETATM   24  H1  UNK     1     -10.069  19.391  66.384  1.00  0.00     0.000 HD 
HETATM   25  H2  UNK     1     -10.808  19.260  67.894  1.00  0.00     0.000 HD 
ENDBRANCH  18  19
ENDBRANCH  17  18
ENDBRANCH  16  17
ENDBRANCH  15  16
ENDBRANCH  13  15
ENDBRANCH  10  11
ENDBRANCH   9  10
ENDBRANCH   8   9
ENDBRANCH   7   8
ENDBRANCH   6   7
ENDBRANCH   5   6
ENDBRANCH   4   5
ENDBRANCH   3   4
ENDBRANCH   2   3
TORSDOF 14
ENDMDL
MODEL      195
REMARK 921   NORMALIZED FREE ENERGY PREDICTED BY IDOCK:   -3.80 KCAL/MOL
REMARK 922        TOTAL FREE ENERGY PREDICTED BY IDOCK:   -7.85 KCAL/MOL
REMARK 923 INTER-LIGAND FREE ENERGY PREDICTED BY IDOCK:   -7.40 KCAL/MOL
REMARK 924 INTRA-LIGAND FREE ENERGY PREDICTED BY IDOCK:   -0.45 KCAL/MOL
REMARK 927      BINDING AFFINITY PREDICTED BY RF-SCORE:    0.00 PKD
ROOT
HETATM    1  C   UNK     1      -9.484   7.068  66.711  1.00  0.00    -0.163 C  
HETATM    2  O   UNK     1      -9.642   6.483  67.995  1.00  0.00    -0.121 OA 
ENDROOT
BRANCH   2   3
HETATM    3  C   UNK     1     -11.004   6.134  68.247  1.00  0.00    -0.308 C  
BRANCH   3   4
HETATM    4  C   UNK     1     -11.323   6.396  69.713  1.00  0.00    -0.427 C  
BRANCH   4   5
HETATM    5  O   UNK     1     -11.046   7.760  70.022  1.00  0.00    -0.248 OA 
BRANCH   5   6
HETATM    6  C   UNK     1     -11.856   8.228  71.098  1.00  0.00    -0.275 C  
BRANCH   6   7
HETATM    7  C   UNK     1     -11.466   9.663  71.428  1.00  0.00    -0.455 C  
BRANCH   7   8
HETATM    8  C   UNK     1     -12.615  10.649  71.186  1.00  0.00    -0.526 C  
BRANCH   8   9
HETATM    9  C   UNK     1     -12.133  11.847  70.374  1.00  0.00    -0.421 C  
BRANCH   9  10
HETATM   10  C   UNK     1     -11.898  11.497  68.907  1.00  0.00    -0.406 C  
BRANCH  10  11
HETATM   11  C   UNK     1     -11.205  12.636  68.181  1.00  0.00    -0.269 C  
HETATM   12  O   UNK     1     -11.138  12.721  66.959  1.00  0.00    -0.260 OA 
HETATM   13  N   UNK     1     -10.653  13.568  69.030  1.00  0.00    -0.404 N  
HETATM   14  H   UNK     1     -10.704  13.421  70.038  1.00  0.00     0.000 HD 
BRANCH  13  15
HETATM   15  C   UNK     1      -9.999  14.755  68.514  1.00  0.00    -0.228 C  
BRANCH  15  16
HETATM   16  C   UNK     1     -10.949  15.950  68.400  1.00  0.00    -0.331 C  
BRANCH  16  17
HETATM   17  C   UNK     1     -10.528  16.893  67.272  1.00  0.00    -0.301 C  
BRANCH  17  18
HETATM   18  C   UNK     1     -10.646  18.372  67.667  1.00  0.00    -0.437 C  
BRANCH  18  19
HETATM   19  C   UNK     1      -9.395  19.197  67.328  1.00  0.00    -0.301 C  
HETATM   20  N   UNK     1      -9.595  19.991  66.080  1.00  0.00    -0.538 NA 
HETATM   21  C   UNK     1      -8.182  18.275  67.129  1.00  0.00    -0.234 C  
HETATM   22  O   UNK     1      -7.523  17.775  68.021  1.00  0.00    -0.214 OA 
HETATM   23  O   UNK     1      -7.958  18.043  65.805  1.00  0.00    -0.532 OA 
HETATM   24  H1  UNK     1      -8.765  20.539  65.855  1.00  0.00     0.000 HD 
HETATM   25  H2  UNK     1     -10.427  20.578  66.139  1.00  0.00     0.000 HD 
ENDBRANCH  18  19
ENDBRANCH  17  18
ENDBRANCH  16  17
ENDBRANCH  15  16
ENDBRANCH  13  15
ENDBRANCH  10  11
ENDBRANCH   9  10
ENDBRANCH   8   9
ENDBRANCH   7   8
ENDBRANCH   6   7
ENDBRANCH   5   6
ENDBRANCH   4   5
ENDBRANCH   3   4
ENDBRANCH   2   3
TORSDOF 14
ENDMDL
MODEL      196
REMARK 921   NORMALIZED FREE ENERGY PREDICTED BY IDOCK:   -3.79 KCAL/MOL
REMARK 922        TOTAL FREE ENERGY PREDICTED BY IDOCK:   -7.83 KCAL/MOL
REMARK 923 INTER-LIGAND FREE ENERGY PREDICTED BY IDOCK:   -6.73 KCAL/MOL
REMARK 924 INTRA-LIGAND FREE ENERGY PREDICTED BY IDOCK:   -1.10 KCAL/MOL
REMARK 927      BINDING AFFINITY PREDICTED BY RF-SCORE:    0.00 PKD
ROOT
HETATM    1  C   UNK     1     -11.426   6.289  71.673  1.00  0.00    -0.296 C  
HETATM    2  O   UNK     1     -10.418   7.253  71.941  1.00  0.00    -0.199 OA 
ENDROOT
BRANCH   2   3
HETATM    3  C   UNK     1     -10.982   8.531  72.237  1.00  0.00    -0.355 C  
BRANCH   3   4
HETATM    4  C   UNK     1     -10.931   9.402  70.988  1.00  0.00    -0.338 C  
BRANCH   4   5
HETATM    5  O   UNK     1     -12.258   9.736  70.589  1.00  0.00    -0.269 OA 
BRANCH   5   6
HETATM    6  C   UNK     1     -12.262  10.720  69.556  1.00  0.00    -0.221 C  
BRANCH   6   7
HETATM    7  C   UNK     1     -11.725  12.031  70.114  1.00  0.00    -0.316 C  
BRANCH   7   8
HETATM    8  C   UNK     1     -11.097  12.912  69.028  1.00  0.00    -0.284 C  
BRANCH   8   9
HETATM    9  C   UNK     1     -11.843  12.748  67.706  1.00  0.00    -0.387 C  
BRANCH   9  10
HETATM   10  C   UNK     1     -12.023  14.075  66.974  1.00  0.00    -0.472 C  
BRANCH  10  11
HETATM   11  C   UNK     1     -11.479  13.993  65.559  1.00  0.00    -0.318 C  
HETATM   12  O   UNK     1     -10.698  14.811  65.083  1.00  0.00    -0.358 OA 
HETATM   13  N   UNK     1     -11.949  12.907  64.856  1.00  0.00    -0.368 N  
HETATM   14  H   UNK     1     -12.630  12.284  65.291  1.00  0.00     0.000 HD 
BRANCH  13  15
HETATM   15  C   UNK     1     -11.494  12.635  63.507  1.00  0.00    -0.491 C  
BRANCH  15  16
HETATM   16  C   UNK     1     -10.275  11.710  63.470  1.00  0.00    -0.474 C  
BRANCH  16  17
HETATM   17  C   UNK     1     -10.251  10.768  64.674  1.00  0.00    -0.419 C  
BRANCH  17  18
HETATM   18  C   UNK     1      -8.919  10.820  65.434  1.00  0.00    -0.211 C  
BRANCH  18  19
HETATM   19  C   UNK     1      -8.314   9.434  65.705  1.00  0.00    -0.124 C  
HETATM   20  N   UNK     1      -8.646   8.477  64.608  1.00  0.00    -0.365 NA 
HETATM   21  C   UNK     1      -8.850   8.863  67.027  1.00  0.00    -0.126 C  
HETATM   22  O   UNK     1      -8.461   9.171  68.138  1.00  0.00    -0.123 OA 
HETATM   23  O   UNK     1      -9.869   7.987  66.802  1.00  0.00    -0.213 OA 
HETATM   24  H1  UNK     1      -8.245   7.557  64.787  1.00  0.00     0.000 HD 
HETATM   25  H2  UNK     1      -8.363   8.839  63.697  1.00  0.00     0.000 HD 
ENDBRANCH  18  19
ENDBRANCH  17  18
ENDBRANCH  16  17
ENDBRANCH  15  16
ENDBRANCH  13  15
ENDBRANCH  10  11
ENDBRANCH   9  10
ENDBRANCH   8   9
ENDBRANCH   7   8
ENDBRANCH   6   7
ENDBRANCH   5   6
ENDBRANCH   4   5
ENDBRANCH   3   4
ENDBRANCH   2   3
TORSDOF 14
ENDMDL
MODEL      197
REMARK 921   NORMALIZED FREE ENERGY PREDICTED BY IDOCK:   -3.79 KCAL/MOL
REMARK 922        TOTAL FREE ENERGY PREDICTED BY IDOCK:   -7.83 KCAL/MOL
REMARK 923 INTER-LIGAND FREE ENERGY PREDICTED BY IDOCK:   -7.40 KCAL/MOL
REMARK 924 INTRA-LIGAND FREE ENERGY PREDICTED BY IDOCK:   -0.43 KCAL/MOL
REMARK 927      BINDING AFFINITY PREDICTED BY RF-SCORE:    0.00 PKD
ROOT
HETATM    1  C   UNK     1     -11.119   8.874  70.306  1.00  0.00    -0.228 C  
HETATM    2  O   UNK     1     -10.940   7.471  70.176  1.00  0.00    -0.257 OA 
ENDROOT
BRANCH   2   3
HETATM    3  C   UNK     1      -9.565   7.135  69.982  1.00  0.00    -0.164 C  
BRANCH   3   4
HETATM    4  C   UNK     1      -8.987   8.016  68.881  1.00  0.00    -0.141 C  
BRANCH   4   5
HETATM    5  O   UNK     1      -9.093   7.341  67.630  1.00  0.00    -0.125 OA 
BRANCH   5   6
HETATM    6  C   UNK     1      -9.974   8.022  66.740  1.00  0.00    -0.274 C  
BRANCH   6   7
HETATM    7  C   UNK     1      -9.262   9.240  66.167  1.00  0.00    -0.249 C  
BRANCH   7   8
HETATM    8  C   UNK     1     -10.242  10.314  65.683  1.00  0.00    -0.301 C  
BRANCH   8   9
HETATM    9  C   UNK     1      -9.772  10.912  64.360  1.00  0.00    -0.342 C  
BRANCH   9  10
HETATM   10  C   UNK     1     -10.933  11.405  63.500  1.00  0.00    -0.406 C  
BRANCH  10  11
HETATM   11  C   UNK     1     -11.421  12.763  63.973  1.00  0.00    -0.417 C  
HETATM   12  O   UNK     1     -12.602  13.097  63.974  1.00  0.00    -0.635 OA 
HETATM   13  N   UNK     1     -10.407  13.589  64.402  1.00  0.00    -0.635 N  
HETATM   14  H   UNK     1      -9.439  13.269  64.338  1.00  0.00     0.000 HD 
BRANCH  13  15
HETATM   15  C   UNK     1     -10.690  14.904  64.942  1.00  0.00    -0.405 C  
BRANCH  15  16
HETATM   16  C   UNK     1      -9.583  15.413  65.868  1.00  0.00    -0.386 C  
BRANCH  16  17
HETATM   17  C   UNK     1     -10.150  16.281  66.991  1.00  0.00    -0.270 C  
BRANCH  17  18
HETATM   18  C   UNK     1      -9.147  17.335  67.483  1.00  0.00    -0.223 C  
BRANCH  18  19
HETATM   19  C   UNK     1      -8.897  18.462  66.470  1.00  0.00    -0.278 C  
HETATM   20  N   UNK     1      -8.067  19.550  67.066  1.00  0.00    -0.266 NA 
HETATM   21  C   UNK     1     -10.229  19.067  66.000  1.00  0.00    -0.401 C  
HETATM   22  O   UNK     1     -10.971  18.580  65.169  1.00  0.00    -0.571 OA 
HETATM   23  O   UNK     1     -10.508  20.215  66.678  1.00  0.00    -0.429 OA 
HETATM   24  H1  UNK     1      -7.901  20.298  66.393  1.00  0.00     0.000 HD 
HETATM   25  H2  UNK     1      -7.193  19.188  67.448  1.00  0.00     0.000 HD 
ENDBRANCH  18  19
ENDBRANCH  17  18
ENDBRANCH  16  17
ENDBRANCH  15  16
ENDBRANCH  13  15
ENDBRANCH  10  11
ENDBRANCH   9  10
ENDBRANCH   8   9
ENDBRANCH   7   8
ENDBRANCH   6   7
ENDBRANCH   5   6
ENDBRANCH   4   5
ENDBRANCH   3   4
ENDBRANCH   2   3
TORSDOF 14
ENDMDL
MODEL      198
REMARK 921   NORMALIZED FREE ENERGY PREDICTED BY IDOCK:   -3.79 KCAL/MOL
REMARK 922        TOTAL FREE ENERGY PREDICTED BY IDOCK:   -7.82 KCAL/MOL
REMARK 923 INTER-LIGAND FREE ENERGY PREDICTED BY IDOCK:   -7.11 KCAL/MOL
REMARK 924 INTRA-LIGAND FREE ENERGY PREDICTED BY IDOCK:   -0.71 KCAL/MOL
REMARK 927      BINDING AFFINITY PREDICTED BY RF-SCORE:    0.00 PKD
ROOT
HETATM    1  C   UNK     1      -8.427   5.122  73.172  1.00  0.00    -0.110 C  
HETATM    2  O   UNK     1      -8.569   6.320  73.922  1.00  0.00    -0.121 OA 
ENDROOT
BRANCH   2   3
HETATM    3  C   UNK     1      -9.917   6.508  74.355  1.00  0.00    -0.351 C  
BRANCH   3   4
HETATM    4  C   UNK     1     -10.848   6.398  73.154  1.00  0.00    -0.254 C  
BRANCH   4   5
HETATM    5  O   UNK     1     -11.523   7.639  72.964  1.00  0.00    -0.342 OA 
BRANCH   5   6
HETATM    6  C   UNK     1     -11.956   7.799  71.615  1.00  0.00    -0.297 C  
BRANCH   6   7
HETATM    7  C   UNK     1     -11.010   7.040  70.694  1.00  0.00    -0.292 C  
BRANCH   7   8
HETATM    8  C   UNK     1      -9.943   7.951  70.077  1.00  0.00    -0.191 C  
BRANCH   8   9
HETATM    9  C   UNK     1     -10.591   9.020  69.201  1.00  0.00    -0.219 C  
BRANCH   9  10
HETATM   10  C   UNK     1     -10.065  10.419  69.509  1.00  0.00    -0.246 C  
BRANCH  10  11
HETATM   11  C   UNK     1     -11.135  11.468  69.264  1.00  0.00    -0.246 C  
HETATM   12  O   UNK     1     -12.333  11.266  69.430  1.00  0.00    -0.285 OA 
HETATM   13  N   UNK     1     -10.629  12.673  68.832  1.00  0.00    -0.399 N  
HETATM   14  H   UNK     1      -9.625  12.768  68.672  1.00  0.00     0.000 HD 
BRANCH  13  15
HETATM   15  C   UNK     1     -11.498  13.810  68.601  1.00  0.00    -0.301 C  
BRANCH  15  16
HETATM   16  C   UNK     1     -10.840  15.142  68.969  1.00  0.00    -0.242 C  
BRANCH  16  17
HETATM   17  C   UNK     1     -11.676  15.916  69.989  1.00  0.00    -0.340 C  
BRANCH  17  18
HETATM   18  C   UNK     1     -11.389  15.483  71.434  1.00  0.00    -0.458 C  
BRANCH  18  19
HETATM   19  C   UNK     1     -12.543  14.700  72.079  1.00  0.00    -0.334 C  
HETATM   20  N   UNK     1     -13.734  14.658  71.181  1.00  0.00    -0.475 NA 
HETATM   21  C   UNK     1     -12.957  15.352  73.407  1.00  0.00    -0.538 C  
HETATM   22  O   UNK     1     -12.373  15.226  74.467  1.00  0.00    -0.629 OA 
HETATM   23  O   UNK     1     -14.054  16.143  73.240  1.00  0.00    -0.442 OA 
HETATM   24  H1  UNK     1     -14.500  14.137  71.609  1.00  0.00     0.000 HD 
HETATM   25  H2  UNK     1     -13.497  14.286  70.261  1.00  0.00     0.000 HD 
ENDBRANCH  18  19
ENDBRANCH  17  18
ENDBRANCH  16  17
ENDBRANCH  15  16
ENDBRANCH  13  15
ENDBRANCH  10  11
ENDBRANCH   9  10
ENDBRANCH   8   9
ENDBRANCH   7   8
ENDBRANCH   6   7
ENDBRANCH   5   6
ENDBRANCH   4   5
ENDBRANCH   3   4
ENDBRANCH   2   3
TORSDOF 14
ENDMDL
MODEL      199
REMARK 921   NORMALIZED FREE ENERGY PREDICTED BY IDOCK:   -3.78 KCAL/MOL
REMARK 922        TOTAL FREE ENERGY PREDICTED BY IDOCK:   -7.80 KCAL/MOL
REMARK 923 INTER-LIGAND FREE ENERGY PREDICTED BY IDOCK:   -7.00 KCAL/MOL
REMARK 924 INTRA-LIGAND FREE ENERGY PREDICTED BY IDOCK:   -0.80 KCAL/MOL
REMARK 927      BINDING AFFINITY PREDICTED BY RF-SCORE:    0.00 PKD
ROOT
HETATM    1  C   UNK     1      -8.419   7.744  74.189  1.00  0.00    -0.251 C  
HETATM    2  O   UNK     1      -9.036   8.383  73.080  1.00  0.00    -0.239 OA 
ENDROOT
BRANCH   2   3
HETATM    3  C   UNK     1      -9.754   7.449  72.273  1.00  0.00    -0.155 C  
BRANCH   3   4
HETATM    4  C   UNK     1     -10.698   6.645  73.160  1.00  0.00    -0.278 C  
BRANCH   4   5
HETATM    5  O   UNK     1     -11.772   6.139  72.371  1.00  0.00    -0.304 OA 
BRANCH   5   6
HETATM    6  C   UNK     1     -12.076   7.007  71.281  1.00  0.00    -0.361 C  
BRANCH   6   7
HETATM    7  C   UNK     1     -13.549   7.389  71.343  1.00  0.00    -0.410 C  
BRANCH   7   8
HETATM    8  C   UNK     1     -13.772   8.734  72.044  1.00  0.00    -0.491 C  
BRANCH   8   9
HETATM    9  C   UNK     1     -12.545   9.629  71.893  1.00  0.00    -0.481 C  
BRANCH   9  10
HETATM   10  C   UNK     1     -12.918  11.082  71.611  1.00  0.00    -0.561 C  
BRANCH  10  11
HETATM   11  C   UNK     1     -12.276  11.568  70.325  1.00  0.00    -0.332 C  
HETATM   12  O   UNK     1     -12.089  10.851  69.347  1.00  0.00    -0.328 OA 
HETATM   13  N   UNK     1     -11.918  12.897  70.361  1.00  0.00    -0.518 N  
HETATM   14  H   UNK     1     -12.060  13.431  71.219  1.00  0.00     0.000 HD 
BRANCH  13  15
HETATM   15  C   UNK     1     -11.342  13.549  69.202  1.00  0.00    -0.282 C  
BRANCH  15  16
HETATM   16  C   UNK     1     -12.279  14.589  68.583  1.00  0.00    -0.158 C  
BRANCH  16  17
HETATM   17  C   UNK     1     -12.260  14.520  67.056  1.00  0.00    -0.197 C  
BRANCH  17  18
HETATM   18  C   UNK     1     -11.421  13.346  66.531  1.00  0.00    -0.372 C  
BRANCH  18  19
HETATM   19  C   UNK     1     -10.197  13.786  65.713  1.00  0.00    -0.311 C  
HETATM   20  N   UNK     1      -9.680  12.667  64.872  1.00  0.00    -0.494 NA 
HETATM   21  C   UNK     1      -9.069  14.255  66.646  1.00  0.00    -0.226 C  
HETATM   22  O   UNK     1      -9.009  15.342  67.188  1.00  0.00    -0.188 OA 
HETATM   23  O   UNK     1      -8.150  13.267  66.833  1.00  0.00    -0.068 OA 
HETATM   24  H1  UNK     1      -8.868  12.959  64.329  1.00  0.00     0.000 HD 
HETATM   25  H2  UNK     1     -10.410  12.279  64.274  1.00  0.00     0.000 HD 
ENDBRANCH  18  19
ENDBRANCH  17  18
ENDBRANCH  16  17
ENDBRANCH  15  16
ENDBRANCH  13  15
ENDBRANCH  10  11
ENDBRANCH   9  10
ENDBRANCH   8   9
ENDBRANCH   7   8
ENDBRANCH   6   7
ENDBRANCH   5   6
ENDBRANCH   4   5
ENDBRANCH   3   4
ENDBRANCH   2   3
TORSDOF 14
ENDMDL
MODEL      200
REMARK 921   NORMALIZED FREE ENERGY PREDICTED BY IDOCK:   -3.76 KCAL/MOL
REMARK 922        TOTAL FREE ENERGY PREDICTED BY IDOCK:   -7.77 KCAL/MOL
REMARK 923 INTER-LIGAND FREE ENERGY PREDICTED BY IDOCK:   -6.48 KCAL/MOL
REMARK 924 INTRA-LIGAND FREE ENERGY PREDICTED BY IDOCK:   -1.29 KCAL/MOL
REMARK 927      BINDING AFFINITY PREDICTED BY RF-SCORE:    0.00 PKD
ROOT
HETATM    1  C   UNK     1      -9.456  18.263  68.260  1.00  0.00    -0.308 C  
HETATM    2  O   UNK     1      -8.672  17.124  68.585  1.00  0.00    -0.263 OA 
ENDROOT
BRANCH   2   3
HETATM    3  C   UNK     1      -9.431  15.920  68.482  1.00  0.00    -0.209 C  
BRANCH   3   4
HETATM    4  C   UNK     1     -10.362  16.018  67.279  1.00  0.00    -0.295 C  
BRANCH   4   5
HETATM    5  O   UNK     1     -10.609  14.711  66.765  1.00  0.00    -0.281 OA 
BRANCH   5   6
HETATM    6  C   UNK     1     -11.898  14.234  67.144  1.00  0.00    -0.425 C  
BRANCH   6   7
HETATM    7  C   UNK     1     -12.517  13.481  65.973  1.00  0.00    -0.456 C  
BRANCH   7   8
HETATM    8  C   UNK     1     -12.145  14.101  64.622  1.00  0.00    -0.469 C  
BRANCH   8   9
HETATM    9  C   UNK     1     -12.003  13.017  63.556  1.00  0.00    -0.615 C  
BRANCH   9  10
HETATM   10  C   UNK     1     -11.665  11.655  64.155  1.00  0.00    -0.305 C  
BRANCH  10  11
HETATM   11  C   UNK     1     -10.218  11.286  63.882  1.00  0.00    -0.365 C  
HETATM   12  O   UNK     1      -9.546  11.789  62.988  1.00  0.00    -0.378 OA 
HETATM   13  N   UNK     1      -9.729  10.326  64.739  1.00  0.00    -0.311 N  
HETATM   14  H   UNK     1     -10.349   9.914  65.438  1.00  0.00     0.000 HD 
BRANCH  13  15
HETATM   15  C   UNK     1      -8.348   9.890  64.665  1.00  0.00    -0.163 C  
BRANCH  15  16
HETATM   16  C   UNK     1      -7.460  10.560  65.717  1.00  0.00    -0.139 C  
BRANCH  16  17
HETATM   17  C   UNK     1      -8.294  11.200  66.827  1.00  0.00    -0.152 C  
BRANCH  17  18
HETATM   18  C   UNK     1      -8.340  10.340  68.098  1.00  0.00    -0.118 C  
BRANCH  18  19
HETATM   19  C   UNK     1      -9.765  10.084  68.613  1.00  0.00    -0.159 C  
HETATM   20  N   UNK     1      -9.798  10.027  70.104  1.00  0.00    -0.386 NA 
HETATM   21  C   UNK     1     -10.304   8.754  68.062  1.00  0.00    -0.220 C  
HETATM   22  O   UNK     1     -10.753   8.584  66.945  1.00  0.00    -0.265 OA 
HETATM   23  O   UNK     1     -10.170   7.757  68.981  1.00  0.00    -0.198 OA 
HETATM   24  H1  UNK     1     -10.744   9.858  70.446  1.00  0.00     0.000 HD 
HETATM   25  H2  UNK     1      -9.394  10.866  70.520  1.00  0.00     0.000 HD 
ENDBRANCH  18  19
ENDBRANCH  17  18
ENDBRANCH  16  17
ENDBRANCH  15  16
ENDBRANCH  13  15
ENDBRANCH  10  11
ENDBRANCH   9  10
ENDBRANCH   8   9
ENDBRANCH   7   8
ENDBRANCH   6   7
ENDBRANCH   5   6
ENDBRANCH   4   5
ENDBRANCH   3   4
ENDBRANCH   2   3
TORSDOF 14
ENDMDL
MODEL      201
REMARK 921   NORMALIZED FREE ENERGY PREDICTED BY IDOCK:   -3.76 KCAL/MOL
REMARK 922        TOTAL FREE ENERGY PREDICTED BY IDOCK:   -7.77 KCAL/MOL
REMARK 923 INTER-LIGAND FREE ENERGY PREDICTED BY IDOCK:   -6.93 KCAL/MOL
REMARK 924 INTRA-LIGAND FREE ENERGY PREDICTED BY IDOCK:   -0.84 KCAL/MOL
REMARK 927      BINDING AFFINITY PREDICTED BY RF-SCORE:    0.00 PKD
ROOT
HETATM    1  C   UNK     1      -9.274  15.681  66.434  1.00  0.00    -0.311 C  
HETATM    2  O   UNK     1      -9.889  16.900  66.825  1.00  0.00    -0.257 OA 
ENDROOT
BRANCH   2   3
HETATM    3  C   UNK     1      -9.703  17.157  68.217  1.00  0.00    -0.280 C  
BRANCH   3   4
HETATM    4  C   UNK     1      -9.083  15.928  68.872  1.00  0.00    -0.233 C  
BRANCH   4   5
HETATM    5  O   UNK     1      -9.809  15.607  70.057  1.00  0.00    -0.268 OA 
BRANCH   5   6
HETATM    6  C   UNK     1     -11.216  15.737  69.860  1.00  0.00    -0.334 C  
BRANCH   6   7
HETATM    7  C   UNK     1     -11.941  15.254  71.109  1.00  0.00    -0.400 C  
BRANCH   7   8
HETATM    8  C   UNK     1     -12.475  13.825  70.956  1.00  0.00    -0.458 C  
BRANCH   8   9
HETATM    9  C   UNK     1     -11.986  13.206  69.650  1.00  0.00    -0.370 C  
BRANCH   9  10
HETATM   10  C   UNK     1     -12.066  11.682  69.665  1.00  0.00    -0.345 C  
BRANCH  10  11
HETATM   11  C   UNK     1     -11.542  11.098  68.365  1.00  0.00    -0.306 C  
HETATM   12  O   UNK     1     -11.803  11.560  67.259  1.00  0.00    -0.609 OA 
HETATM   13  N   UNK     1     -10.743   9.991  68.548  1.00  0.00    -0.221 N  
HETATM   14  H   UNK     1     -10.596   9.628  69.490  1.00  0.00     0.000 HD 
BRANCH  13  15
HETATM   15  C   UNK     1     -10.107   9.335  67.423  1.00  0.00    -0.223 C  
BRANCH  15  16
HETATM   16  C   UNK     1     -10.597   7.899  67.222  1.00  0.00    -0.365 C  
BRANCH  16  17
HETATM   17  C   UNK     1      -9.758   6.904  68.024  1.00  0.00    -0.138 C  
BRANCH  17  18
HETATM   18  C   UNK     1     -10.616   5.837  68.719  1.00  0.00    -0.321 C  
BRANCH  18  19
HETATM   19  C   UNK     1     -10.979   6.191  70.169  1.00  0.00    -0.358 C  
HETATM   20  N   UNK     1     -12.231   7.001  70.230  1.00  0.00    -0.622 NA 
HETATM   21  C   UNK     1      -9.846   6.998  70.823  1.00  0.00    -0.185 C  
HETATM   22  O   UNK     1      -8.815   6.531  71.270  1.00  0.00    -0.137 OA 
HETATM   23  O   UNK     1     -10.121   8.332  70.799  1.00  0.00    -0.187 OA 
HETATM   24  H1  UNK     1     -12.472   7.236  71.192  1.00  0.00     0.000 HD 
HETATM   25  H2  UNK     1     -13.003   6.533  69.754  1.00  0.00     0.000 HD 
ENDBRANCH  18  19
ENDBRANCH  17  18
ENDBRANCH  16  17
ENDBRANCH  15  16
ENDBRANCH  13  15
ENDBRANCH  10  11
ENDBRANCH   9  10
ENDBRANCH   8   9
ENDBRANCH   7   8
ENDBRANCH   6   7
ENDBRANCH   5   6
ENDBRANCH   4   5
ENDBRANCH   3   4
ENDBRANCH   2   3
TORSDOF 14
ENDMDL
MODEL      202
REMARK 921   NORMALIZED FREE ENERGY PREDICTED BY IDOCK:   -3.76 KCAL/MOL
REMARK 922        TOTAL FREE ENERGY PREDICTED BY IDOCK:   -7.76 KCAL/MOL
REMARK 923 INTER-LIGAND FREE ENERGY PREDICTED BY IDOCK:   -7.11 KCAL/MOL
REMARK 924 INTRA-LIGAND FREE ENERGY PREDICTED BY IDOCK:   -0.65 KCAL/MOL
REMARK 927      BINDING AFFINITY PREDICTED BY RF-SCORE:    0.00 PKD
ROOT
HETATM    1  C   UNK     1      -8.043   4.266  71.339  1.00  0.00    -0.082 C  
HETATM    2  O   UNK     1      -7.949   5.158  70.238  1.00  0.00    -0.079 OA 
ENDROOT
BRANCH   2   3
HETATM    3  C   UNK     1      -8.489   4.580  69.050  1.00  0.00    -0.079 C  
BRANCH   3   4
HETATM    4  C   UNK     1      -8.801   5.689  68.052  1.00  0.00    -0.105 C  
BRANCH   4   5
HETATM    5  O   UNK     1      -9.008   6.912  68.754  1.00  0.00    -0.132 OA 
BRANCH   5   6
HETATM    6  C   UNK     1     -10.360   7.355  68.648  1.00  0.00    -0.198 C  
BRANCH   6   7
HETATM    7  C   UNK     1     -10.813   7.905  69.994  1.00  0.00    -0.238 C  
BRANCH   7   8
HETATM    8  C   UNK     1     -11.325   9.346  69.892  1.00  0.00    -0.121 C  
BRANCH   8   9
HETATM    9  C   UNK     1     -11.515   9.948  71.281  1.00  0.00    -0.435 C  
BRANCH   9  10
HETATM   10  C   UNK     1     -12.928  10.486  71.493  1.00  0.00    -0.565 C  
BRANCH  10  11
HETATM   11  C   UNK     1     -12.939  12.004  71.475  1.00  0.00    -0.304 C  
HETATM   12  O   UNK     1     -13.600  12.686  72.252  1.00  0.00    -0.547 OA 
HETATM   13  N   UNK     1     -12.135  12.545  70.497  1.00  0.00    -0.495 N  
HETATM   14  H   UNK     1     -11.642  11.925  69.854  1.00  0.00     0.000 HD 
BRANCH  13  15
HETATM   15  C   UNK     1     -11.978  13.980  70.368  1.00  0.00    -0.328 C  
BRANCH  15  16
HETATM   16  C   UNK     1     -11.306  14.384  69.053  1.00  0.00    -0.297 C  
BRANCH  16  17
HETATM   17  C   UNK     1     -10.830  13.161  68.269  1.00  0.00    -0.274 C  
BRANCH  17  18
HETATM   18  C   UNK     1     -11.821  12.744  67.172  1.00  0.00    -0.415 C  
BRANCH  18  19
HETATM   19  C   UNK     1     -11.223  12.790  65.758  1.00  0.00    -0.307 C  
HETATM   20  N   UNK     1     -10.248  13.912  65.620  1.00  0.00    -0.318 NA 
HETATM   21  C   UNK     1     -12.332  12.977  64.711  1.00  0.00    -0.436 C  
HETATM   22  O   UNK     1     -13.066  12.100  64.296  1.00  0.00    -0.723 OA 
HETATM   23  O   UNK     1     -12.429  14.282  64.332  1.00  0.00    -0.630 OA 
HETATM   24  H1  UNK     1      -9.851  13.942  64.682  1.00  0.00     0.000 HD 
HETATM   25  H2  UNK     1      -9.521  13.866  66.334  1.00  0.00     0.000 HD 
ENDBRANCH  18  19
ENDBRANCH  17  18
ENDBRANCH  16  17
ENDBRANCH  15  16
ENDBRANCH  13  15
ENDBRANCH  10  11
ENDBRANCH   9  10
ENDBRANCH   8   9
ENDBRANCH   7   8
ENDBRANCH   6   7
ENDBRANCH   5   6
ENDBRANCH   4   5
ENDBRANCH   3   4
ENDBRANCH   2   3
TORSDOF 14
ENDMDL
MODEL      203
REMARK 921   NORMALIZED FREE ENERGY PREDICTED BY IDOCK:   -3.75 KCAL/MOL
REMARK 922        TOTAL FREE ENERGY PREDICTED BY IDOCK:   -7.75 KCAL/MOL
REMARK 923 INTER-LIGAND FREE ENERGY PREDICTED BY IDOCK:   -6.29 KCAL/MOL
REMARK 924 INTRA-LIGAND FREE ENERGY PREDICTED BY IDOCK:   -1.47 KCAL/MOL
REMARK 927      BINDING AFFINITY PREDICTED BY RF-SCORE:    0.00 PKD
ROOT
HETATM    1  C   UNK     1      -9.221   7.785  66.494  1.00  0.00    -0.184 C  
HETATM    2  O   UNK     1     -10.591   7.721  66.861  1.00  0.00    -0.343 OA 
ENDROOT
BRANCH   2   3
HETATM    3  C   UNK     1     -10.987   6.385  67.172  1.00  0.00    -0.399 C  
BRANCH   3   4
HETATM    4  C   UNK     1      -9.742   5.522  67.339  1.00  0.00    -0.135 C  
BRANCH   4   5
HETATM    5  O   UNK     1      -9.929   4.627  68.432  1.00  0.00    -0.139 OA 
BRANCH   5   6
HETATM    6  C   UNK     1     -10.244   5.327  69.634  1.00  0.00    -0.278 C  
BRANCH   6   7
HETATM    7  C   UNK     1      -8.998   5.405  70.507  1.00  0.00    -0.156 C  
BRANCH   7   8
HETATM    8  C   UNK     1      -9.103   4.518  71.752  1.00  0.00    -0.164 C  
BRANCH   8   9
HETATM    9  C   UNK     1     -10.565   4.230  72.085  1.00  0.00    -0.061 C  
BRANCH   9  10
HETATM   10  C   UNK     1     -10.957   4.745  73.467  1.00  0.00    -0.398 C  
BRANCH  10  11
HETATM   11  C   UNK     1     -10.738   6.243  73.572  1.00  0.00    -0.242 C  
HETATM   12  O   UNK     1      -9.982   6.763  74.385  1.00  0.00    -0.322 OA 
HETATM   13  N   UNK     1     -11.476   6.967  72.662  1.00  0.00    -0.435 N  
HETATM   14  H   UNK     1     -12.120   6.481  72.038  1.00  0.00     0.000 HD 
BRANCH  13  15
HETATM   15  C   UNK     1     -11.352   8.409  72.577  1.00  0.00    -0.346 C  
BRANCH  15  16
HETATM   16  C   UNK     1     -10.194   8.851  71.679  1.00  0.00    -0.415 C  
BRANCH  16  17
HETATM   17  C   UNK     1     -10.635   8.981  70.222  1.00  0.00    -0.250 C  
BRANCH  17  18
HETATM   18  C   UNK     1     -10.391  10.388  69.657  1.00  0.00    -0.261 C  
BRANCH  18  19
HETATM   19  C   UNK     1     -11.624  10.995  68.970  1.00  0.00    -0.323 C  
HETATM   20  N   UNK     1     -11.515  10.901  67.485  1.00  0.00    -0.512 NA 
HETATM   21  C   UNK     1     -11.778  12.475  69.355  1.00  0.00    -0.322 C  
HETATM   22  O   UNK     1     -12.245  12.887  70.399  1.00  0.00    -0.354 OA 
HETATM   23  O   UNK     1     -11.274  13.285  68.382  1.00  0.00    -0.250 OA 
HETATM   24  H1  UNK     1     -12.333  11.303  67.029  1.00  0.00     0.000 HD 
HETATM   25  H2  UNK     1     -11.351   9.941  67.181  1.00  0.00     0.000 HD 
ENDBRANCH  18  19
ENDBRANCH  17  18
ENDBRANCH  16  17
ENDBRANCH  15  16
ENDBRANCH  13  15
ENDBRANCH  10  11
ENDBRANCH   9  10
ENDBRANCH   8   9
ENDBRANCH   7   8
ENDBRANCH   6   7
ENDBRANCH   5   6
ENDBRANCH   4   5
ENDBRANCH   3   4
ENDBRANCH   2   3
TORSDOF 14
ENDMDL
MODEL      204
REMARK 921   NORMALIZED FREE ENERGY PREDICTED BY IDOCK:   -3.75 KCAL/MOL
REMARK 922        TOTAL FREE ENERGY PREDICTED BY IDOCK:   -7.75 KCAL/MOL
REMARK 923 INTER-LIGAND FREE ENERGY PREDICTED BY IDOCK:   -7.07 KCAL/MOL
REMARK 924 INTRA-LIGAND FREE ENERGY PREDICTED BY IDOCK:   -0.68 KCAL/MOL
REMARK 927      BINDING AFFINITY PREDICTED BY RF-SCORE:    0.00 PKD
ROOT
HETATM    1  C   UNK     1      -7.223  19.574  65.721  1.00  0.00    -0.295 C  
HETATM    2  O   UNK     1      -8.482  18.939  65.893  1.00  0.00    -0.474 OA 
ENDROOT
BRANCH   2   3
HETATM    3  C   UNK     1      -9.467  19.854  66.374  1.00  0.00    -0.412 C  
BRANCH   3   4
HETATM    4  C   UNK     1     -10.444  19.108  67.275  1.00  0.00    -0.456 C  
BRANCH   4   5
HETATM    5  O   UNK     1      -9.820  18.836  68.527  1.00  0.00    -0.356 OA 
BRANCH   5   6
HETATM    6  C   UNK     1      -9.871  17.447  68.847  1.00  0.00    -0.286 C  
BRANCH   6   7
HETATM    7  C   UNK     1     -10.935  16.776  67.988  1.00  0.00    -0.296 C  
BRANCH   7   8
HETATM    8  C   UNK     1     -11.591  15.587  68.697  1.00  0.00    -0.379 C  
BRANCH   8   9
HETATM    9  C   UNK     1     -12.092  14.564  67.681  1.00  0.00    -0.266 C  
BRANCH   9  10
HETATM   10  C   UNK     1     -10.949  13.834  66.981  1.00  0.00    -0.297 C  
BRANCH  10  11
HETATM   11  C   UNK     1     -11.444  13.113  65.740  1.00  0.00    -0.325 C  
HETATM   12  O   UNK     1     -12.615  12.789  65.565  1.00  0.00    -0.611 OA 
HETATM   13  N   UNK     1     -10.449  12.855  64.825  1.00  0.00    -0.334 N  
HETATM   14  H   UNK     1      -9.486  13.112  65.045  1.00  0.00     0.000 HD 
BRANCH  13  15
HETATM   15  C   UNK     1     -10.746  12.224  63.554  1.00  0.00    -0.451 C  
BRANCH  15  16
HETATM   16  C   UNK     1      -9.545  11.473  62.972  1.00  0.00    -0.371 C  
BRANCH  16  17
HETATM   17  C   UNK     1      -9.382  10.096  63.615  1.00  0.00    -0.336 C  
BRANCH  17  18
HETATM   18  C   UNK     1      -8.177  10.030  64.564  1.00  0.00    -0.164 C  
BRANCH  18  19
HETATM   19  C   UNK     1      -8.098   8.719  65.362  1.00  0.00    -0.125 C  
HETATM   20  N   UNK     1      -8.775   7.604  64.637  1.00  0.00    -0.351 NA 
HETATM   21  C   UNK     1      -8.768   8.886  66.735  1.00  0.00    -0.119 C  
HETATM   22  O   UNK     1      -8.267   9.423  67.704  1.00  0.00    -0.113 OA 
HETATM   23  O   UNK     1     -10.037   8.390  66.720  1.00  0.00    -0.255 OA 
HETATM   24  H1  UNK     1      -8.723   6.734  65.166  1.00  0.00     0.000 HD 
HETATM   25  H2  UNK     1      -8.405   7.492  63.693  1.00  0.00     0.000 HD 
ENDBRANCH  18  19
ENDBRANCH  17  18
ENDBRANCH  16  17
ENDBRANCH  15  16
ENDBRANCH  13  15
ENDBRANCH  10  11
ENDBRANCH   9  10
ENDBRANCH   8   9
ENDBRANCH   7   8
ENDBRANCH   6   7
ENDBRANCH   5   6
ENDBRANCH   4   5
ENDBRANCH   3   4
ENDBRANCH   2   3
TORSDOF 14
ENDMDL
MODEL      205
REMARK 921   NORMALIZED FREE ENERGY PREDICTED BY IDOCK:   -3.75 KCAL/MOL
REMARK 922        TOTAL FREE ENERGY PREDICTED BY IDOCK:   -7.75 KCAL/MOL
REMARK 923 INTER-LIGAND FREE ENERGY PREDICTED BY IDOCK:   -6.60 KCAL/MOL
REMARK 924 INTRA-LIGAND FREE ENERGY PREDICTED BY IDOCK:   -1.15 KCAL/MOL
REMARK 927      BINDING AFFINITY PREDICTED BY RF-SCORE:    0.00 PKD
ROOT
HETATM    1  C   UNK     1      -6.744  13.602  68.796  1.00  0.00    -0.104 C  
HETATM    2  O   UNK     1      -7.107  13.673  67.424  1.00  0.00    -0.168 OA 
ENDROOT
BRANCH   2   3
HETATM    3  C   UNK     1      -7.804  14.883  67.130  1.00  0.00    -0.170 C  
BRANCH   3   4
HETATM    4  C   UNK     1      -7.059  16.054  67.760  1.00  0.00    -0.143 C  
BRANCH   4   5
HETATM    5  O   UNK     1      -7.903  17.203  67.768  1.00  0.00    -0.177 OA 
BRANCH   5   6
HETATM    6  C   UNK     1      -8.530  17.402  66.503  1.00  0.00    -0.264 C  
BRANCH   6   7
HETATM    7  C   UNK     1      -9.901  18.029  66.718  1.00  0.00    -0.335 C  
BRANCH   7   8
HETATM    8  C   UNK     1     -10.357  17.945  68.179  1.00  0.00    -0.395 C  
BRANCH   8   9
HETATM    9  C   UNK     1     -11.180  16.681  68.413  1.00  0.00    -0.239 C  
BRANCH   9  10
HETATM   10  C   UNK     1     -10.797  15.972  69.709  1.00  0.00    -0.337 C  
BRANCH  10  11
HETATM   11  C   UNK     1     -11.628  14.717  69.907  1.00  0.00    -0.285 C  
HETATM   12  O   UNK     1     -12.762  14.720  70.374  1.00  0.00    -0.347 OA 
HETATM   13  N   UNK     1     -10.982  13.567  69.512  1.00  0.00    -0.452 N  
HETATM   14  H   UNK     1     -10.022  13.623  69.171  1.00  0.00     0.000 HD 
BRANCH  13  15
HETATM   15  C   UNK     1     -11.643  12.278  69.575  1.00  0.00    -0.298 C  
BRANCH  15  16
HETATM   16  C   UNK     1     -11.628  11.540  68.234  1.00  0.00    -0.378 C  
BRANCH  16  17
HETATM   17  C   UNK     1     -11.776  12.509  67.061  1.00  0.00    -0.437 C  
BRANCH  17  18
HETATM   18  C   UNK     1     -10.538  12.527  66.153  1.00  0.00    -0.279 C  
BRANCH  18  19
HETATM   19  C   UNK     1     -10.460  11.323  65.202  1.00  0.00    -0.291 C  
HETATM   20  N   UNK     1      -9.068  10.788  65.121  1.00  0.00    -0.198 NA 
HETATM   21  C   UNK     1     -10.910  11.725  63.789  1.00  0.00    -0.424 C  
HETATM   22  O   UNK     1     -12.064  11.847  63.425  1.00  0.00    -0.502 OA 
HETATM   23  O   UNK     1      -9.836  11.979  62.990  1.00  0.00    -0.372 OA 
HETATM   24  H1  UNK     1      -9.016   9.989  64.490  1.00  0.00     0.000 HD 
HETATM   25  H2  UNK     1      -8.699  10.562  66.044  1.00  0.00     0.000 HD 
ENDBRANCH  18  19
ENDBRANCH  17  18
ENDBRANCH  16  17
ENDBRANCH  15  16
ENDBRANCH  13  15
ENDBRANCH  10  11
ENDBRANCH   9  10
ENDBRANCH   8   9
ENDBRANCH   7   8
ENDBRANCH   6   7
ENDBRANCH   5   6
ENDBRANCH   4   5
ENDBRANCH   3   4
ENDBRANCH   2   3
TORSDOF 14
ENDMDL
MODEL      206
REMARK 921   NORMALIZED FREE ENERGY PREDICTED BY IDOCK:   -3.75 KCAL/MOL
REMARK 922        TOTAL FREE ENERGY PREDICTED BY IDOCK:   -7.75 KCAL/MOL
REMARK 923 INTER-LIGAND FREE ENERGY PREDICTED BY IDOCK:   -6.71 KCAL/MOL
REMARK 924 INTRA-LIGAND FREE ENERGY PREDICTED BY IDOCK:   -1.03 KCAL/MOL
REMARK 927      BINDING AFFINITY PREDICTED BY RF-SCORE:    0.00 PKD
ROOT
HETATM    1  C   UNK     1      -9.605  19.640  66.303  1.00  0.00    -0.405 C  
HETATM    2  O   UNK     1     -10.499  18.536  66.283  1.00  0.00    -0.408 OA 
ENDROOT
BRANCH   2   3
HETATM    3  C   UNK     1     -10.215  17.615  67.336  1.00  0.00    -0.345 C  
BRANCH   3   4
HETATM    4  C   UNK     1     -10.404  16.193  66.820  1.00  0.00    -0.291 C  
BRANCH   4   5
HETATM    5  O   UNK     1     -10.390  16.202  65.394  1.00  0.00    -0.461 OA 
BRANCH   5   6
HETATM    6  C   UNK     1     -11.143  15.116  64.857  1.00  0.00    -0.414 C  
BRANCH   6   7
HETATM    7  C   UNK     1     -11.917  14.441  65.981  1.00  0.00    -0.377 C  
BRANCH   7   8
HETATM    8  C   UNK     1     -11.920  12.914  65.850  1.00  0.00    -0.504 C  
BRANCH   8   9
HETATM    9  C   UNK     1     -10.895  12.292  66.794  1.00  0.00    -0.291 C  
BRANCH   9  10
HETATM   10  C   UNK     1      -9.531  12.114  66.133  1.00  0.00    -0.231 C  
BRANCH  10  11
HETATM   11  C   UNK     1      -8.450  11.876  67.172  1.00  0.00    -0.173 C  
HETATM   12  O   UNK     1      -7.278  12.206  67.021  1.00  0.00    -0.134 OA 
HETATM   13  N   UNK     1      -8.913  11.247  68.306  1.00  0.00    -0.166 N  
HETATM   14  H   UNK     1      -9.890  10.958  68.356  1.00  0.00     0.000 HD 
BRANCH  13  15
HETATM   15  C   UNK     1      -8.034  10.988  69.429  1.00  0.00     0.047 C  
BRANCH  15  16
HETATM   16  C   UNK     1      -8.370   9.683  70.155  1.00  0.00    -0.221 C  
BRANCH  16  17
HETATM   17  C   UNK     1      -9.749   9.160  69.753  1.00  0.00    -0.191 C  
BRANCH  17  18
HETATM   18  C   UNK     1     -10.787   9.318  70.874  1.00  0.00    -0.365 C  
BRANCH  18  19
HETATM   19  C   UNK     1     -11.996  10.177  70.472  1.00  0.00    -0.311 C  
HETATM   20  N   UNK     1     -11.681  11.632  70.570  1.00  0.00    -0.491 NA 
HETATM   21  C   UNK     1     -13.195   9.876  71.384  1.00  0.00    -0.400 C  
HETATM   22  O   UNK     1     -13.934   8.915  71.284  1.00  0.00    -0.315 OA 
HETATM   23  O   UNK     1     -13.304  10.810  72.370  1.00  0.00    -0.269 OA 
HETATM   24  H1  UNK     1     -12.482  12.202  70.303  1.00  0.00     0.000 HD 
HETATM   25  H2  UNK     1     -10.851  11.874  70.027  1.00  0.00     0.000 HD 
ENDBRANCH  18  19
ENDBRANCH  17  18
ENDBRANCH  16  17
ENDBRANCH  15  16
ENDBRANCH  13  15
ENDBRANCH  10  11
ENDBRANCH   9  10
ENDBRANCH   8   9
ENDBRANCH   7   8
ENDBRANCH   6   7
ENDBRANCH   5   6
ENDBRANCH   4   5
ENDBRANCH   3   4
ENDBRANCH   2   3
TORSDOF 14
ENDMDL
MODEL      207
REMARK 921   NORMALIZED FREE ENERGY PREDICTED BY IDOCK:   -3.75 KCAL/MOL
REMARK 922        TOTAL FREE ENERGY PREDICTED BY IDOCK:   -7.75 KCAL/MOL
REMARK 923 INTER-LIGAND FREE ENERGY PREDICTED BY IDOCK:   -5.90 KCAL/MOL
REMARK 924 INTRA-LIGAND FREE ENERGY PREDICTED BY IDOCK:   -1.84 KCAL/MOL
REMARK 927      BINDING AFFINITY PREDICTED BY RF-SCORE:    0.00 PKD
ROOT
HETATM    1  C   UNK     1     -10.495  13.177  65.037  1.00  0.00    -0.342 C  
HETATM    2  O   UNK     1     -10.282  12.847  66.402  1.00  0.00    -0.256 OA 
ENDROOT
BRANCH   2   3
HETATM    3  C   UNK     1      -9.614  11.592  66.538  1.00  0.00    -0.209 C  
BRANCH   3   4
HETATM    4  C   UNK     1      -8.586  11.693  67.659  1.00  0.00    -0.142 C  
BRANCH   4   5
HETATM    5  O   UNK     1      -8.477  13.050  68.081  1.00  0.00    -0.164 OA 
BRANCH   5   6
HETATM    6  C   UNK     1      -7.188  13.329  68.623  1.00  0.00    -0.106 C  
BRANCH   6   7
HETATM    7  C   UNK     1      -7.213  14.696  69.294  1.00  0.00    -0.156 C  
BRANCH   7   8
HETATM    8  C   UNK     1      -5.877  15.434  69.161  1.00  0.00    -0.104 C  
BRANCH   8   9
HETATM    9  C   UNK     1      -6.015  16.628  68.220  1.00  0.00    -0.121 C  
BRANCH   9  10
HETATM   10  C   UNK     1      -5.716  17.953  68.916  1.00  0.00    -0.192 C  
BRANCH  10  11
HETATM   11  C   UNK     1      -6.945  18.843  68.941  1.00  0.00    -0.311 C  
HETATM   12  O   UNK     1      -6.916  20.032  69.242  1.00  0.00    -0.297 OA 
HETATM   13  N   UNK     1      -8.103  18.184  68.593  1.00  0.00    -0.307 N  
HETATM   14  H   UNK     1      -8.070  17.184  68.394  1.00  0.00     0.000 HD 
BRANCH  13  15
HETATM   15  C   UNK     1      -9.367  18.888  68.507  1.00  0.00    -0.366 C  
BRANCH  15  16
HETATM   16  C   UNK     1     -10.454  18.067  67.809  1.00  0.00    -0.421 C  
BRANCH  16  17
HETATM   17  C   UNK     1     -10.110  16.578  67.799  1.00  0.00    -0.264 C  
BRANCH  17  18
HETATM   18  C   UNK     1     -11.293  15.698  68.228  1.00  0.00    -0.357 C  
BRANCH  18  19
HETATM   19  C   UNK     1     -11.013  14.869  69.490  1.00  0.00    -0.273 C  
HETATM   20  N   UNK     1     -11.259  13.417  69.247  1.00  0.00    -0.374 NA 
HETATM   21  C   UNK     1     -11.916  15.329  70.646  1.00  0.00    -0.343 C  
HETATM   22  O   UNK     1     -11.731  16.312  71.337  1.00  0.00    -0.446 OA 
HETATM   23  O   UNK     1     -12.998  14.510  70.774  1.00  0.00    -0.352 OA 
HETATM   24  H1  UNK     1     -11.073  12.866  70.085  1.00  0.00     0.000 HD 
HETATM   25  H2  UNK     1     -10.725  13.075  68.448  1.00  0.00     0.000 HD 
ENDBRANCH  18  19
ENDBRANCH  17  18
ENDBRANCH  16  17
ENDBRANCH  15  16
ENDBRANCH  13  15
ENDBRANCH  10  11
ENDBRANCH   9  10
ENDBRANCH   8   9
ENDBRANCH   7   8
ENDBRANCH   6   7
ENDBRANCH   5   6
ENDBRANCH   4   5
ENDBRANCH   3   4
ENDBRANCH   2   3
TORSDOF 14
ENDMDL
MODEL      208
REMARK 921   NORMALIZED FREE ENERGY PREDICTED BY IDOCK:   -3.74 KCAL/MOL
REMARK 922        TOTAL FREE ENERGY PREDICTED BY IDOCK:   -7.73 KCAL/MOL
REMARK 923 INTER-LIGAND FREE ENERGY PREDICTED BY IDOCK:   -6.93 KCAL/MOL
REMARK 924 INTRA-LIGAND FREE ENERGY PREDICTED BY IDOCK:   -0.81 KCAL/MOL
REMARK 927      BINDING AFFINITY PREDICTED BY RF-SCORE:    0.00 PKD
ROOT
HETATM    1  C   UNK     1      -7.989   8.156  70.970  1.00  0.00    -0.095 C  
HETATM    2  O   UNK     1      -8.732   9.122  71.699  1.00  0.00    -0.343 OA 
ENDROOT
BRANCH   2   3
HETATM    3  C   UNK     1     -10.138   8.924  71.545  1.00  0.00    -0.324 C  
BRANCH   3   4
HETATM    4  C   UNK     1     -10.610   7.890  72.561  1.00  0.00    -0.315 C  
BRANCH   4   5
HETATM    5  O   UNK     1     -11.436   6.928  71.908  1.00  0.00    -0.251 OA 
BRANCH   5   6
HETATM    6  C   UNK     1     -10.712   6.203  70.917  1.00  0.00    -0.258 C  
BRANCH   6   7
HETATM    7  C   UNK     1     -11.481   6.249  69.603  1.00  0.00    -0.425 C  
BRANCH   7   8
HETATM    8  C   UNK     1     -10.581   5.981  68.392  1.00  0.00    -0.322 C  
BRANCH   8   9
HETATM    9  C   UNK     1     -11.025   6.819  67.197  1.00  0.00    -0.458 C  
BRANCH   9  10
HETATM   10  C   UNK     1      -9.971   7.842  66.780  1.00  0.00    -0.331 C  
BRANCH  10  11
HETATM   11  C   UNK     1     -10.100   9.117  67.594  1.00  0.00    -0.220 C  
HETATM   12  O   UNK     1     -11.154   9.503  68.088  1.00  0.00    -0.140 OA 
HETATM   13  N   UNK     1      -8.914   9.804  67.723  1.00  0.00    -0.128 N  
HETATM   14  H   UNK     1      -8.078   9.454  67.253  1.00  0.00     0.000 HD 
BRANCH  13  15
HETATM   15  C   UNK     1      -8.833  11.015  68.514  1.00  0.00    -0.159 C  
BRANCH  15  16
HETATM   16  C   UNK     1      -8.527  12.254  67.669  1.00  0.00    -0.166 C  
BRANCH  16  17
HETATM   17  C   UNK     1      -9.004  12.079  66.228  1.00  0.00    -0.129 C  
BRANCH  17  18
HETATM   18  C   UNK     1     -10.502  12.379  66.064  1.00  0.00    -0.281 C  
BRANCH  18  19
HETATM   19  C   UNK     1     -10.978  12.339  64.604  1.00  0.00    -0.306 C  
HETATM   20  N   UNK     1      -9.981  12.975  63.694  1.00  0.00    -0.658 NA 
HETATM   21  C   UNK     1     -12.316  13.080  64.456  1.00  0.00    -0.398 C  
HETATM   22  O   UNK     1     -13.407  12.631  64.750  1.00  0.00    -0.787 OA 
HETATM   23  O   UNK     1     -12.122  14.346  63.989  1.00  0.00    -0.430 OA 
HETATM   24  H1  UNK     1     -10.297  12.948  62.724  1.00  0.00     0.000 HD 
HETATM   25  H2  UNK     1      -9.057  12.556  63.798  1.00  0.00     0.000 HD 
ENDBRANCH  18  19
ENDBRANCH  17  18
ENDBRANCH  16  17
ENDBRANCH  15  16
ENDBRANCH  13  15
ENDBRANCH  10  11
ENDBRANCH   9  10
ENDBRANCH   8   9
ENDBRANCH   7   8
ENDBRANCH   6   7
ENDBRANCH   5   6
ENDBRANCH   4   5
ENDBRANCH   3   4
ENDBRANCH   2   3
TORSDOF 14
ENDMDL
MODEL      209
REMARK 921   NORMALIZED FREE ENERGY PREDICTED BY IDOCK:   -3.73 KCAL/MOL
REMARK 922        TOTAL FREE ENERGY PREDICTED BY IDOCK:   -7.72 KCAL/MOL
REMARK 923 INTER-LIGAND FREE ENERGY PREDICTED BY IDOCK:   -6.58 KCAL/MOL
REMARK 924 INTRA-LIGAND FREE ENERGY PREDICTED BY IDOCK:   -1.14 KCAL/MOL
REMARK 927      BINDING AFFINITY PREDICTED BY RF-SCORE:    0.00 PKD
ROOT
HETATM    1  C   UNK     1     -12.946  11.947  71.231  1.00  0.00    -0.236 C  
HETATM    2  O   UNK     1     -13.273  10.921  72.157  1.00  0.00    -0.474 OA 
ENDROOT
BRANCH   2   3
HETATM    3  C   UNK     1     -12.801   9.648  71.714  1.00  0.00    -0.421 C  
BRANCH   3   4
HETATM    4  C   UNK     1     -11.781   9.854  70.600  1.00  0.00    -0.323 C  
BRANCH   4   5
HETATM    5  O   UNK     1     -10.537   9.272  70.984  1.00  0.00    -0.263 OA 
BRANCH   5   6
HETATM    6  C   UNK     1      -9.730   8.964  69.849  1.00  0.00    -0.177 C  
BRANCH   6   7
HETATM    7  C   UNK     1     -10.518   8.065  68.906  1.00  0.00    -0.207 C  
BRANCH   7   8
HETATM    8  C   UNK     1      -9.607   7.187  68.042  1.00  0.00    -0.140 C  
BRANCH   8   9
HETATM    9  C   UNK     1      -9.862   7.444  66.559  1.00  0.00    -0.209 C  
BRANCH   9  10
HETATM   10  C   UNK     1      -8.778   8.312  65.926  1.00  0.00    -0.187 C  
BRANCH  10  11
HETATM   11  C   UNK     1      -9.223   9.760  65.838  1.00  0.00    -0.187 C  
HETATM   12  O   UNK     1     -10.043  10.169  65.022  1.00  0.00    -0.330 OA 
HETATM   13  N   UNK     1      -8.614  10.576  66.764  1.00  0.00    -0.125 N  
HETATM   14  H   UNK     1      -7.909  10.186  67.389  1.00  0.00     0.000 HD 
BRANCH  13  15
HETATM   15  C   UNK     1      -8.959  11.980  66.866  1.00  0.00    -0.199 C  
BRANCH  15  16
HETATM   16  C   UNK     1      -9.450  12.369  68.262  1.00  0.00    -0.203 C  
BRANCH  16  17
HETATM   17  C   UNK     1     -10.871  12.931  68.219  1.00  0.00    -0.263 C  
BRANCH  17  18
HETATM   18  C   UNK     1     -11.570  12.660  66.878  1.00  0.00    -0.438 C  
BRANCH  18  19
HETATM   19  C   UNK     1     -12.269  13.896  66.293  1.00  0.00    -0.461 C  
HETATM   20  N   UNK     1     -13.025  13.552  65.053  1.00  0.00    -0.735 NA 
HETATM   21  C   UNK     1     -11.238  14.983  65.948  1.00  0.00    -0.313 C  
HETATM   22  O   UNK     1     -10.720  15.742  66.744  1.00  0.00    -0.315 OA 
HETATM   23  O   UNK     1     -10.933  14.961  64.620  1.00  0.00    -0.370 OA 
HETATM   24  H1  UNK     1     -13.490  14.372  64.664  1.00  0.00     0.000 HD 
HETATM   25  H2  UNK     1     -13.684  12.790  65.216  1.00  0.00     0.000 HD 
ENDBRANCH  18  19
ENDBRANCH  17  18
ENDBRANCH  16  17
ENDBRANCH  15  16
ENDBRANCH  13  15
ENDBRANCH  10  11
ENDBRANCH   9  10
ENDBRANCH   8   9
ENDBRANCH   7   8
ENDBRANCH   6   7
ENDBRANCH   5   6
ENDBRANCH   4   5
ENDBRANCH   3   4
ENDBRANCH   2   3
TORSDOF 14
ENDMDL
MODEL      210
REMARK 921   NORMALIZED FREE ENERGY PREDICTED BY IDOCK:   -3.73 KCAL/MOL
REMARK 922        TOTAL FREE ENERGY PREDICTED BY IDOCK:   -7.72 KCAL/MOL
REMARK 923 INTER-LIGAND FREE ENERGY PREDICTED BY IDOCK:   -6.80 KCAL/MOL
REMARK 924 INTRA-LIGAND FREE ENERGY PREDICTED BY IDOCK:   -0.92 KCAL/MOL
REMARK 927      BINDING AFFINITY PREDICTED BY RF-SCORE:    0.00 PKD
ROOT
HETATM    1  C   UNK     1      -8.522   5.010  70.791  1.00  0.00    -0.115 C  
HETATM    2  O   UNK     1      -8.113   5.148  72.145  1.00  0.00    -0.109 OA 
ENDROOT
BRANCH   2   3
HETATM    3  C   UNK     1      -9.227   5.390  73.005  1.00  0.00    -0.133 C  
BRANCH   3   4
HETATM    4  C   UNK     1     -10.492   4.853  72.347  1.00  0.00    -0.209 C  
BRANCH   4   5
HETATM    5  O   UNK     1     -11.605   5.654  72.738  1.00  0.00    -0.297 OA 
BRANCH   5   6
HETATM    6  C   UNK     1     -11.860   6.693  71.794  1.00  0.00    -0.335 C  
BRANCH   6   7
HETATM    7  C   UNK     1     -11.715   8.042  72.486  1.00  0.00    -0.446 C  
BRANCH   7   8
HETATM    8  C   UNK     1     -11.103   9.105  71.566  1.00  0.00    -0.436 C  
BRANCH   8   9
HETATM    9  C   UNK     1     -10.198   8.455  70.523  1.00  0.00    -0.216 C  
BRANCH   9  10
HETATM   10  C   UNK     1      -8.791   9.047  70.526  1.00  0.00    -0.242 C  
BRANCH  10  11
HETATM   11  C   UNK     1      -8.654  10.128  69.470  1.00  0.00    -0.164 C  
HETATM   12  O   UNK     1      -7.760  10.969  69.471  1.00  0.00    -0.081 OA 
HETATM   13  N   UNK     1      -9.636  10.077  68.506  1.00  0.00    -0.148 N  
HETATM   14  H   UNK     1     -10.377   9.381  68.582  1.00  0.00     0.000 HD 
BRANCH  13  15
HETATM   15  C   UNK     1      -9.632  10.997  67.385  1.00  0.00    -0.164 C  
BRANCH  15  16
HETATM   16  C   UNK     1      -9.876  10.297  66.046  1.00  0.00    -0.292 C  
BRANCH  16  17
HETATM   17  C   UNK     1      -9.303  11.105  64.881  1.00  0.00    -0.219 C  
BRANCH  17  18
HETATM   18  C   UNK     1     -10.239  11.126  63.664  1.00  0.00    -0.444 C  
BRANCH  18  19
HETATM   19  C   UNK     1     -10.987  12.457  63.491  1.00  0.00    -0.450 C  
HETATM   20  N   UNK     1     -10.233  13.585  64.112  1.00  0.00    -0.758 NA 
HETATM   21  C   UNK     1     -12.375  12.381  64.147  1.00  0.00    -0.467 C  
HETATM   22  O   UNK     1     -13.356  11.848  63.662  1.00  0.00    -0.620 OA 
HETATM   23  O   UNK     1     -12.362  12.953  65.383  1.00  0.00    -0.457 OA 
HETATM   24  H1  UNK     1     -10.729  14.468  63.997  1.00  0.00     0.000 HD 
HETATM   25  H2  UNK     1      -9.280  13.641  63.752  1.00  0.00     0.000 HD 
ENDBRANCH  18  19
ENDBRANCH  17  18
ENDBRANCH  16  17
ENDBRANCH  15  16
ENDBRANCH  13  15
ENDBRANCH  10  11
ENDBRANCH   9  10
ENDBRANCH   8   9
ENDBRANCH   7   8
ENDBRANCH   6   7
ENDBRANCH   5   6
ENDBRANCH   4   5
ENDBRANCH   3   4
ENDBRANCH   2   3
TORSDOF 14
ENDMDL
MODEL      211
REMARK 921   NORMALIZED FREE ENERGY PREDICTED BY IDOCK:   -3.73 KCAL/MOL
REMARK 922        TOTAL FREE ENERGY PREDICTED BY IDOCK:   -7.72 KCAL/MOL
REMARK 923 INTER-LIGAND FREE ENERGY PREDICTED BY IDOCK:   -6.18 KCAL/MOL
REMARK 924 INTRA-LIGAND FREE ENERGY PREDICTED BY IDOCK:   -1.54 KCAL/MOL
REMARK 927      BINDING AFFINITY PREDICTED BY RF-SCORE:    0.00 PKD
ROOT
HETATM    1  C   UNK     1     -12.101  12.422  70.414  1.00  0.00    -0.297 C  
HETATM    2  O   UNK     1     -12.152  13.693  69.782  1.00  0.00    -0.320 OA 
ENDROOT
BRANCH   2   3
HETATM    3  C   UNK     1     -11.850  13.597  68.389  1.00  0.00    -0.372 C  
BRANCH   3   4
HETATM    4  C   UNK     1     -11.757  14.999  67.801  1.00  0.00    -0.274 C  
BRANCH   4   5
HETATM    5  O   UNK     1     -11.438  14.910  66.414  1.00  0.00    -0.344 OA 
BRANCH   5   6
HETATM    6  C   UNK     1     -12.449  14.213  65.688  1.00  0.00    -0.469 C  
BRANCH   6   7
HETATM    7  C   UNK     1     -12.129  14.276  64.201  1.00  0.00    -0.423 C  
BRANCH   7   8
HETATM    8  C   UNK     1     -12.037  12.884  63.566  1.00  0.00    -0.633 C  
BRANCH   8   9
HETATM    9  C   UNK     1     -10.604  12.361  63.621  1.00  0.00    -0.481 C  
BRANCH   9  10
HETATM   10  C   UNK     1     -10.520  10.963  64.228  1.00  0.00    -0.405 C  
BRANCH  10  11
HETATM   11  C   UNK     1      -9.106  10.418  64.140  1.00  0.00    -0.242 C  
HETATM   12  O   UNK     1      -8.677   9.795  63.174  1.00  0.00    -0.189 OA 
HETATM   13  N   UNK     1      -8.346  10.688  65.256  1.00  0.00    -0.235 N  
HETATM   14  H   UNK     1      -8.771  11.174  66.046  1.00  0.00     0.000 HD 
BRANCH  13  15
HETATM   15  C   UNK     1      -6.953  10.293  65.327  1.00  0.00    -0.130 C  
BRANCH  15  16
HETATM   16  C   UNK     1      -6.365  10.449  66.731  1.00  0.00    -0.075 C  
BRANCH  16  17
HETATM   17  C   UNK     1      -6.257  11.920  67.132  1.00  0.00    -0.154 C  
BRANCH  17  18
HETATM   18  C   UNK     1      -7.205  12.287  68.283  1.00  0.00    -0.101 C  
BRANCH  18  19
HETATM   19  C   UNK     1      -8.191  13.410  67.929  1.00  0.00    -0.162 C  
HETATM   20  N   UNK     1      -8.663  13.290  66.519  1.00  0.00    -0.438 NA 
HETATM   21  C   UNK     1      -7.526  14.785  68.105  1.00  0.00    -0.117 C  
HETATM   22  O   UNK     1      -7.362  15.359  69.164  1.00  0.00    -0.144 OA 
HETATM   23  O   UNK     1      -7.090  15.270  66.908  1.00  0.00    -0.175 OA 
HETATM   24  H1  UNK     1      -9.318  14.035  66.284  1.00  0.00     0.000 HD 
HETATM   25  H2  UNK     1      -9.061  12.369  66.334  1.00  0.00     0.000 HD 
ENDBRANCH  18  19
ENDBRANCH  17  18
ENDBRANCH  16  17
ENDBRANCH  15  16
ENDBRANCH  13  15
ENDBRANCH  10  11
ENDBRANCH   9  10
ENDBRANCH   8   9
ENDBRANCH   7   8
ENDBRANCH   6   7
ENDBRANCH   5   6
ENDBRANCH   4   5
ENDBRANCH   3   4
ENDBRANCH   2   3
TORSDOF 14
ENDMDL
MODEL      212
REMARK 921   NORMALIZED FREE ENERGY PREDICTED BY IDOCK:   -3.73 KCAL/MOL
REMARK 922        TOTAL FREE ENERGY PREDICTED BY IDOCK:   -7.71 KCAL/MOL
REMARK 923 INTER-LIGAND FREE ENERGY PREDICTED BY IDOCK:   -6.91 KCAL/MOL
REMARK 924 INTRA-LIGAND FREE ENERGY PREDICTED BY IDOCK:   -0.81 KCAL/MOL
REMARK 927      BINDING AFFINITY PREDICTED BY RF-SCORE:    0.00 PKD
ROOT
HETATM    1  C   UNK     1     -11.006   4.962  72.987  1.00  0.00    -0.288 C  
HETATM    2  O   UNK     1     -11.451   5.822  71.948  1.00  0.00    -0.253 OA 
ENDROOT
BRANCH   2   3
HETATM    3  C   UNK     1     -11.736   7.132  72.440  1.00  0.00    -0.222 C  
BRANCH   3   4
HETATM    4  C   UNK     1     -11.617   8.132  71.296  1.00  0.00    -0.273 C  
BRANCH   4   5
HETATM    5  O   UNK     1     -11.305   9.419  71.823  1.00  0.00    -0.379 OA 
BRANCH   5   6
HETATM    6  C   UNK     1     -12.171  10.423  71.298  1.00  0.00    -0.389 C  
BRANCH   6   7
HETATM    7  C   UNK     1     -11.452  11.168  70.181  1.00  0.00    -0.361 C  
BRANCH   7   8
HETATM    8  C   UNK     1     -12.187  11.057  68.841  1.00  0.00    -0.100 C  
BRANCH   8   9
HETATM    9  C   UNK     1     -11.467  11.866  67.765  1.00  0.00    -0.389 C  
BRANCH   9  10
HETATM   10  C   UNK     1     -10.582  10.994  66.878  1.00  0.00    -0.307 C  
BRANCH  10  11
HETATM   11  C   UNK     1      -9.145  11.480  66.900  1.00  0.00    -0.179 C  
HETATM   12  O   UNK     1      -8.295  11.123  66.090  1.00  0.00    -0.169 OA 
HETATM   13  N   UNK     1      -8.882  12.362  67.924  1.00  0.00    -0.172 N  
HETATM   14  H   UNK     1      -9.619  12.589  68.592  1.00  0.00     0.000 HD 
BRANCH  13  15
HETATM   15  C   UNK     1      -7.576  12.975  68.067  1.00  0.00    -0.139 C  
BRANCH  15  16
HETATM   16  C   UNK     1      -7.573  14.457  67.685  1.00  0.00    -0.195 C  
BRANCH  16  17
HETATM   17  C   UNK     1      -8.990  14.972  67.435  1.00  0.00    -0.196 C  
BRANCH  17  18
HETATM   18  C   UNK     1      -9.083  15.848  66.177  1.00  0.00    -0.385 C  
BRANCH  18  19
HETATM   19  C   UNK     1     -10.445  16.538  66.011  1.00  0.00    -0.310 C  
HETATM   20  N   UNK     1     -10.822  16.649  64.571  1.00  0.00    -0.958 NA 
HETATM   21  C   UNK     1     -10.409  17.951  66.615  1.00  0.00    -0.361 C  
HETATM   22  O   UNK     1     -10.499  18.214  67.799  1.00  0.00    -0.380 OA 
HETATM   23  O   UNK     1     -10.210  18.889  65.647  1.00  0.00    -0.504 OA 
HETATM   24  H1  UNK     1     -11.727  17.106  64.460  1.00  0.00     0.000 HD 
HETATM   25  H2  UNK     1     -10.803  15.740  64.107  1.00  0.00     0.000 HD 
ENDBRANCH  18  19
ENDBRANCH  17  18
ENDBRANCH  16  17
ENDBRANCH  15  16
ENDBRANCH  13  15
ENDBRANCH  10  11
ENDBRANCH   9  10
ENDBRANCH   8   9
ENDBRANCH   7   8
ENDBRANCH   6   7
ENDBRANCH   5   6
ENDBRANCH   4   5
ENDBRANCH   3   4
ENDBRANCH   2   3
TORSDOF 14
ENDMDL
MODEL      213
REMARK 921   NORMALIZED FREE ENERGY PREDICTED BY IDOCK:   -3.72 KCAL/MOL
REMARK 922        TOTAL FREE ENERGY PREDICTED BY IDOCK:   -7.70 KCAL/MOL
REMARK 923 INTER-LIGAND FREE ENERGY PREDICTED BY IDOCK:   -6.95 KCAL/MOL
REMARK 924 INTRA-LIGAND FREE ENERGY PREDICTED BY IDOCK:   -0.74 KCAL/MOL
REMARK 927      BINDING AFFINITY PREDICTED BY RF-SCORE:    0.00 PKD
ROOT
HETATM    1  C   UNK     1      -7.879  19.506  66.163  1.00  0.00    -0.316 C  
HETATM    2  O   UNK     1      -9.183  19.822  65.697  1.00  0.00    -0.320 OA 
ENDROOT
BRANCH   2   3
HETATM    3  C   UNK     1     -10.175  19.019  66.337  1.00  0.00    -0.437 C  
BRANCH   3   4
HETATM    4  C   UNK     1     -10.142  19.286  67.837  1.00  0.00    -0.395 C  
BRANCH   4   5
HETATM    5  O   UNK     1      -9.917  18.061  68.531  1.00  0.00    -0.350 OA 
BRANCH   5   6
HETATM    6  C   UNK     1     -10.634  16.982  67.934  1.00  0.00    -0.365 C  
BRANCH   6   7
HETATM    7  C   UNK     1     -11.491  16.305  68.996  1.00  0.00    -0.268 C  
BRANCH   7   8
HETATM    8  C   UNK     1     -10.940  14.934  69.401  1.00  0.00    -0.284 C  
BRANCH   8   9
HETATM    9  C   UNK     1     -11.863  13.820  68.914  1.00  0.00    -0.396 C  
BRANCH   9  10
HETATM   10  C   UNK     1     -12.120  12.767  69.989  1.00  0.00    -0.355 C  
BRANCH  10  11
HETATM   11  C   UNK     1     -11.685  11.392  69.518  1.00  0.00    -0.348 C  
HETATM   12  O   UNK     1     -12.169  10.823  68.545  1.00  0.00    -0.470 OA 
HETATM   13  N   UNK     1     -10.692  10.838  70.294  1.00  0.00    -0.429 N  
HETATM   14  H   UNK     1     -10.358  11.341  71.117  1.00  0.00     0.000 HD 
BRANCH  13  15
HETATM   15  C   UNK     1     -10.112   9.551  69.961  1.00  0.00    -0.242 C  
BRANCH  15  16
HETATM   16  C   UNK     1      -8.627   9.648  69.600  1.00  0.00    -0.196 C  
BRANCH  16  17
HETATM   17  C   UNK     1      -8.356   9.101  68.198  1.00  0.00    -0.120 C  
BRANCH  17  18
HETATM   18  C   UNK     1      -8.658  10.129  67.098  1.00  0.00    -0.125 C  
BRANCH  18  19
HETATM   19  C   UNK     1      -9.840   9.733  66.199  1.00  0.00    -0.263 C  
HETATM   20  N   UNK     1      -9.876   8.258  65.973  1.00  0.00    -0.468 NA 
HETATM   21  C   UNK     1      -9.734  10.432  64.835  1.00  0.00    -0.309 C  
HETATM   22  O   UNK     1     -10.040  11.588  64.608  1.00  0.00    -0.245 OA 
HETATM   23  O   UNK     1      -9.198   9.597  63.900  1.00  0.00    -0.249 OA 
HETATM   24  H1  UNK     1     -10.661   7.996  65.377  1.00  0.00     0.000 HD 
HETATM   25  H2  UNK     1      -9.887   7.745  66.855  1.00  0.00     0.000 HD 
ENDBRANCH  18  19
ENDBRANCH  17  18
ENDBRANCH  16  17
ENDBRANCH  15  16
ENDBRANCH  13  15
ENDBRANCH  10  11
ENDBRANCH   9  10
ENDBRANCH   8   9
ENDBRANCH   7   8
ENDBRANCH   6   7
ENDBRANCH   5   6
ENDBRANCH   4   5
ENDBRANCH   3   4
ENDBRANCH   2   3
TORSDOF 14
ENDMDL
MODEL      214
REMARK 921   NORMALIZED FREE ENERGY PREDICTED BY IDOCK:   -3.71 KCAL/MOL
REMARK 922        TOTAL FREE ENERGY PREDICTED BY IDOCK:   -7.68 KCAL/MOL
REMARK 923 INTER-LIGAND FREE ENERGY PREDICTED BY IDOCK:   -7.17 KCAL/MOL
REMARK 924 INTRA-LIGAND FREE ENERGY PREDICTED BY IDOCK:   -0.51 KCAL/MOL
REMARK 927      BINDING AFFINITY PREDICTED BY RF-SCORE:    0.00 PKD
ROOT
HETATM    1  C   UNK     1     -12.307  15.420  74.027  1.00  0.00    -0.659 C  
HETATM    2  O   UNK     1     -12.623  16.141  72.845  1.00  0.00    -0.447 OA 
ENDROOT
BRANCH   2   3
HETATM    3  C   UNK     1     -13.545  15.423  72.025  1.00  0.00    -0.487 C  
BRANCH   3   4
HETATM    4  C   UNK     1     -12.798  14.827  70.838  1.00  0.00    -0.362 C  
BRANCH   4   5
HETATM    5  O   UNK     1     -12.159  15.872  70.108  1.00  0.00    -0.344 OA 
BRANCH   5   6
HETATM    6  C   UNK     1     -11.567  15.385  68.906  1.00  0.00    -0.354 C  
BRANCH   6   7
HETATM    7  C   UNK     1     -10.817  16.521  68.223  1.00  0.00    -0.352 C  
BRANCH   7   8
HETATM    8  C   UNK     1      -9.582  16.027  67.460  1.00  0.00    -0.222 C  
BRANCH   8   9
HETATM    9  C   UNK     1      -9.743  16.271  65.962  1.00  0.00    -0.370 C  
BRANCH   9  10
HETATM   10  C   UNK     1     -10.953  15.543  65.383  1.00  0.00    -0.365 C  
BRANCH  10  11
HETATM   11  C   UNK     1     -10.669  14.061  65.220  1.00  0.00    -0.358 C  
HETATM   12  O   UNK     1     -10.094  13.583  64.247  1.00  0.00    -0.336 OA 
HETATM   13  N   UNK     1     -11.123  13.300  66.273  1.00  0.00    -0.287 N  
HETATM   14  H   UNK     1     -11.632  13.749  67.034  1.00  0.00     0.000 HD 
BRANCH  13  15
HETATM   15  C   UNK     1     -10.891  11.869  66.317  1.00  0.00    -0.282 C  
BRANCH  15  16
HETATM   16  C   UNK     1     -11.604  11.190  67.488  1.00  0.00    -0.220 C  
BRANCH  16  17
HETATM   17  C   UNK     1     -10.607  10.582  68.473  1.00  0.00    -0.234 C  
BRANCH  17  18
HETATM   18  C   UNK     1     -11.268  10.159  69.793  1.00  0.00    -0.325 C  
BRANCH  18  19
HETATM   19  C   UNK     1     -10.845   8.760  70.268  1.00  0.00    -0.231 C  
HETATM   20  N   UNK     1     -11.883   8.155  71.154  1.00  0.00    -0.284 NA 
HETATM   21  C   UNK     1      -9.523   8.835  71.048  1.00  0.00    -0.228 C  
HETATM   22  O   UNK     1      -8.416   8.924  70.552  1.00  0.00    -0.141 OA 
HETATM   23  O   UNK     1      -9.750   8.839  72.392  1.00  0.00    -0.283 OA 
HETATM   24  H1  UNK     1     -11.602   7.226  71.469  1.00  0.00     0.000 HD 
HETATM   25  H2  UNK     1     -12.797   8.136  70.702  1.00  0.00     0.000 HD 
ENDBRANCH  18  19
ENDBRANCH  17  18
ENDBRANCH  16  17
ENDBRANCH  15  16
ENDBRANCH  13  15
ENDBRANCH  10  11
ENDBRANCH   9  10
ENDBRANCH   8   9
ENDBRANCH   7   8
ENDBRANCH   6   7
ENDBRANCH   5   6
ENDBRANCH   4   5
ENDBRANCH   3   4
ENDBRANCH   2   3
TORSDOF 14
ENDMDL
MODEL      215
REMARK 921   NORMALIZED FREE ENERGY PREDICTED BY IDOCK:   -3.71 KCAL/MOL
REMARK 922        TOTAL FREE ENERGY PREDICTED BY IDOCK:   -7.68 KCAL/MOL
REMARK 923 INTER-LIGAND FREE ENERGY PREDICTED BY IDOCK:   -6.44 KCAL/MOL
REMARK 924 INTRA-LIGAND FREE ENERGY PREDICTED BY IDOCK:   -1.24 KCAL/MOL
REMARK 927      BINDING AFFINITY PREDICTED BY RF-SCORE:    0.00 PKD
ROOT
HETATM    1  C   UNK     1      -9.964  14.982  68.122  1.00  0.00    -0.220 C  
HETATM    2  O   UNK     1     -10.918  15.385  69.094  1.00  0.00    -0.227 OA 
ENDROOT
BRANCH   2   3
HETATM    3  C   UNK     1     -11.994  14.451  69.189  1.00  0.00    -0.322 C  
BRANCH   3   4
HETATM    4  C   UNK     1     -11.856  13.416  68.079  1.00  0.00    -0.357 C  
BRANCH   4   5
HETATM    5  O   UNK     1     -11.968  12.108  68.634  1.00  0.00    -0.318 OA 
BRANCH   5   6
HETATM    6  C   UNK     1     -12.000  12.146  70.060  1.00  0.00    -0.315 C  
BRANCH   6   7
HETATM    7  C   UNK     1     -12.154  10.727  70.593  1.00  0.00    -0.467 C  
BRANCH   7   8
HETATM    8  C   UNK     1     -13.111  10.655  71.787  1.00  0.00    -0.571 C  
BRANCH   8   9
HETATM    9  C   UNK     1     -13.230   9.221  72.295  1.00  0.00    -0.535 C  
BRANCH   9  10
HETATM   10  C   UNK     1     -12.519   8.223  71.384  1.00  0.00    -0.315 C  
BRANCH  10  11
HETATM   11  C   UNK     1     -11.564   7.350  72.177  1.00  0.00    -0.293 C  
HETATM   12  O   UNK     1     -11.012   7.713  73.211  1.00  0.00    -0.400 OA 
HETATM   13  N   UNK     1     -11.372   6.105  71.621  1.00  0.00    -0.287 N  
HETATM   14  H   UNK     1     -11.825   5.876  70.736  1.00  0.00     0.000 HD 
BRANCH  13  15
HETATM   15  C   UNK     1     -10.535   5.116  72.271  1.00  0.00    -0.219 C  
BRANCH  15  16
HETATM   16  C   UNK     1      -9.666   4.335  71.282  1.00  0.00    -0.256 C  
BRANCH  16  17
HETATM   17  C   UNK     1      -8.644   5.242  70.598  1.00  0.00    -0.126 C  
BRANCH  17  18
HETATM   18  C   UNK     1      -8.532   4.970  69.091  1.00  0.00    -0.088 C  
BRANCH  18  19
HETATM   19  C   UNK     1      -9.847   4.497  68.455  1.00  0.00    -0.084 C  
HETATM   20  N   UNK     1      -9.593   3.571  67.312  1.00  0.00    -0.302 NA 
HETATM   21  C   UNK     1     -10.655   5.698  67.937  1.00  0.00    -0.193 C  
HETATM   22  O   UNK     1     -11.335   6.439  68.622  1.00  0.00    -0.313 OA 
HETATM   23  O   UNK     1     -10.475   5.865  66.597  1.00  0.00    -0.237 OA 
HETATM   24  H1  UNK     1     -10.466   3.257  66.890  1.00  0.00     0.000 HD 
HETATM   25  H2  UNK     1      -9.007   2.784  67.591  1.00  0.00     0.000 HD 
ENDBRANCH  18  19
ENDBRANCH  17  18
ENDBRANCH  16  17
ENDBRANCH  15  16
ENDBRANCH  13  15
ENDBRANCH  10  11
ENDBRANCH   9  10
ENDBRANCH   8   9
ENDBRANCH   7   8
ENDBRANCH   6   7
ENDBRANCH   5   6
ENDBRANCH   4   5
ENDBRANCH   3   4
ENDBRANCH   2   3
TORSDOF 14
ENDMDL
MODEL      216
REMARK 921   NORMALIZED FREE ENERGY PREDICTED BY IDOCK:   -3.70 KCAL/MOL
REMARK 922        TOTAL FREE ENERGY PREDICTED BY IDOCK:   -7.67 KCAL/MOL
REMARK 923 INTER-LIGAND FREE ENERGY PREDICTED BY IDOCK:   -7.03 KCAL/MOL
REMARK 924 INTRA-LIGAND FREE ENERGY PREDICTED BY IDOCK:   -0.63 KCAL/MOL
REMARK 927      BINDING AFFINITY PREDICTED BY RF-SCORE:    0.00 PKD
ROOT
HETATM    1  C   UNK     1      -8.846  14.586  67.421  1.00  0.00    -0.198 C  
HETATM    2  O   UNK     1      -9.873  15.193  68.192  1.00  0.00    -0.213 OA 
ENDROOT
BRANCH   2   3
HETATM    3  C   UNK     1     -10.819  15.870  67.363  1.00  0.00    -0.291 C  
BRANCH   3   4
HETATM    4  C   UNK     1     -11.201  14.963  66.199  1.00  0.00    -0.325 C  
BRANCH   4   5
HETATM    5  O   UNK     1     -12.208  14.047  66.624  1.00  0.00    -0.442 OA 
BRANCH   5   6
HETATM    6  C   UNK     1     -12.014  12.754  66.055  1.00  0.00    -0.432 C  
BRANCH   6   7
HETATM    7  C   UNK     1     -11.400  11.835  67.103  1.00  0.00    -0.387 C  
BRANCH   7   8
HETATM    8  C   UNK     1     -11.567  12.380  68.525  1.00  0.00    -0.358 C  
BRANCH   8   9
HETATM    9  C   UNK     1     -12.209  11.332  69.430  1.00  0.00    -0.315 C  
BRANCH   9  10
HETATM   10  C   UNK     1     -11.174  10.439  70.108  1.00  0.00    -0.393 C  
BRANCH  10  11
HETATM   11  C   UNK     1     -11.820   9.570  71.172  1.00  0.00    -0.358 C  
HETATM   12  O   UNK     1     -12.965   9.736  71.581  1.00  0.00    -0.356 OA 
HETATM   13  N   UNK     1     -10.994   8.572  71.637  1.00  0.00    -0.270 N  
HETATM   14  H   UNK     1     -10.037   8.509  71.288  1.00  0.00     0.000 HD 
BRANCH  13  15
HETATM   15  C   UNK     1     -11.461   7.609  72.615  1.00  0.00    -0.349 C  
BRANCH  15  16
HETATM   16  C   UNK     1     -11.291   6.162  72.147  1.00  0.00    -0.347 C  
BRANCH  16  17
HETATM   17  C   UNK     1     -10.380   6.073  70.924  1.00  0.00    -0.277 C  
BRANCH  17  18
HETATM   18  C   UNK     1     -11.165   6.079  69.604  1.00  0.00    -0.428 C  
BRANCH  18  19
HETATM   19  C   UNK     1     -10.302   6.424  68.380  1.00  0.00    -0.194 C  
HETATM   20  N   UNK     1     -11.054   7.276  67.412  1.00  0.00    -0.575 NA 
HETATM   21  C   UNK     1      -9.860   5.141  67.658  1.00  0.00    -0.160 C  
HETATM   22  O   UNK     1      -8.949   4.414  68.007  1.00  0.00    -0.109 OA 
HETATM   23  O   UNK     1     -10.658   4.887  66.584  1.00  0.00    -0.256 OA 
HETATM   24  H1  UNK     1     -10.481   7.505  66.600  1.00  0.00     0.000 HD 
HETATM   25  H2  UNK     1     -11.422   8.115  67.860  1.00  0.00     0.000 HD 
ENDBRANCH  18  19
ENDBRANCH  17  18
ENDBRANCH  16  17
ENDBRANCH  15  16
ENDBRANCH  13  15
ENDBRANCH  10  11
ENDBRANCH   9  10
ENDBRANCH   8   9
ENDBRANCH   7   8
ENDBRANCH   6   7
ENDBRANCH   5   6
ENDBRANCH   4   5
ENDBRANCH   3   4
ENDBRANCH   2   3
TORSDOF 14
ENDMDL
MODEL      217
REMARK 921   NORMALIZED FREE ENERGY PREDICTED BY IDOCK:   -3.70 KCAL/MOL
REMARK 922        TOTAL FREE ENERGY PREDICTED BY IDOCK:   -7.65 KCAL/MOL
REMARK 923 INTER-LIGAND FREE ENERGY PREDICTED BY IDOCK:   -6.57 KCAL/MOL
REMARK 924 INTRA-LIGAND FREE ENERGY PREDICTED BY IDOCK:   -1.08 KCAL/MOL
REMARK 927      BINDING AFFINITY PREDICTED BY RF-SCORE:    0.00 PKD
ROOT
HETATM    1  C   UNK     1     -10.209   6.887  73.894  1.00  0.00    -0.367 C  
HETATM    2  O   UNK     1     -10.112   6.720  72.487  1.00  0.00    -0.170 OA 
ENDROOT
BRANCH   2   3
HETATM    3  C   UNK     1      -9.990   7.976  71.819  1.00  0.00    -0.187 C  
BRANCH   3   4
HETATM    4  C   UNK     1     -11.186   8.850  72.177  1.00  0.00    -0.292 C  
BRANCH   4   5
HETATM    5  O   UNK     1     -11.910   9.170  70.991  1.00  0.00    -0.280 OA 
BRANCH   5   6
HETATM    6  C   UNK     1     -12.312  10.538  70.977  1.00  0.00    -0.399 C  
BRANCH   6   7
HETATM    7  C   UNK     1     -11.919  11.160  69.643  1.00  0.00    -0.429 C  
BRANCH   7   8
HETATM    8  C   UNK     1     -11.008  10.244  68.819  1.00  0.00    -0.285 C  
BRANCH   8   9
HETATM    9  C   UNK     1      -9.924  11.056  68.116  1.00  0.00    -0.190 C  
BRANCH   9  10
HETATM   10  C   UNK     1      -9.316  10.309  66.932  1.00  0.00    -0.183 C  
BRANCH  10  11
HETATM   11  C   UNK     1     -10.019  10.677  65.638  1.00  0.00    -0.268 C  
HETATM   12  O   UNK     1     -10.030   9.959  64.644  1.00  0.00    -0.254 OA 
HETATM   13  N   UNK     1     -10.645  11.902  65.687  1.00  0.00    -0.259 N  
HETATM   14  H   UNK     1     -10.565  12.473  66.529  1.00  0.00     0.000 HD 
BRANCH  13  15
HETATM   15  C   UNK     1     -11.416  12.393  64.562  1.00  0.00    -0.337 C  
BRANCH  15  16
HETATM   16  C   UNK     1     -12.532  13.353  64.983  1.00  0.00    -0.479 C  
BRANCH  16  17
HETATM   17  C   UNK     1     -12.326  14.745  64.388  1.00  0.00    -0.389 C  
BRANCH  17  18
HETATM   18  C   UNK     1     -10.903  15.278  64.615  1.00  0.00    -0.280 C  
BRANCH  18  19
HETATM   19  C   UNK     1     -10.743  16.053  65.931  1.00  0.00    -0.280 C  
HETATM   20  N   UNK     1     -10.009  17.335  65.716  1.00  0.00    -0.563 NA 
HETATM   21  C   UNK     1      -9.966  15.214  66.958  1.00  0.00    -0.241 C  
HETATM   22  O   UNK     1     -10.431  14.312  67.628  1.00  0.00    -0.246 OA 
HETATM   23  O   UNK     1      -8.653  15.579  66.991  1.00  0.00    -0.195 OA 
HETATM   24  H1  UNK     1      -9.903  17.851  66.589  1.00  0.00     0.000 HD 
HETATM   25  H2  UNK     1     -10.454  17.905  64.996  1.00  0.00     0.000 HD 
ENDBRANCH  18  19
ENDBRANCH  17  18
ENDBRANCH  16  17
ENDBRANCH  15  16
ENDBRANCH  13  15
ENDBRANCH  10  11
ENDBRANCH   9  10
ENDBRANCH   8   9
ENDBRANCH   7   8
ENDBRANCH   6   7
ENDBRANCH   5   6
ENDBRANCH   4   5
ENDBRANCH   3   4
ENDBRANCH   2   3
TORSDOF 14
ENDMDL
MODEL      218
REMARK 921   NORMALIZED FREE ENERGY PREDICTED BY IDOCK:   -3.69 KCAL/MOL
REMARK 922        TOTAL FREE ENERGY PREDICTED BY IDOCK:   -7.64 KCAL/MOL
REMARK 923 INTER-LIGAND FREE ENERGY PREDICTED BY IDOCK:   -6.51 KCAL/MOL
REMARK 924 INTRA-LIGAND FREE ENERGY PREDICTED BY IDOCK:   -1.13 KCAL/MOL
REMARK 927      BINDING AFFINITY PREDICTED BY RF-SCORE:    0.00 PKD
ROOT
HETATM    1  C   UNK     1     -12.022  13.632  70.086  1.00  0.00    -0.337 C  
HETATM    2  O   UNK     1     -11.261  14.823  69.943  1.00  0.00    -0.256 OA 
ENDROOT
BRANCH   2   3
HETATM    3  C   UNK     1     -11.886  15.738  69.043  1.00  0.00    -0.355 C  
BRANCH   3   4
HETATM    4  C   UNK     1     -10.897  16.114  67.946  1.00  0.00    -0.332 C  
BRANCH   4   5
HETATM    5  O   UNK     1     -10.221  14.942  67.496  1.00  0.00    -0.232 OA 
BRANCH   5   6
HETATM    6  C   UNK     1      -9.005  15.264  66.825  1.00  0.00    -0.262 C  
BRANCH   6   7
HETATM    7  C   UNK     1      -7.956  15.663  67.855  1.00  0.00    -0.151 C  
BRANCH   7   8
HETATM    8  C   UNK     1      -6.599  15.003  67.591  1.00  0.00    -0.193 C  
BRANCH   8   9
HETATM    9  C   UNK     1      -6.497  13.670  68.326  1.00  0.00    -0.109 C  
BRANCH   9  10
HETATM   10  C   UNK     1      -5.774  12.607  67.504  1.00  0.00    -0.131 C  
BRANCH  10  11
HETATM   11  C   UNK     1      -6.741  11.537  67.030  1.00  0.00    -0.143 C  
HETATM   12  O   UNK     1      -6.575  10.876  66.010  1.00  0.00    -0.126 OA 
HETATM   13  N   UNK     1      -7.830  11.379  67.858  1.00  0.00    -0.112 N  
HETATM   14  H   UNK     1      -7.934  11.988  68.670  1.00  0.00     0.000 HD 
BRANCH  13  15
HETATM   15  C   UNK     1      -8.830  10.364  67.593  1.00  0.00    -0.124 C  
BRANCH  15  16
HETATM   16  C   UNK     1     -10.086  10.930  66.926  1.00  0.00    -0.253 C  
BRANCH  16  17
HETATM   17  C   UNK     1     -10.044  10.746  65.410  1.00  0.00    -0.347 C  
BRANCH  17  18
HETATM   18  C   UNK     1     -10.505  12.000  64.653  1.00  0.00    -0.338 C  
BRANCH  18  19
HETATM   19  C   UNK     1     -12.010  12.010  64.345  1.00  0.00    -0.300 C  
HETATM   20  N   UNK     1     -12.274  11.631  62.926  1.00  0.00    -0.838 NA 
HETATM   21  C   UNK     1     -12.599  13.408  64.593  1.00  0.00    -0.265 C  
HETATM   22  O   UNK     1     -12.890  13.868  65.681  1.00  0.00    -0.541 OA 
HETATM   23  O   UNK     1     -12.713  14.102  63.426  1.00  0.00    -0.767 OA 
HETATM   24  H1  UNK     1     -13.273  11.638  62.722  1.00  0.00     0.000 HD 
HETATM   25  H2  UNK     1     -11.850  10.733  62.693  1.00  0.00     0.000 HD 
ENDBRANCH  18  19
ENDBRANCH  17  18
ENDBRANCH  16  17
ENDBRANCH  15  16
ENDBRANCH  13  15
ENDBRANCH  10  11
ENDBRANCH   9  10
ENDBRANCH   8   9
ENDBRANCH   7   8
ENDBRANCH   6   7
ENDBRANCH   5   6
ENDBRANCH   4   5
ENDBRANCH   3   4
ENDBRANCH   2   3
TORSDOF 14
ENDMDL
MODEL      219
REMARK 921   NORMALIZED FREE ENERGY PREDICTED BY IDOCK:   -3.67 KCAL/MOL
REMARK 922        TOTAL FREE ENERGY PREDICTED BY IDOCK:   -7.60 KCAL/MOL
REMARK 923 INTER-LIGAND FREE ENERGY PREDICTED BY IDOCK:   -6.72 KCAL/MOL
REMARK 924 INTRA-LIGAND FREE ENERGY PREDICTED BY IDOCK:   -0.88 KCAL/MOL
REMARK 927      BINDING AFFINITY PREDICTED BY RF-SCORE:    0.00 PKD
ROOT
HETATM    1  C   UNK     1     -12.227  14.852  64.339  1.00  0.00    -0.381 C  
HETATM    2  O   UNK     1     -12.880  13.760  64.971  1.00  0.00    -0.693 OA 
ENDROOT
BRANCH   2   3
HETATM    3  C   UNK     1     -12.439  12.510  64.440  1.00  0.00    -0.446 C  
BRANCH   3   4
HETATM    4  C   UNK     1     -11.519  11.834  65.450  1.00  0.00    -0.176 C  
BRANCH   4   5
HETATM    5  O   UNK     1     -11.910  12.209  66.769  1.00  0.00    -0.561 OA 
BRANCH   5   6
HETATM    6  C   UNK     1     -10.778  12.474  67.595  1.00  0.00    -0.218 C  
BRANCH   6   7
HETATM    7  C   UNK     1     -10.335  13.916  67.388  1.00  0.00    -0.252 C  
BRANCH   7   8
HETATM    8  C   UNK     1      -9.021  14.232  68.111  1.00  0.00    -0.189 C  
BRANCH   8   9
HETATM    9  C   UNK     1      -8.085  15.022  67.201  1.00  0.00    -0.245 C  
BRANCH   9  10
HETATM   10  C   UNK     1      -6.621  14.876  67.609  1.00  0.00    -0.189 C  
BRANCH  10  11
HETATM   11  C   UNK     1      -6.096  16.163  68.220  1.00  0.00    -0.109 C  
HETATM   12  O   UNK     1      -5.893  16.311  69.421  1.00  0.00    -0.132 OA 
HETATM   13  N   UNK     1      -5.871  17.156  67.292  1.00  0.00    -0.135 N  
HETATM   14  H   UNK     1      -6.099  16.987  66.312  1.00  0.00     0.000 HD 
BRANCH  13  15
HETATM   15  C   UNK     1      -5.317  18.436  67.686  1.00  0.00    -0.154 C  
BRANCH  15  16
HETATM   16  C   UNK     1      -6.365  19.551  67.714  1.00  0.00    -0.236 C  
BRANCH  16  17
HETATM   17  C   UNK     1      -7.775  18.998  67.508  1.00  0.00    -0.262 C  
BRANCH  17  18
HETATM   18  C   UNK     1      -8.765  20.074  67.040  1.00  0.00    -0.411 C  
BRANCH  18  19
HETATM   19  C   UNK     1     -10.237  19.676  67.233  1.00  0.00    -0.433 C  
HETATM   20  N   UNK     1     -10.705  19.993  68.614  1.00  0.00    -0.298 NA 
HETATM   21  C   UNK     1     -10.422  18.170  66.990  1.00  0.00    -0.370 C  
HETATM   22  O   UNK     1     -10.494  17.634  65.900  1.00  0.00    -0.476 OA 
HETATM   23  O   UNK     1     -10.448  17.486  68.169  1.00  0.00    -0.357 OA 
HETATM   24  H1  UNK     1     -11.682  19.730  68.742  1.00  0.00     0.000 HD 
HETATM   25  H2  UNK     1     -10.548  20.974  68.846  1.00  0.00     0.000 HD 
ENDBRANCH  18  19
ENDBRANCH  17  18
ENDBRANCH  16  17
ENDBRANCH  15  16
ENDBRANCH  13  15
ENDBRANCH  10  11
ENDBRANCH   9  10
ENDBRANCH   8   9
ENDBRANCH   7   8
ENDBRANCH   6   7
ENDBRANCH   5   6
ENDBRANCH   4   5
ENDBRANCH   3   4
ENDBRANCH   2   3
TORSDOF 14
ENDMDL
MODEL      220
REMARK 921   NORMALIZED FREE ENERGY PREDICTED BY IDOCK:   -3.66 KCAL/MOL
REMARK 922        TOTAL FREE ENERGY PREDICTED BY IDOCK:   -7.59 KCAL/MOL
REMARK 923 INTER-LIGAND FREE ENERGY PREDICTED BY IDOCK:   -6.88 KCAL/MOL
REMARK 924 INTRA-LIGAND FREE ENERGY PREDICTED BY IDOCK:   -0.72 KCAL/MOL
REMARK 927      BINDING AFFINITY PREDICTED BY RF-SCORE:    0.00 PKD
ROOT
HETATM    1  C   UNK     1     -13.590  12.337  72.264  1.00  0.00    -0.196 C  
HETATM    2  O   UNK     1     -13.263  13.682  72.586  1.00  0.00    -0.503 OA 
ENDROOT
BRANCH   2   3
HETATM    3  C   UNK     1     -14.024  14.605  71.806  1.00  0.00    -0.477 C  
BRANCH   3   4
HETATM    4  C   UNK     1     -13.071  15.508  71.032  1.00  0.00    -0.489 C  
BRANCH   4   5
HETATM    5  O   UNK     1     -11.779  14.907  70.990  1.00  0.00    -0.301 OA 
BRANCH   5   6
HETATM    6  C   UNK     1     -11.550  14.242  69.749  1.00  0.00    -0.293 C  
BRANCH   6   7
HETATM    7  C   UNK     1     -11.749  15.233  68.609  1.00  0.00    -0.367 C  
BRANCH   7   8
HETATM    8  C   UNK     1     -11.772  14.546  67.239  1.00  0.00    -0.429 C  
BRANCH   8   9
HETATM    9  C   UNK     1     -10.756  15.188  66.299  1.00  0.00    -0.320 C  
BRANCH   9  10
HETATM   10  C   UNK     1     -11.284  15.314  64.872  1.00  0.00    -0.422 C  
BRANCH  10  11
HETATM   11  C   UNK     1     -11.569  13.947  64.276  1.00  0.00    -0.355 C  
HETATM   12  O   UNK     1     -12.697  13.541  64.018  1.00  0.00    -0.660 OA 
HETATM   13  N   UNK     1     -10.433  13.201  64.054  1.00  0.00    -0.543 N  
HETATM   14  H   UNK     1      -9.525  13.576  64.329  1.00  0.00     0.000 HD 
BRANCH  13  15
HETATM   15  C   UNK     1     -10.508  11.891  63.437  1.00  0.00    -0.441 C  
BRANCH  15  16
HETATM   16  C   UNK     1     -10.358  10.752  64.448  1.00  0.00    -0.405 C  
BRANCH  16  17
HETATM   17  C   UNK     1      -9.107  10.928  65.308  1.00  0.00    -0.217 C  
BRANCH  17  18
HETATM   18  C   UNK     1      -8.087   9.800  65.101  1.00  0.00    -0.132 C  
BRANCH  18  19
HETATM   19  C   UNK     1      -7.533   9.227  66.414  1.00  0.00    -0.093 C  
HETATM   20  N   UNK     1      -7.932  10.068  67.581  1.00  0.00    -0.105 NA 
HETATM   21  C   UNK     1      -5.998   9.159  66.365  1.00  0.00    -0.059 C  
HETATM   22  O   UNK     1      -5.348   8.301  65.798  1.00  0.00    -0.031 OA 
HETATM   23  O   UNK     1      -5.443  10.226  67.005  1.00  0.00    -0.041 OA 
HETATM   24  H1  UNK     1      -7.564   9.687  68.452  1.00  0.00     0.000 HD 
HETATM   25  H2  UNK     1      -8.943  10.193  67.624  1.00  0.00     0.000 HD 
ENDBRANCH  18  19
ENDBRANCH  17  18
ENDBRANCH  16  17
ENDBRANCH  15  16
ENDBRANCH  13  15
ENDBRANCH  10  11
ENDBRANCH   9  10
ENDBRANCH   8   9
ENDBRANCH   7   8
ENDBRANCH   6   7
ENDBRANCH   5   6
ENDBRANCH   4   5
ENDBRANCH   3   4
ENDBRANCH   2   3
TORSDOF 14
ENDMDL
MODEL      221
REMARK 921   NORMALIZED FREE ENERGY PREDICTED BY IDOCK:   -3.66 KCAL/MOL
REMARK 922        TOTAL FREE ENERGY PREDICTED BY IDOCK:   -7.58 KCAL/MOL
REMARK 923 INTER-LIGAND FREE ENERGY PREDICTED BY IDOCK:   -7.09 KCAL/MOL
REMARK 924 INTRA-LIGAND FREE ENERGY PREDICTED BY IDOCK:   -0.50 KCAL/MOL
REMARK 927      BINDING AFFINITY PREDICTED BY RF-SCORE:    0.00 PKD
ROOT
HETATM    1  C   UNK     1      -9.549   4.578  71.993  1.00  0.00    -0.153 C  
HETATM    2  O   UNK     1      -9.321   4.947  73.345  1.00  0.00    -0.126 OA 
ENDROOT
BRANCH   2   3
HETATM    3  C   UNK     1     -10.394   5.738  73.859  1.00  0.00    -0.272 C  
BRANCH   3   4
HETATM    4  C   UNK     1     -11.156   6.362  72.696  1.00  0.00    -0.261 C  
BRANCH   4   5
HETATM    5  O   UNK     1     -11.334   7.755  72.940  1.00  0.00    -0.387 OA 
BRANCH   5   6
HETATM    6  C   UNK     1     -12.336   8.311  72.092  1.00  0.00    -0.360 C  
BRANCH   6   7
HETATM    7  C   UNK     1     -11.737   9.470  71.305  1.00  0.00    -0.444 C  
BRANCH   7   8
HETATM    8  C   UNK     1     -12.607  10.730  71.372  1.00  0.00    -0.516 C  
BRANCH   8   9
HETATM    9  C   UNK     1     -12.219  11.709  70.268  1.00  0.00    -0.401 C  
BRANCH   9  10
HETATM   10  C   UNK     1     -11.709  11.000  69.016  1.00  0.00    -0.402 C  
BRANCH  10  11
HETATM   11  C   UNK     1     -11.417  11.996  67.908  1.00  0.00    -0.330 C  
HETATM   12  O   UNK     1     -12.034  12.032  66.848  1.00  0.00    -0.612 OA 
HETATM   13  N   UNK     1     -10.386  12.858  68.207  1.00  0.00    -0.239 N  
HETATM   14  H   UNK     1      -9.883  12.751  69.088  1.00  0.00     0.000 HD 
BRANCH  13  15
HETATM   15  C   UNK     1     -10.004  13.914  67.290  1.00  0.00    -0.242 C  
BRANCH  15  16
HETATM   16  C   UNK     1     -10.480  15.295  67.748  1.00  0.00    -0.253 C  
BRANCH  16  17
HETATM   17  C   UNK     1      -9.362  16.332  67.650  1.00  0.00    -0.218 C  
BRANCH  17  18
HETATM   18  C   UNK     1      -9.727  17.657  68.334  1.00  0.00    -0.321 C  
BRANCH  18  19
HETATM   19  C   UNK     1      -9.247  18.896  67.564  1.00  0.00    -0.290 C  
HETATM   20  N   UNK     1      -9.169  18.624  66.098  1.00  0.00    -0.486 NA 
HETATM   21  C   UNK     1      -7.855  19.327  68.053  1.00  0.00    -0.298 C  
HETATM   22  O   UNK     1      -7.628  19.957  69.068  1.00  0.00    -0.269 OA 
HETATM   23  O   UNK     1      -6.881  18.865  67.219  1.00  0.00    -0.205 OA 
HETATM   24  H1  UNK     1      -8.851  19.447  65.587  1.00  0.00     0.000 HD 
HETATM   25  H2  UNK     1     -10.057  18.277  65.734  1.00  0.00     0.000 HD 
ENDBRANCH  18  19
ENDBRANCH  17  18
ENDBRANCH  16  17
ENDBRANCH  15  16
ENDBRANCH  13  15
ENDBRANCH  10  11
ENDBRANCH   9  10
ENDBRANCH   8   9
ENDBRANCH   7   8
ENDBRANCH   6   7
ENDBRANCH   5   6
ENDBRANCH   4   5
ENDBRANCH   3   4
ENDBRANCH   2   3
TORSDOF 14
ENDMDL
MODEL      222
REMARK 921   NORMALIZED FREE ENERGY PREDICTED BY IDOCK:   -3.66 KCAL/MOL
REMARK 922        TOTAL FREE ENERGY PREDICTED BY IDOCK:   -7.58 KCAL/MOL
REMARK 923 INTER-LIGAND FREE ENERGY PREDICTED BY IDOCK:   -6.79 KCAL/MOL
REMARK 924 INTRA-LIGAND FREE ENERGY PREDICTED BY IDOCK:   -0.79 KCAL/MOL
REMARK 927      BINDING AFFINITY PREDICTED BY RF-SCORE:    0.00 PKD
ROOT
HETATM    1  C   UNK     1     -11.523  11.016  69.073  1.00  0.00    -0.299 C  
HETATM    2  O   UNK     1     -12.058  12.330  69.006  1.00  0.00    -0.265 OA 
ENDROOT
BRANCH   2   3
HETATM    3  C   UNK     1     -11.255  13.179  68.185  1.00  0.00    -0.271 C  
BRANCH   3   4
HETATM    4  C   UNK     1     -12.115  14.322  67.658  1.00  0.00    -0.297 C  
BRANCH   4   5
HETATM    5  O   UNK     1     -11.959  14.418  66.244  1.00  0.00    -0.396 OA 
BRANCH   5   6
HETATM    6  C   UNK     1     -12.258  13.182  65.599  1.00  0.00    -0.466 C  
BRANCH   6   7
HETATM    7  C   UNK     1     -11.283  12.971  64.448  1.00  0.00    -0.393 C  
BRANCH   7   8
HETATM    8  C   UNK     1     -11.340  11.544  63.891  1.00  0.00    -0.400 C  
BRANCH   8   9
HETATM    9  C   UNK     1     -10.103  10.755  64.308  1.00  0.00    -0.427 C  
BRANCH   9  10
HETATM   10  C   UNK     1     -10.182  10.272  65.754  1.00  0.00    -0.289 C  
BRANCH  10  11
HETATM   11  C   UNK     1      -9.367   9.007  65.950  1.00  0.00    -0.242 C  
HETATM   12  O   UNK     1      -8.778   8.431  65.041  1.00  0.00    -0.154 OA 
HETATM   13  N   UNK     1      -9.353   8.563  67.253  1.00  0.00    -0.145 N  
HETATM   14  H   UNK     1      -9.897   9.062  67.959  1.00  0.00     0.000 HD 
BRANCH  13  15
HETATM   15  C   UNK     1      -8.579   7.400  67.639  1.00  0.00    -0.119 C  
BRANCH  15  16
HETATM   16  C   UNK     1      -8.842   6.968  69.084  1.00  0.00    -0.135 C  
BRANCH  16  17
HETATM   17  C   UNK     1     -10.339   6.914  69.388  1.00  0.00    -0.220 C  
BRANCH  17  18
HETATM   18  C   UNK     1     -10.667   5.982  70.563  1.00  0.00    -0.349 C  
BRANCH  18  19
HETATM   19  C   UNK     1     -11.805   6.500  71.455  1.00  0.00    -0.333 C  
HETATM   20  N   UNK     1     -12.742   7.370  70.685  1.00  0.00    -0.576 NA 
HETATM   21  C   UNK     1     -11.239   7.314  72.630  1.00  0.00    -0.313 C  
HETATM   22  O   UNK     1     -10.753   6.847  73.642  1.00  0.00    -0.343 OA 
HETATM   23  O   UNK     1     -11.305   8.651  72.372  1.00  0.00    -0.359 OA 
HETATM   24  H1  UNK     1     -13.498   7.714  71.277  1.00  0.00     0.000 HD 
HETATM   25  H2  UNK     1     -13.101   6.894  69.858  1.00  0.00     0.000 HD 
ENDBRANCH  18  19
ENDBRANCH  17  18
ENDBRANCH  16  17
ENDBRANCH  15  16
ENDBRANCH  13  15
ENDBRANCH  10  11
ENDBRANCH   9  10
ENDBRANCH   8   9
ENDBRANCH   7   8
ENDBRANCH   6   7
ENDBRANCH   5   6
ENDBRANCH   4   5
ENDBRANCH   3   4
ENDBRANCH   2   3
TORSDOF 14
ENDMDL
MODEL      223
REMARK 921   NORMALIZED FREE ENERGY PREDICTED BY IDOCK:   -3.64 KCAL/MOL
REMARK 922        TOTAL FREE ENERGY PREDICTED BY IDOCK:   -7.55 KCAL/MOL
REMARK 923 INTER-LIGAND FREE ENERGY PREDICTED BY IDOCK:   -7.12 KCAL/MOL
REMARK 924 INTRA-LIGAND FREE ENERGY PREDICTED BY IDOCK:   -0.42 KCAL/MOL
REMARK 927      BINDING AFFINITY PREDICTED BY RF-SCORE:    0.00 PKD
ROOT
HETATM    1  C   UNK     1      -7.130  19.624  65.691  1.00  0.00    -0.300 C  
HETATM    2  O   UNK     1      -8.408  19.009  65.761  1.00  0.00    -0.438 OA 
ENDROOT
BRANCH   2   3
HETATM    3  C   UNK     1      -9.430  19.960  66.062  1.00  0.00    -0.319 C  
BRANCH   3   4
HETATM    4  C   UNK     1     -10.492  19.294  66.929  1.00  0.00    -0.449 C  
BRANCH   4   5
HETATM    5  O   UNK     1     -10.042  19.255  68.281  1.00  0.00    -0.379 OA 
BRANCH   5   6
HETATM    6  C   UNK     1     -10.048  17.925  68.797  1.00  0.00    -0.384 C  
BRANCH   6   7
HETATM    7  C   UNK     1     -10.884  17.039  67.882  1.00  0.00    -0.302 C  
BRANCH   7   8
HETATM    8  C   UNK     1     -11.629  15.945  68.654  1.00  0.00    -0.383 C  
BRANCH   8   9
HETATM    9  C   UNK     1     -11.686  14.656  67.837  1.00  0.00    -0.379 C  
BRANCH   9  10
HETATM   10  C   UNK     1     -11.356  13.423  68.675  1.00  0.00    -0.322 C  
BRANCH  10  11
HETATM   11  C   UNK     1     -11.421  12.162  67.833  1.00  0.00    -0.328 C  
HETATM   12  O   UNK     1     -12.101  12.058  66.817  1.00  0.00    -0.613 OA 
HETATM   13  N   UNK     1     -10.640  11.139  68.323  1.00  0.00    -0.180 N  
HETATM   14  H   UNK     1     -10.129  11.271  69.196  1.00  0.00     0.000 HD 
BRANCH  13  15
HETATM   15  C   UNK     1     -10.533   9.877  67.618  1.00  0.00    -0.244 C  
BRANCH  15  16
HETATM   16  C   UNK     1     -10.076   8.731  68.524  1.00  0.00    -0.210 C  
BRANCH  16  17
HETATM   17  C   UNK     1     -11.139   8.384  69.566  1.00  0.00     0.040 C  
BRANCH  17  18
HETATM   18  C   UNK     1     -10.981   9.196  70.860  1.00  0.00    -0.349 C  
BRANCH  18  19
HETATM   19  C   UNK     1     -12.117   8.966  71.868  1.00  0.00    -0.373 C  
HETATM   20  N   UNK     1     -12.765   7.638  71.660  1.00  0.00    -0.334 NA 
HETATM   21  C   UNK     1     -13.189  10.058  71.727  1.00  0.00    -0.437 C  
HETATM   22  O   UNK     1     -13.111  11.185  72.178  1.00  0.00    -0.463 OA 
HETATM   23  O   UNK     1     -14.238   9.616  70.978  1.00  0.00     0.022 OA 
HETATM   24  H1  UNK     1     -13.518   7.486  72.329  1.00  0.00     0.000 HD 
HETATM   25  H2  UNK     1     -12.082   6.880  71.685  1.00  0.00     0.000 HD 
ENDBRANCH  18  19
ENDBRANCH  17  18
ENDBRANCH  16  17
ENDBRANCH  15  16
ENDBRANCH  13  15
ENDBRANCH  10  11
ENDBRANCH   9  10
ENDBRANCH   8   9
ENDBRANCH   7   8
ENDBRANCH   6   7
ENDBRANCH   5   6
ENDBRANCH   4   5
ENDBRANCH   3   4
ENDBRANCH   2   3
TORSDOF 14
ENDMDL
MODEL      224
REMARK 921   NORMALIZED FREE ENERGY PREDICTED BY IDOCK:   -3.63 KCAL/MOL
REMARK 922        TOTAL FREE ENERGY PREDICTED BY IDOCK:   -7.53 KCAL/MOL
REMARK 923 INTER-LIGAND FREE ENERGY PREDICTED BY IDOCK:   -6.01 KCAL/MOL
REMARK 924 INTRA-LIGAND FREE ENERGY PREDICTED BY IDOCK:   -1.52 KCAL/MOL
REMARK 927      BINDING AFFINITY PREDICTED BY RF-SCORE:    0.00 PKD
ROOT
HETATM    1  C   UNK     1     -13.084  10.430  70.639  1.00  0.00    -0.224 C  
HETATM    2  O   UNK     1     -12.914  10.330  72.046  1.00  0.00    -0.432 OA 
ENDROOT
BRANCH   2   3
HETATM    3  C   UNK     1     -13.565   9.172  72.570  1.00  0.00    -0.436 C  
BRANCH   3   4
HETATM    4  C   UNK     1     -14.063   8.313  71.413  1.00  0.00    -0.305 C  
BRANCH   4   5
HETATM    5  O   UNK     1     -13.432   7.036  71.466  1.00  0.00    -0.360 OA 
BRANCH   5   6
HETATM    6  C   UNK     1     -12.096   7.091  70.969  1.00  0.00    -0.368 C  
BRANCH   6   7
HETATM    7  C   UNK     1     -11.240   6.084  71.725  1.00  0.00    -0.333 C  
BRANCH   7   8
HETATM    8  C   UNK     1     -10.632   6.678  73.000  1.00  0.00    -0.283 C  
BRANCH   8   9
HETATM    9  C   UNK     1      -9.983   8.028  72.707  1.00  0.00    -0.364 C  
BRANCH   9  10
HETATM   10  C   UNK     1      -8.571   7.883  72.146  1.00  0.00    -0.185 C  
BRANCH  10  11
HETATM   11  C   UNK     1      -8.444   8.589  70.808  1.00  0.00    -0.149 C  
HETATM   12  O   UNK     1      -8.308   9.802  70.691  1.00  0.00    -0.224 OA 
HETATM   13  N   UNK     1      -8.499   7.732  69.732  1.00  0.00    -0.132 N  
HETATM   14  H   UNK     1      -8.656   6.737  69.891  1.00  0.00     0.000 HD 
BRANCH  13  15
HETATM   15  C   UNK     1      -8.338   8.222  68.377  1.00  0.00    -0.132 C  
BRANCH  15  16
HETATM   16  C   UNK     1      -9.591   8.018  67.522  1.00  0.00    -0.191 C  
BRANCH  16  17
HETATM   17  C   UNK     1     -10.622   9.119  67.771  1.00  0.00    -0.289 C  
BRANCH  17  18
HETATM   18  C   UNK     1     -10.439  10.319  66.831  1.00  0.00    -0.291 C  
BRANCH  18  19
HETATM   19  C   UNK     1      -9.665  11.483  67.467  1.00  0.00    -0.179 C  
HETATM   20  N   UNK     1      -9.859  11.515  68.947  1.00  0.00    -0.384 NA 
HETATM   21  C   UNK     1     -10.140  12.825  66.886  1.00  0.00    -0.232 C  
HETATM   22  O   UNK     1      -9.806  13.285  65.811  1.00  0.00    -0.265 OA 
HETATM   23  O   UNK     1     -11.035  13.427  67.719  1.00  0.00    -0.252 OA 
HETATM   24  H1  UNK     1      -9.344  12.287  69.370  1.00  0.00     0.000 HD 
HETATM   25  H2  UNK     1      -9.613  10.622  69.376  1.00  0.00     0.000 HD 
ENDBRANCH  18  19
ENDBRANCH  17  18
ENDBRANCH  16  17
ENDBRANCH  15  16
ENDBRANCH  13  15
ENDBRANCH  10  11
ENDBRANCH   9  10
ENDBRANCH   8   9
ENDBRANCH   7   8
ENDBRANCH   6   7
ENDBRANCH   5   6
ENDBRANCH   4   5
ENDBRANCH   3   4
ENDBRANCH   2   3
TORSDOF 14
ENDMDL
MODEL      225
REMARK 921   NORMALIZED FREE ENERGY PREDICTED BY IDOCK:   -3.62 KCAL/MOL
REMARK 922        TOTAL FREE ENERGY PREDICTED BY IDOCK:   -7.51 KCAL/MOL
REMARK 923 INTER-LIGAND FREE ENERGY PREDICTED BY IDOCK:   -6.99 KCAL/MOL
REMARK 924 INTRA-LIGAND FREE ENERGY PREDICTED BY IDOCK:   -0.52 KCAL/MOL
REMARK 927      BINDING AFFINITY PREDICTED BY RF-SCORE:    0.00 PKD
ROOT
HETATM    1  C   UNK     1     -10.482   4.965  72.562  1.00  0.00    -0.205 C  
HETATM    2  O   UNK     1     -11.254   6.056  72.081  1.00  0.00    -0.263 OA 
ENDROOT
BRANCH   2   3
HETATM    3  C   UNK     1     -10.688   7.308  72.469  1.00  0.00    -0.262 C  
BRANCH   3   4
HETATM    4  C   UNK     1     -11.768   8.382  72.414  1.00  0.00    -0.382 C  
BRANCH   4   5
HETATM    5  O   UNK     1     -11.286   9.499  71.669  1.00  0.00    -0.383 OA 
BRANCH   5   6
HETATM    6  C   UNK     1     -10.391   9.092  70.636  1.00  0.00    -0.246 C  
BRANCH   6   7
HETATM    7  C   UNK     1     -10.686   9.895  69.376  1.00  0.00    -0.255 C  
BRANCH   7   8
HETATM    8  C   UNK     1     -11.288  11.270  69.689  1.00  0.00    -0.359 C  
BRANCH   8   9
HETATM    9  C   UNK     1     -11.847  11.911  68.422  1.00  0.00    -0.352 C  
BRANCH   9  10
HETATM   10  C   UNK     1     -11.826  13.436  68.486  1.00  0.00    -0.401 C  
BRANCH  10  11
HETATM   11  C   UNK     1     -11.614  14.035  67.108  1.00  0.00    -0.372 C  
HETATM   12  O   UNK     1     -12.412  13.911  66.184  1.00  0.00    -0.459 OA 
HETATM   13  N   UNK     1     -10.433  14.733  66.992  1.00  0.00    -0.267 N  
HETATM   14  H   UNK     1      -9.790  14.766  67.783  1.00  0.00     0.000 HD 
BRANCH  13  15
HETATM   15  C   UNK     1     -10.089  15.421  65.763  1.00  0.00    -0.363 C  
BRANCH  15  16
HETATM   16  C   UNK     1     -10.676  16.833  65.692  1.00  0.00    -0.199 C  
BRANCH  16  17
HETATM   17  C   UNK     1     -10.143  17.717  66.819  1.00  0.00    -0.349 C  
BRANCH  17  18
HETATM   18  C   UNK     1      -8.618  17.884  66.765  1.00  0.00    -0.271 C  
BRANCH  18  19
HETATM   19  C   UNK     1      -8.164  19.351  66.717  1.00  0.00    -0.292 C  
HETATM   20  N   UNK     1      -9.137  20.193  65.960  1.00  0.00    -0.580 NA 
HETATM   21  C   UNK     1      -6.790  19.466  66.037  1.00  0.00    -0.251 C  
HETATM   22  O   UNK     1      -5.721  19.226  66.564  1.00  0.00    -0.158 OA 
HETATM   23  O   UNK     1      -6.922  19.831  64.731  1.00  0.00    -0.324 OA 
HETATM   24  H1  UNK     1      -8.837  21.167  65.929  1.00  0.00     0.000 HD 
HETATM   25  H2  UNK     1     -10.081  20.104  66.337  1.00  0.00     0.000 HD 
ENDBRANCH  18  19
ENDBRANCH  17  18
ENDBRANCH  16  17
ENDBRANCH  15  16
ENDBRANCH  13  15
ENDBRANCH  10  11
ENDBRANCH   9  10
ENDBRANCH   8   9
ENDBRANCH   7   8
ENDBRANCH   6   7
ENDBRANCH   5   6
ENDBRANCH   4   5
ENDBRANCH   3   4
ENDBRANCH   2   3
TORSDOF 14
ENDMDL
MODEL      226
REMARK 921   NORMALIZED FREE ENERGY PREDICTED BY IDOCK:   -3.62 KCAL/MOL
REMARK 922        TOTAL FREE ENERGY PREDICTED BY IDOCK:   -7.51 KCAL/MOL
REMARK 923 INTER-LIGAND FREE ENERGY PREDICTED BY IDOCK:   -6.33 KCAL/MOL
REMARK 924 INTRA-LIGAND FREE ENERGY PREDICTED BY IDOCK:   -1.18 KCAL/MOL
REMARK 927      BINDING AFFINITY PREDICTED BY RF-SCORE:    0.00 PKD
ROOT
HETATM    1  C   UNK     1     -11.534  15.548  64.458  1.00  0.00    -0.308 C  
HETATM    2  O   UNK     1     -12.584  14.605  64.300  1.00  0.00    -0.688 OA 
ENDROOT
BRANCH   2   3
HETATM    3  C   UNK     1     -12.145  13.450  63.585  1.00  0.00    -0.450 C  
BRANCH   3   4
HETATM    4  C   UNK     1     -11.978  12.292  64.562  1.00  0.00    -0.383 C  
BRANCH   4   5
HETATM    5  O   UNK     1     -12.440  12.690  65.851  1.00  0.00    -0.584 OA 
BRANCH   5   6
HETATM    6  C   UNK     1     -11.613  12.168  66.889  1.00  0.00    -0.341 C  
BRANCH   6   7
HETATM    7  C   UNK     1     -10.267  12.879  66.859  1.00  0.00    -0.243 C  
BRANCH   7   8
HETATM    8  C   UNK     1      -9.251  12.241  67.813  1.00  0.00    -0.191 C  
BRANCH   8   9
HETATM    9  C   UNK     1      -7.892  12.099  67.133  1.00  0.00    -0.160 C  
BRANCH   9  10
HETATM   10  C   UNK     1      -6.855  11.442  68.040  1.00  0.00    -0.067 C  
BRANCH  10  11
HETATM   11  C   UNK     1      -6.401  12.398  69.128  1.00  0.00    -0.095 C  
HETATM   12  O   UNK     1      -6.240  12.067  70.299  1.00  0.00    -0.139 OA 
HETATM   13  N   UNK     1      -6.188  13.680  68.674  1.00  0.00    -0.082 N  
HETATM   14  H   UNK     1      -6.379  13.905  67.697  1.00  0.00     0.000 HD 
BRANCH  13  15
HETATM   15  C   UNK     1      -5.697  14.716  69.562  1.00  0.00    -0.095 C  
BRANCH  15  16
HETATM   16  C   UNK     1      -6.603  15.949  69.589  1.00  0.00    -0.180 C  
BRANCH  16  17
HETATM   17  C   UNK     1      -8.041  15.595  69.208  1.00  0.00    -0.244 C  
BRANCH  17  18
HETATM   18  C   UNK     1      -8.686  16.652  68.299  1.00  0.00    -0.216 C  
BRANCH  18  19
HETATM   19  C   UNK     1     -10.048  17.148  68.808  1.00  0.00    -0.329 C  
HETATM   20  N   UNK     1     -11.166  16.361  68.210  1.00  0.00    -0.343 NA 
HETATM   21  C   UNK     1     -10.248  18.629  68.449  1.00  0.00    -0.371 C  
HETATM   22  O   UNK     1      -9.762  19.571  69.045  1.00  0.00    -0.412 OA 
HETATM   23  O   UNK     1     -11.014  18.759  67.330  1.00  0.00    -0.412 OA 
HETATM   24  H1  UNK     1     -12.070  16.689  68.548  1.00  0.00     0.000 HD 
HETATM   25  H2  UNK     1     -11.048  15.360  68.370  1.00  0.00     0.000 HD 
ENDBRANCH  18  19
ENDBRANCH  17  18
ENDBRANCH  16  17
ENDBRANCH  15  16
ENDBRANCH  13  15
ENDBRANCH  10  11
ENDBRANCH   9  10
ENDBRANCH   8   9
ENDBRANCH   7   8
ENDBRANCH   6   7
ENDBRANCH   5   6
ENDBRANCH   4   5
ENDBRANCH   3   4
ENDBRANCH   2   3
TORSDOF 14
ENDMDL
MODEL      227
REMARK 921   NORMALIZED FREE ENERGY PREDICTED BY IDOCK:   -3.61 KCAL/MOL
REMARK 922        TOTAL FREE ENERGY PREDICTED BY IDOCK:   -7.49 KCAL/MOL
REMARK 923 INTER-LIGAND FREE ENERGY PREDICTED BY IDOCK:   -6.93 KCAL/MOL
REMARK 924 INTRA-LIGAND FREE ENERGY PREDICTED BY IDOCK:   -0.56 KCAL/MOL
REMARK 927      BINDING AFFINITY PREDICTED BY RF-SCORE:    0.00 PKD
ROOT
HETATM    1  C   UNK     1     -12.852   7.139  71.531  1.00  0.00    -0.391 C  
HETATM    2  O   UNK     1     -11.641   6.469  71.209  1.00  0.00    -0.301 OA 
ENDROOT
BRANCH   2   3
HETATM    3  C   UNK     1     -11.348   6.562  69.815  1.00  0.00    -0.393 C  
BRANCH   3   4
HETATM    4  C   UNK     1     -10.453   7.772  69.573  1.00  0.00    -0.225 C  
BRANCH   4   5
HETATM    5  O   UNK     1     -10.716   8.303  68.277  1.00  0.00    -0.142 OA 
BRANCH   5   6
HETATM    6  C   UNK     1      -9.875   7.712  67.288  1.00  0.00    -0.186 C  
BRANCH   6   7
HETATM    7  C   UNK     1      -9.782   8.646  66.089  1.00  0.00    -0.292 C  
BRANCH   7   8
HETATM    8  C   UNK     1      -9.423  10.080  66.494  1.00  0.00    -0.222 C  
BRANCH   8   9
HETATM    9  C   UNK     1     -10.540  11.044  66.104  1.00  0.00    -0.288 C  
BRANCH   9  10
HETATM   10  C   UNK     1     -11.231  11.654  67.321  1.00  0.00    -0.365 C  
BRANCH  10  11
HETATM   11  C   UNK     1     -11.343  13.161  67.183  1.00  0.00    -0.316 C  
HETATM   12  O   UNK     1     -12.114  13.848  67.845  1.00  0.00    -0.366 OA 
HETATM   13  N   UNK     1     -10.494  13.687  66.235  1.00  0.00    -0.286 N  
HETATM   14  H   UNK     1      -9.906  13.060  65.686  1.00  0.00     0.000 HD 
BRANCH  13  15
HETATM   15  C   UNK     1     -10.423  15.117  66.006  1.00  0.00    -0.319 C  
BRANCH  15  16
HETATM   16  C   UNK     1      -9.002  15.668  66.150  1.00  0.00    -0.362 C  
BRANCH  16  17
HETATM   17  C   UNK     1      -8.995  17.196  66.168  1.00  0.00    -0.217 C  
BRANCH  17  18
HETATM   18  C   UNK     1     -10.408  17.792  66.093  1.00  0.00    -0.340 C  
BRANCH  18  19
HETATM   19  C   UNK     1     -10.738  18.735  67.259  1.00  0.00    -0.425 C  
HETATM   20  N   UNK     1     -10.321  20.136  66.955  1.00  0.00    -0.421 NA 
HETATM   21  C   UNK     1     -10.016  18.280  68.538  1.00  0.00    -0.393 C  
HETATM   22  O   UNK     1     -10.374  17.372  69.264  1.00  0.00    -0.334 OA 
HETATM   23  O   UNK     1      -8.878  19.001  68.737  1.00  0.00    -0.349 OA 
HETATM   24  H1  UNK     1     -10.541  20.763  67.729  1.00  0.00     0.000 HD 
HETATM   25  H2  UNK     1     -10.728  20.466  66.079  1.00  0.00     0.000 HD 
ENDBRANCH  18  19
ENDBRANCH  17  18
ENDBRANCH  16  17
ENDBRANCH  15  16
ENDBRANCH  13  15
ENDBRANCH  10  11
ENDBRANCH   9  10
ENDBRANCH   8   9
ENDBRANCH   7   8
ENDBRANCH   6   7
ENDBRANCH   5   6
ENDBRANCH   4   5
ENDBRANCH   3   4
ENDBRANCH   2   3
TORSDOF 14
ENDMDL
MODEL      228
REMARK 921   NORMALIZED FREE ENERGY PREDICTED BY IDOCK:   -3.61 KCAL/MOL
REMARK 922        TOTAL FREE ENERGY PREDICTED BY IDOCK:   -7.49 KCAL/MOL
REMARK 923 INTER-LIGAND FREE ENERGY PREDICTED BY IDOCK:   -6.82 KCAL/MOL
REMARK 924 INTRA-LIGAND FREE ENERGY PREDICTED BY IDOCK:   -0.67 KCAL/MOL
REMARK 927      BINDING AFFINITY PREDICTED BY RF-SCORE:    0.00 PKD
ROOT
HETATM    1  C   UNK     1      -8.948  17.445  67.895  1.00  0.00    -0.251 C  
HETATM    2  O   UNK     1      -9.053  16.387  66.953  1.00  0.00    -0.200 OA 
ENDROOT
BRANCH   2   3
HETATM    3  C   UNK     1     -10.231  16.512  66.156  1.00  0.00    -0.346 C  
BRANCH   3   4
HETATM    4  C   UNK     1     -11.065  15.245  66.295  1.00  0.00    -0.273 C  
BRANCH   4   5
HETATM    5  O   UNK     1     -11.753  14.994  65.072  1.00  0.00    -0.353 OA 
BRANCH   5   6
HETATM    6  C   UNK     1     -11.861  13.596  64.809  1.00  0.00    -0.387 C  
BRANCH   6   7
HETATM    7  C   UNK     1     -10.464  13.000  64.696  1.00  0.00    -0.400 C  
BRANCH   7   8
HETATM    8  C   UNK     1     -10.494  11.500  64.383  1.00  0.00    -0.380 C  
BRANCH   8   9
HETATM    9  C   UNK     1     -10.316  10.681  65.658  1.00  0.00    -0.285 C  
BRANCH   9  10
HETATM   10  C   UNK     1      -9.406   9.473  65.449  1.00  0.00    -0.324 C  
BRANCH  10  11
HETATM   11  C   UNK     1      -9.565   8.472  66.578  1.00  0.00    -0.236 C  
HETATM   12  O   UNK     1     -10.418   7.590  66.588  1.00  0.00    -0.269 OA 
HETATM   13  N   UNK     1      -8.658   8.650  67.598  1.00  0.00    -0.135 N  
HETATM   14  H   UNK     1      -7.999   9.427  67.553  1.00  0.00     0.000 HD 
BRANCH  13  15
HETATM   15  C   UNK     1      -8.623   7.750  68.734  1.00  0.00    -0.129 C  
BRANCH  15  16
HETATM   16  C   UNK     1      -8.590   8.491  70.074  1.00  0.00    -0.134 C  
BRANCH  16  17
HETATM   17  C   UNK     1      -9.863   9.308  70.292  1.00  0.00    -0.265 C  
BRANCH  17  18
HETATM   18  C   UNK     1     -10.572   8.953  71.607  1.00  0.00    -0.422 C  
BRANCH  18  19
HETATM   19  C   UNK     1     -11.986   8.388  71.406  1.00  0.00    -0.297 C  
HETATM   20  N   UNK     1     -12.803   8.523  72.648  1.00  0.00    -0.608 NA 
HETATM   21  C   UNK     1     -11.920   6.900  71.026  1.00  0.00    -0.374 C  
HETATM   22  O   UNK     1     -11.666   6.465  69.919  1.00  0.00    -0.426 OA 
HETATM   23  O   UNK     1     -12.139   6.110  72.114  1.00  0.00    -0.327 OA 
HETATM   24  H1  UNK     1     -13.741   8.148  72.515  1.00  0.00     0.000 HD 
HETATM   25  H2  UNK     1     -12.828   9.488  72.977  1.00  0.00     0.000 HD 
ENDBRANCH  18  19
ENDBRANCH  17  18
ENDBRANCH  16  17
ENDBRANCH  15  16
ENDBRANCH  13  15
ENDBRANCH  10  11
ENDBRANCH   9  10
ENDBRANCH   8   9
ENDBRANCH   7   8
ENDBRANCH   6   7
ENDBRANCH   5   6
ENDBRANCH   4   5
ENDBRANCH   3   4
ENDBRANCH   2   3
TORSDOF 14
ENDMDL
MODEL      229
REMARK 921   NORMALIZED FREE ENERGY PREDICTED BY IDOCK:   -3.60 KCAL/MOL
REMARK 922        TOTAL FREE ENERGY PREDICTED BY IDOCK:   -7.48 KCAL/MOL
REMARK 923 INTER-LIGAND FREE ENERGY PREDICTED BY IDOCK:   -6.51 KCAL/MOL
REMARK 924 INTRA-LIGAND FREE ENERGY PREDICTED BY IDOCK:   -0.97 KCAL/MOL
REMARK 927      BINDING AFFINITY PREDICTED BY RF-SCORE:    0.00 PKD
ROOT
HETATM    1  C   UNK     1      -8.299   7.540  70.374  1.00  0.00    -0.128 C  
HETATM    2  O   UNK     1      -8.338   7.088  71.720  1.00  0.00    -0.110 OA 
ENDROOT
BRANCH   2   3
HETATM    3  C   UNK     1      -9.655   7.176  72.263  1.00  0.00    -0.142 C  
BRANCH   3   4
HETATM    4  C   UNK     1     -10.606   6.354  71.401  1.00  0.00    -0.230 C  
BRANCH   4   5
HETATM    5  O   UNK     1     -11.930   6.464  71.919  1.00  0.00    -0.329 OA 
BRANCH   5   6
HETATM    6  C   UNK     1     -12.682   7.459  71.228  1.00  0.00    -0.331 C  
BRANCH   6   7
HETATM    7  C   UNK     1     -13.206   8.477  72.232  1.00  0.00    -0.361 C  
BRANCH   7   8
HETATM    8  C   UNK     1     -13.058   9.918  71.731  1.00  0.00    -0.553 C  
BRANCH   8   9
HETATM    9  C   UNK     1     -11.701  10.117  71.062  1.00  0.00    -0.470 C  
BRANCH   9  10
HETATM   10  C   UNK     1     -11.735  11.208  69.995  1.00  0.00    -0.438 C  
BRANCH  10  11
HETATM   11  C   UNK     1     -11.153  10.705  68.686  1.00  0.00    -0.263 C  
HETATM   12  O   UNK     1     -10.500   9.672  68.586  1.00  0.00    -0.197 OA 
HETATM   13  N   UNK     1     -11.429  11.526  67.616  1.00  0.00    -0.294 N  
HETATM   14  H   UNK     1     -11.942  12.395  67.769  1.00  0.00     0.000 HD 
BRANCH  13  15
HETATM   15  C   UNK     1     -11.002  11.176  66.275  1.00  0.00    -0.163 C  
BRANCH  15  16
HETATM   16  C   UNK     1     -10.939  12.386  65.340  1.00  0.00    -0.335 C  
BRANCH  16  17
HETATM   17  C   UNK     1     -11.703  13.578  65.917  1.00  0.00    -0.380 C  
BRANCH  17  18
HETATM   18  C   UNK     1     -11.000  14.915  65.643  1.00  0.00    -0.347 C  
BRANCH  18  19
HETATM   19  C   UNK     1     -10.057  15.353  66.774  1.00  0.00    -0.262 C  
HETATM   20  N   UNK     1      -8.867  14.456  66.863  1.00  0.00    -0.285 NA 
HETATM   21  C   UNK     1     -10.789  15.326  68.124  1.00  0.00    -0.273 C  
HETATM   22  O   UNK     1     -11.555  16.180  68.529  1.00  0.00    -0.377 OA 
HETATM   23  O   UNK     1     -10.507  14.182  68.808  1.00  0.00    -0.244 OA 
HETATM   24  H1  UNK     1      -8.241  14.747  67.613  1.00  0.00     0.000 HD 
HETATM   25  H2  UNK     1      -8.378  14.392  65.970  1.00  0.00     0.000 HD 
ENDBRANCH  18  19
ENDBRANCH  17  18
ENDBRANCH  16  17
ENDBRANCH  15  16
ENDBRANCH  13  15
ENDBRANCH  10  11
ENDBRANCH   9  10
ENDBRANCH   8   9
ENDBRANCH   7   8
ENDBRANCH   6   7
ENDBRANCH   5   6
ENDBRANCH   4   5
ENDBRANCH   3   4
ENDBRANCH   2   3
TORSDOF 14
ENDMDL
MODEL      230
REMARK 921   NORMALIZED FREE ENERGY PREDICTED BY IDOCK:   -3.60 KCAL/MOL
REMARK 922        TOTAL FREE ENERGY PREDICTED BY IDOCK:   -7.48 KCAL/MOL
REMARK 923 INTER-LIGAND FREE ENERGY PREDICTED BY IDOCK:   -6.31 KCAL/MOL
REMARK 924 INTRA-LIGAND FREE ENERGY PREDICTED BY IDOCK:   -1.17 KCAL/MOL
REMARK 927      BINDING AFFINITY PREDICTED BY RF-SCORE:    0.00 PKD
ROOT
HETATM    1  C   UNK     1      -9.157   4.794  67.328  1.00  0.00    -0.119 C  
HETATM    2  O   UNK     1      -8.615   4.574  68.622  1.00  0.00    -0.087 OA 
ENDROOT
BRANCH   2   3
HETATM    3  C   UNK     1      -9.469   3.747  69.413  1.00  0.00    -0.187 C  
BRANCH   3   4
HETATM    4  C   UNK     1      -9.563   4.327  70.819  1.00  0.00    -0.186 C  
BRANCH   4   5
HETATM    5  O   UNK     1      -9.922   5.704  70.740  1.00  0.00    -0.178 OA 
BRANCH   5   6
HETATM    6  C   UNK     1     -11.120   5.976  71.464  1.00  0.00    -0.276 C  
BRANCH   6   7
HETATM    7  C   UNK     1     -12.022   6.867  70.621  1.00  0.00    -0.400 C  
BRANCH   7   8
HETATM    8  C   UNK     1     -12.763   7.910  71.464  1.00  0.00    -0.342 C  
BRANCH   8   9
HETATM    9  C   UNK     1     -11.819   9.037  71.876  1.00  0.00    -0.447 C  
BRANCH   9  10
HETATM   10  C   UNK     1     -11.106   9.662  70.680  1.00  0.00    -0.384 C  
BRANCH  10  11
HETATM   11  C   UNK     1     -11.677  11.033  70.363  1.00  0.00    -0.343 C  
HETATM   12  O   UNK     1     -12.676  11.494  70.905  1.00  0.00    -0.334 OA 
HETATM   13  N   UNK     1     -10.963  11.713  69.402  1.00  0.00    -0.409 N  
HETATM   14  H   UNK     1     -10.164  11.260  68.957  1.00  0.00     0.000 HD 
BRANCH  13  15
HETATM   15  C   UNK     1     -11.327  13.060  69.013  1.00  0.00    -0.289 C  
BRANCH  15  16
HETATM   16  C   UNK     1     -11.947  13.124  67.614  1.00  0.00    -0.363 C  
BRANCH  16  17
HETATM   17  C   UNK     1     -10.881  13.005  66.525  1.00  0.00    -0.294 C  
BRANCH  17  18
HETATM   18  C   UNK     1     -11.126  11.811  65.591  1.00  0.00    -0.340 C  
BRANCH  18  19
HETATM   19  C   UNK     1      -9.887  10.923  65.396  1.00  0.00    -0.255 C  
HETATM   20  N   UNK     1      -9.989  10.123  64.141  1.00  0.00    -0.455 NA 
HETATM   21  C   UNK     1      -9.730   9.954  66.579  1.00  0.00    -0.204 C  
HETATM   22  O   UNK     1      -9.266  10.239  67.667  1.00  0.00    -0.143 OA 
HETATM   23  O   UNK     1     -10.227   8.724  66.270  1.00  0.00    -0.271 OA 
HETATM   24  H1  UNK     1      -9.167   9.534  64.011  1.00  0.00     0.000 HD 
HETATM   25  H2  UNK     1     -10.155  10.719  63.329  1.00  0.00     0.000 HD 
ENDBRANCH  18  19
ENDBRANCH  17  18
ENDBRANCH  16  17
ENDBRANCH  15  16
ENDBRANCH  13  15
ENDBRANCH  10  11
ENDBRANCH   9  10
ENDBRANCH   8   9
ENDBRANCH   7   8
ENDBRANCH   6   7
ENDBRANCH   5   6
ENDBRANCH   4   5
ENDBRANCH   3   4
ENDBRANCH   2   3
TORSDOF 14
ENDMDL
MODEL      231
REMARK 921   NORMALIZED FREE ENERGY PREDICTED BY IDOCK:   -3.59 KCAL/MOL
REMARK 922        TOTAL FREE ENERGY PREDICTED BY IDOCK:   -7.46 KCAL/MOL
REMARK 923 INTER-LIGAND FREE ENERGY PREDICTED BY IDOCK:   -6.84 KCAL/MOL
REMARK 924 INTRA-LIGAND FREE ENERGY PREDICTED BY IDOCK:   -0.62 KCAL/MOL
REMARK 927      BINDING AFFINITY PREDICTED BY RF-SCORE:    0.00 PKD
ROOT
HETATM    1  C   UNK     1     -10.390  14.746  67.769  1.00  0.00    -0.244 C  
HETATM    2  O   UNK     1     -11.595  15.439  68.066  1.00  0.00    -0.344 OA 
ENDROOT
BRANCH   2   3
HETATM    3  C   UNK     1     -11.430  16.321  69.176  1.00  0.00    -0.257 C  
BRANCH   3   4
HETATM    4  C   UNK     1     -11.404  15.505  70.463  1.00  0.00    -0.351 C  
BRANCH   4   5
HETATM    5  O   UNK     1     -12.575  15.787  71.226  1.00  0.00    -0.437 OA 
BRANCH   5   6
HETATM    6  C   UNK     1     -13.532  14.734  71.125  1.00  0.00    -0.390 C  
BRANCH   6   7
HETATM    7  C   UNK     1     -13.514  13.918  72.410  1.00  0.00    -0.661 C  
BRANCH   7   8
HETATM    8  C   UNK     1     -13.245  12.432  72.152  1.00  0.00    -0.491 C  
BRANCH   8   9
HETATM    9  C   UNK     1     -12.336  12.253  70.940  1.00  0.00    -0.363 C  
BRANCH   9  10
HETATM   10  C   UNK     1     -12.436  10.853  70.340  1.00  0.00    -0.411 C  
BRANCH  10  11
HETATM   11  C   UNK     1     -11.521   9.884  71.066  1.00  0.00    -0.388 C  
HETATM   12  O   UNK     1     -10.299   9.982  71.076  1.00  0.00    -0.101 OA 
HETATM   13  N   UNK     1     -12.199   8.876  71.715  1.00  0.00    -0.335 N  
HETATM   14  H   UNK     1     -13.214   8.823  71.636  1.00  0.00     0.000 HD 
BRANCH  13  15
HETATM   15  C   UNK     1     -11.492   7.890  72.509  1.00  0.00    -0.398 C  
BRANCH  15  16
HETATM   16  C   UNK     1     -11.724   6.459  72.018  1.00  0.00    -0.376 C  
BRANCH  16  17
HETATM   17  C   UNK     1     -11.283   6.289  70.564  1.00  0.00    -0.420 C  
BRANCH  17  18
HETATM   18  C   UNK     1      -9.790   6.589  70.364  1.00  0.00    -0.193 C  
BRANCH  18  19
HETATM   19  C   UNK     1      -8.897   5.344  70.467  1.00  0.00    -0.134 C  
HETATM   20  N   UNK     1      -9.555   4.154  69.851  1.00  0.00    -0.199 NA 
HETATM   21  C   UNK     1      -8.592   5.023  71.939  1.00  0.00    -0.129 C  
HETATM   22  O   UNK     1      -7.763   5.588  72.627  1.00  0.00    -0.096 OA 
HETATM   23  O   UNK     1      -9.413   4.040  72.404  1.00  0.00    -0.121 OA 
HETATM   24  H1  UNK     1      -8.962   3.328  69.919  1.00  0.00     0.000 HD 
HETATM   25  H2  UNK     1      -9.833   4.337  68.886  1.00  0.00     0.000 HD 
ENDBRANCH  18  19
ENDBRANCH  17  18
ENDBRANCH  16  17
ENDBRANCH  15  16
ENDBRANCH  13  15
ENDBRANCH  10  11
ENDBRANCH   9  10
ENDBRANCH   8   9
ENDBRANCH   7   8
ENDBRANCH   6   7
ENDBRANCH   5   6
ENDBRANCH   4   5
ENDBRANCH   3   4
ENDBRANCH   2   3
TORSDOF 14
ENDMDL
MODEL      232
REMARK 921   NORMALIZED FREE ENERGY PREDICTED BY IDOCK:   -3.58 KCAL/MOL
REMARK 922        TOTAL FREE ENERGY PREDICTED BY IDOCK:   -7.45 KCAL/MOL
REMARK 923 INTER-LIGAND FREE ENERGY PREDICTED BY IDOCK:   -6.94 KCAL/MOL
REMARK 924 INTRA-LIGAND FREE ENERGY PREDICTED BY IDOCK:   -0.51 KCAL/MOL
REMARK 927      BINDING AFFINITY PREDICTED BY RF-SCORE:    0.00 PKD
ROOT
HETATM    1  C   UNK     1      -7.273  19.792  65.638  1.00  0.00    -0.301 C  
HETATM    2  O   UNK     1      -8.534  19.139  65.627  1.00  0.00    -0.342 OA 
ENDROOT
BRANCH   2   3
HETATM    3  C   UNK     1      -9.604  20.068  65.802  1.00  0.00    -0.124 C  
BRANCH   3   4
HETATM    4  C   UNK     1     -10.498  19.592  66.941  1.00  0.00    -0.488 C  
BRANCH   4   5
HETATM    5  O   UNK     1      -9.757  19.605  68.160  1.00  0.00    -0.359 OA 
BRANCH   5   6
HETATM    6  C   UNK     1      -9.536  18.285  68.652  1.00  0.00    -0.327 C  
BRANCH   6   7
HETATM    7  C   UNK     1     -10.821  17.480  68.516  1.00  0.00    -0.136 C  
BRANCH   7   8
HETATM    8  C   UNK     1     -10.897  16.330  69.527  1.00  0.00    -0.342 C  
BRANCH   8   9
HETATM    9  C   UNK     1     -11.651  15.143  68.934  1.00  0.00    -0.361 C  
BRANCH   9  10
HETATM   10  C   UNK     1     -11.208  14.827  67.508  1.00  0.00    -0.339 C  
BRANCH  10  11
HETATM   11  C   UNK     1     -11.773  13.496  67.046  1.00  0.00    -0.383 C  
HETATM   12  O   UNK     1     -12.085  12.589  67.810  1.00  0.00    -0.409 OA 
HETATM   13  N   UNK     1     -11.900  13.403  65.678  1.00  0.00    -0.351 N  
HETATM   14  H   UNK     1     -11.584  14.175  65.091  1.00  0.00     0.000 HD 
BRANCH  13  15
HETATM   15  C   UNK     1     -12.475  12.225  65.059  1.00  0.00    -0.177 C  
BRANCH  15  16
HETATM   16  C   UNK     1     -12.293  12.208  63.539  1.00  0.00    -0.682 C  
BRANCH  16  17
HETATM   17  C   UNK     1     -10.879  11.778  63.151  1.00  0.00    -0.299 C  
BRANCH  17  18
HETATM   18  C   UNK     1     -10.249  10.829  64.181  1.00  0.00    -0.412 C  
BRANCH  18  19
HETATM   19  C   UNK     1      -8.768  10.527  63.908  1.00  0.00    -0.171 C  
HETATM   20  N   UNK     1      -8.301  11.195  62.658  1.00  0.00    -0.459 NA 
HETATM   21  C   UNK     1      -8.548   9.013  63.761  1.00  0.00    -0.130 C  
HETATM   22  O   UNK     1      -8.467   8.219  64.680  1.00  0.00    -0.143 OA 
HETATM   23  O   UNK     1      -8.500   8.653  62.448  1.00  0.00    -0.200 OA 
HETATM   24  H1  UNK     1      -7.318  10.995  62.478  1.00  0.00     0.000 HD 
HETATM   25  H2  UNK     1      -8.481  12.200  62.681  1.00  0.00     0.000 HD 
ENDBRANCH  18  19
ENDBRANCH  17  18
ENDBRANCH  16  17
ENDBRANCH  15  16
ENDBRANCH  13  15
ENDBRANCH  10  11
ENDBRANCH   9  10
ENDBRANCH   8   9
ENDBRANCH   7   8
ENDBRANCH   6   7
ENDBRANCH   5   6
ENDBRANCH   4   5
ENDBRANCH   3   4
ENDBRANCH   2   3
TORSDOF 14
ENDMDL
MODEL      233
REMARK 921   NORMALIZED FREE ENERGY PREDICTED BY IDOCK:   -3.57 KCAL/MOL
REMARK 922        TOTAL FREE ENERGY PREDICTED BY IDOCK:   -7.43 KCAL/MOL
REMARK 923 INTER-LIGAND FREE ENERGY PREDICTED BY IDOCK:   -7.12 KCAL/MOL
REMARK 924 INTRA-LIGAND FREE ENERGY PREDICTED BY IDOCK:   -0.31 KCAL/MOL
REMARK 927      BINDING AFFINITY PREDICTED BY RF-SCORE:    0.00 PKD
ROOT
HETATM    1  C   UNK     1      -6.241   7.749  63.037  1.00  0.00    -0.067 C  
HETATM    2  O   UNK     1      -7.576   7.744  63.523  1.00  0.00    -0.111 OA 
ENDROOT
BRANCH   2   3
HETATM    3  C   UNK     1      -8.266   8.942  63.168  1.00  0.00    -0.183 C  
BRANCH   3   4
HETATM    4  C   UNK     1      -8.273   9.888  64.363  1.00  0.00    -0.164 C  
BRANCH   4   5
HETATM    5  O   UNK     1      -9.516   9.772  65.051  1.00  0.00    -0.252 OA 
BRANCH   5   6
HETATM    6  C   UNK     1     -10.519  10.597  64.464  1.00  0.00    -0.195 C  
BRANCH   6   7
HETATM    7  C   UNK     1      -9.890  11.915  64.030  1.00  0.00    -0.259 C  
BRANCH   7   8
HETATM    8  C   UNK     1     -10.912  12.869  63.402  1.00  0.00    -0.090 C  
BRANCH   8   9
HETATM    9  C   UNK     1     -11.986  13.249  64.417  1.00  0.00    -0.459 C  
BRANCH   9  10
HETATM   10  C   UNK     1     -12.275  14.748  64.421  1.00  0.00    -0.447 C  
BRANCH  10  11
HETATM   11  C   UNK     1     -11.269  15.493  65.280  1.00  0.00    -0.275 C  
HETATM   12  O   UNK     1     -10.391  16.217  64.823  1.00  0.00    -0.524 OA 
HETATM   13  N   UNK     1     -11.437  15.276  66.629  1.00  0.00    -0.186 N  
HETATM   14  H   UNK     1     -12.159  14.630  66.947  1.00  0.00     0.000 HD 
BRANCH  13  15
HETATM   15  C   UNK     1     -10.602  15.950  67.604  1.00  0.00    -0.307 C  
BRANCH  15  16
HETATM   16  C   UNK     1     -11.293  16.113  68.961  1.00  0.00    -0.340 C  
BRANCH  16  17
HETATM   17  C   UNK     1     -10.548  15.360  70.062  1.00  0.00    -0.319 C  
BRANCH  17  18
HETATM   18  C   UNK     1     -11.473  14.926  71.208  1.00  0.00    -0.322 C  
BRANCH  18  19
HETATM   19  C   UNK     1     -12.820  14.365  70.728  1.00  0.00    -0.353 C  
HETATM   20  N   UNK     1     -13.872  15.423  70.714  1.00  0.00    -0.860 NA 
HETATM   21  C   UNK     1     -13.286  13.227  71.650  1.00  0.00    -0.322 C  
HETATM   22  O   UNK     1     -12.878  12.082  71.619  1.00  0.00    -0.363 OA 
HETATM   23  O   UNK     1     -14.197  13.678  72.558  1.00  0.00    -0.724 OA 
HETATM   24  H1  UNK     1     -14.766  15.051  70.395  1.00  0.00     0.000 HD 
HETATM   25  H2  UNK     1     -13.584  16.230  70.161  1.00  0.00     0.000 HD 
ENDBRANCH  18  19
ENDBRANCH  17  18
ENDBRANCH  16  17
ENDBRANCH  15  16
ENDBRANCH  13  15
ENDBRANCH  10  11
ENDBRANCH   9  10
ENDBRANCH   8   9
ENDBRANCH   7   8
ENDBRANCH   6   7
ENDBRANCH   5   6
ENDBRANCH   4   5
ENDBRANCH   3   4
ENDBRANCH   2   3
TORSDOF 14
ENDMDL
MODEL      234
REMARK 921   NORMALIZED FREE ENERGY PREDICTED BY IDOCK:   -3.57 KCAL/MOL
REMARK 922        TOTAL FREE ENERGY PREDICTED BY IDOCK:   -7.42 KCAL/MOL
REMARK 923 INTER-LIGAND FREE ENERGY PREDICTED BY IDOCK:   -5.74 KCAL/MOL
REMARK 924 INTRA-LIGAND FREE ENERGY PREDICTED BY IDOCK:   -1.68 KCAL/MOL
REMARK 927      BINDING AFFINITY PREDICTED BY RF-SCORE:    0.00 PKD
ROOT
HETATM    1  C   UNK     1      -7.190  11.123  69.357  1.00  0.00    -0.091 C  
HETATM    2  O   UNK     1      -7.928  12.010  68.530  1.00  0.00    -0.147 OA 
ENDROOT
BRANCH   2   3
HETATM    3  C   UNK     1      -9.314  11.665  68.500  1.00  0.00    -0.167 C  
BRANCH   3   4
HETATM    4  C   UNK     1      -9.449  10.164  68.272  1.00  0.00    -0.140 C  
BRANCH   4   5
HETATM    5  O   UNK     1      -9.738   9.918  66.898  1.00  0.00    -0.171 OA 
BRANCH   5   6
HETATM    6  C   UNK     1      -8.546   9.770  66.130  1.00  0.00    -0.127 C  
BRANCH   6   7
HETATM    7  C   UNK     1      -8.848   8.931  64.896  1.00  0.00    -0.161 C  
BRANCH   7   8
HETATM    8  C   UNK     1      -8.419   9.627  63.600  1.00  0.00    -0.189 C  
BRANCH   8   9
HETATM    9  C   UNK     1      -9.634  10.178  62.858  1.00  0.00    -0.216 C  
BRANCH   9  10
HETATM   10  C   UNK     1      -9.807  11.681  63.064  1.00  0.00    -0.331 C  
BRANCH  10  11
HETATM   11  C   UNK     1     -11.042  11.976  63.895  1.00  0.00    -0.405 C  
HETATM   12  O   UNK     1     -12.188  11.852  63.476  1.00  0.00    -0.524 OA 
HETATM   13  N   UNK     1     -10.752  12.403  65.172  1.00  0.00    -0.283 N  
HETATM   14  H   UNK     1      -9.778  12.528  65.450  1.00  0.00     0.000 HD 
BRANCH  13  15
HETATM   15  C   UNK     1     -11.807  12.678  66.127  1.00  0.00    -0.418 C  
BRANCH  15  16
HETATM   16  C   UNK     1     -12.379  14.091  65.985  1.00  0.00    -0.504 C  
BRANCH  16  17
HETATM   17  C   UNK     1     -11.311  15.083  65.526  1.00  0.00    -0.312 C  
BRANCH  17  18
HETATM   18  C   UNK     1     -10.712  15.883  66.692  1.00  0.00    -0.270 C  
BRANCH  18  19
HETATM   19  C   UNK     1      -9.176  15.901  66.697  1.00  0.00    -0.252 C  
HETATM   20  N   UNK     1      -8.620  14.545  66.412  1.00  0.00    -0.419 NA 
HETATM   21  C   UNK     1      -8.650  16.365  68.065  1.00  0.00    -0.185 C  
HETATM   22  O   UNK     1      -8.593  17.519  68.444  1.00  0.00    -0.260 OA 
HETATM   23  O   UNK     1      -8.290  15.300  68.835  1.00  0.00    -0.167 OA 
HETATM   24  H1  UNK     1      -7.600  14.557  66.415  1.00  0.00     0.000 HD 
HETATM   25  H2  UNK     1      -8.988  14.166  65.540  1.00  0.00     0.000 HD 
ENDBRANCH  18  19
ENDBRANCH  17  18
ENDBRANCH  16  17
ENDBRANCH  15  16
ENDBRANCH  13  15
ENDBRANCH  10  11
ENDBRANCH   9  10
ENDBRANCH   8   9
ENDBRANCH   7   8
ENDBRANCH   6   7
ENDBRANCH   5   6
ENDBRANCH   4   5
ENDBRANCH   3   4
ENDBRANCH   2   3
TORSDOF 14
ENDMDL
MODEL      235
REMARK 921   NORMALIZED FREE ENERGY PREDICTED BY IDOCK:   -3.57 KCAL/MOL
REMARK 922        TOTAL FREE ENERGY PREDICTED BY IDOCK:   -7.42 KCAL/MOL
REMARK 923 INTER-LIGAND FREE ENERGY PREDICTED BY IDOCK:   -6.34 KCAL/MOL
REMARK 924 INTRA-LIGAND FREE ENERGY PREDICTED BY IDOCK:   -1.08 KCAL/MOL
REMARK 927      BINDING AFFINITY PREDICTED BY RF-SCORE:    0.00 PKD
ROOT
HETATM    1  C   UNK     1      -7.967   7.972  74.097  1.00  0.00    -0.239 C  
HETATM    2  O   UNK     1      -8.396   8.604  72.899  1.00  0.00    -0.400 OA 
ENDROOT
BRANCH   2   3
HETATM    3  C   UNK     1      -9.676   8.124  72.485  1.00  0.00    -0.287 C  
BRANCH   3   4
HETATM    4  C   UNK     1     -10.280   9.108  71.491  1.00  0.00    -0.333 C  
BRANCH   4   5
HETATM    5  O   UNK     1      -9.288   9.492  70.542  1.00  0.00    -0.252 OA 
BRANCH   5   6
HETATM    6  C   UNK     1      -9.496   8.859  69.282  1.00  0.00    -0.161 C  
BRANCH   6   7
HETATM    7  C   UNK     1      -9.377   9.899  68.175  1.00  0.00    -0.138 C  
BRANCH   7   8
HETATM    8  C   UNK     1      -9.398  11.332  68.718  1.00  0.00    -0.136 C  
BRANCH   8   9
HETATM    9  C   UNK     1     -10.724  12.011  68.390  1.00  0.00    -0.255 C  
BRANCH   9  10
HETATM   10  C   UNK     1     -11.887  11.431  69.190  1.00  0.00    -0.413 C  
BRANCH  10  11
HETATM   11  C   UNK     1     -12.147  12.250  70.442  1.00  0.00    -0.300 C  
HETATM   12  O   UNK     1     -12.561  11.770  71.493  1.00  0.00    -0.304 OA 
HETATM   13  N   UNK     1     -11.875  13.590  70.284  1.00  0.00    -0.490 N  
HETATM   14  H   UNK     1     -11.574  13.936  69.373  1.00  0.00     0.000 HD 
BRANCH  13  15
HETATM   15  C   UNK     1     -12.011  14.516  71.390  1.00  0.00    -0.315 C  
BRANCH  15  16
HETATM   16  C   UNK     1     -11.272  15.835  71.151  1.00  0.00    -0.380 C  
BRANCH  16  17
HETATM   17  C   UNK     1     -11.207  16.177  69.662  1.00  0.00    -0.331 C  
BRANCH  17  18
HETATM   18  C   UNK     1      -9.767  16.208  69.129  1.00  0.00    -0.248 C  
BRANCH  18  19
HETATM   19  C   UNK     1      -9.673  16.597  67.646  1.00  0.00    -0.250 C  
HETATM   20  N   UNK     1     -10.687  17.633  67.293  1.00  0.00    -0.288 NA 
HETATM   21  C   UNK     1      -9.902  15.367  66.753  1.00  0.00    -0.245 C  
HETATM   22  O   UNK     1      -9.075  14.509  66.508  1.00  0.00    -0.258 OA 
HETATM   23  O   UNK     1     -11.186  15.328  66.299  1.00  0.00    -0.316 OA 
HETATM   24  H1  UNK     1     -10.624  17.891  66.309  1.00  0.00     0.000 HD 
HETATM   25  H2  UNK     1     -10.615  18.449  67.900  1.00  0.00     0.000 HD 
ENDBRANCH  18  19
ENDBRANCH  17  18
ENDBRANCH  16  17
ENDBRANCH  15  16
ENDBRANCH  13  15
ENDBRANCH  10  11
ENDBRANCH   9  10
ENDBRANCH   8   9
ENDBRANCH   7   8
ENDBRANCH   6   7
ENDBRANCH   5   6
ENDBRANCH   4   5
ENDBRANCH   3   4
ENDBRANCH   2   3
TORSDOF 14
ENDMDL
MODEL      236
REMARK 921   NORMALIZED FREE ENERGY PREDICTED BY IDOCK:   -3.57 KCAL/MOL
REMARK 922        TOTAL FREE ENERGY PREDICTED BY IDOCK:   -7.41 KCAL/MOL
REMARK 923 INTER-LIGAND FREE ENERGY PREDICTED BY IDOCK:   -7.03 KCAL/MOL
REMARK 924 INTRA-LIGAND FREE ENERGY PREDICTED BY IDOCK:   -0.38 KCAL/MOL
REMARK 927      BINDING AFFINITY PREDICTED BY RF-SCORE:    0.00 PKD
ROOT
HETATM    1  C   UNK     1     -10.692   6.147  67.099  1.00  0.00    -0.346 C  
HETATM    2  O   UNK     1      -9.452   6.807  66.889  1.00  0.00    -0.144 OA 
ENDROOT
BRANCH   2   3
HETATM    3  C   UNK     1      -8.778   6.298  65.737  1.00  0.00    -0.139 C  
BRANCH   3   4
HETATM    4  C   UNK     1      -7.916   7.401  65.135  1.00  0.00    -0.128 C  
BRANCH   4   5
HETATM    5  O   UNK     1      -8.295   7.609  63.777  1.00  0.00    -0.018 OA 
BRANCH   5   6
HETATM    6  C   UNK     1      -8.482   8.994  63.491  1.00  0.00    -0.169 C  
BRANCH   6   7
HETATM    7  C   UNK     1      -8.546   9.769  64.800  1.00  0.00    -0.195 C  
BRANCH   7   8
HETATM    8  C   UNK     1      -9.760  10.703  64.865  1.00  0.00    -0.341 C  
BRANCH   8   9
HETATM    9  C   UNK     1     -10.010  11.353  63.507  1.00  0.00    -0.424 C  
BRANCH   9  10
HETATM   10  C   UNK     1     -11.446  11.848  63.355  1.00  0.00    -0.470 C  
BRANCH  10  11
HETATM   11  C   UNK     1     -11.568  13.300  63.781  1.00  0.00    -0.375 C  
HETATM   12  O   UNK     1     -12.557  13.991  63.560  1.00  0.00    -0.842 OA 
HETATM   13  N   UNK     1     -10.455  13.770  64.441  1.00  0.00    -0.609 N  
HETATM   14  H   UNK     1      -9.646  13.160  64.559  1.00  0.00     0.000 HD 
BRANCH  13  15
HETATM   15  C   UNK     1     -10.415  15.119  64.972  1.00  0.00    -0.389 C  
BRANCH  15  16
HETATM   16  C   UNK     1      -9.425  15.269  66.130  1.00  0.00    -0.361 C  
BRANCH  16  17
HETATM   17  C   UNK     1     -10.074  15.946  67.336  1.00  0.00    -0.252 C  
BRANCH  17  18
HETATM   18  C   UNK     1     -10.608  14.934  68.361  1.00  0.00    -0.244 C  
BRANCH  18  19
HETATM   19  C   UNK     1     -11.678  15.518  69.296  1.00  0.00    -0.365 C  
HETATM   20  N   UNK     1     -11.258  16.844  69.836  1.00  0.00    -0.292 NA 
HETATM   21  C   UNK     1     -11.933  14.569  70.478  1.00  0.00    -0.318 C  
HETATM   22  O   UNK     1     -12.615  13.563  70.441  1.00  0.00    -0.279 OA 
HETATM   23  O   UNK     1     -11.247  14.975  71.584  1.00  0.00    -0.333 OA 
HETATM   24  H1  UNK     1     -11.969  17.232  70.457  1.00  0.00     0.000 HD 
HETATM   25  H2  UNK     1     -11.019  17.495  69.088  1.00  0.00     0.000 HD 
ENDBRANCH  18  19
ENDBRANCH  17  18
ENDBRANCH  16  17
ENDBRANCH  15  16
ENDBRANCH  13  15
ENDBRANCH  10  11
ENDBRANCH   9  10
ENDBRANCH   8   9
ENDBRANCH   7   8
ENDBRANCH   6   7
ENDBRANCH   5   6
ENDBRANCH   4   5
ENDBRANCH   3   4
ENDBRANCH   2   3
TORSDOF 14
ENDMDL
MODEL      237
REMARK 921   NORMALIZED FREE ENERGY PREDICTED BY IDOCK:   -3.55 KCAL/MOL
REMARK 922        TOTAL FREE ENERGY PREDICTED BY IDOCK:   -7.40 KCAL/MOL
REMARK 923 INTER-LIGAND FREE ENERGY PREDICTED BY IDOCK:   -7.21 KCAL/MOL
REMARK 924 INTRA-LIGAND FREE ENERGY PREDICTED BY IDOCK:   -0.18 KCAL/MOL
REMARK 927      BINDING AFFINITY PREDICTED BY RF-SCORE:    0.00 PKD
ROOT
HETATM    1  C   UNK     1     -10.298  19.134  68.174  1.00  0.00    -0.376 C  
HETATM    2  O   UNK     1     -10.536  20.021  67.090  1.00  0.00    -0.427 OA 
ENDROOT
BRANCH   2   3
HETATM    3  C   UNK     1     -10.512  19.333  65.838  1.00  0.00    -0.451 C  
BRANCH   3   4
HETATM    4  C   UNK     1     -10.179  17.866  66.081  1.00  0.00    -0.343 C  
BRANCH   4   5
HETATM    5  O   UNK     1     -10.651  17.086  64.985  1.00  0.00    -0.703 OA 
BRANCH   5   6
HETATM    6  C   UNK     1     -10.661  15.695  65.298  1.00  0.00    -0.425 C  
BRANCH   6   7
HETATM    7  C   UNK     1     -11.628  14.980  64.364  1.00  0.00    -0.281 C  
BRANCH   7   8
HETATM    8  C   UNK     1     -12.530  13.988  65.107  1.00  0.00    -0.472 C  
BRANCH   8   9
HETATM    9  C   UNK     1     -12.431  12.599  64.482  1.00  0.00    -0.525 C  
BRANCH   9  10
HETATM   10  C   UNK     1     -11.206  12.454  63.583  1.00  0.00    -0.544 C  
BRANCH  10  11
HETATM   11  C   UNK     1     -10.380  11.244  63.982  1.00  0.00    -0.371 C  
HETATM   12  O   UNK     1      -9.617  10.662  63.219  1.00  0.00    -0.287 OA 
HETATM   13  N   UNK     1     -10.573  10.859  65.289  1.00  0.00    -0.232 N  
HETATM   14  H   UNK     1     -11.254  11.357  65.864  1.00  0.00     0.000 HD 
BRANCH  13  15
HETATM   15  C   UNK     1      -9.826   9.757  65.863  1.00  0.00    -0.282 C  
BRANCH  15  16
HETATM   16  C   UNK     1     -10.567   9.077  67.017  1.00  0.00    -0.270 C  
BRANCH  16  17
HETATM   17  C   UNK     1     -10.367   7.562  66.994  1.00  0.00    -0.395 C  
BRANCH  17  18
HETATM   18  C   UNK     1     -10.417   6.941  68.398  1.00  0.00    -0.235 C  
BRANCH  18  19
HETATM   19  C   UNK     1      -9.046   6.476  68.911  1.00  0.00    -0.131 C  
HETATM   20  N   UNK     1      -8.973   6.551  70.399  1.00  0.00    -0.151 NA 
HETATM   21  C   UNK     1      -7.928   7.352  68.323  1.00  0.00    -0.124 C  
HETATM   22  O   UNK     1      -7.465   7.248  67.203  1.00  0.00    -0.100 OA 
HETATM   23  O   UNK     1      -7.543   8.311  69.212  1.00  0.00    -0.089 OA 
HETATM   24  H1  UNK     1      -8.063   6.242  70.740  1.00  0.00     0.000 HD 
HETATM   25  H2  UNK     1      -9.733   6.032  70.839  1.00  0.00     0.000 HD 
ENDBRANCH  18  19
ENDBRANCH  17  18
ENDBRANCH  16  17
ENDBRANCH  15  16
ENDBRANCH  13  15
ENDBRANCH  10  11
ENDBRANCH   9  10
ENDBRANCH   8   9
ENDBRANCH   7   8
ENDBRANCH   6   7
ENDBRANCH   5   6
ENDBRANCH   4   5
ENDBRANCH   3   4
ENDBRANCH   2   3
TORSDOF 14
ENDMDL
MODEL      238
REMARK 921   NORMALIZED FREE ENERGY PREDICTED BY IDOCK:   -3.55 KCAL/MOL
REMARK 922        TOTAL FREE ENERGY PREDICTED BY IDOCK:   -7.39 KCAL/MOL
REMARK 923 INTER-LIGAND FREE ENERGY PREDICTED BY IDOCK:   -6.84 KCAL/MOL
REMARK 924 INTRA-LIGAND FREE ENERGY PREDICTED BY IDOCK:   -0.55 KCAL/MOL
REMARK 927      BINDING AFFINITY PREDICTED BY RF-SCORE:    0.00 PKD
ROOT
HETATM    1  C   UNK     1      -7.031  19.615  65.909  1.00  0.00    -0.280 C  
HETATM    2  O   UNK     1      -8.239  18.869  65.938  1.00  0.00    -0.477 OA 
ENDROOT
BRANCH   2   3
HETATM    3  C   UNK     1      -9.375  19.720  66.090  1.00  0.00    -0.363 C  
BRANCH   3   4
HETATM    4  C   UNK     1     -10.521  18.919  66.697  1.00  0.00    -0.428 C  
BRANCH   4   5
HETATM    5  O   UNK     1     -10.432  18.968  68.119  1.00  0.00    -0.377 OA 
BRANCH   5   6
HETATM    6  C   UNK     1     -10.430  17.661  68.689  1.00  0.00    -0.317 C  
BRANCH   6   7
HETATM    7  C   UNK     1     -10.668  16.636  67.588  1.00  0.00    -0.306 C  
BRANCH   7   8
HETATM    8  C   UNK     1     -11.288  15.340  68.123  1.00  0.00    -0.346 C  
BRANCH   8   9
HETATM    9  C   UNK     1     -10.907  14.157  67.237  1.00  0.00    -0.288 C  
BRANCH   9  10
HETATM   10  C   UNK     1     -10.311  13.001  68.037  1.00  0.00    -0.237 C  
BRANCH  10  11
HETATM   11  C   UNK     1     -10.956  11.683  67.650  1.00  0.00    -0.239 C  
HETATM   12  O   UNK     1     -12.033  11.600  67.067  1.00  0.00    -0.593 OA 
HETATM   13  N   UNK     1     -10.215  10.584  68.019  1.00  0.00    -0.160 N  
HETATM   14  H   UNK     1      -9.347  10.715  68.539  1.00  0.00     0.000 HD 
BRANCH  13  15
HETATM   15  C   UNK     1     -10.648   9.242  67.682  1.00  0.00    -0.261 C  
BRANCH  15  16
HETATM   16  C   UNK     1      -9.915   8.165  68.485  1.00  0.00    -0.204 C  
BRANCH  16  17
HETATM   17  C   UNK     1     -10.172   8.314  69.985  1.00  0.00    -0.202 C  
BRANCH  17  18
HETATM   18  C   UNK     1     -11.217   7.316  70.505  1.00  0.00    -0.305 C  
BRANCH  18  19
HETATM   19  C   UNK     1     -11.727   7.644  71.916  1.00  0.00    -0.289 C  
HETATM   20  N   UNK     1     -11.638   9.107  72.196  1.00  0.00    -0.296 NA 
HETATM   21  C   UNK     1     -10.899   6.896  72.973  1.00  0.00    -0.296 C  
HETATM   22  O   UNK     1     -11.031   5.724  73.273  1.00  0.00    -0.264 OA 
HETATM   23  O   UNK     1      -9.945   7.708  73.509  1.00  0.00    -0.315 OA 
HETATM   24  H1  UNK     1     -11.977   9.325  73.133  1.00  0.00     0.000 HD 
HETATM   25  H2  UNK     1     -12.125   9.655  71.485  1.00  0.00     0.000 HD 
ENDBRANCH  18  19
ENDBRANCH  17  18
ENDBRANCH  16  17
ENDBRANCH  15  16
ENDBRANCH  13  15
ENDBRANCH  10  11
ENDBRANCH   9  10
ENDBRANCH   8   9
ENDBRANCH   7   8
ENDBRANCH   6   7
ENDBRANCH   5   6
ENDBRANCH   4   5
ENDBRANCH   3   4
ENDBRANCH   2   3
TORSDOF 14
ENDMDL
MODEL      239
REMARK 921   NORMALIZED FREE ENERGY PREDICTED BY IDOCK:   -3.55 KCAL/MOL
REMARK 922        TOTAL FREE ENERGY PREDICTED BY IDOCK:   -7.38 KCAL/MOL
REMARK 923 INTER-LIGAND FREE ENERGY PREDICTED BY IDOCK:   -6.20 KCAL/MOL
REMARK 924 INTRA-LIGAND FREE ENERGY PREDICTED BY IDOCK:   -1.18 KCAL/MOL
REMARK 927      BINDING AFFINITY PREDICTED BY RF-SCORE:    0.00 PKD
ROOT
HETATM    1  C   UNK     1      -9.945   8.748  66.231  1.00  0.00    -0.245 C  
HETATM    2  O   UNK     1      -8.862   7.829  66.226  1.00  0.00    -0.146 OA 
ENDROOT
BRANCH   2   3
HETATM    3  C   UNK     1      -8.804   7.084  67.443  1.00  0.00    -0.119 C  
BRANCH   3   4
HETATM    4  C   UNK     1      -9.555   5.770  67.259  1.00  0.00    -0.117 C  
BRANCH   4   5
HETATM    5  O   UNK     1     -10.268   5.462  68.455  1.00  0.00    -0.173 OA 
BRANCH   5   6
HETATM    6  C   UNK     1     -11.140   6.525  68.833  1.00  0.00    -0.301 C  
BRANCH   6   7
HETATM    7  C   UNK     1     -11.475   6.393  70.313  1.00  0.00    -0.468 C  
BRANCH   7   8
HETATM    8  C   UNK     1     -10.324   6.854  71.213  1.00  0.00    -0.221 C  
BRANCH   8   9
HETATM    9  C   UNK     1     -10.695   8.142  71.943  1.00  0.00    -0.329 C  
BRANCH   9  10
HETATM   10  C   UNK     1     -10.131   9.383  71.254  1.00  0.00    -0.309 C  
BRANCH  10  11
HETATM   11  C   UNK     1     -11.242  10.215  70.640  1.00  0.00    -0.340 C  
HETATM   12  O   UNK     1     -12.435   9.963  70.778  1.00  0.00    -0.296 OA 
HETATM   13  N   UNK     1     -10.781  11.286  69.908  1.00  0.00    -0.434 N  
HETATM   14  H   UNK     1      -9.776  11.420  69.794  1.00  0.00     0.000 HD 
BRANCH  13  15
HETATM   15  C   UNK     1     -11.700  12.224  69.295  1.00  0.00    -0.330 C  
BRANCH  15  16
HETATM   16  C   UNK     1     -11.893  11.970  67.798  1.00  0.00    -0.308 C  
BRANCH  16  17
HETATM   17  C   UNK     1     -11.968  13.280  67.014  1.00  0.00    -0.419 C  
BRANCH  17  18
HETATM   18  C   UNK     1     -10.959  14.324  67.514  1.00  0.00    -0.297 C  
BRANCH  18  19
HETATM   19  C   UNK     1      -9.673  14.382  66.677  1.00  0.00    -0.278 C  
HETATM   20  N   UNK     1      -9.927  13.962  65.267  1.00  0.00    -0.551 NA 
HETATM   21  C   UNK     1      -8.601  13.456  67.275  1.00  0.00    -0.213 C  
HETATM   22  O   UNK     1      -7.903  13.714  68.236  1.00  0.00    -0.124 OA 
HETATM   23  O   UNK     1      -8.561  12.266  66.612  1.00  0.00    -0.179 OA 
HETATM   24  H1  UNK     1      -9.073  14.001  64.711  1.00  0.00     0.000 HD 
HETATM   25  H2  UNK     1     -10.675  14.510  64.843  1.00  0.00     0.000 HD 
ENDBRANCH  18  19
ENDBRANCH  17  18
ENDBRANCH  16  17
ENDBRANCH  15  16
ENDBRANCH  13  15
ENDBRANCH  10  11
ENDBRANCH   9  10
ENDBRANCH   8   9
ENDBRANCH   7   8
ENDBRANCH   6   7
ENDBRANCH   5   6
ENDBRANCH   4   5
ENDBRANCH   3   4
ENDBRANCH   2   3
TORSDOF 14
ENDMDL
MODEL      240
REMARK 921   NORMALIZED FREE ENERGY PREDICTED BY IDOCK:   -3.55 KCAL/MOL
REMARK 922        TOTAL FREE ENERGY PREDICTED BY IDOCK:   -7.38 KCAL/MOL
REMARK 923 INTER-LIGAND FREE ENERGY PREDICTED BY IDOCK:   -6.91 KCAL/MOL
REMARK 924 INTRA-LIGAND FREE ENERGY PREDICTED BY IDOCK:   -0.47 KCAL/MOL
REMARK 927      BINDING AFFINITY PREDICTED BY RF-SCORE:    0.00 PKD
ROOT
HETATM    1  C   UNK     1     -10.259   2.548  74.009  1.00  0.00    -0.122 C  
HETATM    2  O   UNK     1      -9.806   3.743  73.391  1.00  0.00    -0.110 OA 
ENDROOT
BRANCH   2   3
HETATM    3  C   UNK     1     -10.790   4.776  73.468  1.00  0.00    -0.300 C  
BRANCH   3   4
HETATM    4  C   UNK     1     -10.508   5.815  72.390  1.00  0.00    -0.211 C  
BRANCH   4   5
HETATM    5  O   UNK     1     -11.399   6.917  72.550  1.00  0.00    -0.259 OA 
BRANCH   5   6
HETATM    6  C   UNK     1     -12.253   7.068  71.418  1.00  0.00    -0.366 C  
BRANCH   6   7
HETATM    7  C   UNK     1     -13.204   8.232  71.662  1.00  0.00    -0.349 C  
BRANCH   7   8
HETATM    8  C   UNK     1     -12.462   9.557  71.871  1.00  0.00    -0.465 C  
BRANCH   8   9
HETATM    9  C   UNK     1     -13.141  10.681  71.093  1.00  0.00    -0.415 C  
BRANCH   9  10
HETATM   10  C   UNK     1     -12.135  11.624  70.440  1.00  0.00    -0.462 C  
BRANCH  10  11
HETATM   11  C   UNK     1     -12.322  13.046  70.936  1.00  0.00    -0.288 C  
HETATM   12  O   UNK     1     -13.142  13.364  71.792  1.00  0.00    -0.374 OA 
HETATM   13  N   UNK     1     -11.481  13.952  70.329  1.00  0.00    -0.503 N  
HETATM   14  H   UNK     1     -10.849  13.634  69.594  1.00  0.00     0.000 HD 
BRANCH  13  15
HETATM   15  C   UNK     1     -11.479  15.348  70.718  1.00  0.00    -0.355 C  
BRANCH  15  16
HETATM   16  C   UNK     1     -10.726  16.237  69.724  1.00  0.00    -0.345 C  
BRANCH  16  17
HETATM   17  C   UNK     1     -10.990  15.809  68.281  1.00  0.00    -0.325 C  
BRANCH  17  18
HETATM   18  C   UNK     1     -10.173  16.623  67.268  1.00  0.00    -0.290 C  
BRANCH  18  19
HETATM   19  C   UNK     1      -9.211  15.768  66.429  1.00  0.00    -0.312 C  
HETATM   20  N   UNK     1      -9.171  14.360  66.922  1.00  0.00    -0.243 NA 
HETATM   21  C   UNK     1      -7.788  16.345  66.488  1.00  0.00    -0.288 C  
HETATM   22  O   UNK     1      -7.386  17.298  65.847  1.00  0.00    -0.356 OA 
HETATM   23  O   UNK     1      -7.029  15.675  67.399  1.00  0.00    -0.173 OA 
HETATM   24  H1  UNK     1      -8.534  13.792  66.365  1.00  0.00     0.000 HD 
HETATM   25  H2  UNK     1     -10.104  13.949  66.959  1.00  0.00     0.000 HD 
ENDBRANCH  18  19
ENDBRANCH  17  18
ENDBRANCH  16  17
ENDBRANCH  15  16
ENDBRANCH  13  15
ENDBRANCH  10  11
ENDBRANCH   9  10
ENDBRANCH   8   9
ENDBRANCH   7   8
ENDBRANCH   6   7
ENDBRANCH   5   6
ENDBRANCH   4   5
ENDBRANCH   3   4
ENDBRANCH   2   3
TORSDOF 14
ENDMDL
MODEL      241
REMARK 921   NORMALIZED FREE ENERGY PREDICTED BY IDOCK:   -3.53 KCAL/MOL
REMARK 922        TOTAL FREE ENERGY PREDICTED BY IDOCK:   -7.35 KCAL/MOL
REMARK 923 INTER-LIGAND FREE ENERGY PREDICTED BY IDOCK:   -6.69 KCAL/MOL
REMARK 924 INTRA-LIGAND FREE ENERGY PREDICTED BY IDOCK:   -0.67 KCAL/MOL
REMARK 927      BINDING AFFINITY PREDICTED BY RF-SCORE:    0.00 PKD
ROOT
HETATM    1  C   UNK     1      -7.422   3.823  67.553  1.00  0.00    -0.067 C  
HETATM    2  O   UNK     1      -8.442   4.780  67.306  1.00  0.00    -0.106 OA 
ENDROOT
BRANCH   2   3
HETATM    3  C   UNK     1      -8.453   5.190  65.938  1.00  0.00    -0.121 C  
BRANCH   3   4
HETATM    4  C   UNK     1      -7.771   6.547  65.818  1.00  0.00    -0.092 C  
BRANCH   4   5
HETATM    5  O   UNK     1      -8.369   7.460  66.736  1.00  0.00    -0.117 OA 
BRANCH   5   6
HETATM    6  C   UNK     1      -7.930   8.797  66.505  1.00  0.00    -0.103 C  
BRANCH   6   7
HETATM    7  C   UNK     1      -8.524   9.299  65.196  1.00  0.00    -0.173 C  
BRANCH   7   8
HETATM    8  C   UNK     1      -9.587  10.381  65.416  1.00  0.00    -0.303 C  
BRANCH   8   9
HETATM    9  C   UNK     1      -8.953  11.647  65.986  1.00  0.00    -0.149 C  
BRANCH   9  10
HETATM   10  C   UNK     1      -9.930  12.820  66.022  1.00  0.00    -0.277 C  
BRANCH  10  11
HETATM   11  C   UNK     1     -11.047  12.566  67.017  1.00  0.00    -0.281 C  
HETATM   12  O   UNK     1     -12.208  12.338  66.692  1.00  0.00    -0.574 OA 
HETATM   13  N   UNK     1     -10.632  12.620  68.329  1.00  0.00    -0.230 N  
HETATM   14  H   UNK     1      -9.662  12.856  68.538  1.00  0.00     0.000 HD 
BRANCH  13  15
HETATM   15  C   UNK     1     -11.551  12.347  69.416  1.00  0.00    -0.307 C  
BRANCH  15  16
HETATM   16  C   UNK     1     -11.540  10.878  69.844  1.00  0.00    -0.410 C  
BRANCH  16  17
HETATM   17  C   UNK     1     -12.295  10.672  71.157  1.00  0.00    -0.505 C  
BRANCH  17  18
HETATM   18  C   UNK     1     -13.644   9.965  70.955  1.00  0.00    -0.168 C  
BRANCH  18  19
HETATM   19  C   UNK     1     -13.804   8.698  71.809  1.00  0.00    -0.425 C  
HETATM   20  N   UNK     1     -13.975   9.038  73.252  1.00  0.00    -1.199 NA 
HETATM   21  C   UNK     1     -12.569   7.794  71.665  1.00  0.00    -0.332 C  
HETATM   22  O   UNK     1     -12.345   7.050  70.729  1.00  0.00    -0.352 OA 
HETATM   23  O   UNK     1     -11.714   7.967  72.712  1.00  0.00    -0.396 OA 
HETATM   24  H1  UNK     1     -14.082   8.197  73.819  1.00  0.00     0.000 HD 
HETATM   25  H2  UNK     1     -14.750   9.686  73.395  1.00  0.00     0.000 HD 
ENDBRANCH  18  19
ENDBRANCH  17  18
ENDBRANCH  16  17
ENDBRANCH  15  16
ENDBRANCH  13  15
ENDBRANCH  10  11
ENDBRANCH   9  10
ENDBRANCH   8   9
ENDBRANCH   7   8
ENDBRANCH   6   7
ENDBRANCH   5   6
ENDBRANCH   4   5
ENDBRANCH   3   4
ENDBRANCH   2   3
TORSDOF 14
ENDMDL
MODEL      242
REMARK 921   NORMALIZED FREE ENERGY PREDICTED BY IDOCK:   -3.53 KCAL/MOL
REMARK 922        TOTAL FREE ENERGY PREDICTED BY IDOCK:   -7.35 KCAL/MOL
REMARK 923 INTER-LIGAND FREE ENERGY PREDICTED BY IDOCK:   -6.75 KCAL/MOL
REMARK 924 INTRA-LIGAND FREE ENERGY PREDICTED BY IDOCK:   -0.60 KCAL/MOL
REMARK 927      BINDING AFFINITY PREDICTED BY RF-SCORE:    0.00 PKD
ROOT
HETATM    1  C   UNK     1      -6.895   8.384  69.283  1.00  0.00    -0.047 C  
HETATM    2  O   UNK     1      -6.347   7.806  68.107  1.00  0.00    -0.046 OA 
ENDROOT
BRANCH   2   3
HETATM    3  C   UNK     1      -6.646   8.589  66.951  1.00  0.00    -0.058 C  
BRANCH   3   4
HETATM    4  C   UNK     1      -8.154   8.789  66.860  1.00  0.00    -0.101 C  
BRANCH   4   5
HETATM    5  O   UNK     1      -8.452  10.181  66.932  1.00  0.00    -0.125 OA 
BRANCH   5   6
HETATM    6  C   UNK     1      -8.563  10.761  65.634  1.00  0.00    -0.180 C  
BRANCH   6   7
HETATM    7  C   UNK     1      -9.506   9.916  64.788  1.00  0.00    -0.356 C  
BRANCH   7   8
HETATM    8  C   UNK     1      -9.958  10.643  63.517  1.00  0.00    -0.347 C  
BRANCH   8   9
HETATM    9  C   UNK     1     -10.203  12.122  63.803  1.00  0.00    -0.449 C  
BRANCH   9  10
HETATM   10  C   UNK     1     -11.626  12.552  63.456  1.00  0.00    -0.584 C  
BRANCH  10  11
HETATM   11  C   UNK     1     -12.065  13.722  64.318  1.00  0.00    -0.440 C  
HETATM   12  O   UNK     1     -12.668  14.697  63.883  1.00  0.00    -0.788 OA 
HETATM   13  N   UNK     1     -11.719  13.583  65.643  1.00  0.00    -0.327 N  
HETATM   14  H   UNK     1     -11.181  12.768  65.939  1.00  0.00     0.000 HD 
BRANCH  13  15
HETATM   15  C   UNK     1     -12.106  14.576  66.626  1.00  0.00    -0.296 C  
BRANCH  15  16
HETATM   16  C   UNK     1     -11.239  14.531  67.886  1.00  0.00    -0.310 C  
BRANCH  16  17
HETATM   17  C   UNK     1     -10.901  15.936  68.383  1.00  0.00    -0.316 C  
BRANCH  17  18
HETATM   18  C   UNK     1      -9.503  16.394  67.944  1.00  0.00    -0.223 C  
BRANCH  18  19
HETATM   19  C   UNK     1      -9.490  17.790  67.303  1.00  0.00    -0.255 C  
HETATM   20  N   UNK     1      -8.426  17.896  66.262  1.00  0.00    -0.439 NA 
HETATM   21  C   UNK     1      -9.238  18.868  68.368  1.00  0.00    -0.347 C  
HETATM   22  O   UNK     1     -10.071  19.308  69.138  1.00  0.00    -0.401 OA 
HETATM   23  O   UNK     1      -7.929  19.246  68.378  1.00  0.00    -0.314 OA 
HETATM   24  H1  UNK     1      -8.418  18.822  65.835  1.00  0.00     0.000 HD 
HETATM   25  H2  UNK     1      -8.514  17.161  65.560  1.00  0.00     0.000 HD 
ENDBRANCH  18  19
ENDBRANCH  17  18
ENDBRANCH  16  17
ENDBRANCH  15  16
ENDBRANCH  13  15
ENDBRANCH  10  11
ENDBRANCH   9  10
ENDBRANCH   8   9
ENDBRANCH   7   8
ENDBRANCH   6   7
ENDBRANCH   5   6
ENDBRANCH   4   5
ENDBRANCH   3   4
ENDBRANCH   2   3
TORSDOF 14
ENDMDL
MODEL      243
REMARK 921   NORMALIZED FREE ENERGY PREDICTED BY IDOCK:   -3.52 KCAL/MOL
REMARK 922        TOTAL FREE ENERGY PREDICTED BY IDOCK:   -7.34 KCAL/MOL
REMARK 923 INTER-LIGAND FREE ENERGY PREDICTED BY IDOCK:   -6.38 KCAL/MOL
REMARK 924 INTRA-LIGAND FREE ENERGY PREDICTED BY IDOCK:   -0.96 KCAL/MOL
REMARK 927      BINDING AFFINITY PREDICTED BY RF-SCORE:    0.00 PKD
ROOT
HETATM    1  C   UNK     1     -10.265   8.441  66.888  1.00  0.00    -0.313 C  
HETATM    2  O   UNK     1      -9.223   7.504  67.118  1.00  0.00    -0.128 OA 
ENDROOT
BRANCH   2   3
HETATM    3  C   UNK     1      -9.325   6.918  68.416  1.00  0.00    -0.129 C  
BRANCH   3   4
HETATM    4  C   UNK     1     -10.030   5.571  68.301  1.00  0.00    -0.154 C  
BRANCH   4   5
HETATM    5  O   UNK     1     -10.449   5.145  69.596  1.00  0.00    -0.280 OA 
BRANCH   5   6
HETATM    6  C   UNK     1     -11.349   6.078  70.189  1.00  0.00    -0.281 C  
BRANCH   6   7
HETATM    7  C   UNK     1     -11.220   6.002  71.704  1.00  0.00    -0.328 C  
BRANCH   7   8
HETATM    8  C   UNK     1     -10.013   6.791  72.225  1.00  0.00    -0.173 C  
BRANCH   8   9
HETATM    9  C   UNK     1     -10.391   8.248  72.473  1.00  0.00    -0.401 C  
BRANCH   9  10
HETATM   10  C   UNK     1      -9.904   9.172  71.359  1.00  0.00    -0.354 C  
BRANCH  10  11
HETATM   11  C   UNK     1     -11.072   9.844  70.661  1.00  0.00    -0.340 C  
HETATM   12  O   UNK     1     -12.246   9.561  70.878  1.00  0.00    -0.292 OA 
HETATM   13  N   UNK     1     -10.686  10.805  69.754  1.00  0.00    -0.405 N  
HETATM   14  H   UNK     1      -9.693  10.966  69.586  1.00  0.00     0.000 HD 
BRANCH  13  15
HETATM   15  C   UNK     1     -11.668  11.591  69.034  1.00  0.00    -0.335 C  
BRANCH  15  16
HETATM   16  C   UNK     1     -11.314  11.769  67.556  1.00  0.00    -0.377 C  
BRANCH  16  17
HETATM   17  C   UNK     1     -11.816  13.108  67.018  1.00  0.00    -0.435 C  
BRANCH  17  18
HETATM   18  C   UNK     1     -10.749  14.211  67.097  1.00  0.00    -0.280 C  
BRANCH  18  19
HETATM   19  C   UNK     1     -11.305  15.568  67.553  1.00  0.00    -0.232 C  
HETATM   20  N   UNK     1     -10.540  16.696  66.947  1.00  0.00    -0.274 NA 
HETATM   21  C   UNK     1     -11.226  15.693  69.083  1.00  0.00    -0.315 C  
HETATM   22  O   UNK     1     -12.002  15.190  69.873  1.00  0.00    -0.298 OA 
HETATM   23  O   UNK     1     -10.130  16.412  69.457  1.00  0.00    -0.251 OA 
HETATM   24  H1  UNK     1     -10.909  17.597  67.249  1.00  0.00     0.000 HD 
HETATM   25  H2  UNK     1     -10.511  16.626  65.929  1.00  0.00     0.000 HD 
ENDBRANCH  18  19
ENDBRANCH  17  18
ENDBRANCH  16  17
ENDBRANCH  15  16
ENDBRANCH  13  15
ENDBRANCH  10  11
ENDBRANCH   9  10
ENDBRANCH   8   9
ENDBRANCH   7   8
ENDBRANCH   6   7
ENDBRANCH   5   6
ENDBRANCH   4   5
ENDBRANCH   3   4
ENDBRANCH   2   3
TORSDOF 14
ENDMDL
MODEL      244
REMARK 921   NORMALIZED FREE ENERGY PREDICTED BY IDOCK:   -3.50 KCAL/MOL
REMARK 922        TOTAL FREE ENERGY PREDICTED BY IDOCK:   -7.30 KCAL/MOL
REMARK 923 INTER-LIGAND FREE ENERGY PREDICTED BY IDOCK:   -6.68 KCAL/MOL
REMARK 924 INTRA-LIGAND FREE ENERGY PREDICTED BY IDOCK:   -0.62 KCAL/MOL
REMARK 927      BINDING AFFINITY PREDICTED BY RF-SCORE:    0.00 PKD
ROOT
HETATM    1  C   UNK     1      -9.535   5.081  67.204  1.00  0.00    -0.136 C  
HETATM    2  O   UNK     1     -10.592   5.756  67.871  1.00  0.00    -0.230 OA 
ENDROOT
BRANCH   2   3
HETATM    3  C   UNK     1     -10.778   7.074  67.354  1.00  0.00    -0.313 C  
BRANCH   3   4
HETATM    4  C   UNK     1      -9.488   7.535  66.688  1.00  0.00    -0.191 C  
BRANCH   4   5
HETATM    5  O   UNK     1      -9.388   8.955  66.782  1.00  0.00    -0.155 OA 
BRANCH   5   6
HETATM    6  C   UNK     1      -9.086   9.543  65.519  1.00  0.00    -0.212 C  
BRANCH   6   7
HETATM    7  C   UNK     1      -7.888  10.470  65.674  1.00  0.00    -0.150 C  
BRANCH   7   8
HETATM    8  C   UNK     1      -7.685  10.922  67.125  1.00  0.00    -0.123 C  
BRANCH   8   9
HETATM    9  C   UNK     1      -6.372  11.686  67.271  1.00  0.00    -0.118 C  
BRANCH   9  10
HETATM   10  C   UNK     1      -6.445  12.764  68.350  1.00  0.00    -0.080 C  
BRANCH  10  11
HETATM   11  C   UNK     1      -7.555  13.756  68.053  1.00  0.00    -0.145 C  
HETATM   12  O   UNK     1      -7.465  14.643  67.211  1.00  0.00    -0.194 OA 
HETATM   13  N   UNK     1      -8.678  13.565  68.826  1.00  0.00    -0.369 N  
HETATM   14  H   UNK     1      -8.678  12.836  69.540  1.00  0.00     0.000 HD 
BRANCH  13  15
HETATM   15  C   UNK     1      -9.861  14.383  68.642  1.00  0.00    -0.231 C  
BRANCH  15  16
HETATM   16  C   UNK     1     -11.038  13.598  68.059  1.00  0.00    -0.285 C  
BRANCH  16  17
HETATM   17  C   UNK     1     -11.751  14.389  66.963  1.00  0.00    -0.420 C  
BRANCH  17  18
HETATM   18  C   UNK     1     -10.803  15.334  66.210  1.00  0.00    -0.312 C  
BRANCH  18  19
HETATM   19  C   UNK     1     -10.806  15.120  64.689  1.00  0.00    -0.263 C  
HETATM   20  N   UNK     1     -11.615  16.166  63.997  1.00  0.00    -1.417 NA 
HETATM   21  C   UNK     1     -11.394  13.742  64.343  1.00  0.00    -0.360 C  
HETATM   22  O   UNK     1     -10.801  12.683  64.420  1.00  0.00    -0.312 OA 
HETATM   23  O   UNK     1     -12.702  13.849  63.976  1.00  0.00    -0.665 OA 
HETATM   24  H1  UNK     1     -11.616  16.024  62.988  1.00  0.00     0.000 HD 
HETATM   25  H2  UNK     1     -11.301  17.105  64.243  1.00  0.00     0.000 HD 
ENDBRANCH  18  19
ENDBRANCH  17  18
ENDBRANCH  16  17
ENDBRANCH  15  16
ENDBRANCH  13  15
ENDBRANCH  10  11
ENDBRANCH   9  10
ENDBRANCH   8   9
ENDBRANCH   7   8
ENDBRANCH   6   7
ENDBRANCH   5   6
ENDBRANCH   4   5
ENDBRANCH   3   4
ENDBRANCH   2   3
TORSDOF 14
ENDMDL
MODEL      245
REMARK 921   NORMALIZED FREE ENERGY PREDICTED BY IDOCK:   -3.49 KCAL/MOL
REMARK 922        TOTAL FREE ENERGY PREDICTED BY IDOCK:   -7.28 KCAL/MOL
REMARK 923 INTER-LIGAND FREE ENERGY PREDICTED BY IDOCK:   -6.55 KCAL/MOL
REMARK 924 INTRA-LIGAND FREE ENERGY PREDICTED BY IDOCK:   -0.73 KCAL/MOL
REMARK 927      BINDING AFFINITY PREDICTED BY RF-SCORE:    0.00 PKD
ROOT
HETATM    1  C   UNK     1     -10.808   6.534  67.254  1.00  0.00    -0.390 C  
HETATM    2  O   UNK     1      -9.772   7.489  67.076  1.00  0.00    -0.170 OA 
ENDROOT
BRANCH   2   3
HETATM    3  C   UNK     1      -9.148   7.352  65.799  1.00  0.00     0.041 C  
BRANCH   3   4
HETATM    4  C   UNK     1      -8.586   8.703  65.371  1.00  0.00    -0.181 C  
BRANCH   4   5
HETATM    5  O   UNK     1      -9.644   9.520  64.874  1.00  0.00    -0.246 OA 
BRANCH   5   6
HETATM    6  C   UNK     1     -10.130  10.411  65.875  1.00  0.00    -0.261 C  
BRANCH   6   7
HETATM    7  C   UNK     1      -8.962  10.893  66.725  1.00  0.00    -0.158 C  
BRANCH   7   8
HETATM    8  C   UNK     1      -9.342  11.048  68.202  1.00  0.00    -0.173 C  
BRANCH   8   9
HETATM    9  C   UNK     1     -10.857  11.144  68.359  1.00  0.00    -0.248 C  
BRANCH   9  10
HETATM   10  C   UNK     1     -11.348  10.492  69.649  1.00  0.00    -0.345 C  
BRANCH  10  11
HETATM   11  C   UNK     1     -12.122  11.483  70.498  1.00  0.00    -0.378 C  
HETATM   12  O   UNK     1     -12.981  11.156  71.311  1.00  0.00    -0.391 OA 
HETATM   13  N   UNK     1     -11.769  12.793  70.266  1.00  0.00    -0.548 N  
HETATM   14  H   UNK     1     -11.077  13.006  69.547  1.00  0.00     0.000 HD 
BRANCH  13  15
HETATM   15  C   UNK     1     -12.363  13.874  71.027  1.00  0.00    -0.376 C  
BRANCH  15  16
HETATM   16  C   UNK     1     -12.447  15.180  70.232  1.00  0.00    -0.388 C  
BRANCH  16  17
HETATM   17  C   UNK     1     -11.259  16.094  70.532  1.00  0.00    -0.381 C  
BRANCH  17  18
HETATM   18  C   UNK     1     -10.285  16.198  69.349  1.00  0.00    -0.266 C  
BRANCH  18  19
HETATM   19  C   UNK     1     -10.983  16.413  67.998  1.00  0.00    -0.327 C  
HETATM   20  N   UNK     1     -10.806  15.230  67.105  1.00  0.00    -0.318 NA 
HETATM   21  C   UNK     1     -10.410  17.649  67.288  1.00  0.00    -0.354 C  
HETATM   22  O   UNK     1     -10.698  18.804  67.540  1.00  0.00    -0.438 OA 
HETATM   23  O   UNK     1      -9.485  17.290  66.355  1.00  0.00    -0.258 OA 
HETATM   24  H1  UNK     1     -11.270  15.372  66.208  1.00  0.00     0.000 HD 
HETATM   25  H2  UNK     1     -11.118  14.370  67.556  1.00  0.00     0.000 HD 
ENDBRANCH  18  19
ENDBRANCH  17  18
ENDBRANCH  16  17
ENDBRANCH  15  16
ENDBRANCH  13  15
ENDBRANCH  10  11
ENDBRANCH   9  10
ENDBRANCH   8   9
ENDBRANCH   7   8
ENDBRANCH   6   7
ENDBRANCH   5   6
ENDBRANCH   4   5
ENDBRANCH   3   4
ENDBRANCH   2   3
TORSDOF 14
ENDMDL
MODEL      246
REMARK 921   NORMALIZED FREE ENERGY PREDICTED BY IDOCK:   -3.48 KCAL/MOL
REMARK 922        TOTAL FREE ENERGY PREDICTED BY IDOCK:   -7.27 KCAL/MOL
REMARK 923 INTER-LIGAND FREE ENERGY PREDICTED BY IDOCK:   -6.32 KCAL/MOL
REMARK 924 INTRA-LIGAND FREE ENERGY PREDICTED BY IDOCK:   -0.95 KCAL/MOL
REMARK 927      BINDING AFFINITY PREDICTED BY RF-SCORE:    0.00 PKD
ROOT
HETATM    1  C   UNK     1     -10.641   9.443  68.332  1.00  0.00    -0.204 C  
HETATM    2  O   UNK     1     -10.625   8.072  67.961  1.00  0.00    -0.200 OA 
ENDROOT
BRANCH   2   3
HETATM    3  C   UNK     1     -10.131   7.250  69.020  1.00  0.00    -0.186 C  
BRANCH   3   4
HETATM    4  C   UNK     1     -10.735   7.719  70.338  1.00  0.00    -0.236 C  
BRANCH   4   5
HETATM    5  O   UNK     1      -9.793   7.517  71.389  1.00  0.00    -0.177 OA 
BRANCH   5   6
HETATM    6  C   UNK     1      -9.033   8.696  71.646  1.00  0.00    -0.235 C  
BRANCH   6   7
HETATM    7  C   UNK     1      -7.570   8.317  71.833  1.00  0.00    -0.132 C  
BRANCH   7   8
HETATM    8  C   UNK     1      -6.664   8.955  70.775  1.00  0.00    -0.059 C  
BRANCH   8   9
HETATM    9  C   UNK     1      -7.383  10.104  70.074  1.00  0.00    -0.172 C  
BRANCH   9  10
HETATM   10  C   UNK     1      -6.506  10.786  69.027  1.00  0.00    -0.054 C  
BRANCH  10  11
HETATM   11  C   UNK     1      -7.348  11.585  68.049  1.00  0.00    -0.091 C  
HETATM   12  O   UNK     1      -7.251  11.483  66.830  1.00  0.00    -0.136 OA 
HETATM   13  N   UNK     1      -8.234  12.440  68.663  1.00  0.00    -0.325 N  
HETATM   14  H   UNK     1      -8.239  12.511  69.681  1.00  0.00     0.000 HD 
BRANCH  13  15
HETATM   15  C   UNK     1      -9.160  13.242  67.888  1.00  0.00    -0.203 C  
BRANCH  15  16
HETATM   16  C   UNK     1     -10.606  13.106  68.370  1.00  0.00    -0.264 C  
BRANCH  16  17
HETATM   17  C   UNK     1     -11.566  12.883  67.201  1.00  0.00    -0.421 C  
BRANCH  17  18
HETATM   18  C   UNK     1     -12.009  14.198  66.544  1.00  0.00    -0.466 C  
BRANCH  18  19
HETATM   19  C   UNK     1     -11.154  14.593  65.330  1.00  0.00    -0.360 C  
HETATM   20  N   UNK     1     -10.383  15.842  65.596  1.00  0.00    -0.367 NA 
HETATM   21  C   UNK     1     -12.045  14.824  64.099  1.00  0.00    -0.299 C  
HETATM   22  O   UNK     1     -12.515  13.951  63.394  1.00  0.00    -0.833 OA 
HETATM   23  O   UNK     1     -12.288  16.152  63.917  1.00  0.00    -0.895 OA 
HETATM   24  H1  UNK     1      -9.815  16.104  64.791  1.00  0.00     0.000 HD 
HETATM   25  H2  UNK     1      -9.818  15.761  66.442  1.00  0.00     0.000 HD 
ENDBRANCH  18  19
ENDBRANCH  17  18
ENDBRANCH  16  17
ENDBRANCH  15  16
ENDBRANCH  13  15
ENDBRANCH  10  11
ENDBRANCH   9  10
ENDBRANCH   8   9
ENDBRANCH   7   8
ENDBRANCH   6   7
ENDBRANCH   5   6
ENDBRANCH   4   5
ENDBRANCH   3   4
ENDBRANCH   2   3
TORSDOF 14
ENDMDL
MODEL      247
REMARK 921   NORMALIZED FREE ENERGY PREDICTED BY IDOCK:   -3.48 KCAL/MOL
REMARK 922        TOTAL FREE ENERGY PREDICTED BY IDOCK:   -7.25 KCAL/MOL
REMARK 923 INTER-LIGAND FREE ENERGY PREDICTED BY IDOCK:   -6.68 KCAL/MOL
REMARK 924 INTRA-LIGAND FREE ENERGY PREDICTED BY IDOCK:   -0.58 KCAL/MOL
REMARK 927      BINDING AFFINITY PREDICTED BY RF-SCORE:    0.00 PKD
ROOT
HETATM    1  C   UNK     1     -11.052   6.996  69.725  1.00  0.00    -0.241 C  
HETATM    2  O   UNK     1     -11.858   6.999  70.894  1.00  0.00    -0.325 OA 
ENDROOT
BRANCH   2   3
HETATM    3  C   UNK     1     -11.415   7.981  71.831  1.00  0.00    -0.291 C  
BRANCH   3   4
HETATM    4  C   UNK     1     -12.626   8.703  72.409  1.00  0.00    -0.362 C  
BRANCH   4   5
HETATM    5  O   UNK     1     -13.184   9.561  71.415  1.00  0.00    -0.360 OA 
BRANCH   5   6
HETATM    6  C   UNK     1     -12.957  10.935  71.723  1.00  0.00    -0.451 C  
BRANCH   6   7
HETATM    7  C   UNK     1     -12.164  11.575  70.591  1.00  0.00    -0.473 C  
BRANCH   7   8
HETATM    8  C   UNK     1     -12.070  10.667  69.360  1.00  0.00    -0.250 C  
BRANCH   8   9
HETATM    9  C   UNK     1     -11.004  11.180  68.395  1.00  0.00    -0.277 C  
BRANCH   9  10
HETATM   10  C   UNK     1     -11.501  12.349  67.549  1.00  0.00    -0.410 C  
BRANCH  10  11
HETATM   11  C   UNK     1     -10.353  13.007  66.805  1.00  0.00    -0.254 C  
HETATM   12  O   UNK     1     -10.268  13.041  65.581  1.00  0.00    -0.282 OA 
HETATM   13  N   UNK     1      -9.410  13.564  67.638  1.00  0.00    -0.208 N  
HETATM   14  H   UNK     1      -9.514  13.468  68.649  1.00  0.00     0.000 HD 
BRANCH  13  15
HETATM   15  C   UNK     1      -8.272  14.285  67.104  1.00  0.00    -0.160 C  
BRANCH  15  16
HETATM   16  C   UNK     1      -8.663  15.625  66.475  1.00  0.00    -0.342 C  
BRANCH  16  17
HETATM   17  C   UNK     1      -8.635  16.755  67.505  1.00  0.00    -0.203 C  
BRANCH  17  18
HETATM   18  C   UNK     1      -9.500  17.952  67.087  1.00  0.00    -0.263 C  
BRANCH  18  19
HETATM   19  C   UNK     1     -10.743  18.146  67.968  1.00  0.00    -0.277 C  
HETATM   20  N   UNK     1     -10.493  19.152  69.041  1.00  0.00    -0.416 NA 
HETATM   21  C   UNK     1     -11.145  16.818  68.629  1.00  0.00    -0.247 C  
HETATM   22  O   UNK     1     -11.756  15.917  68.087  1.00  0.00    -0.292 OA 
HETATM   23  O   UNK     1     -10.681  16.752  69.909  1.00  0.00    -0.292 OA 
HETATM   24  H1  UNK     1     -11.319  19.281  69.626  1.00  0.00     0.000 HD 
HETATM   25  H2  UNK     1     -10.165  20.038  68.656  1.00  0.00     0.000 HD 
ENDBRANCH  18  19
ENDBRANCH  17  18
ENDBRANCH  16  17
ENDBRANCH  15  16
ENDBRANCH  13  15
ENDBRANCH  10  11
ENDBRANCH   9  10
ENDBRANCH   8   9
ENDBRANCH   7   8
ENDBRANCH   6   7
ENDBRANCH   5   6
ENDBRANCH   4   5
ENDBRANCH   3   4
ENDBRANCH   2   3
TORSDOF 14
ENDMDL
MODEL      248
REMARK 921   NORMALIZED FREE ENERGY PREDICTED BY IDOCK:   -3.47 KCAL/MOL
REMARK 922        TOTAL FREE ENERGY PREDICTED BY IDOCK:   -7.25 KCAL/MOL
REMARK 923 INTER-LIGAND FREE ENERGY PREDICTED BY IDOCK:   -6.34 KCAL/MOL
REMARK 924 INTRA-LIGAND FREE ENERGY PREDICTED BY IDOCK:   -0.91 KCAL/MOL
REMARK 927      BINDING AFFINITY PREDICTED BY RF-SCORE:    0.00 PKD
ROOT
HETATM    1  C   UNK     1      -6.407  14.474  68.917  1.00  0.00    -0.089 C  
HETATM    2  O   UNK     1      -6.383  14.786  67.532  1.00  0.00    -0.278 OA 
ENDROOT
BRANCH   2   3
HETATM    3  C   UNK     1      -7.025  16.033  67.265  1.00  0.00    -0.205 C  
BRANCH   3   4
HETATM    4  C   UNK     1      -6.664  17.025  68.364  1.00  0.00    -0.170 C  
BRANCH   4   5
HETATM    5  O   UNK     1      -7.697  18.001  68.478  1.00  0.00    -0.285 OA 
BRANCH   5   6
HETATM    6  C   UNK     1      -8.130  18.458  67.199  1.00  0.00    -0.239 C  
BRANCH   6   7
HETATM    7  C   UNK     1      -9.644  18.616  67.211  1.00  0.00    -0.316 C  
BRANCH   7   8
HETATM    8  C   UNK     1     -10.284  18.004  68.462  1.00  0.00    -0.392 C  
BRANCH   8   9
HETATM    9  C   UNK     1     -11.019  16.713  68.111  1.00  0.00    -0.327 C  
BRANCH   9  10
HETATM   10  C   UNK     1     -10.408  15.493  68.796  1.00  0.00    -0.217 C  
BRANCH  10  11
HETATM   11  C   UNK     1     -11.239  14.250  68.533  1.00  0.00    -0.266 C  
HETATM   12  O   UNK     1     -11.940  14.100  67.537  1.00  0.00    -0.383 OA 
HETATM   13  N   UNK     1     -11.133  13.303  69.526  1.00  0.00    -0.464 N  
HETATM   14  H   UNK     1     -10.567  13.502  70.351  1.00  0.00     0.000 HD 
BRANCH  13  15
HETATM   15  C   UNK     1     -11.812  12.027  69.419  1.00  0.00    -0.324 C  
BRANCH  15  16
HETATM   16  C   UNK     1     -11.045  11.019  68.558  1.00  0.00    -0.297 C  
BRANCH  16  17
HETATM   17  C   UNK     1      -9.905  10.370  69.342  1.00  0.00    -0.235 C  
BRANCH  17  18
HETATM   18  C   UNK     1     -10.343   9.086  70.062  1.00  0.00    -0.226 C  
BRANCH  18  19
HETATM   19  C   UNK     1     -10.500   9.259  71.580  1.00  0.00    -0.315 C  
HETATM   20  N   UNK     1      -9.556   8.375  72.324  1.00  0.00    -0.278 NA 
HETATM   21  C   UNK     1     -11.934   8.916  72.014  1.00  0.00    -0.369 C  
HETATM   22  O   UNK     1     -12.899   9.647  71.903  1.00  0.00    -0.373 OA 
HETATM   23  O   UNK     1     -12.002   7.647  72.506  1.00  0.00    -0.288 OA 
HETATM   24  H1  UNK     1      -9.659   8.490  73.332  1.00  0.00     0.000 HD 
HETATM   25  H2  UNK     1      -8.591   8.522  72.028  1.00  0.00     0.000 HD 
ENDBRANCH  18  19
ENDBRANCH  17  18
ENDBRANCH  16  17
ENDBRANCH  15  16
ENDBRANCH  13  15
ENDBRANCH  10  11
ENDBRANCH   9  10
ENDBRANCH   8   9
ENDBRANCH   7   8
ENDBRANCH   6   7
ENDBRANCH   5   6
ENDBRANCH   4   5
ENDBRANCH   3   4
ENDBRANCH   2   3
TORSDOF 14
ENDMDL
MODEL      249
REMARK 921   NORMALIZED FREE ENERGY PREDICTED BY IDOCK:   -3.47 KCAL/MOL
REMARK 922        TOTAL FREE ENERGY PREDICTED BY IDOCK:   -7.24 KCAL/MOL
REMARK 923 INTER-LIGAND FREE ENERGY PREDICTED BY IDOCK:   -6.31 KCAL/MOL
REMARK 924 INTRA-LIGAND FREE ENERGY PREDICTED BY IDOCK:   -0.93 KCAL/MOL
REMARK 927      BINDING AFFINITY PREDICTED BY RF-SCORE:    0.00 PKD
ROOT
HETATM    1  C   UNK     1      -5.578  10.244  69.699  1.00  0.00    -0.038 C  
HETATM    2  O   UNK     1      -5.833  11.424  68.952  1.00  0.00    -0.046 OA 
ENDROOT
BRANCH   2   3
HETATM    3  C   UNK     1      -7.104  11.986  69.282  1.00  0.00     0.019 C  
BRANCH   3   4
HETATM    4  C   UNK     1      -8.166  11.392  68.365  1.00  0.00    -0.151 C  
BRANCH   4   5
HETATM    5  O   UNK     1      -8.840  10.335  69.044  1.00  0.00    -0.148 OA 
BRANCH   5   6
HETATM    6  C   UNK     1     -10.240  10.588  69.147  1.00  0.00    -0.224 C  
BRANCH   6   7
HETATM    7  C   UNK     1     -10.983   9.690  68.167  1.00  0.00    -0.185 C  
BRANCH   7   8
HETATM    8  C   UNK     1     -10.544   8.226  68.271  1.00  0.00    -0.157 C  
BRANCH   8   9
HETATM    9  C   UNK     1     -10.410   7.606  66.883  1.00  0.00    -0.388 C  
BRANCH   9  10
HETATM   10  C   UNK     1      -8.991   7.122  66.597  1.00  0.00    -0.164 C  
BRANCH  10  11
HETATM   11  C   UNK     1      -8.248   8.108  65.714  1.00  0.00    -0.126 C  
HETATM   12  O   UNK     1      -7.042   8.053  65.500  1.00  0.00    -0.059 OA 
HETATM   13  N   UNK     1      -9.063   9.079  65.175  1.00  0.00    -0.378 N  
HETATM   14  H   UNK     1     -10.052   9.098  65.423  1.00  0.00     0.000 HD 
BRANCH  13  15
HETATM   15  C   UNK     1      -8.537  10.073  64.260  1.00  0.00    -0.189 C  
BRANCH  15  16
HETATM   16  C   UNK     1      -9.572  10.536  63.232  1.00  0.00    -0.373 C  
BRANCH  16  17
HETATM   17  C   UNK     1     -10.063  11.952  63.532  1.00  0.00    -0.464 C  
BRANCH  17  18
HETATM   18  C   UNK     1     -10.820  12.043  64.864  1.00  0.00    -0.349 C  
BRANCH  18  19
HETATM   19  C   UNK     1     -12.280  12.494  64.708  1.00  0.00    -0.465 C  
HETATM   20  N   UNK     1     -12.742  12.350  63.296  1.00  0.00    -0.781 NA 
HETATM   21  C   UNK     1     -12.435  13.966  65.124  1.00  0.00    -0.453 C  
HETATM   22  O   UNK     1     -12.505  14.372  66.268  1.00  0.00    -0.393 OA 
HETATM   23  O   UNK     1     -12.434  14.782  64.033  1.00  0.00    -0.803 OA 
HETATM   24  H1  UNK     1     -13.712  12.649  63.193  1.00  0.00     0.000 HD 
HETATM   25  H2  UNK     1     -12.605  11.400  62.952  1.00  0.00     0.000 HD 
ENDBRANCH  18  19
ENDBRANCH  17  18
ENDBRANCH  16  17
ENDBRANCH  15  16
ENDBRANCH  13  15
ENDBRANCH  10  11
ENDBRANCH   9  10
ENDBRANCH   8   9
ENDBRANCH   7   8
ENDBRANCH   6   7
ENDBRANCH   5   6
ENDBRANCH   4   5
ENDBRANCH   3   4
ENDBRANCH   2   3
TORSDOF 14
ENDMDL
MODEL      250
REMARK 921   NORMALIZED FREE ENERGY PREDICTED BY IDOCK:   -3.46 KCAL/MOL
REMARK 922        TOTAL FREE ENERGY PREDICTED BY IDOCK:   -7.23 KCAL/MOL
REMARK 923 INTER-LIGAND FREE ENERGY PREDICTED BY IDOCK:   -6.42 KCAL/MOL
REMARK 924 INTRA-LIGAND FREE ENERGY PREDICTED BY IDOCK:   -0.80 KCAL/MOL
REMARK 927      BINDING AFFINITY PREDICTED BY RF-SCORE:    0.00 PKD
ROOT
HETATM    1  C   UNK     1     -10.926   8.179  72.771  1.00  0.00    -0.330 C  
HETATM    2  O   UNK     1      -9.723   7.722  73.372  1.00  0.00    -0.278 OA 
ENDROOT
BRANCH   2   3
HETATM    3  C   UNK     1      -9.380   6.410  72.923  1.00  0.00    -0.136 C  
BRANCH   3   4
HETATM    4  C   UNK     1      -7.968   6.432  72.350  1.00  0.00    -0.102 C  
BRANCH   4   5
HETATM    5  O   UNK     1      -8.023   6.776  70.968  1.00  0.00    -0.100 OA 
BRANCH   5   6
HETATM    6  C   UNK     1      -7.710   8.152  70.758  1.00  0.00    -0.080 C  
BRANCH   6   7
HETATM    7  C   UNK     1      -8.837   8.806  69.969  1.00  0.00    -0.149 C  
BRANCH   7   8
HETATM    8  C   UNK     1      -9.482   7.842  68.968  1.00  0.00    -0.150 C  
BRANCH   8   9
HETATM    9  C   UNK     1     -10.334   8.607  67.959  1.00  0.00    -0.277 C  
BRANCH   9  10
HETATM   10  C   UNK     1      -9.709   8.623  66.566  1.00  0.00    -0.325 C  
BRANCH  10  11
HETATM   11  C   UNK     1      -9.374  10.040  66.138  1.00  0.00    -0.173 C  
HETATM   12  O   UNK     1      -9.284  10.392  64.966  1.00  0.00    -0.181 OA 
HETATM   13  N   UNK     1      -9.176  10.898  67.197  1.00  0.00    -0.148 N  
HETATM   14  H   UNK     1      -9.223  10.537  68.150  1.00  0.00     0.000 HD 
BRANCH  13  15
HETATM   15  C   UNK     1      -8.902  12.305  66.979  1.00  0.00    -0.205 C  
BRANCH  15  16
HETATM   16  C   UNK     1      -9.806  13.218  67.812  1.00  0.00    -0.224 C  
BRANCH  16  17
HETATM   17  C   UNK     1     -11.246  13.195  67.302  1.00  0.00    -0.319 C  
BRANCH  17  18
HETATM   18  C   UNK     1     -11.653  14.514  66.628  1.00  0.00    -0.385 C  
BRANCH  18  19
HETATM   19  C   UNK     1     -10.953  14.755  65.282  1.00  0.00    -0.374 C  
HETATM   20  N   UNK     1     -10.095  15.975  65.330  1.00  0.00    -0.490 NA 
HETATM   21  C   UNK     1     -11.990  14.933  64.162  1.00  0.00    -0.235 C  
HETATM   22  O   UNK     1     -12.591  14.032  63.608  1.00  0.00    -0.818 OA 
HETATM   23  O   UNK     1     -12.193  16.253  63.893  1.00  0.00    -0.945 OA 
HETATM   24  H1  UNK     1      -9.630  16.135  64.437  1.00  0.00     0.000 HD 
HETATM   25  H2  UNK     1      -9.425  15.932  66.099  1.00  0.00     0.000 HD 
ENDBRANCH  18  19
ENDBRANCH  17  18
ENDBRANCH  16  17
ENDBRANCH  15  16
ENDBRANCH  13  15
ENDBRANCH  10  11
ENDBRANCH   9  10
ENDBRANCH   8   9
ENDBRANCH   7   8
ENDBRANCH   6   7
ENDBRANCH   5   6
ENDBRANCH   4   5
ENDBRANCH   3   4
ENDBRANCH   2   3
TORSDOF 14
ENDMDL
MODEL      251
REMARK 921   NORMALIZED FREE ENERGY PREDICTED BY IDOCK:   -3.45 KCAL/MOL
REMARK 922        TOTAL FREE ENERGY PREDICTED BY IDOCK:   -7.20 KCAL/MOL
REMARK 923 INTER-LIGAND FREE ENERGY PREDICTED BY IDOCK:   -6.63 KCAL/MOL
REMARK 924 INTRA-LIGAND FREE ENERGY PREDICTED BY IDOCK:   -0.58 KCAL/MOL
REMARK 927      BINDING AFFINITY PREDICTED BY RF-SCORE:    0.00 PKD
ROOT
HETATM    1  C   UNK     1      -9.121   5.876  66.837  1.00  0.00    -0.120 C  
HETATM    2  O   UNK     1      -8.825   5.458  68.162  1.00  0.00    -0.106 OA 
ENDROOT
BRANCH   2   3
HETATM    3  C   UNK     1      -9.754   4.476  68.620  1.00  0.00    -0.134 C  
BRANCH   3   4
HETATM    4  C   UNK     1     -10.320   4.913  69.966  1.00  0.00    -0.172 C  
BRANCH   4   5
HETATM    5  O   UNK     1      -9.876   4.016  70.981  1.00  0.00    -0.181 OA 
BRANCH   5   6
HETATM    6  C   UNK     1      -9.364   4.716  72.112  1.00  0.00    -0.136 C  
BRANCH   6   7
HETATM    7  C   UNK     1     -10.187   5.978  72.332  1.00  0.00    -0.216 C  
BRANCH   7   8
HETATM    8  C   UNK     1      -9.317   7.239  72.389  1.00  0.00    -0.166 C  
BRANCH   8   9
HETATM    9  C   UNK     1     -10.156   8.454  72.775  1.00  0.00    -0.268 C  
BRANCH   9  10
HETATM   10  C   UNK     1     -11.383   8.619  71.882  1.00  0.00    -0.417 C  
BRANCH  10  11
HETATM   11  C   UNK     1     -10.982   9.058  70.485  1.00  0.00    -0.252 C  
HETATM   12  O   UNK     1     -10.831   8.282  69.547  1.00  0.00    -0.210 OA 
HETATM   13  N   UNK     1     -10.801  10.418  70.371  1.00  0.00    -0.428 N  
HETATM   14  H   UNK     1     -10.900  11.008  71.198  1.00  0.00     0.000 HD 
BRANCH  13  15
HETATM   15  C   UNK     1     -10.472  11.025  69.096  1.00  0.00    -0.210 C  
BRANCH  15  16
HETATM   16  C   UNK     1     -11.351  12.235  68.773  1.00  0.00    -0.337 C  
BRANCH  16  17
HETATM   17  C   UNK     1     -11.459  12.461  67.266  1.00  0.00    -0.421 C  
BRANCH  17  18
HETATM   18  C   UNK     1     -12.233  13.741  66.917  1.00  0.00    -0.408 C  
BRANCH  18  19
HETATM   19  C   UNK     1     -12.624  13.835  65.434  1.00  0.00    -0.497 C  
HETATM   20  N   UNK     1     -12.949  12.490  64.875  1.00  0.00    -0.805 NA 
HETATM   21  C   UNK     1     -11.473  14.437  64.613  1.00  0.00    -0.387 C  
HETATM   22  O   UNK     1     -11.200  15.621  64.543  1.00  0.00    -0.413 OA 
HETATM   23  O   UNK     1     -10.750  13.460  63.998  1.00  0.00    -0.342 OA 
HETATM   24  H1  UNK     1     -13.209  12.552  63.892  1.00  0.00     0.000 HD 
HETATM   25  H2  UNK     1     -13.670  12.021  65.424  1.00  0.00     0.000 HD 
ENDBRANCH  18  19
ENDBRANCH  17  18
ENDBRANCH  16  17
ENDBRANCH  15  16
ENDBRANCH  13  15
ENDBRANCH  10  11
ENDBRANCH   9  10
ENDBRANCH   8   9
ENDBRANCH   7   8
ENDBRANCH   6   7
ENDBRANCH   5   6
ENDBRANCH   4   5
ENDBRANCH   3   4
ENDBRANCH   2   3
TORSDOF 14
ENDMDL
MODEL      252
REMARK 921   NORMALIZED FREE ENERGY PREDICTED BY IDOCK:   -3.43 KCAL/MOL
REMARK 922        TOTAL FREE ENERGY PREDICTED BY IDOCK:   -7.18 KCAL/MOL
REMARK 923 INTER-LIGAND FREE ENERGY PREDICTED BY IDOCK:   -5.75 KCAL/MOL
REMARK 924 INTRA-LIGAND FREE ENERGY PREDICTED BY IDOCK:   -1.43 KCAL/MOL
REMARK 927      BINDING AFFINITY PREDICTED BY RF-SCORE:    0.00 PKD
ROOT
HETATM    1  C   UNK     1      -7.039  14.673  69.089  1.00  0.00    -0.135 C  
HETATM    2  O   UNK     1      -7.227  14.461  67.698  1.00  0.00    -0.157 OA 
ENDROOT
BRANCH   2   3
HETATM    3  C   UNK     1      -7.722  15.635  67.052  1.00  0.00    -0.222 C  
BRANCH   3   4
HETATM    4  C   UNK     1      -6.964  16.849  67.575  1.00  0.00    -0.142 C  
BRANCH   4   5
HETATM    5  O   UNK     1      -7.852  17.962  67.657  1.00  0.00    -0.213 OA 
BRANCH   5   6
HETATM    6  C   UNK     1      -8.656  18.077  66.485  1.00  0.00    -0.258 C  
BRANCH   6   7
HETATM    7  C   UNK     1     -10.100  18.334  66.895  1.00  0.00    -0.377 C  
BRANCH   7   8
HETATM    8  C   UNK     1     -10.389  17.878  68.329  1.00  0.00    -0.389 C  
BRANCH   8   9
HETATM    9  C   UNK     1     -11.043  16.499  68.333  1.00  0.00    -0.333 C  
BRANCH   9  10
HETATM   10  C   UNK     1     -10.613  15.656  69.531  1.00  0.00    -0.266 C  
BRANCH  10  11
HETATM   11  C   UNK     1     -11.607  14.539  69.793  1.00  0.00    -0.295 C  
HETATM   12  O   UNK     1     -12.768  14.732  70.140  1.00  0.00    -0.304 OA 
HETATM   13  N   UNK     1     -11.078  13.282  69.607  1.00  0.00    -0.466 N  
HETATM   14  H   UNK     1     -10.093  13.185  69.360  1.00  0.00     0.000 HD 
BRANCH  13  15
HETATM   15  C   UNK     1     -11.897  12.096  69.758  1.00  0.00    -0.327 C  
BRANCH  15  16
HETATM   16  C   UNK     1     -11.896  11.214  68.506  1.00  0.00    -0.330 C  
BRANCH  16  17
HETATM   17  C   UNK     1     -11.330  11.960  67.298  1.00  0.00    -0.393 C  
BRANCH  17  18
HETATM   18  C   UNK     1     -10.238  11.161  66.572  1.00  0.00    -0.275 C  
BRANCH  18  19
HETATM   19  C   UNK     1      -8.864  11.244  67.253  1.00  0.00    -0.150 C  
HETATM   20  N   UNK     1      -7.822  11.742  66.308  1.00  0.00    -0.378 NA 
HETATM   21  C   UNK     1      -8.434   9.860  67.765  1.00  0.00    -0.118 C  
HETATM   22  O   UNK     1      -8.830   9.332  68.787  1.00  0.00    -0.130 OA 
HETATM   23  O   UNK     1      -7.574   9.263  66.893  1.00  0.00    -0.090 OA 
HETATM   24  H1  UNK     1      -6.910  11.798  66.760  1.00  0.00     0.000 HD 
HETATM   25  H2  UNK     1      -8.089  12.635  65.892  1.00  0.00     0.000 HD 
ENDBRANCH  18  19
ENDBRANCH  17  18
ENDBRANCH  16  17
ENDBRANCH  15  16
ENDBRANCH  13  15
ENDBRANCH  10  11
ENDBRANCH   9  10
ENDBRANCH   8   9
ENDBRANCH   7   8
ENDBRANCH   6   7
ENDBRANCH   5   6
ENDBRANCH   4   5
ENDBRANCH   3   4
ENDBRANCH   2   3
TORSDOF 14
ENDMDL
MODEL      253
REMARK 921   NORMALIZED FREE ENERGY PREDICTED BY IDOCK:   -3.43 KCAL/MOL
REMARK 922        TOTAL FREE ENERGY PREDICTED BY IDOCK:   -7.17 KCAL/MOL
REMARK 923 INTER-LIGAND FREE ENERGY PREDICTED BY IDOCK:   -6.34 KCAL/MOL
REMARK 924 INTRA-LIGAND FREE ENERGY PREDICTED BY IDOCK:   -0.84 KCAL/MOL
REMARK 927      BINDING AFFINITY PREDICTED BY RF-SCORE:    0.00 PKD
ROOT
HETATM    1  C   UNK     1     -13.725   8.873  72.470  1.00  0.00    -0.414 C  
HETATM    2  O   UNK     1     -13.359   8.061  71.363  1.00  0.00    -0.299 OA 
ENDROOT
BRANCH   2   3
HETATM    3  C   UNK     1     -11.940   7.969  71.229  1.00  0.00    -0.296 C  
BRANCH   3   4
HETATM    4  C   UNK     1     -11.365   9.368  71.044  1.00  0.00    -0.337 C  
BRANCH   4   5
HETATM    5  O   UNK     1     -10.916   9.521  69.699  1.00  0.00    -0.236 OA 
BRANCH   5   6
HETATM    6  C   UNK     1     -10.396   8.299  69.180  1.00  0.00    -0.217 C  
BRANCH   6   7
HETATM    7  C   UNK     1     -10.567   8.288  67.666  1.00  0.00    -0.264 C  
BRANCH   7   8
HETATM    8  C   UNK     1      -9.592   9.239  66.963  1.00  0.00    -0.223 C  
BRANCH   8   9
HETATM    9  C   UNK     1     -10.288  10.547  66.598  1.00  0.00    -0.295 C  
BRANCH   9  10
HETATM   10  C   UNK     1      -9.349  11.531  65.905  1.00  0.00    -0.242 C  
BRANCH  10  11
HETATM   11  C   UNK     1      -8.683  12.449  66.913  1.00  0.00    -0.191 C  
HETATM   12  O   UNK     1      -8.079  12.047  67.902  1.00  0.00    -0.131 OA 
HETATM   13  N   UNK     1      -8.825  13.785  66.612  1.00  0.00    -0.438 N  
HETATM   14  H   UNK     1      -9.375  14.059  65.797  1.00  0.00     0.000 HD 
BRANCH  13  15
HETATM   15  C   UNK     1      -8.205  14.807  67.432  1.00  0.00    -0.196 C  
BRANCH  15  16
HETATM   16  C   UNK     1      -9.206  15.852  67.929  1.00  0.00    -0.198 C  
BRANCH  16  17
HETATM   17  C   UNK     1      -9.621  15.586  69.376  1.00  0.00    -0.279 C  
BRANCH  17  18
HETATM   18  C   UNK     1     -11.036  16.096  69.686  1.00  0.00    -0.346 C  
BRANCH  18  19
HETATM   19  C   UNK     1     -12.070  14.971  69.848  1.00  0.00    -0.334 C  
HETATM   20  N   UNK     1     -11.939  14.304  71.177  1.00  0.00    -0.444 NA 
HETATM   21  C   UNK     1     -11.885  13.911  68.751  1.00  0.00    -0.361 C  
HETATM   22  O   UNK     1     -12.274  14.008  67.603  1.00  0.00    -0.352 OA 
HETATM   23  O   UNK     1     -11.174  12.846  69.218  1.00  0.00    -0.243 OA 
HETATM   24  H1  UNK     1     -12.626  13.558  71.284  1.00  0.00     0.000 HD 
HETATM   25  H2  UNK     1     -11.995  14.978  71.941  1.00  0.00     0.000 HD 
ENDBRANCH  18  19
ENDBRANCH  17  18
ENDBRANCH  16  17
ENDBRANCH  15  16
ENDBRANCH  13  15
ENDBRANCH  10  11
ENDBRANCH   9  10
ENDBRANCH   8   9
ENDBRANCH   7   8
ENDBRANCH   6   7
ENDBRANCH   5   6
ENDBRANCH   4   5
ENDBRANCH   3   4
ENDBRANCH   2   3
TORSDOF 14
ENDMDL
MODEL      254
REMARK 921   NORMALIZED FREE ENERGY PREDICTED BY IDOCK:   -3.42 KCAL/MOL
REMARK 922        TOTAL FREE ENERGY PREDICTED BY IDOCK:   -7.16 KCAL/MOL
REMARK 923 INTER-LIGAND FREE ENERGY PREDICTED BY IDOCK:   -5.68 KCAL/MOL
REMARK 924 INTRA-LIGAND FREE ENERGY PREDICTED BY IDOCK:   -1.48 KCAL/MOL
REMARK 927      BINDING AFFINITY PREDICTED BY RF-SCORE:    0.00 PKD
ROOT
HETATM    1  C   UNK     1      -5.875  11.132  69.118  1.00  0.00    -0.042 C  
HETATM    2  O   UNK     1      -5.366  10.959  67.803  1.00  0.00    -0.040 OA 
ENDROOT
BRANCH   2   3
HETATM    3  C   UNK     1      -6.167  11.641  66.838  1.00  0.00    -0.149 C  
BRANCH   3   4
HETATM    4  C   UNK     1      -7.629  11.566  67.260  1.00  0.00    -0.143 C  
BRANCH   4   5
HETATM    5  O   UNK     1      -8.458  11.594  66.101  1.00  0.00    -0.126 OA 
BRANCH   5   6
HETATM    6  C   UNK     1      -8.453  10.340  65.422  1.00  0.00    -0.161 C  
BRANCH   6   7
HETATM    7  C   UNK     1      -9.783  10.155  64.703  1.00  0.00    -0.377 C  
BRANCH   7   8
HETATM    8  C   UNK     1     -10.003  11.205  63.609  1.00  0.00    -0.411 C  
BRANCH   8   9
HETATM    9  C   UNK     1     -11.383  11.842  63.747  1.00  0.00    -0.532 C  
BRANCH   9  10
HETATM   10  C   UNK     1     -11.305  13.317  64.132  1.00  0.00    -0.424 C  
BRANCH  10  11
HETATM   11  C   UNK     1     -11.797  13.535  65.551  1.00  0.00    -0.363 C  
HETATM   12  O   UNK     1     -12.899  14.001  65.823  1.00  0.00    -0.516 OA 
HETATM   13  N   UNK     1     -10.882  13.160  66.509  1.00  0.00    -0.278 N  
HETATM   14  H   UNK     1      -9.965  12.818  66.220  1.00  0.00     0.000 HD 
BRANCH  13  15
HETATM   15  C   UNK     1     -11.201  13.244  67.921  1.00  0.00    -0.272 C  
BRANCH  15  16
HETATM   16  C   UNK     1     -11.889  11.982  68.447  1.00  0.00    -0.360 C  
BRANCH  16  17
HETATM   17  C   UNK     1     -10.905  11.077  69.189  1.00  0.00    -0.283 C  
BRANCH  17  18
HETATM   18  C   UNK     1     -10.538   9.822  68.383  1.00  0.00    -0.264 C  
BRANCH  18  19
HETATM   19  C   UNK     1     -10.408   8.557  69.245  1.00  0.00    -0.221 C  
HETATM   20  N   UNK     1      -9.238   8.650  70.167  1.00  0.00    -0.155 NA 
HETATM   21  C   UNK     1     -10.230   7.317  68.355  1.00  0.00    -0.180 C  
HETATM   22  O   UNK     1     -11.122   6.738  67.766  1.00  0.00    -0.255 OA 
HETATM   23  O   UNK     1      -8.916   6.966  68.267  1.00  0.00    -0.125 OA 
HETATM   24  H1  UNK     1      -9.152   7.811  70.740  1.00  0.00     0.000 HD 
HETATM   25  H2  UNK     1      -9.279   9.493  70.741  1.00  0.00     0.000 HD 
ENDBRANCH  18  19
ENDBRANCH  17  18
ENDBRANCH  16  17
ENDBRANCH  15  16
ENDBRANCH  13  15
ENDBRANCH  10  11
ENDBRANCH   9  10
ENDBRANCH   8   9
ENDBRANCH   7   8
ENDBRANCH   6   7
ENDBRANCH   5   6
ENDBRANCH   4   5
ENDBRANCH   3   4
ENDBRANCH   2   3
TORSDOF 14
ENDMDL
MODEL      255
REMARK 921   NORMALIZED FREE ENERGY PREDICTED BY IDOCK:   -3.42 KCAL/MOL
REMARK 922        TOTAL FREE ENERGY PREDICTED BY IDOCK:   -7.15 KCAL/MOL
REMARK 923 INTER-LIGAND FREE ENERGY PREDICTED BY IDOCK:   -5.91 KCAL/MOL
REMARK 924 INTRA-LIGAND FREE ENERGY PREDICTED BY IDOCK:   -1.24 KCAL/MOL
REMARK 927      BINDING AFFINITY PREDICTED BY RF-SCORE:    0.00 PKD
ROOT
HETATM    1  C   UNK     1      -6.483   9.997  66.414  1.00  0.00    -0.075 C  
HETATM    2  O   UNK     1      -7.703  10.245  67.097  1.00  0.00    -0.092 OA 
ENDROOT
BRANCH   2   3
HETATM    3  C   UNK     1      -8.823  10.156  66.215  1.00  0.00    -0.148 C  
BRANCH   3   4
HETATM    4  C   UNK     1      -8.320  10.025  64.782  1.00  0.00    -0.163 C  
BRANCH   4   5
HETATM    5  O   UNK     1      -9.431  10.017  63.889  1.00  0.00    -0.276 OA 
BRANCH   5   6
HETATM    6  C   UNK     1     -10.433  10.948  64.292  1.00  0.00    -0.335 C  
BRANCH   6   7
HETATM    7  C   UNK     1     -10.597  12.005  63.207  1.00  0.00    -0.399 C  
BRANCH   7   8
HETATM    8  C   UNK     1     -11.912  12.781  63.346  1.00  0.00    -0.613 C  
BRANCH   8   9
HETATM    9  C   UNK     1     -11.764  13.911  64.360  1.00  0.00    -0.427 C  
BRANCH   9  10
HETATM   10  C   UNK     1     -12.875  13.901  65.407  1.00  0.00    -0.466 C  
BRANCH  10  11
HETATM   11  C   UNK     1     -12.303  13.745  66.805  1.00  0.00    -0.321 C  
HETATM   12  O   UNK     1     -12.024  12.662  67.307  1.00  0.00    -0.424 OA 
HETATM   13  N   UNK     1     -12.129  14.944  67.459  1.00  0.00    -0.467 N  
HETATM   14  H   UNK     1     -12.419  15.810  67.005  1.00  0.00     0.000 HD 
BRANCH  13  15
HETATM   15  C   UNK     1     -11.541  14.995  68.783  1.00  0.00    -0.335 C  
BRANCH  15  16
HETATM   16  C   UNK     1     -10.193  15.721  68.804  1.00  0.00    -0.217 C  
BRANCH  16  17
HETATM   17  C   UNK     1      -9.354  15.377  67.573  1.00  0.00    -0.204 C  
BRANCH  17  18
HETATM   18  C   UNK     1      -7.898  15.847  67.704  1.00  0.00    -0.164 C  
BRANCH  18  19
HETATM   19  C   UNK     1      -6.875  14.707  67.595  1.00  0.00    -0.183 C  
HETATM   20  N   UNK     1      -7.513  13.454  67.095  1.00  0.00    -0.370 NA 
HETATM   21  C   UNK     1      -6.245  14.418  68.967  1.00  0.00    -0.094 C  
HETATM   22  O   UNK     1      -5.359  15.068  69.488  1.00  0.00    -0.089 OA 
HETATM   23  O   UNK     1      -6.846  13.350  69.563  1.00  0.00    -0.053 OA 
HETATM   24  H1  UNK     1      -6.834  12.697  67.022  1.00  0.00     0.000 HD 
HETATM   25  H2  UNK     1      -7.998  13.609  66.211  1.00  0.00     0.000 HD 
ENDBRANCH  18  19
ENDBRANCH  17  18
ENDBRANCH  16  17
ENDBRANCH  15  16
ENDBRANCH  13  15
ENDBRANCH  10  11
ENDBRANCH   9  10
ENDBRANCH   8   9
ENDBRANCH   7   8
ENDBRANCH   6   7
ENDBRANCH   5   6
ENDBRANCH   4   5
ENDBRANCH   3   4
ENDBRANCH   2   3
TORSDOF 14
ENDMDL
MODEL      256
REMARK 921   NORMALIZED FREE ENERGY PREDICTED BY IDOCK:   -3.42 KCAL/MOL
REMARK 922        TOTAL FREE ENERGY PREDICTED BY IDOCK:   -7.15 KCAL/MOL
REMARK 923 INTER-LIGAND FREE ENERGY PREDICTED BY IDOCK:   -6.22 KCAL/MOL
REMARK 924 INTRA-LIGAND FREE ENERGY PREDICTED BY IDOCK:   -0.93 KCAL/MOL
REMARK 927      BINDING AFFINITY PREDICTED BY RF-SCORE:    0.00 PKD
ROOT
HETATM    1  C   UNK     1     -11.610  15.838  68.950  1.00  0.00    -0.394 C  
HETATM    2  O   UNK     1     -11.176  14.632  69.562  1.00  0.00    -0.251 OA 
ENDROOT
BRANCH   2   3
HETATM    3  C   UNK     1     -11.407  13.505  68.716  1.00  0.00    -0.290 C  
BRANCH   3   4
HETATM    4  C   UNK     1     -10.225  13.342  67.768  1.00  0.00    -0.235 C  
BRANCH   4   5
HETATM    5  O   UNK     1     -10.682  13.448  66.421  1.00  0.00    -0.283 OA 
BRANCH   5   6
HETATM    6  C   UNK     1     -11.756  12.548  66.160  1.00  0.00    -0.409 C  
BRANCH   6   7
HETATM    7  C   UNK     1     -12.420  12.932  64.844  1.00  0.00    -0.540 C  
BRANCH   7   8
HETATM    8  C   UNK     1     -12.002  12.013  63.691  1.00  0.00    -0.612 C  
BRANCH   8   9
HETATM    9  C   UNK     1     -10.490  12.058  63.490  1.00  0.00    -0.505 C  
BRANCH   9  10
HETATM   10  C   UNK     1      -9.873  10.664  63.409  1.00  0.00    -0.376 C  
BRANCH  10  11
HETATM   11  C   UNK     1      -9.241  10.272  64.732  1.00  0.00    -0.241 C  
HETATM   12  O   UNK     1      -8.164  10.708  65.125  1.00  0.00    -0.159 OA 
HETATM   13  N   UNK     1      -9.994   9.373  65.453  1.00  0.00    -0.407 N  
HETATM   14  H   UNK     1     -10.863   9.014  65.055  1.00  0.00     0.000 HD 
BRANCH  13  15
HETATM   15  C   UNK     1      -9.575   8.929  66.767  1.00  0.00    -0.202 C  
BRANCH  15  16
HETATM   16  C   UNK     1     -10.217   9.737  67.897  1.00  0.00    -0.237 C  
BRANCH  16  17
HETATM   17  C   UNK     1     -10.484   8.866  69.125  1.00  0.00    -0.236 C  
BRANCH  17  18
HETATM   18  C   UNK     1     -10.501   7.368  68.791  1.00  0.00    -0.215 C  
BRANCH  18  19
HETATM   19  C   UNK     1      -9.503   6.545  69.620  1.00  0.00    -0.145 C  
HETATM   20  N   UNK     1      -9.824   6.616  71.076  1.00  0.00    -0.182 NA 
HETATM   21  C   UNK     1      -8.073   7.065  69.410  1.00  0.00    -0.130 C  
HETATM   22  O   UNK     1      -7.367   6.821  68.450  1.00  0.00    -0.082 OA 
HETATM   23  O   UNK     1      -7.700   7.890  70.429  1.00  0.00    -0.084 OA 
HETATM   24  H1  UNK     1      -9.162   6.069  71.626  1.00  0.00     0.000 HD 
HETATM   25  H2  UNK     1     -10.787   6.336  71.262  1.00  0.00     0.000 HD 
ENDBRANCH  18  19
ENDBRANCH  17  18
ENDBRANCH  16  17
ENDBRANCH  15  16
ENDBRANCH  13  15
ENDBRANCH  10  11
ENDBRANCH   9  10
ENDBRANCH   8   9
ENDBRANCH   7   8
ENDBRANCH   6   7
ENDBRANCH   5   6
ENDBRANCH   4   5
ENDBRANCH   3   4
ENDBRANCH   2   3
TORSDOF 14
ENDMDL
MODEL      257
REMARK 921   NORMALIZED FREE ENERGY PREDICTED BY IDOCK:   -3.40 KCAL/MOL
REMARK 922        TOTAL FREE ENERGY PREDICTED BY IDOCK:   -7.11 KCAL/MOL
REMARK 923 INTER-LIGAND FREE ENERGY PREDICTED BY IDOCK:   -6.34 KCAL/MOL
REMARK 924 INTRA-LIGAND FREE ENERGY PREDICTED BY IDOCK:   -0.77 KCAL/MOL
REMARK 927      BINDING AFFINITY PREDICTED BY RF-SCORE:    0.00 PKD
ROOT
HETATM    1  C   UNK     1      -7.312  19.577  66.171  1.00  0.00    -0.281 C  
HETATM    2  O   UNK     1      -8.531  18.847  66.156  1.00  0.00    -0.413 OA 
ENDROOT
BRANCH   2   3
HETATM    3  C   UNK     1      -9.639  19.673  66.516  1.00  0.00    -0.389 C  
BRANCH   3   4
HETATM    4  C   UNK     1     -10.491  18.942  67.546  1.00  0.00    -0.450 C  
BRANCH   4   5
HETATM    5  O   UNK     1      -9.659  18.483  68.609  1.00  0.00    -0.331 OA 
BRANCH   5   6
HETATM    6  C   UNK     1     -10.038  17.179  69.045  1.00  0.00    -0.297 C  
BRANCH   6   7
HETATM    7  C   UNK     1     -11.153  16.657  68.149  1.00  0.00    -0.285 C  
BRANCH   7   8
HETATM    8  C   UNK     1     -11.718  15.320  68.640  1.00  0.00    -0.367 C  
BRANCH   8   9
HETATM    9  C   UNK     1     -12.330  14.538  67.481  1.00  0.00     0.019 C  
BRANCH   9  10
HETATM   10  C   UNK     1     -11.966  13.056  67.524  1.00  0.00    -0.360 C  
BRANCH  10  11
HETATM   11  C   UNK     1     -11.908  12.470  66.125  1.00  0.00    -0.397 C  
HETATM   12  O   UNK     1     -12.666  12.800  65.219  1.00  0.00    -0.625 OA 
HETATM   13  N   UNK     1     -10.919  11.525  65.970  1.00  0.00    -0.284 N  
HETATM   14  H   UNK     1     -10.346  11.262  66.773  1.00  0.00     0.000 HD 
BRANCH  13  15
HETATM   15  C   UNK     1     -10.677  10.899  64.686  1.00  0.00    -0.184 C  
BRANCH  15  16
HETATM   16  C   UNK     1      -9.419  10.027  64.680  1.00  0.00    -0.367 C  
BRANCH  16  17
HETATM   17  C   UNK     1      -9.091   9.510  66.080  1.00  0.00    -0.207 C  
BRANCH  17  18
HETATM   18  C   UNK     1     -10.132   8.505  66.594  1.00  0.00    -0.364 C  
BRANCH  18  19
HETATM   19  C   UNK     1     -10.303   8.528  68.121  1.00  0.00    -0.206 C  
HETATM   20  N   UNK     1     -10.163   9.913  68.659  1.00  0.00    -0.170 NA 
HETATM   21  C   UNK     1      -9.248   7.636  68.793  1.00  0.00    -0.142 C  
HETATM   22  O   UNK     1      -9.300   6.424  68.877  1.00  0.00    -0.131 OA 
HETATM   23  O   UNK     1      -8.202   8.380  69.251  1.00  0.00    -0.113 OA 
HETATM   24  H1  UNK     1     -10.277   9.929  69.672  1.00  0.00     0.000 HD 
HETATM   25  H2  UNK     1     -10.804  10.561  68.200  1.00  0.00     0.000 HD 
ENDBRANCH  18  19
ENDBRANCH  17  18
ENDBRANCH  16  17
ENDBRANCH  15  16
ENDBRANCH  13  15
ENDBRANCH  10  11
ENDBRANCH   9  10
ENDBRANCH   8   9
ENDBRANCH   7   8
ENDBRANCH   6   7
ENDBRANCH   5   6
ENDBRANCH   4   5
ENDBRANCH   3   4
ENDBRANCH   2   3
TORSDOF 14
ENDMDL
MODEL      258
REMARK 921   NORMALIZED FREE ENERGY PREDICTED BY IDOCK:   -3.40 KCAL/MOL
REMARK 922        TOTAL FREE ENERGY PREDICTED BY IDOCK:   -7.11 KCAL/MOL
REMARK 923 INTER-LIGAND FREE ENERGY PREDICTED BY IDOCK:   -5.77 KCAL/MOL
REMARK 924 INTRA-LIGAND FREE ENERGY PREDICTED BY IDOCK:   -1.35 KCAL/MOL
REMARK 927      BINDING AFFINITY PREDICTED BY RF-SCORE:    0.00 PKD
ROOT
HETATM    1  C   UNK     1     -10.512   7.754  66.709  1.00  0.00    -0.248 C  
HETATM    2  O   UNK     1      -9.292   7.967  67.404  1.00  0.00    -0.137 OA 
ENDROOT
BRANCH   2   3
HETATM    3  C   UNK     1      -8.166   7.828  66.537  1.00  0.00    -0.124 C  
BRANCH   3   4
HETATM    4  C   UNK     1      -6.902   8.213  67.296  1.00  0.00    -0.074 C  
BRANCH   4   5
HETATM    5  O   UNK     1      -6.284   9.325  66.652  1.00  0.00    -0.063 OA 
BRANCH   5   6
HETATM    6  C   UNK     1      -7.128  10.474  66.669  1.00  0.00    -0.118 C  
BRANCH   6   7
HETATM    7  C   UNK     1      -7.202  11.019  68.089  1.00  0.00    -0.083 C  
BRANCH   7   8
HETATM    8  C   UNK     1      -8.646  11.208  68.566  1.00  0.00    -0.157 C  
BRANCH   8   9
HETATM    9  C   UNK     1      -9.339  12.302  67.759  1.00  0.00    -0.194 C  
BRANCH   9  10
HETATM   10  C   UNK     1     -10.850  12.102  67.688  1.00  0.00    -0.272 C  
BRANCH  10  11
HETATM   11  C   UNK     1     -11.547  12.811  68.836  1.00  0.00    -0.316 C  
HETATM   12  O   UNK     1     -11.866  13.995  68.809  1.00  0.00    -0.324 OA 
HETATM   13  N   UNK     1     -11.785  11.994  69.918  1.00  0.00    -0.438 N  
HETATM   14  H   UNK     1     -11.458  11.027  69.898  1.00  0.00     0.000 HD 
BRANCH  13  15
HETATM   15  C   UNK     1     -12.492  12.484  71.084  1.00  0.00    -0.223 C  
BRANCH  15  16
HETATM   16  C   UNK     1     -13.113  11.358  71.915  1.00  0.00    -0.505 C  
BRANCH  16  17
HETATM   17  C   UNK     1     -13.059  10.022  71.175  1.00  0.00    -0.472 C  
BRANCH  17  18
HETATM   18  C   UNK     1     -12.239   8.965  71.929  1.00  0.00    -0.445 C  
BRANCH  18  19
HETATM   19  C   UNK     1     -11.070   8.399  71.109  1.00  0.00    -0.256 C  
HETATM   20  N   UNK     1     -11.167   8.806  69.677  1.00  0.00    -0.436 NA 
HETATM   21  C   UNK     1     -11.060   6.864  71.179  1.00  0.00    -0.260 C  
HETATM   22  O   UNK     1     -10.636   6.203  72.108  1.00  0.00    -0.198 OA 
HETATM   23  O   UNK     1     -11.639   6.322  70.071  1.00  0.00    -0.425 OA 
HETATM   24  H1  UNK     1     -10.391   8.431  69.133  1.00  0.00     0.000 HD 
HETATM   25  H2  UNK     1     -11.238   9.820  69.579  1.00  0.00     0.000 HD 
ENDBRANCH  18  19
ENDBRANCH  17  18
ENDBRANCH  16  17
ENDBRANCH  15  16
ENDBRANCH  13  15
ENDBRANCH  10  11
ENDBRANCH   9  10
ENDBRANCH   8   9
ENDBRANCH   7   8
ENDBRANCH   6   7
ENDBRANCH   5   6
ENDBRANCH   4   5
ENDBRANCH   3   4
ENDBRANCH   2   3
TORSDOF 14
ENDMDL
MODEL      259
REMARK 921   NORMALIZED FREE ENERGY PREDICTED BY IDOCK:   -3.39 KCAL/MOL
REMARK 922        TOTAL FREE ENERGY PREDICTED BY IDOCK:   -7.10 KCAL/MOL
REMARK 923 INTER-LIGAND FREE ENERGY PREDICTED BY IDOCK:   -6.49 KCAL/MOL
REMARK 924 INTRA-LIGAND FREE ENERGY PREDICTED BY IDOCK:   -0.61 KCAL/MOL
REMARK 927      BINDING AFFINITY PREDICTED BY RF-SCORE:    0.00 PKD
ROOT
HETATM    1  C   UNK     1      -5.755   8.022  63.360  1.00  0.00    -0.059 C  
HETATM    2  O   UNK     1      -6.528   7.876  64.543  1.00  0.00    -0.055 OA 
ENDROOT
BRANCH   2   3
HETATM    3  C   UNK     1      -7.880   8.288  64.337  1.00  0.00    -0.135 C  
BRANCH   3   4
HETATM    4  C   UNK     1      -7.960   9.806  64.440  1.00  0.00    -0.145 C  
BRANCH   4   5
HETATM    5  O   UNK     1      -8.814  10.162  65.525  1.00  0.00    -0.154 OA 
BRANCH   5   6
HETATM    6  C   UNK     1     -10.148  10.403  65.083  1.00  0.00    -0.308 C  
BRANCH   6   7
HETATM    7  C   UNK     1     -10.137  11.516  64.043  1.00  0.00    -0.366 C  
BRANCH   7   8
HETATM    8  C   UNK     1     -11.549  11.985  63.677  1.00  0.00    -0.578 C  
BRANCH   8   9
HETATM    9  C   UNK     1     -12.288  12.482  64.916  1.00  0.00    -0.539 C  
BRANCH   9  10
HETATM   10  C   UNK     1     -11.729  13.806  65.433  1.00  0.00    -0.346 C  
BRANCH  10  11
HETATM   11  C   UNK     1     -11.412  13.719  66.915  1.00  0.00    -0.347 C  
HETATM   12  O   UNK     1     -10.553  12.979  67.383  1.00  0.00    -0.232 OA 
HETATM   13  N   UNK     1     -12.186  14.554  67.689  1.00  0.00    -0.614 N  
HETATM   14  H   UNK     1     -12.913  15.117  67.247  1.00  0.00     0.000 HD 
BRANCH  13  15
HETATM   15  C   UNK     1     -11.984  14.648  69.121  1.00  0.00    -0.294 C  
BRANCH  15  16
HETATM   16  C   UNK     1     -10.527  14.936  69.495  1.00  0.00    -0.213 C  
BRANCH  16  17
HETATM   17  C   UNK     1     -10.305  16.423  69.771  1.00  0.00    -0.197 C  
BRANCH  17  18
HETATM   18  C   UNK     1      -9.471  17.105  68.678  1.00  0.00    -0.275 C  
BRANCH  18  19
HETATM   19  C   UNK     1      -8.918  16.127  67.630  1.00  0.00    -0.191 C  
HETATM   20  N   UNK     1      -7.461  15.878  67.839  1.00  0.00    -0.125 NA 
HETATM   21  C   UNK     1      -9.116  16.690  66.213  1.00  0.00    -0.298 C  
HETATM   22  O   UNK     1     -10.157  16.664  65.584  1.00  0.00    -0.508 OA 
HETATM   23  O   UNK     1      -7.974  17.275  65.757  1.00  0.00    -0.511 OA 
HETATM   24  H1  UNK     1      -7.094  15.229  67.144  1.00  0.00     0.000 HD 
HETATM   25  H2  UNK     1      -7.268  15.559  68.789  1.00  0.00     0.000 HD 
ENDBRANCH  18  19
ENDBRANCH  17  18
ENDBRANCH  16  17
ENDBRANCH  15  16
ENDBRANCH  13  15
ENDBRANCH  10  11
ENDBRANCH   9  10
ENDBRANCH   8   9
ENDBRANCH   7   8
ENDBRANCH   6   7
ENDBRANCH   5   6
ENDBRANCH   4   5
ENDBRANCH   3   4
ENDBRANCH   2   3
TORSDOF 14
ENDMDL
MODEL      260
REMARK 921   NORMALIZED FREE ENERGY PREDICTED BY IDOCK:   -3.39 KCAL/MOL
REMARK 922        TOTAL FREE ENERGY PREDICTED BY IDOCK:   -7.09 KCAL/MOL
REMARK 923 INTER-LIGAND FREE ENERGY PREDICTED BY IDOCK:   -6.36 KCAL/MOL
REMARK 924 INTRA-LIGAND FREE ENERGY PREDICTED BY IDOCK:   -0.73 KCAL/MOL
REMARK 927      BINDING AFFINITY PREDICTED BY RF-SCORE:    0.00 PKD
ROOT
HETATM    1  C   UNK     1      -9.782   8.503  66.335  1.00  0.00    -0.258 C  
HETATM    2  O   UNK     1      -9.288   7.221  65.976  1.00  0.00    -0.100 OA 
ENDROOT
BRANCH   2   3
HETATM    3  C   UNK     1      -8.930   6.457  67.128  1.00  0.00    -0.109 C  
BRANCH   3   4
HETATM    4  C   UNK     1     -10.053   5.478  67.447  1.00  0.00    -0.179 C  
BRANCH   4   5
HETATM    5  O   UNK     1      -9.777   4.828  68.686  1.00  0.00    -0.150 OA 
BRANCH   5   6
HETATM    6  C   UNK     1     -10.374   5.515  69.783  1.00  0.00    -0.296 C  
BRANCH   6   7
HETATM    7  C   UNK     1     -10.158   4.706  71.055  1.00  0.00    -0.246 C  
BRANCH   7   8
HETATM    8  C   UNK     1      -9.587   5.556  72.196  1.00  0.00    -0.173 C  
BRANCH   8   9
HETATM    9  C   UNK     1     -10.691   5.957  73.171  1.00  0.00    -0.288 C  
BRANCH   9  10
HETATM   10  C   UNK     1     -10.836   7.471  73.294  1.00  0.00    -0.409 C  
BRANCH  10  11
HETATM   11  C   UNK     1     -11.775   8.015  72.232  1.00  0.00    -0.371 C  
HETATM   12  O   UNK     1     -12.688   7.363  71.736  1.00  0.00    -0.327 OA 
HETATM   13  N   UNK     1     -11.501   9.316  71.876  1.00  0.00    -0.367 N  
HETATM   14  H   UNK     1     -10.701   9.793  72.293  1.00  0.00     0.000 HD 
BRANCH  13  15
HETATM   15  C   UNK     1     -12.330  10.019  70.917  1.00  0.00    -0.341 C  
BRANCH  15  16
HETATM   16  C   UNK     1     -11.537  10.528  69.711  1.00  0.00    -0.368 C  
BRANCH  16  17
HETATM   17  C   UNK     1     -11.893  11.977  69.378  1.00  0.00    -0.384 C  
BRANCH  17  18
HETATM   18  C   UNK     1     -10.836  12.654  68.494  1.00  0.00    -0.279 C  
BRANCH  18  19
HETATM   19  C   UNK     1     -11.075  14.159  68.299  1.00  0.00    -0.254 C  
HETATM   20  N   UNK     1     -12.462  14.541  68.694  1.00  0.00    -0.566 NA 
HETATM   21  C   UNK     1     -10.863  14.550  66.828  1.00  0.00    -0.305 C  
HETATM   22  O   UNK     1      -9.785  14.724  66.292  1.00  0.00    -0.271 OA 
HETATM   23  O   UNK     1     -12.053  14.633  66.170  1.00  0.00    -0.318 OA 
HETATM   24  H1  UNK     1     -12.621  15.540  68.566  1.00  0.00     0.000 HD 
HETATM   25  H2  UNK     1     -12.674  14.248  69.648  1.00  0.00     0.000 HD 
ENDBRANCH  18  19
ENDBRANCH  17  18
ENDBRANCH  16  17
ENDBRANCH  15  16
ENDBRANCH  13  15
ENDBRANCH  10  11
ENDBRANCH   9  10
ENDBRANCH   8   9
ENDBRANCH   7   8
ENDBRANCH   6   7
ENDBRANCH   5   6
ENDBRANCH   4   5
ENDBRANCH   3   4
ENDBRANCH   2   3
TORSDOF 14
ENDMDL
MODEL      261
REMARK 921   NORMALIZED FREE ENERGY PREDICTED BY IDOCK:   -3.38 KCAL/MOL
REMARK 922        TOTAL FREE ENERGY PREDICTED BY IDOCK:   -7.08 KCAL/MOL
REMARK 923 INTER-LIGAND FREE ENERGY PREDICTED BY IDOCK:   -6.29 KCAL/MOL
REMARK 924 INTRA-LIGAND FREE ENERGY PREDICTED BY IDOCK:   -0.78 KCAL/MOL
REMARK 927      BINDING AFFINITY PREDICTED BY RF-SCORE:    0.00 PKD
ROOT
HETATM    1  C   UNK     1     -13.519  13.475  72.102  1.00  0.00    -0.537 C  
HETATM    2  O   UNK     1     -12.539  13.736  71.108  1.00  0.00    -0.342 OA 
ENDROOT
BRANCH   2   3
HETATM    3  C   UNK     1     -12.572  15.100  70.687  1.00  0.00    -0.395 C  
BRANCH   3   4
HETATM    4  C   UNK     1     -12.004  15.201  69.276  1.00  0.00    -0.292 C  
BRANCH   4   5
HETATM    5  O   UNK     1     -12.172  13.952  68.608  1.00  0.00    -0.345 OA 
BRANCH   5   6
HETATM    6  C   UNK     1     -12.011  14.087  67.198  1.00  0.00    -0.430 C  
BRANCH   6   7
HETATM    7  C   UNK     1     -10.813  14.984  66.915  1.00  0.00    -0.315 C  
BRANCH   7   8
HETATM    8  C   UNK     1      -9.556  14.182  66.561  1.00  0.00    -0.310 C  
BRANCH   8   9
HETATM    9  C   UNK     1      -8.878  13.660  67.825  1.00  0.00    -0.190 C  
BRANCH   9  10
HETATM   10  C   UNK     1      -7.626  12.843  67.517  1.00  0.00    -0.164 C  
BRANCH  10  11
HETATM   11  C   UNK     1      -7.968  11.377  67.324  1.00  0.00    -0.149 C  
HETATM   12  O   UNK     1      -7.779  10.768  66.276  1.00  0.00    -0.138 OA 
HETATM   13  N   UNK     1      -8.516  10.793  68.444  1.00  0.00    -0.130 N  
HETATM   14  H   UNK     1      -8.688  11.361  69.273  1.00  0.00     0.000 HD 
BRANCH  13  15
HETATM   15  C   UNK     1      -8.853   9.383  68.463  1.00  0.00    -0.128 C  
BRANCH  15  16
HETATM   16  C   UNK     1     -10.341   9.134  68.718  1.00  0.00    -0.235 C  
BRANCH  16  17
HETATM   17  C   UNK     1     -10.556   7.946  69.655  1.00  0.00    -0.234 C  
BRANCH  17  18
HETATM   18  C   UNK     1      -9.482   7.856  70.748  1.00  0.00    -0.163 C  
BRANCH  18  19
HETATM   19  C   UNK     1      -9.856   8.604  72.037  1.00  0.00    -0.325 C  
HETATM   20  N   UNK     1      -8.711   8.636  72.994  1.00  0.00    -0.366 NA 
HETATM   21  C   UNK     1     -11.048   7.922  72.726  1.00  0.00    -0.400 C  
HETATM   22  O   UNK     1     -12.214   8.043  72.401  1.00  0.00    -0.328 OA 
HETATM   23  O   UNK     1     -10.628   7.110  73.736  1.00  0.00    -0.377 OA 
HETATM   24  H1  UNK     1      -8.959   9.133  73.849  1.00  0.00     0.000 HD 
HETATM   25  H2  UNK     1      -7.873   9.027  72.563  1.00  0.00     0.000 HD 
ENDBRANCH  18  19
ENDBRANCH  17  18
ENDBRANCH  16  17
ENDBRANCH  15  16
ENDBRANCH  13  15
ENDBRANCH  10  11
ENDBRANCH   9  10
ENDBRANCH   8   9
ENDBRANCH   7   8
ENDBRANCH   6   7
ENDBRANCH   5   6
ENDBRANCH   4   5
ENDBRANCH   3   4
ENDBRANCH   2   3
TORSDOF 14
ENDMDL
MODEL      262
REMARK 921   NORMALIZED FREE ENERGY PREDICTED BY IDOCK:   -3.38 KCAL/MOL
REMARK 922        TOTAL FREE ENERGY PREDICTED BY IDOCK:   -7.07 KCAL/MOL
REMARK 923 INTER-LIGAND FREE ENERGY PREDICTED BY IDOCK:   -6.54 KCAL/MOL
REMARK 924 INTRA-LIGAND FREE ENERGY PREDICTED BY IDOCK:   -0.53 KCAL/MOL
REMARK 927      BINDING AFFINITY PREDICTED BY RF-SCORE:    0.00 PKD
ROOT
HETATM    1  C   UNK     1      -9.871  15.366  66.891  1.00  0.00    -0.244 C  
HETATM    2  O   UNK     1     -10.804  15.024  65.877  1.00  0.00    -0.318 OA 
ENDROOT
BRANCH   2   3
HETATM    3  C   UNK     1     -11.997  14.467  66.430  1.00  0.00    -0.385 C  
BRANCH   3   4
HETATM    4  C   UNK     1     -12.034  12.972  66.132  1.00  0.00    -0.427 C  
BRANCH   4   5
HETATM    5  O   UNK     1     -12.197  12.251  67.351  1.00  0.00    -0.478 OA 
BRANCH   5   6
HETATM    6  C   UNK     1     -11.808  13.033  68.478  1.00  0.00    -0.325 C  
BRANCH   6   7
HETATM    7  C   UNK     1     -11.642  12.120  69.686  1.00  0.00    -0.361 C  
BRANCH   7   8
HETATM    8  C   UNK     1     -12.611  12.472  70.819  1.00  0.00    -0.299 C  
BRANCH   8   9
HETATM    9  C   UNK     1     -12.877  11.252  71.697  1.00  0.00    -0.510 C  
BRANCH   9  10
HETATM   10  C   UNK     1     -13.223  10.011  70.877  1.00  0.00    -0.336 C  
BRANCH  10  11
HETATM   11  C   UNK     1     -12.116   8.977  70.962  1.00  0.00    -0.251 C  
HETATM   12  O   UNK     1     -11.774   8.433  72.007  1.00  0.00    -0.304 OA 
HETATM   13  N   UNK     1     -11.526   8.708  69.747  1.00  0.00    -0.432 N  
HETATM   14  H   UNK     1     -11.825   9.223  68.919  1.00  0.00     0.000 HD 
BRANCH  13  15
HETATM   15  C   UNK     1     -10.487   7.704  69.626  1.00  0.00    -0.235 C  
BRANCH  15  16
HETATM   16  C   UNK     1     -10.476   7.028  68.253  1.00  0.00    -0.237 C  
BRANCH  16  17
HETATM   17  C   UNK     1     -10.432   8.057  67.124  1.00  0.00    -0.408 C  
BRANCH  17  18
HETATM   18  C   UNK     1      -9.392   9.159  67.372  1.00  0.00    -0.161 C  
BRANCH  18  19
HETATM   19  C   UNK     1      -9.296  10.178  66.227  1.00  0.00    -0.172 C  
HETATM   20  N   UNK     1     -10.277   9.870  65.145  1.00  0.00    -0.275 NA 
HETATM   21  C   UNK     1      -7.884  10.172  65.620  1.00  0.00    -0.145 C  
HETATM   22  O   UNK     1      -6.909  10.721  66.097  1.00  0.00    -0.128 OA 
HETATM   23  O   UNK     1      -7.846   9.420  64.484  1.00  0.00    -0.111 OA 
HETATM   24  H1  UNK     1     -10.213  10.547  64.386  1.00  0.00     0.000 HD 
HETATM   25  H2  UNK     1     -11.228   9.804  65.510  1.00  0.00     0.000 HD 
ENDBRANCH  18  19
ENDBRANCH  17  18
ENDBRANCH  16  17
ENDBRANCH  15  16
ENDBRANCH  13  15
ENDBRANCH  10  11
ENDBRANCH   9  10
ENDBRANCH   8   9
ENDBRANCH   7   8
ENDBRANCH   6   7
ENDBRANCH   5   6
ENDBRANCH   4   5
ENDBRANCH   3   4
ENDBRANCH   2   3
TORSDOF 14
ENDMDL
MODEL      263
REMARK 921   NORMALIZED FREE ENERGY PREDICTED BY IDOCK:   -3.38 KCAL/MOL
REMARK 922        TOTAL FREE ENERGY PREDICTED BY IDOCK:   -7.07 KCAL/MOL
REMARK 923 INTER-LIGAND FREE ENERGY PREDICTED BY IDOCK:   -6.34 KCAL/MOL
REMARK 924 INTRA-LIGAND FREE ENERGY PREDICTED BY IDOCK:   -0.73 KCAL/MOL
REMARK 927      BINDING AFFINITY PREDICTED BY RF-SCORE:    0.00 PKD
ROOT
HETATM    1  C   UNK     1     -12.443  12.134  64.162  1.00  0.00    -0.396 C  
HETATM    2  O   UNK     1     -12.631  12.526  65.514  1.00  0.00    -0.642 OA 
ENDROOT
BRANCH   2   3
HETATM    3  C   UNK     1     -12.770  13.943  65.633  1.00  0.00    -0.495 C  
BRANCH   3   4
HETATM    4  C   UNK     1     -12.167  14.608  64.401  1.00  0.00    -0.452 C  
BRANCH   4   5
HETATM    5  O   UNK     1     -10.875  15.116  64.723  1.00  0.00    -0.403 OA 
BRANCH   5   6
HETATM    6  C   UNK     1     -10.930  16.034  65.813  1.00  0.00    -0.140 C  
BRANCH   6   7
HETATM    7  C   UNK     1     -10.385  17.382  65.359  1.00  0.00     0.055 C  
BRANCH   7   8
HETATM    8  C   UNK     1     -10.614  18.483  66.400  1.00  0.00    -0.365 C  
BRANCH   8   9
HETATM    9  C   UNK     1      -9.299  19.171  66.753  1.00  0.00    -0.364 C  
BRANCH   9  10
HETATM   10  C   UNK     1      -8.613  18.528  67.956  1.00  0.00    -0.310 C  
BRANCH  10  11
HETATM   11  C   UNK     1      -9.616  18.214  69.050  1.00  0.00    -0.154 C  
HETATM   12  O   UNK     1     -10.263  19.070  69.644  1.00  0.00     0.033 OA 
HETATM   13  N   UNK     1      -9.731  16.868  69.315  1.00  0.00    -0.171 N  
HETATM   14  H   UNK     1      -9.135  16.206  68.817  1.00  0.00     0.000 HD 
BRANCH  13  15
HETATM   15  C   UNK     1     -10.683  16.376  70.291  1.00  0.00    -0.134 C  
BRANCH  15  16
HETATM   16  C   UNK     1     -11.870  15.654  69.647  1.00  0.00    -0.377 C  
BRANCH  16  17
HETATM   17  C   UNK     1     -11.704  14.136  69.716  1.00  0.00    -0.370 C  
BRANCH  17  18
HETATM   18  C   UNK     1     -10.803  13.592  68.598  1.00  0.00    -0.281 C  
BRANCH  18  19
HETATM   19  C   UNK     1     -10.374  12.133  68.814  1.00  0.00    -0.147 C  
HETATM   20  N   UNK     1      -9.587  11.624  67.652  1.00  0.00    -0.178 NA 
HETATM   21  C   UNK     1     -11.606  11.233  68.999  1.00  0.00    -0.319 C  
HETATM   22  O   UNK     1     -12.250  11.121  70.024  1.00  0.00    -0.311 OA 
HETATM   23  O   UNK     1     -11.925  10.599  67.835  1.00  0.00    -0.420 OA 
HETATM   24  H1  UNK     1      -9.302  10.655  67.795  1.00  0.00     0.000 HD 
HETATM   25  H2  UNK     1      -8.787  12.224  67.449  1.00  0.00     0.000 HD 
ENDBRANCH  18  19
ENDBRANCH  17  18
ENDBRANCH  16  17
ENDBRANCH  15  16
ENDBRANCH  13  15
ENDBRANCH  10  11
ENDBRANCH   9  10
ENDBRANCH   8   9
ENDBRANCH   7   8
ENDBRANCH   6   7
ENDBRANCH   5   6
ENDBRANCH   4   5
ENDBRANCH   3   4
ENDBRANCH   2   3
TORSDOF 14
ENDMDL
MODEL      264
REMARK 921   NORMALIZED FREE ENERGY PREDICTED BY IDOCK:   -3.38 KCAL/MOL
REMARK 922        TOTAL FREE ENERGY PREDICTED BY IDOCK:   -7.07 KCAL/MOL
REMARK 923 INTER-LIGAND FREE ENERGY PREDICTED BY IDOCK:   -6.15 KCAL/MOL
REMARK 924 INTRA-LIGAND FREE ENERGY PREDICTED BY IDOCK:   -0.93 KCAL/MOL
REMARK 927      BINDING AFFINITY PREDICTED BY RF-SCORE:    0.00 PKD
ROOT
HETATM    1  C   UNK     1     -12.637  10.473  71.006  1.00  0.00    -0.400 C  
HETATM    2  O   UNK     1     -13.204  11.310  72.004  1.00  0.00    -0.506 OA 
ENDROOT
BRANCH   2   3
HETATM    3  C   UNK     1     -13.093  12.690  71.653  1.00  0.00    -0.323 C  
BRANCH   3   4
HETATM    4  C   UNK     1     -12.308  12.812  70.352  1.00  0.00    -0.247 C  
BRANCH   4   5
HETATM    5  O   UNK     1     -12.446  14.136  69.840  1.00  0.00    -0.341 OA 
BRANCH   5   6
HETATM    6  C   UNK     1     -11.667  14.324  68.660  1.00  0.00    -0.345 C  
BRANCH   6   7
HETATM    7  C   UNK     1     -12.122  13.331  67.598  1.00  0.00    -0.295 C  
BRANCH   7   8
HETATM    8  C   UNK     1     -12.141  13.947  66.195  1.00  0.00    -0.478 C  
BRANCH   8   9
HETATM    9  C   UNK     1     -10.860  13.604  65.441  1.00  0.00    -0.302 C  
BRANCH   9  10
HETATM   10  C   UNK     1     -11.023  12.377  64.547  1.00  0.00    -0.355 C  
BRANCH  10  11
HETATM   11  C   UNK     1      -9.853  11.424  64.713  1.00  0.00    -0.259 C  
HETATM   12  O   UNK     1      -9.637  10.478  63.963  1.00  0.00    -0.261 OA 
HETATM   13  N   UNK     1      -9.054  11.724  65.794  1.00  0.00    -0.394 N  
HETATM   14  H   UNK     1      -9.309  12.499  66.406  1.00  0.00     0.000 HD 
BRANCH  13  15
HETATM   15  C   UNK     1      -7.858  10.956  66.075  1.00  0.00    -0.121 C  
BRANCH  15  16
HETATM   16  C   UNK     1      -7.541  10.883  67.571  1.00  0.00    -0.101 C  
BRANCH  16  17
HETATM   17  C   UNK     1      -7.565   9.441  68.078  1.00  0.00    -0.083 C  
BRANCH  17  18
HETATM   18  C   UNK     1      -8.767   9.159  68.992  1.00  0.00    -0.135 C  
BRANCH  18  19
HETATM   19  C   UNK     1      -9.592   7.938  68.559  1.00  0.00    -0.150 C  
HETATM   20  N   UNK     1     -10.910   8.349  67.993  1.00  0.00    -0.470 NA 
HETATM   21  C   UNK     1      -9.845   7.010  69.758  1.00  0.00    -0.169 C  
HETATM   22  O   UNK     1      -9.044   6.218  70.218  1.00  0.00    -0.151 OA 
HETATM   23  O   UNK     1     -11.084   7.220  70.283  1.00  0.00    -0.259 OA 
HETATM   24  H1  UNK     1     -11.457   7.538  67.705  1.00  0.00     0.000 HD 
HETATM   25  H2  UNK     1     -10.798   9.015  67.229  1.00  0.00     0.000 HD 
ENDBRANCH  18  19
ENDBRANCH  17  18
ENDBRANCH  16  17
ENDBRANCH  15  16
ENDBRANCH  13  15
ENDBRANCH  10  11
ENDBRANCH   9  10
ENDBRANCH   8   9
ENDBRANCH   7   8
ENDBRANCH   6   7
ENDBRANCH   5   6
ENDBRANCH   4   5
ENDBRANCH   3   4
ENDBRANCH   2   3
TORSDOF 14
ENDMDL
MODEL      265
REMARK 921   NORMALIZED FREE ENERGY PREDICTED BY IDOCK:   -3.37 KCAL/MOL
REMARK 922        TOTAL FREE ENERGY PREDICTED BY IDOCK:   -7.06 KCAL/MOL
REMARK 923 INTER-LIGAND FREE ENERGY PREDICTED BY IDOCK:   -6.13 KCAL/MOL
REMARK 924 INTRA-LIGAND FREE ENERGY PREDICTED BY IDOCK:   -0.93 KCAL/MOL
REMARK 927      BINDING AFFINITY PREDICTED BY RF-SCORE:    0.00 PKD
ROOT
HETATM    1  C   UNK     1      -9.358   3.691  66.348  1.00  0.00    -0.182 C  
HETATM    2  O   UNK     1      -8.403   3.944  65.327  1.00  0.00    -0.104 OA 
ENDROOT
BRANCH   2   3
HETATM    3  C   UNK     1      -8.543   5.262  64.797  1.00  0.00    -0.136 C  
BRANCH   3   4
HETATM    4  C   UNK     1      -7.258   6.042  65.053  1.00  0.00    -0.066 C  
BRANCH   4   5
HETATM    5  O   UNK     1      -7.489   7.012  66.071  1.00  0.00    -0.076 OA 
BRANCH   5   6
HETATM    6  C   UNK     1      -8.789   7.586  65.963  1.00  0.00    -0.150 C  
BRANCH   6   7
HETATM    7  C   UNK     1      -9.177   8.201  67.302  1.00  0.00    -0.165 C  
BRANCH   7   8
HETATM    8  C   UNK     1     -10.524   8.928  67.240  1.00  0.00    -0.348 C  
BRANCH   8   9
HETATM    9  C   UNK     1     -10.317  10.425  67.023  1.00  0.00    -0.295 C  
BRANCH   9  10
HETATM   10  C   UNK     1     -10.247  11.197  68.338  1.00  0.00    -0.200 C  
BRANCH  10  11
HETATM   11  C   UNK     1      -9.216  12.308  68.261  1.00  0.00    -0.189 C  
HETATM   12  O   UNK     1      -8.005  12.113  68.283  1.00  0.00    -0.148 OA 
HETATM   13  N   UNK     1      -9.772  13.564  68.166  1.00  0.00    -0.228 N  
HETATM   14  H   UNK     1     -10.787  13.666  68.195  1.00  0.00     0.000 HD 
BRANCH  13  15
HETATM   15  C   UNK     1      -8.940  14.743  68.026  1.00  0.00    -0.174 C  
BRANCH  15  16
HETATM   16  C   UNK     1      -9.068  15.396  66.648  1.00  0.00    -0.310 C  
BRANCH  16  17
HETATM   17  C   UNK     1     -10.530  15.506  66.215  1.00  0.00    -0.313 C  
BRANCH  17  18
HETATM   18  C   UNK     1     -10.768  14.959  64.800  1.00  0.00    -0.365 C  
BRANCH  18  19
HETATM   19  C   UNK     1     -10.884  13.428  64.748  1.00  0.00    -0.375 C  
HETATM   20  N   UNK     1     -10.000  12.856  63.691  1.00  0.00    -0.709 NA 
HETATM   21  C   UNK     1     -12.333  13.010  64.449  1.00  0.00    -0.376 C  
HETATM   22  O   UNK     1     -13.240  12.980  65.259  1.00  0.00    -0.636 OA 
HETATM   23  O   UNK     1     -12.492  12.717  63.128  1.00  0.00    -0.586 OA 
HETATM   24  H1  UNK     1     -10.076  11.840  63.656  1.00  0.00     0.000 HD 
HETATM   25  H2  UNK     1      -9.031  13.154  63.811  1.00  0.00     0.000 HD 
ENDBRANCH  18  19
ENDBRANCH  17  18
ENDBRANCH  16  17
ENDBRANCH  15  16
ENDBRANCH  13  15
ENDBRANCH  10  11
ENDBRANCH   9  10
ENDBRANCH   8   9
ENDBRANCH   7   8
ENDBRANCH   6   7
ENDBRANCH   5   6
ENDBRANCH   4   5
ENDBRANCH   3   4
ENDBRANCH   2   3
TORSDOF 14
ENDMDL
MODEL      266
REMARK 921   NORMALIZED FREE ENERGY PREDICTED BY IDOCK:   -3.37 KCAL/MOL
REMARK 922        TOTAL FREE ENERGY PREDICTED BY IDOCK:   -7.06 KCAL/MOL
REMARK 923 INTER-LIGAND FREE ENERGY PREDICTED BY IDOCK:   -6.16 KCAL/MOL
REMARK 924 INTRA-LIGAND FREE ENERGY PREDICTED BY IDOCK:   -0.90 KCAL/MOL
REMARK 927      BINDING AFFINITY PREDICTED BY RF-SCORE:    0.00 PKD
ROOT
HETATM    1  C   UNK     1     -10.439   8.019  69.211  1.00  0.00    -0.215 C  
HETATM    2  O   UNK     1      -9.773   6.905  69.788  1.00  0.00    -0.164 OA 
ENDROOT
BRANCH   2   3
HETATM    3  C   UNK     1      -8.398   7.194  70.044  1.00  0.00    -0.138 C  
BRANCH   3   4
HETATM    4  C   UNK     1      -7.761   7.751  68.777  1.00  0.00    -0.113 C  
BRANCH   4   5
HETATM    5  O   UNK     1      -7.408   6.674  67.912  1.00  0.00    -0.091 OA 
BRANCH   5   6
HETATM    6  C   UNK     1      -7.948   6.854  66.605  1.00  0.00    -0.108 C  
BRANCH   6   7
HETATM    7  C   UNK     1      -7.762   8.306  66.183  1.00  0.00    -0.097 C  
BRANCH   7   8
HETATM    8  C   UNK     1      -8.853   8.775  65.214  1.00  0.00    -0.205 C  
BRANCH   8   9
HETATM    9  C   UNK     1      -8.279   9.754  64.193  1.00  0.00    -0.158 C  
BRANCH   9  10
HETATM   10  C   UNK     1      -9.307  10.167  63.143  1.00  0.00    -0.333 C  
BRANCH  10  11
HETATM   11  C   UNK     1     -10.002  11.456  63.542  1.00  0.00    -0.388 C  
HETATM   12  O   UNK     1      -9.451  12.361  64.160  1.00  0.00     0.080 OA 
HETATM   13  N   UNK     1     -11.319  11.512  63.144  1.00  0.00    -0.848 N  
HETATM   14  H   UNK     1     -11.734  10.709  62.669  1.00  0.00     0.000 HD 
BRANCH  13  15
HETATM   15  C   UNK     1     -12.125  12.692  63.388  1.00  0.00    -0.525 C  
BRANCH  15  16
HETATM   16  C   UNK     1     -12.867  12.634  64.726  1.00  0.00    -0.349 C  
BRANCH  16  17
HETATM   17  C   UNK     1     -12.202  13.528  65.772  1.00  0.00    -0.505 C  
BRANCH  17  18
HETATM   18  C   UNK     1     -11.849  12.766  67.058  1.00  0.00    -0.428 C  
BRANCH  18  19
HETATM   19  C   UNK     1     -10.774  13.461  67.906  1.00  0.00    -0.247 C  
HETATM   20  N   UNK     1     -10.113  12.498  68.836  1.00  0.00    -0.428 NA 
HETATM   21  C   UNK     1     -11.396  14.593  68.739  1.00  0.00    -0.281 C  
HETATM   22  O   UNK     1     -11.682  15.699  68.323  1.00  0.00    -0.349 OA 
HETATM   23  O   UNK     1     -11.637  14.182  70.016  1.00  0.00    -0.269 OA 
HETATM   24  H1  UNK     1      -9.399  12.960  69.399  1.00  0.00     0.000 HD 
HETATM   25  H2  UNK     1      -9.734  11.694  68.335  1.00  0.00     0.000 HD 
ENDBRANCH  18  19
ENDBRANCH  17  18
ENDBRANCH  16  17
ENDBRANCH  15  16
ENDBRANCH  13  15
ENDBRANCH  10  11
ENDBRANCH   9  10
ENDBRANCH   8   9
ENDBRANCH   7   8
ENDBRANCH   6   7
ENDBRANCH   5   6
ENDBRANCH   4   5
ENDBRANCH   3   4
ENDBRANCH   2   3
TORSDOF 14
ENDMDL
MODEL      267
REMARK 921   NORMALIZED FREE ENERGY PREDICTED BY IDOCK:   -3.36 KCAL/MOL
REMARK 922        TOTAL FREE ENERGY PREDICTED BY IDOCK:   -7.04 KCAL/MOL
REMARK 923 INTER-LIGAND FREE ENERGY PREDICTED BY IDOCK:   -6.40 KCAL/MOL
REMARK 924 INTRA-LIGAND FREE ENERGY PREDICTED BY IDOCK:   -0.65 KCAL/MOL
REMARK 927      BINDING AFFINITY PREDICTED BY RF-SCORE:    0.00 PKD
ROOT
HETATM    1  C   UNK     1     -13.194   6.991  71.472  1.00  0.00    -0.317 C  
HETATM    2  O   UNK     1     -11.896   6.414  71.473  1.00  0.00    -0.315 OA 
ENDROOT
BRANCH   2   3
HETATM    3  C   UNK     1     -11.171   6.758  70.292  1.00  0.00    -0.334 C  
BRANCH   3   4
HETATM    4  C   UNK     1     -10.231   7.916  70.603  1.00  0.00    -0.196 C  
BRANCH   4   5
HETATM    5  O   UNK     1     -10.597   9.047  69.815  1.00  0.00    -0.220 OA 
BRANCH   5   6
HETATM    6  C   UNK     1     -10.213   8.881  68.452  1.00  0.00    -0.199 C  
BRANCH   6   7
HETATM    7  C   UNK     1     -10.071  10.251  67.803  1.00  0.00    -0.213 C  
BRANCH   7   8
HETATM    8  C   UNK     1      -9.285  11.232  68.679  1.00  0.00    -0.163 C  
BRANCH   8   9
HETATM    9  C   UNK     1      -9.033  12.538  67.931  1.00  0.00    -0.188 C  
BRANCH   9  10
HETATM   10  C   UNK     1     -10.185  13.528  68.088  1.00  0.00    -0.249 C  
BRANCH  10  11
HETATM   11  C   UNK     1      -9.687  14.959  68.000  1.00  0.00    -0.212 C  
HETATM   12  O   UNK     1      -8.499  15.267  68.019  1.00  0.00    -0.143 OA 
HETATM   13  N   UNK     1     -10.701  15.884  67.900  1.00  0.00    -0.303 N  
HETATM   14  H   UNK     1     -11.671  15.571  67.932  1.00  0.00     0.000 HD 
BRANCH  13  15
HETATM   15  C   UNK     1     -10.412  17.297  67.750  1.00  0.00    -0.371 C  
BRANCH  15  16
HETATM   16  C   UNK     1     -10.464  17.759  66.291  1.00  0.00    -0.307 C  
BRANCH  16  17
HETATM   17  C   UNK     1     -10.195  19.259  66.170  1.00  0.00    -0.549 C  
BRANCH  17  18
HETATM   18  C   UNK     1      -9.571  19.849  67.443  1.00  0.00    -0.499 C  
BRANCH  18  19
HETATM   19  C   UNK     1      -8.160  20.415  67.226  1.00  0.00    -0.338 C  
HETATM   20  N   UNK     1      -7.848  20.547  65.773  1.00  0.00    -0.523 NA 
HETATM   21  C   UNK     1      -7.108  19.496  67.868  1.00  0.00    -0.260 C  
HETATM   22  O   UNK     1      -6.834  19.457  69.052  1.00  0.00    -0.312 OA 
HETATM   23  O   UNK     1      -6.542  18.679  66.936  1.00  0.00    -0.186 OA 
HETATM   24  H1  UNK     1      -6.911  20.924  65.629  1.00  0.00     0.000 HD 
HETATM   25  H2  UNK     1      -8.553  21.102  65.287  1.00  0.00     0.000 HD 
ENDBRANCH  18  19
ENDBRANCH  17  18
ENDBRANCH  16  17
ENDBRANCH  15  16
ENDBRANCH  13  15
ENDBRANCH  10  11
ENDBRANCH   9  10
ENDBRANCH   8   9
ENDBRANCH   7   8
ENDBRANCH   6   7
ENDBRANCH   5   6
ENDBRANCH   4   5
ENDBRANCH   3   4
ENDBRANCH   2   3
TORSDOF 14
ENDMDL
MODEL      268
REMARK 921   NORMALIZED FREE ENERGY PREDICTED BY IDOCK:   -3.36 KCAL/MOL
REMARK 922        TOTAL FREE ENERGY PREDICTED BY IDOCK:   -7.03 KCAL/MOL
REMARK 923 INTER-LIGAND FREE ENERGY PREDICTED BY IDOCK:   -5.87 KCAL/MOL
REMARK 924 INTRA-LIGAND FREE ENERGY PREDICTED BY IDOCK:   -1.16 KCAL/MOL
REMARK 927      BINDING AFFINITY PREDICTED BY RF-SCORE:    0.00 PKD
ROOT
HETATM    1  C   UNK     1     -12.009   9.769  71.200  1.00  0.00    -0.376 C  
HETATM    2  O   UNK     1     -12.853  10.425  70.265  1.00  0.00    -0.277 OA 
ENDROOT
BRANCH   2   3
HETATM    3  C   UNK     1     -12.099  11.216  69.346  1.00  0.00    -0.326 C  
BRANCH   3   4
HETATM    4  C   UNK     1     -11.661  12.502  70.036  1.00  0.00    -0.221 C  
BRANCH   4   5
HETATM    5  O   UNK     1     -11.443  13.514  69.056  1.00  0.00    -0.264 OA 
BRANCH   5   6
HETATM    6  C   UNK     1     -10.461  13.117  68.102  1.00  0.00    -0.248 C  
BRANCH   6   7
HETATM    7  C   UNK     1     -10.720  13.840  66.787  1.00  0.00    -0.276 C  
BRANCH   7   8
HETATM    8  C   UNK     1      -9.789  15.041  66.590  1.00  0.00    -0.266 C  
BRANCH   8   9
HETATM    9  C   UNK     1     -10.371  16.286  67.255  1.00  0.00    -0.285 C  
BRANCH   9  10
HETATM   10  C   UNK     1     -10.189  17.539  66.402  1.00  0.00    -0.354 C  
BRANCH  10  11
HETATM   11  C   UNK     1      -8.861  18.210  66.701  1.00  0.00    -0.275 C  
HETATM   12  O   UNK     1      -7.836  18.005  66.057  1.00  0.00    -0.450 OA 
HETATM   13  N   UNK     1      -8.914  19.075  67.771  1.00  0.00    -0.289 N  
HETATM   14  H   UNK     1      -9.785  19.172  68.294  1.00  0.00     0.000 HD 
BRANCH  13  15
HETATM   15  C   UNK     1      -7.754  19.848  68.166  1.00  0.00    -0.279 C  
BRANCH  15  16
HETATM   16  C   UNK     1      -7.109  19.330  69.454  1.00  0.00    -0.280 C  
BRANCH  16  17
HETATM   17  C   UNK     1      -6.038  18.281  69.160  1.00  0.00    -0.234 C  
BRANCH  17  18
HETATM   18  C   UNK     1      -6.327  16.937  69.844  1.00  0.00    -0.072 C  
BRANCH  18  19
HETATM   19  C   UNK     1      -7.034  15.924  68.930  1.00  0.00    -0.143 C  
HETATM   20  N   UNK     1      -7.934  15.027  69.713  1.00  0.00    -0.396 NA 
HETATM   21  C   UNK     1      -6.002  15.056  68.193  1.00  0.00    -0.138 C  
HETATM   22  O   UNK     1      -5.369  15.394  67.210  1.00  0.00    -0.338 OA 
HETATM   23  O   UNK     1      -5.844  13.854  68.814  1.00  0.00    -0.079 OA 
HETATM   24  H1  UNK     1      -8.403  14.355  69.106  1.00  0.00     0.000 HD 
HETATM   25  H2  UNK     1      -8.602  15.559  70.270  1.00  0.00     0.000 HD 
ENDBRANCH  18  19
ENDBRANCH  17  18
ENDBRANCH  16  17
ENDBRANCH  15  16
ENDBRANCH  13  15
ENDBRANCH  10  11
ENDBRANCH   9  10
ENDBRANCH   8   9
ENDBRANCH   7   8
ENDBRANCH   6   7
ENDBRANCH   5   6
ENDBRANCH   4   5
ENDBRANCH   3   4
ENDBRANCH   2   3
TORSDOF 14
ENDMDL
MODEL      269
REMARK 921   NORMALIZED FREE ENERGY PREDICTED BY IDOCK:   -3.34 KCAL/MOL
REMARK 922        TOTAL FREE ENERGY PREDICTED BY IDOCK:   -7.01 KCAL/MOL
REMARK 923 INTER-LIGAND FREE ENERGY PREDICTED BY IDOCK:   -6.64 KCAL/MOL
REMARK 924 INTRA-LIGAND FREE ENERGY PREDICTED BY IDOCK:   -0.37 KCAL/MOL
REMARK 927      BINDING AFFINITY PREDICTED BY RF-SCORE:    0.00 PKD
ROOT
HETATM    1  C   UNK     1      -8.268  18.562  67.162  1.00  0.00    -0.252 C  
HETATM    2  O   UNK     1      -8.960  18.904  65.970  1.00  0.00    -0.470 OA 
ENDROOT
BRANCH   2   3
HETATM    3  C   UNK     1     -10.341  18.551  66.048  1.00  0.00    -0.393 C  
BRANCH   3   4
HETATM    4  C   UNK     1     -10.469  17.033  66.063  1.00  0.00    -0.274 C  
BRANCH   4   5
HETATM    5  O   UNK     1     -10.597  16.555  64.726  1.00  0.00    -0.684 OA 
BRANCH   5   6
HETATM    6  C   UNK     1     -11.485  15.442  64.650  1.00  0.00    -0.337 C  
BRANCH   6   7
HETATM    7  C   UNK     1     -10.790  14.210  65.215  1.00  0.00    -0.356 C  
BRANCH   7   8
HETATM    8  C   UNK     1     -11.674  12.960  65.145  1.00  0.00    -0.385 C  
BRANCH   8   9
HETATM    9  C   UNK     1     -11.485  12.097  66.389  1.00  0.00    -0.430 C  
BRANCH   9  10
HETATM   10  C   UNK     1     -11.015  12.911  67.593  1.00  0.00    -0.274 C  
BRANCH  10  11
HETATM   11  C   UNK     1     -11.297  12.174  68.890  1.00  0.00    -0.283 C  
HETATM   12  O   UNK     1     -12.125  12.546  69.715  1.00  0.00    -0.287 OA 
HETATM   13  N   UNK     1     -10.529  11.044  69.054  1.00  0.00    -0.212 N  
HETATM   14  H   UNK     1      -9.827  10.808  68.352  1.00  0.00     0.000 HD 
BRANCH  13  15
HETATM   15  C   UNK     1     -10.702  10.183  70.207  1.00  0.00    -0.293 C  
BRANCH  15  16
HETATM   16  C   UNK     1      -9.459   9.342  70.509  1.00  0.00    -0.327 C  
BRANCH  16  17
HETATM   17  C   UNK     1      -9.229   8.279  69.435  1.00  0.00    -0.155 C  
BRANCH  17  18
HETATM   18  C   UNK     1     -10.447   8.099  68.516  1.00  0.00    -0.199 C  
BRANCH  18  19
HETATM   19  C   UNK     1     -10.119   8.276  67.026  1.00  0.00    -0.283 C  
HETATM   20  N   UNK     1     -10.014   6.956  66.336  1.00  0.00    -0.414 NA 
HETATM   21  C   UNK     1      -8.788   9.023  66.854  1.00  0.00    -0.116 C  
HETATM   22  O   UNK     1      -8.635  10.225  66.957  1.00  0.00    -0.129 OA 
HETATM   23  O   UNK     1      -7.768   8.151  66.613  1.00  0.00    -0.091 OA 
HETATM   24  H1  UNK     1      -9.797   7.073  65.347  1.00  0.00     0.000 HD 
HETATM   25  H2  UNK     1     -10.854   6.394  66.472  1.00  0.00     0.000 HD 
ENDBRANCH  18  19
ENDBRANCH  17  18
ENDBRANCH  16  17
ENDBRANCH  15  16
ENDBRANCH  13  15
ENDBRANCH  10  11
ENDBRANCH   9  10
ENDBRANCH   8   9
ENDBRANCH   7   8
ENDBRANCH   6   7
ENDBRANCH   5   6
ENDBRANCH   4   5
ENDBRANCH   3   4
ENDBRANCH   2   3
TORSDOF 14
ENDMDL
MODEL      270
REMARK 921   NORMALIZED FREE ENERGY PREDICTED BY IDOCK:   -3.34 KCAL/MOL
REMARK 922        TOTAL FREE ENERGY PREDICTED BY IDOCK:   -7.01 KCAL/MOL
REMARK 923 INTER-LIGAND FREE ENERGY PREDICTED BY IDOCK:   -6.36 KCAL/MOL
REMARK 924 INTRA-LIGAND FREE ENERGY PREDICTED BY IDOCK:   -0.64 KCAL/MOL
REMARK 927      BINDING AFFINITY PREDICTED BY RF-SCORE:    0.00 PKD
ROOT
HETATM    1  C   UNK     1      -8.452   5.899  73.724  1.00  0.00    -0.115 C  
HETATM    2  O   UNK     1      -7.925   7.189  73.451  1.00  0.00    -0.101 OA 
ENDROOT
BRANCH   2   3
HETATM    3  C   UNK     1      -8.935   8.195  73.536  1.00  0.00    -0.225 C  
BRANCH   3   4
HETATM    4  C   UNK     1      -9.992   7.931  72.470  1.00  0.00    -0.249 C  
BRANCH   4   5
HETATM    5  O   UNK     1     -10.397   9.169  71.889  1.00  0.00    -0.335 OA 
BRANCH   5   6
HETATM    6  C   UNK     1     -10.899   8.987  70.567  1.00  0.00    -0.251 C  
BRANCH   6   7
HETATM    7  C   UNK     1      -9.945   8.089  69.790  1.00  0.00    -0.191 C  
BRANCH   7   8
HETATM    8  C   UNK     1      -9.410   8.765  68.523  1.00  0.00    -0.142 C  
BRANCH   8   9
HETATM    9  C   UNK     1     -10.553   9.374  67.716  1.00  0.00    -0.317 C  
BRANCH   9  10
HETATM   10  C   UNK     1     -10.119  10.613  66.937  1.00  0.00    -0.260 C  
BRANCH  10  11
HETATM   11  C   UNK     1     -11.269  11.591  66.787  1.00  0.00    -0.285 C  
HETATM   12  O   UNK     1     -12.110  11.789  67.658  1.00  0.00    -0.598 OA 
HETATM   13  N   UNK     1     -11.280  12.239  65.572  1.00  0.00    -0.321 N  
HETATM   14  H   UNK     1     -10.578  12.002  64.871  1.00  0.00     0.000 HD 
BRANCH  13  15
HETATM   15  C   UNK     1     -12.274  13.251  65.273  1.00  0.00    -0.448 C  
BRANCH  15  16
HETATM   16  C   UNK     1     -11.655  14.625  65.005  1.00  0.00    -0.385 C  
BRANCH  16  17
HETATM   17  C   UNK     1     -10.991  15.193  66.260  1.00  0.00    -0.335 C  
BRANCH  17  18
HETATM   18  C   UNK     1      -9.460  15.235  66.147  1.00  0.00    -0.361 C  
BRANCH  18  19
HETATM   19  C   UNK     1      -8.818  16.373  66.956  1.00  0.00    -0.199 C  
HETATM   20  N   UNK     1      -9.646  17.613  66.893  1.00  0.00    -0.276 NA 
HETATM   21  C   UNK     1      -7.418  16.695  66.411  1.00  0.00    -0.225 C  
HETATM   22  O   UNK     1      -6.408  16.057  66.640  1.00  0.00    -0.214 OA 
HETATM   23  O   UNK     1      -7.454  17.776  65.583  1.00  0.00    -0.533 OA 
HETATM   24  H1  UNK     1      -9.220  18.368  67.430  1.00  0.00     0.000 HD 
HETATM   25  H2  UNK     1     -10.606  17.438  67.190  1.00  0.00     0.000 HD 
ENDBRANCH  18  19
ENDBRANCH  17  18
ENDBRANCH  16  17
ENDBRANCH  15  16
ENDBRANCH  13  15
ENDBRANCH  10  11
ENDBRANCH   9  10
ENDBRANCH   8   9
ENDBRANCH   7   8
ENDBRANCH   6   7
ENDBRANCH   5   6
ENDBRANCH   4   5
ENDBRANCH   3   4
ENDBRANCH   2   3
TORSDOF 14
ENDMDL
MODEL      271
REMARK 921   NORMALIZED FREE ENERGY PREDICTED BY IDOCK:   -3.34 KCAL/MOL
REMARK 922        TOTAL FREE ENERGY PREDICTED BY IDOCK:   -7.01 KCAL/MOL
REMARK 923 INTER-LIGAND FREE ENERGY PREDICTED BY IDOCK:   -5.75 KCAL/MOL
REMARK 924 INTRA-LIGAND FREE ENERGY PREDICTED BY IDOCK:   -1.26 KCAL/MOL
REMARK 927      BINDING AFFINITY PREDICTED BY RF-SCORE:    0.00 PKD
ROOT
HETATM    1  C   UNK     1     -12.484  12.444  63.358  1.00  0.00    -0.446 C  
HETATM    2  O   UNK     1     -13.136  12.514  64.618  1.00  0.00    -0.845 OA 
ENDROOT
BRANCH   2   3
HETATM    3  C   UNK     1     -12.908  13.771  65.255  1.00  0.00    -0.384 C  
BRANCH   3   4
HETATM    4  C   UNK     1     -11.418  13.929  65.529  1.00  0.00    -0.316 C  
BRANCH   4   5
HETATM    5  O   UNK     1     -11.148  13.589  66.888  1.00  0.00    -0.288 OA 
BRANCH   5   6
HETATM    6  C   UNK     1     -11.890  14.408  67.789  1.00  0.00    -0.368 C  
BRANCH   6   7
HETATM    7  C   UNK     1     -11.134  15.709  68.019  1.00  0.00    -0.335 C  
BRANCH   7   8
HETATM    8  C   UNK     1     -10.361  15.707  69.342  1.00  0.00    -0.260 C  
BRANCH   8   9
HETATM    9  C   UNK     1      -8.893  16.056  69.107  1.00  0.00    -0.245 C  
BRANCH   9  10
HETATM   10  C   UNK     1      -8.265  15.208  68.005  1.00  0.00    -0.144 C  
BRANCH  10  11
HETATM   11  C   UNK     1      -7.834  13.854  68.540  1.00  0.00    -0.139 C  
HETATM   12  O   UNK     1      -6.854  13.689  69.260  1.00  0.00    -0.108 OA 
HETATM   13  N   UNK     1      -8.652  12.822  68.137  1.00  0.00    -0.181 N  
HETATM   14  H   UNK     1      -9.428  13.016  67.504  1.00  0.00     0.000 HD 
BRANCH  13  15
HETATM   15  C   UNK     1      -8.428  11.466  68.597  1.00  0.00    -0.131 C  
BRANCH  15  16
HETATM   16  C   UNK     1      -9.721  10.652  68.690  1.00  0.00    -0.178 C  
BRANCH  16  17
HETATM   17  C   UNK     1      -9.535   9.242  68.130  1.00  0.00    -0.150 C  
BRANCH  17  18
HETATM   18  C   UNK     1     -10.116   9.090  66.717  1.00  0.00    -0.344 C  
BRANCH  18  19
HETATM   19  C   UNK     1      -9.142   9.509  65.606  1.00  0.00    -0.201 C  
HETATM   20  N   UNK     1      -9.840   9.628  64.292  1.00  0.00    -0.383 NA 
HETATM   21  C   UNK     1      -8.012   8.476  65.465  1.00  0.00    -0.110 C  
HETATM   22  O   UNK     1      -7.039   8.392  66.190  1.00  0.00    -0.074 OA 
HETATM   23  O   UNK     1      -8.263   7.617  64.437  1.00  0.00    -0.122 OA 
HETATM   24  H1  UNK     1      -9.193   9.907  63.555  1.00  0.00     0.000 HD 
HETATM   25  H2  UNK     1     -10.638  10.260  64.349  1.00  0.00     0.000 HD 
ENDBRANCH  18  19
ENDBRANCH  17  18
ENDBRANCH  16  17
ENDBRANCH  15  16
ENDBRANCH  13  15
ENDBRANCH  10  11
ENDBRANCH   9  10
ENDBRANCH   8   9
ENDBRANCH   7   8
ENDBRANCH   6   7
ENDBRANCH   5   6
ENDBRANCH   4   5
ENDBRANCH   3   4
ENDBRANCH   2   3
TORSDOF 14
ENDMDL
MODEL      272
REMARK 921   NORMALIZED FREE ENERGY PREDICTED BY IDOCK:   -3.32 KCAL/MOL
REMARK 922        TOTAL FREE ENERGY PREDICTED BY IDOCK:   -6.98 KCAL/MOL
REMARK 923 INTER-LIGAND FREE ENERGY PREDICTED BY IDOCK:   -6.02 KCAL/MOL
REMARK 924 INTRA-LIGAND FREE ENERGY PREDICTED BY IDOCK:   -0.96 KCAL/MOL
REMARK 927      BINDING AFFINITY PREDICTED BY RF-SCORE:    0.00 PKD
ROOT
HETATM    1  C   UNK     1      -9.228   8.482  66.145  1.00  0.00    -0.211 C  
HETATM    2  O   UNK     1     -10.482   8.177  66.739  1.00  0.00    -0.326 OA 
ENDROOT
BRANCH   2   3
HETATM    3  C   UNK     1     -10.575   6.794  67.080  1.00  0.00    -0.331 C  
BRANCH   3   4
HETATM    4  C   UNK     1     -11.276   6.658  68.426  1.00  0.00    -0.125 C  
BRANCH   4   5
HETATM    5  O   UNK     1     -10.503   5.818  69.280  1.00  0.00    -0.230 OA 
BRANCH   5   6
HETATM    6  C   UNK     1     -10.878   5.973  70.647  1.00  0.00    -0.297 C  
BRANCH   6   7
HETATM    7  C   UNK     1     -11.871   7.123  70.765  1.00  0.00    -0.367 C  
BRANCH   7   8
HETATM    8  C   UNK     1     -11.697   7.911  72.068  1.00  0.00    -0.360 C  
BRANCH   8   9
HETATM    9  C   UNK     1     -11.127   9.298  71.784  1.00  0.00    -0.398 C  
BRANCH   9  10
HETATM   10  C   UNK     1     -11.387   9.750  70.349  1.00  0.00    -0.362 C  
BRANCH  10  11
HETATM   11  C   UNK     1     -10.089  10.102  69.647  1.00  0.00    -0.234 C  
HETATM   12  O   UNK     1      -9.160   9.313  69.501  1.00  0.00    -0.145 OA 
HETATM   13  N   UNK     1     -10.050  11.399  69.189  1.00  0.00    -0.413 N  
HETATM   14  H   UNK     1     -10.837  12.021  69.377  1.00  0.00     0.000 HD 
BRANCH  13  15
HETATM   15  C   UNK     1      -8.911  11.896  68.443  1.00  0.00    -0.159 C  
BRANCH  15  16
HETATM   16  C   UNK     1      -9.162  13.275  67.828  1.00  0.00    -0.209 C  
BRANCH  16  17
HETATM   17  C   UNK     1      -9.670  14.269  68.873  1.00  0.00    -0.118 C  
BRANCH  17  18
HETATM   18  C   UNK     1      -9.995  15.643  68.268  1.00  0.00    -0.213 C  
BRANCH  18  19
HETATM   19  C   UNK     1      -9.062  16.039  67.114  1.00  0.00    -0.208 C  
HETATM   20  N   UNK     1      -7.746  16.524  67.624  1.00  0.00    -0.146 NA 
HETATM   21  C   UNK     1      -9.698  17.156  66.270  1.00  0.00    -0.278 C  
HETATM   22  O   UNK     1     -10.559  16.998  65.426  1.00  0.00    -0.601 OA 
HETATM   23  O   UNK     1      -9.202  18.375  66.623  1.00  0.00    -0.288 OA 
HETATM   24  H1  UNK     1      -7.127  16.786  66.858  1.00  0.00     0.000 HD 
HETATM   25  H2  UNK     1      -7.309  15.839  68.241  1.00  0.00     0.000 HD 
ENDBRANCH  18  19
ENDBRANCH  17  18
ENDBRANCH  16  17
ENDBRANCH  15  16
ENDBRANCH  13  15
ENDBRANCH  10  11
ENDBRANCH   9  10
ENDBRANCH   8   9
ENDBRANCH   7   8
ENDBRANCH   6   7
ENDBRANCH   5   6
ENDBRANCH   4   5
ENDBRANCH   3   4
ENDBRANCH   2   3
TORSDOF 14
ENDMDL
MODEL      273
REMARK 921   NORMALIZED FREE ENERGY PREDICTED BY IDOCK:   -3.32 KCAL/MOL
REMARK 922        TOTAL FREE ENERGY PREDICTED BY IDOCK:   -6.97 KCAL/MOL
REMARK 923 INTER-LIGAND FREE ENERGY PREDICTED BY IDOCK:   -6.10 KCAL/MOL
REMARK 924 INTRA-LIGAND FREE ENERGY PREDICTED BY IDOCK:   -0.87 KCAL/MOL
REMARK 927      BINDING AFFINITY PREDICTED BY RF-SCORE:    0.00 PKD
ROOT
HETATM    1  C   UNK     1     -10.066   7.854  72.981  1.00  0.00    -0.317 C  
HETATM    2  O   UNK     1     -10.283   6.896  71.955  1.00  0.00    -0.187 OA 
ENDROOT
BRANCH   2   3
HETATM    3  C   UNK     1     -10.983   7.465  70.849  1.00  0.00    -0.253 C  
BRANCH   3   4
HETATM    4  C   UNK     1     -11.450   6.346  69.925  1.00  0.00    -0.415 C  
BRANCH   4   5
HETATM    5  O   UNK     1     -10.476   6.138  68.905  1.00  0.00    -0.188 OA 
BRANCH   5   6
HETATM    6  C   UNK     1     -11.015   6.385  67.608  1.00  0.00    -0.349 C  
BRANCH   6   7
HETATM    7  C   UNK     1      -9.927   6.973  66.719  1.00  0.00    -0.266 C  
BRANCH   7   8
HETATM    8  C   UNK     1      -8.569   7.036  67.425  1.00  0.00    -0.121 C  
BRANCH   8   9
HETATM    9  C   UNK     1      -8.071   8.477  67.504  1.00  0.00    -0.107 C  
BRANCH   9  10
HETATM   10  C   UNK     1      -6.904   8.740  66.556  1.00  0.00    -0.072 C  
BRANCH  10  11
HETATM   11  C   UNK     1      -7.394   9.318  65.240  1.00  0.00    -0.094 C  
HETATM   12  O   UNK     1      -6.867   9.082  64.158  1.00  0.00    -0.086 OA 
HETATM   13  N   UNK     1      -8.491  10.138  65.379  1.00  0.00    -0.149 N  
HETATM   14  H   UNK     1      -8.859  10.330  66.311  1.00  0.00     0.000 HD 
BRANCH  13  15
HETATM   15  C   UNK     1      -9.130  10.734  64.222  1.00  0.00    -0.195 C  
BRANCH  15  16
HETATM   16  C   UNK     1     -10.620  11.006  64.445  1.00  0.00    -0.395 C  
BRANCH  16  17
HETATM   17  C   UNK     1     -11.117  12.149  63.561  1.00  0.00    -0.525 C  
BRANCH  17  18
HETATM   18  C   UNK     1     -11.300  13.459  64.341  1.00  0.00    -0.419 C  
BRANCH  18  19
HETATM   19  C   UNK     1     -12.082  13.287  65.652  1.00  0.00    -0.441 C  
HETATM   20  N   UNK     1     -13.405  13.975  65.586  1.00  0.00    -0.678 NA 
HETATM   21  C   UNK     1     -11.288  13.870  66.831  1.00  0.00    -0.328 C  
HETATM   22  O   UNK     1     -10.360  13.323  67.396  1.00  0.00    -0.240 OA 
HETATM   23  O   UNK     1     -11.728  15.121  67.143  1.00  0.00    -0.275 OA 
HETATM   24  H1  UNK     1     -13.924  13.860  66.456  1.00  0.00     0.000 HD 
HETATM   25  H2  UNK     1     -13.949  13.664  64.781  1.00  0.00     0.000 HD 
ENDBRANCH  18  19
ENDBRANCH  17  18
ENDBRANCH  16  17
ENDBRANCH  15  16
ENDBRANCH  13  15
ENDBRANCH  10  11
ENDBRANCH   9  10
ENDBRANCH   8   9
ENDBRANCH   7   8
ENDBRANCH   6   7
ENDBRANCH   5   6
ENDBRANCH   4   5
ENDBRANCH   3   4
ENDBRANCH   2   3
TORSDOF 14
ENDMDL
MODEL      274
REMARK 921   NORMALIZED FREE ENERGY PREDICTED BY IDOCK:   -3.32 KCAL/MOL
REMARK 922        TOTAL FREE ENERGY PREDICTED BY IDOCK:   -6.97 KCAL/MOL
REMARK 923 INTER-LIGAND FREE ENERGY PREDICTED BY IDOCK:   -6.53 KCAL/MOL
REMARK 924 INTRA-LIGAND FREE ENERGY PREDICTED BY IDOCK:   -0.43 KCAL/MOL
REMARK 927      BINDING AFFINITY PREDICTED BY RF-SCORE:    0.00 PKD
ROOT
HETATM    1  C   UNK     1      -8.196   5.349  67.007  1.00  0.00    -0.104 C  
HETATM    2  O   UNK     1      -8.678   5.783  65.744  1.00  0.00    -0.145 OA 
ENDROOT
BRANCH   2   3
HETATM    3  C   UNK     1      -7.606   6.068  64.845  1.00  0.00    -0.092 C  
BRANCH   3   4
HETATM    4  C   UNK     1      -7.388   7.576  64.790  1.00  0.00    -0.080 C  
BRANCH   4   5
HETATM    5  O   UNK     1      -8.630   8.224  64.523  1.00  0.00    -0.083 OA 
BRANCH   5   6
HETATM    6  C   UNK     1      -9.045   9.034  65.620  1.00  0.00    -0.223 C  
BRANCH   6   7
HETATM    7  C   UNK     1      -9.193  10.475  65.149  1.00  0.00    -0.243 C  
BRANCH   7   8
HETATM    8  C   UNK     1     -10.243  10.620  64.043  1.00  0.00    -0.334 C  
BRANCH   8   9
HETATM    9  C   UNK     1     -10.196  12.020  63.438  1.00  0.00    -0.457 C  
BRANCH   9  10
HETATM   10  C   UNK     1     -11.579  12.660  63.345  1.00  0.00    -0.536 C  
BRANCH  10  11
HETATM   11  C   UNK     1     -12.190  12.835  64.723  1.00  0.00    -0.459 C  
HETATM   12  O   UNK     1     -13.375  12.636  64.970  1.00  0.00    -0.651 OA 
HETATM   13  N   UNK     1     -11.283  13.242  65.675  1.00  0.00    -0.284 N  
HETATM   14  H   UNK     1     -10.318  13.432  65.400  1.00  0.00     0.000 HD 
BRANCH  13  15
HETATM   15  C   UNK     1     -11.675  13.407  67.061  1.00  0.00    -0.381 C  
BRANCH  15  16
HETATM   16  C   UNK     1     -12.227  14.803  67.357  1.00  0.00     0.015 C  
BRANCH  16  17
HETATM   17  C   UNK     1     -11.281  15.600  68.254  1.00  0.00    -0.353 C  
BRANCH  17  18
HETATM   18  C   UNK     1     -10.011  16.049  67.518  1.00  0.00    -0.240 C  
BRANCH  18  19
HETATM   19  C   UNK     1     -10.009  17.542  67.156  1.00  0.00    -0.314 C  
HETATM   20  N   UNK     1     -10.494  17.760  65.761  1.00  0.00    -0.583 NA 
HETATM   21  C   UNK     1      -8.591  18.122  67.275  1.00  0.00    -0.240 C  
HETATM   22  O   UNK     1      -8.046  18.446  68.313  1.00  0.00    -0.280 OA 
HETATM   23  O   UNK     1      -7.987  18.186  66.055  1.00  0.00    -0.468 OA 
HETATM   24  H1  UNK     1     -10.493  18.751  65.521  1.00  0.00     0.000 HD 
HETATM   25  H2  UNK     1     -11.411  17.339  65.613  1.00  0.00     0.000 HD 
ENDBRANCH  18  19
ENDBRANCH  17  18
ENDBRANCH  16  17
ENDBRANCH  15  16
ENDBRANCH  13  15
ENDBRANCH  10  11
ENDBRANCH   9  10
ENDBRANCH   8   9
ENDBRANCH   7   8
ENDBRANCH   6   7
ENDBRANCH   5   6
ENDBRANCH   4   5
ENDBRANCH   3   4
ENDBRANCH   2   3
TORSDOF 14
ENDMDL
MODEL      275
REMARK 921   NORMALIZED FREE ENERGY PREDICTED BY IDOCK:   -3.32 KCAL/MOL
REMARK 922        TOTAL FREE ENERGY PREDICTED BY IDOCK:   -6.97 KCAL/MOL
REMARK 923 INTER-LIGAND FREE ENERGY PREDICTED BY IDOCK:   -6.11 KCAL/MOL
REMARK 924 INTRA-LIGAND FREE ENERGY PREDICTED BY IDOCK:   -0.86 KCAL/MOL
REMARK 927      BINDING AFFINITY PREDICTED BY RF-SCORE:    0.00 PKD
ROOT
HETATM    1  C   UNK     1      -8.278   5.055  73.545  1.00  0.00    -0.107 C  
HETATM    2  O   UNK     1      -7.832   6.395  73.391  1.00  0.00    -0.097 OA 
ENDROOT
BRANCH   2   3
HETATM    3  C   UNK     1      -8.875   7.328  73.674  1.00  0.00    -0.183 C  
BRANCH   3   4
HETATM    4  C   UNK     1      -9.978   7.176  72.633  1.00  0.00    -0.177 C  
BRANCH   4   5
HETATM    5  O   UNK     1     -10.438   8.467  72.239  1.00  0.00    -0.292 OA 
BRANCH   5   6
HETATM    6  C   UNK     1     -11.098   8.425  70.976  1.00  0.00    -0.258 C  
BRANCH   6   7
HETATM    7  C   UNK     1     -10.347   7.475  70.052  1.00  0.00    -0.222 C  
BRANCH   7   8
HETATM    8  C   UNK     1      -9.799   8.185  68.809  1.00  0.00    -0.181 C  
BRANCH   8   9
HETATM    9  C   UNK     1     -10.896   8.995  68.125  1.00  0.00    -0.085 C  
BRANCH   9  10
HETATM   10  C   UNK     1     -10.342  10.195  67.362  1.00  0.00    -0.289 C  
BRANCH  10  11
HETATM   11  C   UNK     1     -11.371  11.308  67.279  1.00  0.00    -0.255 C  
HETATM   12  O   UNK     1     -12.256  11.477  68.111  1.00  0.00    -0.576 OA 
HETATM   13  N   UNK     1     -11.216  12.113  66.173  1.00  0.00    -0.323 N  
HETATM   14  H   UNK     1     -10.486  11.897  65.494  1.00  0.00     0.000 HD 
BRANCH  13  15
HETATM   15  C   UNK     1     -12.073  13.262  65.959  1.00  0.00    -0.436 C  
BRANCH  15  16
HETATM   16  C   UNK     1     -11.288  14.572  65.844  1.00  0.00    -0.341 C  
BRANCH  16  17
HETATM   17  C   UNK     1     -10.782  15.041  67.208  1.00  0.00    -0.298 C  
BRANCH  17  18
HETATM   18  C   UNK     1     -11.909  15.159  68.244  1.00  0.00    -0.275 C  
BRANCH  18  19
HETATM   19  C   UNK     1     -11.406  15.176  69.695  1.00  0.00    -0.283 C  
HETATM   20  N   UNK     1     -10.441  14.066  69.946  1.00  0.00    -0.201 NA 
HETATM   21  C   UNK     1     -12.583  15.029  70.673  1.00  0.00    -0.374 C  
HETATM   22  O   UNK     1     -13.344  15.919  71.001  1.00  0.00    -0.514 OA 
HETATM   23  O   UNK     1     -12.702  13.740  71.100  1.00  0.00    -0.337 OA 
HETATM   24  H1  UNK     1     -10.107  14.078  70.909  1.00  0.00     0.000 HD 
HETATM   25  H2  UNK     1      -9.668  14.084  69.281  1.00  0.00     0.000 HD 
ENDBRANCH  18  19
ENDBRANCH  17  18
ENDBRANCH  16  17
ENDBRANCH  15  16
ENDBRANCH  13  15
ENDBRANCH  10  11
ENDBRANCH   9  10
ENDBRANCH   8   9
ENDBRANCH   7   8
ENDBRANCH   6   7
ENDBRANCH   5   6
ENDBRANCH   4   5
ENDBRANCH   3   4
ENDBRANCH   2   3
TORSDOF 14
ENDMDL
MODEL      276
REMARK 921   NORMALIZED FREE ENERGY PREDICTED BY IDOCK:   -3.31 KCAL/MOL
REMARK 922        TOTAL FREE ENERGY PREDICTED BY IDOCK:   -6.95 KCAL/MOL
REMARK 923 INTER-LIGAND FREE ENERGY PREDICTED BY IDOCK:   -5.62 KCAL/MOL
REMARK 924 INTRA-LIGAND FREE ENERGY PREDICTED BY IDOCK:   -1.33 KCAL/MOL
REMARK 927      BINDING AFFINITY PREDICTED BY RF-SCORE:    0.00 PKD
ROOT
HETATM    1  C   UNK     1      -5.458   8.153  63.584  1.00  0.00    -0.053 C  
HETATM    2  O   UNK     1      -6.815   8.521  63.788  1.00  0.00    -0.082 OA 
ENDROOT
BRANCH   2   3
HETATM    3  C   UNK     1      -7.038   9.894  63.465  1.00  0.00    -0.120 C  
BRANCH   3   4
HETATM    4  C   UNK     1      -8.183  10.428  64.317  1.00  0.00    -0.121 C  
BRANCH   4   5
HETATM    5  O   UNK     1      -9.424   9.979  63.776  1.00  0.00    -0.280 OA 
BRANCH   5   6
HETATM    6  C   UNK     1     -10.416  11.002  63.825  1.00  0.00    -0.341 C  
BRANCH   6   7
HETATM    7  C   UNK     1      -9.790  12.281  64.365  1.00  0.00    -0.136 C  
BRANCH   7   8
HETATM    8  C   UNK     1     -10.712  13.494  64.204  1.00  0.00    -0.220 C  
BRANCH   8   9
HETATM    9  C   UNK     1     -12.160  13.110  64.495  1.00  0.00    -0.462 C  
BRANCH   9  10
HETATM   10  C   UNK     1     -12.768  13.946  65.618  1.00  0.00    -0.534 C  
BRANCH  10  11
HETATM   11  C   UNK     1     -11.980  13.779  66.905  1.00  0.00    -0.421 C  
HETATM   12  O   UNK     1     -11.493  14.717  67.529  1.00  0.00    -0.332 OA 
HETATM   13  N   UNK     1     -11.862  12.468  67.307  1.00  0.00    -0.359 N  
HETATM   14  H   UNK     1     -12.253  11.727  66.724  1.00  0.00     0.000 HD 
BRANCH  13  15
HETATM   15  C   UNK     1     -11.192  12.122  68.545  1.00  0.00    -0.260 C  
BRANCH  15  16
HETATM   16  C   UNK     1     -10.115  11.051  68.354  1.00  0.00    -0.194 C  
BRANCH  16  17
HETATM   17  C   UNK     1     -10.659   9.840  67.596  1.00  0.00    -0.333 C  
BRANCH  17  18
HETATM   18  C   UNK     1     -10.453   8.525  68.363  1.00  0.00    -0.215 C  
BRANCH  18  19
HETATM   19  C   UNK     1      -9.741   7.442  67.539  1.00  0.00    -0.148 C  
HETATM   20  N   UNK     1      -9.724   7.791  66.088  1.00  0.00    -0.449 NA 
HETATM   21  C   UNK     1     -10.449   6.088  67.706  1.00  0.00    -0.239 C  
HETATM   22  O   UNK     1     -10.328   5.342  68.659  1.00  0.00    -0.185 OA 
HETATM   23  O   UNK     1     -11.282   5.842  66.657  1.00  0.00    -0.135 OA 
HETATM   24  H1  UNK     1      -9.251   7.072  65.541  1.00  0.00     0.000 HD 
HETATM   25  H2  UNK     1      -9.316   8.712  65.929  1.00  0.00     0.000 HD 
ENDBRANCH  18  19
ENDBRANCH  17  18
ENDBRANCH  16  17
ENDBRANCH  15  16
ENDBRANCH  13  15
ENDBRANCH  10  11
ENDBRANCH   9  10
ENDBRANCH   8   9
ENDBRANCH   7   8
ENDBRANCH   6   7
ENDBRANCH   5   6
ENDBRANCH   4   5
ENDBRANCH   3   4
ENDBRANCH   2   3
TORSDOF 14
ENDMDL
MODEL      277
REMARK 921   NORMALIZED FREE ENERGY PREDICTED BY IDOCK:   -3.28 KCAL/MOL
REMARK 922        TOTAL FREE ENERGY PREDICTED BY IDOCK:   -6.90 KCAL/MOL
REMARK 923 INTER-LIGAND FREE ENERGY PREDICTED BY IDOCK:   -5.97 KCAL/MOL
REMARK 924 INTRA-LIGAND FREE ENERGY PREDICTED BY IDOCK:   -0.93 KCAL/MOL
REMARK 927      BINDING AFFINITY PREDICTED BY RF-SCORE:    0.00 PKD
ROOT
HETATM    1  C   UNK     1      -8.316   4.885  67.633  1.00  0.00    -0.105 C  
HETATM    2  O   UNK     1      -9.654   5.357  67.563  1.00  0.00    -0.117 OA 
ENDROOT
BRANCH   2   3
HETATM    3  C   UNK     1      -9.869   6.143  66.390  1.00  0.00    -0.092 C  
BRANCH   3   4
HETATM    4  C   UNK     1      -8.679   7.073  66.187  1.00  0.00    -0.145 C  
BRANCH   4   5
HETATM    5  O   UNK     1      -9.147   8.409  66.012  1.00  0.00    -0.174 OA 
BRANCH   5   6
HETATM    6  C   UNK     1      -8.430   9.084  64.981  1.00  0.00    -0.174 C  
BRANCH   6   7
HETATM    7  C   UNK     1      -9.213  10.319  64.554  1.00  0.00    -0.295 C  
BRANCH   7   8
HETATM    8  C   UNK     1     -10.032  10.914  65.705  1.00  0.00    -0.305 C  
BRANCH   8   9
HETATM    9  C   UNK     1     -11.101  11.862  65.168  1.00  0.00    -0.360 C  
BRANCH   9  10
HETATM   10  C   UNK     1     -11.976  12.439  66.278  1.00  0.00    -0.369 C  
BRANCH  10  11
HETATM   11  C   UNK     1     -11.560  13.859  66.614  1.00  0.00    -0.374 C  
HETATM   12  O   UNK     1     -11.340  14.720  65.769  1.00  0.00    -0.340 OA 
HETATM   13  N   UNK     1     -11.452  14.091  67.967  1.00  0.00    -0.293 N  
HETATM   14  H   UNK     1     -11.608  13.323  68.621  1.00  0.00     0.000 HD 
BRANCH  13  15
HETATM   15  C   UNK     1     -11.120  15.407  68.477  1.00  0.00    -0.295 C  
BRANCH  15  16
HETATM   16  C   UNK     1      -9.712  15.471  69.074  1.00  0.00    -0.237 C  
BRANCH  16  17
HETATM   17  C   UNK     1      -8.868  16.551  68.398  1.00  0.00    -0.218 C  
BRANCH  17  18
HETATM   18  C   UNK     1      -9.698  17.775  67.985  1.00  0.00    -0.304 C  
BRANCH  18  19
HETATM   19  C   UNK     1      -9.674  18.050  66.474  1.00  0.00    -0.338 C  
HETATM   20  N   UNK     1      -9.085  16.901  65.726  1.00  0.00    -0.510 NA 
HETATM   21  C   UNK     1      -8.843  19.307  66.171  1.00  0.00    -0.247 C  
HETATM   22  O   UNK     1      -9.226  20.454  66.302  1.00  0.00    -0.237 OA 
HETATM   23  O   UNK     1      -7.583  18.973  65.774  1.00  0.00    -0.439 OA 
HETATM   24  H1  UNK     1      -9.069  17.084  64.723  1.00  0.00     0.000 HD 
HETATM   25  H2  UNK     1      -9.566  16.028  65.940  1.00  0.00     0.000 HD 
ENDBRANCH  18  19
ENDBRANCH  17  18
ENDBRANCH  16  17
ENDBRANCH  15  16
ENDBRANCH  13  15
ENDBRANCH  10  11
ENDBRANCH   9  10
ENDBRANCH   8   9
ENDBRANCH   7   8
ENDBRANCH   6   7
ENDBRANCH   5   6
ENDBRANCH   4   5
ENDBRANCH   3   4
ENDBRANCH   2   3
TORSDOF 14
ENDMDL
MODEL      278
REMARK 921   NORMALIZED FREE ENERGY PREDICTED BY IDOCK:   -3.28 KCAL/MOL
REMARK 922        TOTAL FREE ENERGY PREDICTED BY IDOCK:   -6.89 KCAL/MOL
REMARK 923 INTER-LIGAND FREE ENERGY PREDICTED BY IDOCK:   -5.90 KCAL/MOL
REMARK 924 INTRA-LIGAND FREE ENERGY PREDICTED BY IDOCK:   -1.00 KCAL/MOL
REMARK 927      BINDING AFFINITY PREDICTED BY RF-SCORE:    0.00 PKD
ROOT
HETATM    1  C   UNK     1      -9.142  15.023  67.917  1.00  0.00    -0.180 C  
HETATM    2  O   UNK     1     -10.085  14.636  66.928  1.00  0.00    -0.249 OA 
ENDROOT
BRANCH   2   3
HETATM    3  C   UNK     1     -11.215  13.984  67.510  1.00  0.00    -0.309 C  
BRANCH   3   4
HETATM    4  C   UNK     1     -11.378  12.607  66.878  1.00  0.00    -0.320 C  
BRANCH   4   5
HETATM    5  O   UNK     1     -12.133  11.772  67.751  1.00  0.00    -0.595 OA 
BRANCH   5   6
HETATM    6  C   UNK     1     -11.708  11.910  69.105  1.00  0.00    -0.319 C  
BRANCH   6   7
HETATM    7  C   UNK     1     -11.765  10.550  69.788  1.00  0.00    -0.354 C  
BRANCH   7   8
HETATM    8  C   UNK     1     -12.756  10.526  70.957  1.00  0.00    -0.504 C  
BRANCH   8   9
HETATM    9  C   UNK     1     -12.432   9.381  71.912  1.00  0.00    -0.468 C  
BRANCH   9  10
HETATM   10  C   UNK     1     -12.167   8.069  71.177  1.00  0.00    -0.262 C  
BRANCH  10  11
HETATM   11  C   UNK     1     -10.859   7.447  71.631  1.00  0.00    -0.220 C  
HETATM   12  O   UNK     1     -10.742   6.789  72.660  1.00  0.00    -0.219 OA 
HETATM   13  N   UNK     1      -9.811   7.695  70.774  1.00  0.00    -0.178 N  
HETATM   14  H   UNK     1      -9.961   8.285  69.955  1.00  0.00     0.000 HD 
BRANCH  13  15
HETATM   15  C   UNK     1      -8.497   7.132  71.017  1.00  0.00    -0.129 C  
BRANCH  15  16
HETATM   16  C   UNK     1      -7.707   6.896  69.727  1.00  0.00    -0.113 C  
BRANCH  16  17
HETATM   17  C   UNK     1      -7.903   8.043  68.735  1.00  0.00    -0.114 C  
BRANCH  17  18
HETATM   18  C   UNK     1      -7.599   7.627  67.288  1.00  0.00    -0.108 C  
BRANCH  18  19
HETATM   19  C   UNK     1      -8.858   7.406  66.438  1.00  0.00    -0.156 C  
HETATM   20  N   UNK     1      -8.664   7.904  65.044  1.00  0.00    -0.381 NA 
HETATM   21  C   UNK     1     -10.059   8.142  67.054  1.00  0.00    -0.280 C  
HETATM   22  O   UNK     1     -10.715   7.751  68.001  1.00  0.00    -0.166 OA 
HETATM   23  O   UNK     1     -10.273   9.333  66.429  1.00  0.00    -0.273 OA 
HETATM   24  H1  UNK     1      -9.499   7.757  64.479  1.00  0.00     0.000 HD 
HETATM   25  H2  UNK     1      -7.839   7.488  64.610  1.00  0.00     0.000 HD 
ENDBRANCH  18  19
ENDBRANCH  17  18
ENDBRANCH  16  17
ENDBRANCH  15  16
ENDBRANCH  13  15
ENDBRANCH  10  11
ENDBRANCH   9  10
ENDBRANCH   8   9
ENDBRANCH   7   8
ENDBRANCH   6   7
ENDBRANCH   5   6
ENDBRANCH   4   5
ENDBRANCH   3   4
ENDBRANCH   2   3
TORSDOF 14
ENDMDL
MODEL      279
REMARK 921   NORMALIZED FREE ENERGY PREDICTED BY IDOCK:   -3.27 KCAL/MOL
REMARK 922        TOTAL FREE ENERGY PREDICTED BY IDOCK:   -6.89 KCAL/MOL
REMARK 923 INTER-LIGAND FREE ENERGY PREDICTED BY IDOCK:   -6.29 KCAL/MOL
REMARK 924 INTRA-LIGAND FREE ENERGY PREDICTED BY IDOCK:   -0.60 KCAL/MOL
REMARK 927      BINDING AFFINITY PREDICTED BY RF-SCORE:    0.00 PKD
ROOT
HETATM    1  C   UNK     1      -8.313  19.326  66.908  1.00  0.00    -0.283 C  
HETATM    2  O   UNK     1      -9.068  19.591  65.735  1.00  0.00    -0.378 OA 
ENDROOT
BRANCH   2   3
HETATM    3  C   UNK     1     -10.455  19.314  65.933  1.00  0.00    -0.451 C  
BRANCH   3   4
HETATM    4  C   UNK     1     -10.673  17.806  65.892  1.00  0.00    -0.116 C  
BRANCH   4   5
HETATM    5  O   UNK     1     -11.196  17.437  64.618  1.00  0.00    -0.992 OA 
BRANCH   5   6
HETATM    6  C   UNK     1     -11.466  16.039  64.548  1.00  0.00    -0.271 C  
BRANCH   6   7
HETATM    7  C   UNK     1     -10.324  15.276  65.205  1.00  0.00    -0.430 C  
BRANCH   7   8
HETATM    8  C   UNK     1     -10.308  13.796  64.808  1.00  0.00    -0.422 C  
BRANCH   8   9
HETATM    9  C   UNK     1     -10.149  12.911  66.042  1.00  0.00    -0.290 C  
BRANCH   9  10
HETATM   10  C   UNK     1     -10.968  11.626  65.944  1.00  0.00    -0.334 C  
BRANCH  10  11
HETATM   11  C   UNK     1     -10.073  10.403  66.032  1.00  0.00    -0.243 C  
HETATM   12  O   UNK     1      -9.687   9.772  65.054  1.00  0.00    -0.298 OA 
HETATM   13  N   UNK     1      -9.735  10.067  67.324  1.00  0.00    -0.162 N  
HETATM   14  H   UNK     1     -10.121  10.605  68.100  1.00  0.00     0.000 HD 
BRANCH  13  15
HETATM   15  C   UNK     1      -8.840   8.960  67.599  1.00  0.00    -0.134 C  
BRANCH  15  16
HETATM   16  C   UNK     1      -9.292   8.118  68.795  1.00  0.00    -0.143 C  
BRANCH  16  17
HETATM   17  C   UNK     1     -10.626   7.426  68.520  1.00  0.00    -0.188 C  
BRANCH  17  18
HETATM   18  C   UNK     1     -10.728   6.896  67.082  1.00  0.00    -0.436 C  
BRANCH  18  19
HETATM   19  C   UNK     1     -10.226   5.452  66.925  1.00  0.00    -0.240 C  
HETATM   20  N   UNK     1     -10.053   4.793  68.253  1.00  0.00    -0.087 NA 
HETATM   21  C   UNK     1      -8.876   5.430  66.191  1.00  0.00    -0.139 C  
HETATM   22  O   UNK     1      -8.725   5.538  64.988  1.00  0.00    -0.151 OA 
HETATM   23  O   UNK     1      -7.844   5.320  67.073  1.00  0.00    -0.099 OA 
HETATM   24  H1  UNK     1      -9.720   3.835  68.149  1.00  0.00     0.000 HD 
HETATM   25  H2  UNK     1     -10.909   4.835  68.806  1.00  0.00     0.000 HD 
ENDBRANCH  18  19
ENDBRANCH  17  18
ENDBRANCH  16  17
ENDBRANCH  15  16
ENDBRANCH  13  15
ENDBRANCH  10  11
ENDBRANCH   9  10
ENDBRANCH   8   9
ENDBRANCH   7   8
ENDBRANCH   6   7
ENDBRANCH   5   6
ENDBRANCH   4   5
ENDBRANCH   3   4
ENDBRANCH   2   3
TORSDOF 14
ENDMDL
MODEL      280
REMARK 921   NORMALIZED FREE ENERGY PREDICTED BY IDOCK:   -3.27 KCAL/MOL
REMARK 922        TOTAL FREE ENERGY PREDICTED BY IDOCK:   -6.88 KCAL/MOL
REMARK 923 INTER-LIGAND FREE ENERGY PREDICTED BY IDOCK:   -6.36 KCAL/MOL
REMARK 924 INTRA-LIGAND FREE ENERGY PREDICTED BY IDOCK:   -0.52 KCAL/MOL
REMARK 927      BINDING AFFINITY PREDICTED BY RF-SCORE:    0.00 PKD
ROOT
HETATM    1  C   UNK     1     -10.655   3.943  64.625  1.00  0.00    -0.154 C  
HETATM    2  O   UNK     1      -9.286   4.143  64.946  1.00  0.00    -0.138 OA 
ENDROOT
BRANCH   2   3
HETATM    3  C   UNK     1      -9.135   4.984  66.090  1.00  0.00    -0.138 C  
BRANCH   3   4
HETATM    4  C   UNK     1     -10.071   4.501  67.192  1.00  0.00    -0.112 C  
BRANCH   4   5
HETATM    5  O   UNK     1      -9.456   4.710  68.461  1.00  0.00    -0.130 OA 
BRANCH   5   6
HETATM    6  C   UNK     1     -10.314   5.425  69.347  1.00  0.00    -0.269 C  
BRANCH   6   7
HETATM    7  C   UNK     1      -9.564   5.718  70.640  1.00  0.00    -0.214 C  
BRANCH   7   8
HETATM    8  C   UNK     1     -10.460   6.372  71.698  1.00  0.00    -0.251 C  
BRANCH   8   9
HETATM    9  C   UNK     1     -11.242   7.535  71.093  1.00  0.00    -0.277 C  
BRANCH   9  10
HETATM   10  C   UNK     1     -11.227   8.772  71.987  1.00  0.00    -0.443 C  
BRANCH  10  11
HETATM   11  C   UNK     1     -12.074   9.882  71.392  1.00  0.00    -0.413 C  
HETATM   12  O   UNK     1     -13.058  10.358  71.950  1.00  0.00    -0.441 OA 
HETATM   13  N   UNK     1     -11.632  10.306  70.160  1.00  0.00    -0.280 N  
HETATM   14  H   UNK     1     -10.831   9.843  69.728  1.00  0.00     0.000 HD 
BRANCH  13  15
HETATM   15  C   UNK     1     -12.284  11.398  69.465  1.00  0.00    -0.235 C  
BRANCH  15  16
HETATM   16  C   UNK     1     -11.291  12.422  68.910  1.00  0.00    -0.342 C  
BRANCH  16  17
HETATM   17  C   UNK     1     -11.682  12.873  67.502  1.00  0.00    -0.422 C  
BRANCH  17  18
HETATM   18  C   UNK     1     -10.634  12.483  66.449  1.00  0.00    -0.271 C  
BRANCH  18  19
HETATM   19  C   UNK     1     -11.216  11.682  65.274  1.00  0.00    -0.199 C  
HETATM   20  N   UNK     1     -10.373  10.491  64.963  1.00  0.00    -0.295 NA 
HETATM   21  C   UNK     1     -11.302  12.560  64.016  1.00  0.00    -0.405 C  
HETATM   22  O   UNK     1     -12.166  13.386  63.789  1.00  0.00    -0.581 OA 
HETATM   23  O   UNK     1     -10.243  12.331  63.190  1.00  0.00    -0.347 OA 
HETATM   24  H1  UNK     1     -10.759   9.959  64.184  1.00  0.00     0.000 HD 
HETATM   25  H2  UNK     1     -10.236   9.904  65.786  1.00  0.00     0.000 HD 
ENDBRANCH  18  19
ENDBRANCH  17  18
ENDBRANCH  16  17
ENDBRANCH  15  16
ENDBRANCH  13  15
ENDBRANCH  10  11
ENDBRANCH   9  10
ENDBRANCH   8   9
ENDBRANCH   7   8
ENDBRANCH   6   7
ENDBRANCH   5   6
ENDBRANCH   4   5
ENDBRANCH   3   4
ENDBRANCH   2   3
TORSDOF 14
ENDMDL
MODEL      281
REMARK 921   NORMALIZED FREE ENERGY PREDICTED BY IDOCK:   -3.25 KCAL/MOL
REMARK 922        TOTAL FREE ENERGY PREDICTED BY IDOCK:   -6.84 KCAL/MOL
REMARK 923 INTER-LIGAND FREE ENERGY PREDICTED BY IDOCK:   -5.73 KCAL/MOL
REMARK 924 INTRA-LIGAND FREE ENERGY PREDICTED BY IDOCK:   -1.11 KCAL/MOL
REMARK 927      BINDING AFFINITY PREDICTED BY RF-SCORE:    0.00 PKD
ROOT
HETATM    1  C   UNK     1     -11.391  12.452  68.707  1.00  0.00    -0.293 C  
HETATM    2  O   UNK     1     -10.179  13.193  68.707  1.00  0.00    -0.200 OA 
ENDROOT
BRANCH   2   3
HETATM    3  C   UNK     1     -10.004  13.909  67.484  1.00  0.00    -0.240 C  
BRANCH   3   4
HETATM    4  C   UNK     1      -8.574  13.715  66.992  1.00  0.00    -0.159 C  
BRANCH   4   5
HETATM    5  O   UNK     1      -8.170  12.369  67.231  1.00  0.00    -0.169 OA 
BRANCH   5   6
HETATM    6  C   UNK     1      -6.801  12.294  67.620  1.00  0.00    -0.124 C  
BRANCH   6   7
HETATM    7  C   UNK     1      -6.704  12.426  69.134  1.00  0.00    -0.090 C  
BRANCH   7   8
HETATM    8  C   UNK     1      -6.494  11.074  69.824  1.00  0.00    -0.137 C  
BRANCH   8   9
HETATM    9  C   UNK     1      -7.764  10.230  69.750  1.00  0.00    -0.159 C  
BRANCH   9  10
HETATM   10  C   UNK     1      -7.504   8.839  69.178  1.00  0.00    -0.076 C  
BRANCH  10  11
HETATM   11  C   UNK     1      -8.132   8.690  67.804  1.00  0.00    -0.107 C  
HETATM   12  O   UNK     1      -7.587   8.114  66.868  1.00  0.00    -0.092 OA 
HETATM   13  N   UNK     1      -9.376   9.271  67.707  1.00  0.00    -0.129 N  
HETATM   14  H   UNK     1      -9.759   9.773  68.509  1.00  0.00     0.000 HD 
BRANCH  13  15
HETATM   15  C   UNK     1     -10.151   9.179  66.486  1.00  0.00    -0.287 C  
BRANCH  15  16
HETATM   16  C   UNK     1     -10.558  10.550  65.940  1.00  0.00    -0.149 C  
BRANCH  16  17
HETATM   17  C   UNK     1     -10.004  10.779  64.534  1.00  0.00    -0.395 C  
BRANCH  17  18
HETATM   18  C   UNK     1     -10.580  12.039  63.873  1.00  0.00    -0.447 C  
BRANCH  18  19
HETATM   19  C   UNK     1     -12.062  12.277  64.196  1.00  0.00    -0.436 C  
HETATM   20  N   UNK     1     -12.943  11.745  63.115  1.00  0.00    -0.843 NA 
HETATM   21  C   UNK     1     -12.342  13.780  64.357  1.00  0.00    -0.344 C  
HETATM   22  O   UNK     1     -12.093  14.442  65.346  1.00  0.00    -0.374 OA 
HETATM   23  O   UNK     1     -12.871  14.301  63.214  1.00  0.00    -0.483 OA 
HETATM   24  H1  UNK     1     -13.927  11.903  63.330  1.00  0.00     0.000 HD 
HETATM   25  H2  UNK     1     -12.753  10.760  62.928  1.00  0.00     0.000 HD 
ENDBRANCH  18  19
ENDBRANCH  17  18
ENDBRANCH  16  17
ENDBRANCH  15  16
ENDBRANCH  13  15
ENDBRANCH  10  11
ENDBRANCH   9  10
ENDBRANCH   8   9
ENDBRANCH   7   8
ENDBRANCH   6   7
ENDBRANCH   5   6
ENDBRANCH   4   5
ENDBRANCH   3   4
ENDBRANCH   2   3
TORSDOF 14
ENDMDL
MODEL      282
REMARK 921   NORMALIZED FREE ENERGY PREDICTED BY IDOCK:   -3.25 KCAL/MOL
REMARK 922        TOTAL FREE ENERGY PREDICTED BY IDOCK:   -6.84 KCAL/MOL
REMARK 923 INTER-LIGAND FREE ENERGY PREDICTED BY IDOCK:   -5.68 KCAL/MOL
REMARK 924 INTRA-LIGAND FREE ENERGY PREDICTED BY IDOCK:   -1.17 KCAL/MOL
REMARK 927      BINDING AFFINITY PREDICTED BY RF-SCORE:    0.00 PKD
ROOT
HETATM    1  C   UNK     1     -11.790  14.291  67.388  1.00  0.00    -0.409 C  
HETATM    2  O   UNK     1     -12.106  14.705  66.067  1.00  0.00    -0.317 OA 
ENDROOT
BRANCH   2   3
HETATM    3  C   UNK     1     -12.311  13.586  65.204  1.00  0.00    -0.449 C  
BRANCH   3   4
HETATM    4  C   UNK     1     -11.952  12.307  65.951  1.00  0.00    -0.287 C  
BRANCH   4   5
HETATM    5  O   UNK     1     -11.394  11.366  65.036  1.00  0.00    -0.161 OA 
BRANCH   5   6
HETATM    6  C   UNK     1     -11.203  11.940  63.745  1.00  0.00    -0.440 C  
BRANCH   6   7
HETATM    7  C   UNK     1      -9.727  11.863  63.377  1.00  0.00    -0.296 C  
BRANCH   7   8
HETATM    8  C   UNK     1      -9.387  10.585  62.603  1.00  0.00    -0.337 C  
BRANCH   8   9
HETATM    9  C   UNK     1      -8.974   9.470  63.560  1.00  0.00    -0.205 C  
BRANCH   9  10
HETATM   10  C   UNK     1      -8.046   9.968  64.665  1.00  0.00    -0.155 C  
BRANCH  10  11
HETATM   11  C   UNK     1      -8.707   9.845  66.026  1.00  0.00    -0.137 C  
HETATM   12  O   UNK     1      -8.303  10.420  67.032  1.00  0.00    -0.125 OA 
HETATM   13  N   UNK     1      -9.808   9.019  66.026  1.00  0.00    -0.379 N  
HETATM   14  H   UNK     1     -10.072   8.535  65.167  1.00  0.00     0.000 HD 
BRANCH  13  15
HETATM   15  C   UNK     1     -10.600   8.827  67.225  1.00  0.00    -0.233 C  
BRANCH  15  16
HETATM   16  C   UNK     1     -10.338   7.476  67.895  1.00  0.00    -0.266 C  
BRANCH  16  17
HETATM   17  C   UNK     1      -9.301   7.597  69.012  1.00  0.00    -0.146 C  
BRANCH  17  18
HETATM   18  C   UNK     1      -9.906   7.361  70.403  1.00  0.00    -0.183 C  
BRANCH  18  19
HETATM   19  C   UNK     1      -9.761   8.565  71.346  1.00  0.00    -0.220 C  
HETATM   20  N   UNK     1     -10.073   9.843  70.641  1.00  0.00    -0.365 NA 
HETATM   21  C   UNK     1      -8.328   8.648  71.894  1.00  0.00    -0.124 C  
HETATM   22  O   UNK     1      -7.879   7.974  72.802  1.00  0.00    -0.113 OA 
HETATM   23  O   UNK     1      -7.591   9.555  71.193  1.00  0.00    -0.328 OA 
HETATM   24  H1  UNK     1      -9.978  10.642  71.267  1.00  0.00     0.000 HD 
HETATM   25  H2  UNK     1     -10.996   9.815  70.207  1.00  0.00     0.000 HD 
ENDBRANCH  18  19
ENDBRANCH  17  18
ENDBRANCH  16  17
ENDBRANCH  15  16
ENDBRANCH  13  15
ENDBRANCH  10  11
ENDBRANCH   9  10
ENDBRANCH   8   9
ENDBRANCH   7   8
ENDBRANCH   6   7
ENDBRANCH   5   6
ENDBRANCH   4   5
ENDBRANCH   3   4
ENDBRANCH   2   3
TORSDOF 14
ENDMDL
MODEL      283
REMARK 921   NORMALIZED FREE ENERGY PREDICTED BY IDOCK:   -3.24 KCAL/MOL
REMARK 922        TOTAL FREE ENERGY PREDICTED BY IDOCK:   -6.83 KCAL/MOL
REMARK 923 INTER-LIGAND FREE ENERGY PREDICTED BY IDOCK:   -6.27 KCAL/MOL
REMARK 924 INTRA-LIGAND FREE ENERGY PREDICTED BY IDOCK:   -0.55 KCAL/MOL
REMARK 927      BINDING AFFINITY PREDICTED BY RF-SCORE:    0.00 PKD
ROOT
HETATM    1  C   UNK     1      -9.951  20.311  66.643  1.00  0.00    -0.426 C  
HETATM    2  O   UNK     1      -9.220  19.526  67.575  1.00  0.00    -0.300 OA 
ENDROOT
BRANCH   2   3
HETATM    3  C   UNK     1     -10.024  18.481  68.122  1.00  0.00    -0.361 C  
BRANCH   3   4
HETATM    4  C   UNK     1      -9.938  17.259  67.216  1.00  0.00    -0.283 C  
BRANCH   4   5
HETATM    5  O   UNK     1      -9.147  16.256  67.849  1.00  0.00    -0.194 OA 
BRANCH   5   6
HETATM    6  C   UNK     1      -9.959  15.252  68.454  1.00  0.00    -0.220 C  
BRANCH   6   7
HETATM    7  C   UNK     1      -9.797  15.323  69.966  1.00  0.00    -0.072 C  
BRANCH   7   8
HETATM    8  C   UNK     1     -10.966  16.046  70.644  1.00  0.00    -0.273 C  
BRANCH   8   9
HETATM    9  C   UNK     1     -12.297  15.571  70.068  1.00  0.00    -0.345 C  
BRANCH   9  10
HETATM   10  C   UNK     1     -13.378  15.437  71.138  1.00  0.00    -0.580 C  
BRANCH  10  11
HETATM   11  C   UNK     1     -13.360  14.051  71.756  1.00  0.00    -0.386 C  
HETATM   12  O   UNK     1     -14.070  13.720  72.701  1.00  0.00    -0.715 OA 
HETATM   13  N   UNK     1     -12.465  13.196  71.154  1.00  0.00    -0.341 N  
HETATM   14  H   UNK     1     -11.872  13.541  70.399  1.00  0.00     0.000 HD 
BRANCH  13  15
HETATM   15  C   UNK     1     -12.352  11.813  71.575  1.00  0.00     0.050 C  
BRANCH  15  16
HETATM   16  C   UNK     1     -12.463  10.829  70.409  1.00  0.00    -0.430 C  
BRANCH  16  17
HETATM   17  C   UNK     1     -11.384  11.085  69.356  1.00  0.00    -0.352 C  
BRANCH  17  18
HETATM   18  C   UNK     1     -11.233   9.916  68.372  1.00  0.00    -0.134 C  
BRANCH  18  19
HETATM   19  C   UNK     1      -9.954   9.094  68.591  1.00  0.00    -0.170 C  
HETATM   20  N   UNK     1      -9.717   8.153  67.456  1.00  0.00    -0.153 NA 
HETATM   21  C   UNK     1     -10.058   8.276  69.888  1.00  0.00    -0.195 C  
HETATM   22  O   UNK     1      -9.886   8.710  71.011  1.00  0.00    -0.182 OA 
HETATM   23  O   UNK     1     -10.420   6.989  69.624  1.00  0.00    -0.208 OA 
HETATM   24  H1  UNK     1      -8.868   7.608  67.601  1.00  0.00     0.000 HD 
HETATM   25  H2  UNK     1      -9.700   8.643  66.561  1.00  0.00     0.000 HD 
ENDBRANCH  18  19
ENDBRANCH  17  18
ENDBRANCH  16  17
ENDBRANCH  15  16
ENDBRANCH  13  15
ENDBRANCH  10  11
ENDBRANCH   9  10
ENDBRANCH   8   9
ENDBRANCH   7   8
ENDBRANCH   6   7
ENDBRANCH   5   6
ENDBRANCH   4   5
ENDBRANCH   3   4
ENDBRANCH   2   3
TORSDOF 14
ENDMDL
MODEL      284
REMARK 921   NORMALIZED FREE ENERGY PREDICTED BY IDOCK:   -3.24 KCAL/MOL
REMARK 922        TOTAL FREE ENERGY PREDICTED BY IDOCK:   -6.82 KCAL/MOL
REMARK 923 INTER-LIGAND FREE ENERGY PREDICTED BY IDOCK:   -6.11 KCAL/MOL
REMARK 924 INTRA-LIGAND FREE ENERGY PREDICTED BY IDOCK:   -0.71 KCAL/MOL
REMARK 927      BINDING AFFINITY PREDICTED BY RF-SCORE:    0.00 PKD
ROOT
HETATM    1  C   UNK     1     -14.029   7.775  71.594  1.00  0.00    -0.402 C  
HETATM    2  O   UNK     1     -12.724   7.640  72.137  1.00  0.00    -0.258 OA 
ENDROOT
BRANCH   2   3
HETATM    3  C   UNK     1     -12.216   6.318  71.956  1.00  0.00    -0.215 C  
BRANCH   3   4
HETATM    4  C   UNK     1     -11.001   6.122  72.854  1.00  0.00    -0.262 C  
BRANCH   4   5
HETATM    5  O   UNK     1      -9.821   6.480  72.138  1.00  0.00    -0.160 OA 
BRANCH   5   6
HETATM    6  C   UNK     1      -9.022   7.404  72.874  1.00  0.00    -0.141 C  
BRANCH   6   7
HETATM    7  C   UNK     1      -8.585   8.533  71.950  1.00  0.00    -0.254 C  
BRANCH   7   8
HETATM    8  C   UNK     1      -9.187   8.402  70.547  1.00  0.00    -0.165 C  
BRANCH   8   9
HETATM    9  C   UNK     1     -10.106   9.582  70.245  1.00  0.00    -0.314 C  
BRANCH   9  10
HETATM   10  C   UNK     1     -10.430   9.701  68.758  1.00  0.00    -0.238 C  
BRANCH  10  11
HETATM   11  C   UNK     1     -10.232  11.124  68.270  1.00  0.00    -0.182 C  
HETATM   12  O   UNK     1      -9.130  11.642  68.116  1.00  0.00    -0.170 OA 
HETATM   13  N   UNK     1     -11.413  11.785  68.019  1.00  0.00    -0.298 N  
HETATM   14  H   UNK     1     -12.300  11.315  68.207  1.00  0.00     0.000 HD 
BRANCH  13  15
HETATM   15  C   UNK     1     -11.418  13.135  67.493  1.00  0.00    -0.328 C  
BRANCH  15  16
HETATM   16  C   UNK     1     -11.653  13.179  65.981  1.00  0.00    -0.393 C  
BRANCH  16  17
HETATM   17  C   UNK     1     -10.786  14.245  65.311  1.00  0.00    -0.363 C  
BRANCH  17  18
HETATM   18  C   UNK     1      -9.894  14.992  66.313  1.00  0.00    -0.307 C  
BRANCH  18  19
HETATM   19  C   UNK     1     -10.367  16.425  66.603  1.00  0.00    -0.292 C  
HETATM   20  N   UNK     1     -10.630  17.173  65.339  1.00  0.00    -0.626 NA 
HETATM   21  C   UNK     1      -9.303  17.188  67.408  1.00  0.00    -0.234 C  
HETATM   22  O   UNK     1      -9.115  17.084  68.605  1.00  0.00    -0.260 OA 
HETATM   23  O   UNK     1      -8.549  17.978  66.593  1.00  0.00    -0.248 OA 
HETATM   24  H1  UNK     1     -10.944  18.124  65.531  1.00  0.00     0.000 HD 
HETATM   25  H2  UNK     1     -11.288  16.675  64.739  1.00  0.00     0.000 HD 
ENDBRANCH  18  19
ENDBRANCH  17  18
ENDBRANCH  16  17
ENDBRANCH  15  16
ENDBRANCH  13  15
ENDBRANCH  10  11
ENDBRANCH   9  10
ENDBRANCH   8   9
ENDBRANCH   7   8
ENDBRANCH   6   7
ENDBRANCH   5   6
ENDBRANCH   4   5
ENDBRANCH   3   4
ENDBRANCH   2   3
TORSDOF 14
ENDMDL
MODEL      285
REMARK 921   NORMALIZED FREE ENERGY PREDICTED BY IDOCK:   -3.23 KCAL/MOL
REMARK 922        TOTAL FREE ENERGY PREDICTED BY IDOCK:   -6.81 KCAL/MOL
REMARK 923 INTER-LIGAND FREE ENERGY PREDICTED BY IDOCK:   -5.36 KCAL/MOL
REMARK 924 INTRA-LIGAND FREE ENERGY PREDICTED BY IDOCK:   -1.45 KCAL/MOL
REMARK 927      BINDING AFFINITY PREDICTED BY RF-SCORE:    0.00 PKD
ROOT
HETATM    1  C   UNK     1      -6.329  11.161  69.410  1.00  0.00    -0.088 C  
HETATM    2  O   UNK     1      -5.639  11.764  68.325  1.00  0.00    -0.046 OA 
ENDROOT
BRANCH   2   3
HETATM    3  C   UNK     1      -6.404  12.820  67.742  1.00  0.00    -0.137 C  
BRANCH   3   4
HETATM    4  C   UNK     1      -7.870  12.408  67.697  1.00  0.00    -0.163 C  
BRANCH   4   5
HETATM    5  O   UNK     1      -8.686  13.525  68.043  1.00  0.00    -0.164 OA 
BRANCH   5   6
HETATM    6  C   UNK     1      -8.772  14.462  66.972  1.00  0.00    -0.223 C  
BRANCH   6   7
HETATM    7  C   UNK     1     -10.220  14.909  66.815  1.00  0.00    -0.259 C  
BRANCH   7   8
HETATM    8  C   UNK     1     -10.617  15.969  67.848  1.00  0.00    -0.301 C  
BRANCH   8   9
HETATM    9  C   UNK     1     -11.906  15.568  68.560  1.00  0.00    -0.276 C  
BRANCH   9  10
HETATM   10  C   UNK     1     -11.698  15.339  70.054  1.00  0.00    -0.344 C  
BRANCH  10  11
HETATM   11  C   UNK     1     -12.048  13.913  70.440  1.00  0.00    -0.351 C  
HETATM   12  O   UNK     1     -12.954  13.623  71.215  1.00  0.00    -0.341 OA 
HETATM   13  N   UNK     1     -11.247  12.971  69.834  1.00  0.00    -0.486 N  
HETATM   14  H   UNK     1     -10.482  13.276  69.231  1.00  0.00     0.000 HD 
BRANCH  13  15
HETATM   15  C   UNK     1     -11.471  11.554  70.040  1.00  0.00    -0.220 C  
BRANCH  15  16
HETATM   16  C   UNK     1     -12.151  10.884  68.844  1.00  0.00    -0.186 C  
BRANCH  16  17
HETATM   17  C   UNK     1     -11.126  10.292  67.877  1.00  0.00    -0.341 C  
BRANCH  17  18
HETATM   18  C   UNK     1     -10.918  11.167  66.633  1.00  0.00    -0.289 C  
BRANCH  18  19
HETATM   19  C   UNK     1     -10.554  10.365  65.375  1.00  0.00    -0.009 C  
HETATM   20  N   UNK     1      -9.903   9.069  65.730  1.00  0.00    -0.461 NA 
HETATM   21  C   UNK     1      -9.588  11.167  64.488  1.00  0.00    -0.250 C  
HETATM   22  O   UNK     1      -9.905  12.068  63.735  1.00  0.00    -0.316 OA 
HETATM   23  O   UNK     1      -8.300  10.769  64.687  1.00  0.00    -0.108 OA 
HETATM   24  H1  UNK     1      -9.662   8.536  64.895  1.00  0.00     0.000 HD 
HETATM   25  H2  UNK     1     -10.481   8.523  66.369  1.00  0.00     0.000 HD 
ENDBRANCH  18  19
ENDBRANCH  17  18
ENDBRANCH  16  17
ENDBRANCH  15  16
ENDBRANCH  13  15
ENDBRANCH  10  11
ENDBRANCH   9  10
ENDBRANCH   8   9
ENDBRANCH   7   8
ENDBRANCH   6   7
ENDBRANCH   5   6
ENDBRANCH   4   5
ENDBRANCH   3   4
ENDBRANCH   2   3
TORSDOF 14
ENDMDL
MODEL      286
REMARK 921   NORMALIZED FREE ENERGY PREDICTED BY IDOCK:   -3.23 KCAL/MOL
REMARK 922        TOTAL FREE ENERGY PREDICTED BY IDOCK:   -6.80 KCAL/MOL
REMARK 923 INTER-LIGAND FREE ENERGY PREDICTED BY IDOCK:   -5.86 KCAL/MOL
REMARK 924 INTRA-LIGAND FREE ENERGY PREDICTED BY IDOCK:   -0.94 KCAL/MOL
REMARK 927      BINDING AFFINITY PREDICTED BY RF-SCORE:    0.00 PKD
ROOT
HETATM    1  C   UNK     1      -9.689   4.581  67.373  1.00  0.00    -0.178 C  
HETATM    2  O   UNK     1      -9.948   4.998  66.040  1.00  0.00    -0.181 OA 
ENDROOT
BRANCH   2   3
HETATM    3  C   UNK     1      -8.846   4.710  65.179  1.00  0.00    -0.147 C  
BRANCH   3   4
HETATM    4  C   UNK     1      -7.935   5.930  65.110  1.00  0.00    -0.121 C  
BRANCH   4   5
HETATM    5  O   UNK     1      -8.250   6.690  63.946  1.00  0.00    -0.056 OA 
BRANCH   5   6
HETATM    6  C   UNK     1      -7.669   7.991  63.997  1.00  0.00    -0.137 C  
BRANCH   6   7
HETATM    7  C   UNK     1      -8.157   8.706  65.251  1.00  0.00    -0.136 C  
BRANCH   7   8
HETATM    8  C   UNK     1      -9.288   9.696  64.953  1.00  0.00    -0.306 C  
BRANCH   8   9
HETATM    9  C   UNK     1     -10.241   9.795  66.141  1.00  0.00    -0.278 C  
BRANCH   9  10
HETATM   10  C   UNK     1     -10.375   8.472  66.889  1.00  0.00    -0.367 C  
BRANCH  10  11
HETATM   11  C   UNK     1     -10.723   8.705  68.348  1.00  0.00    -0.046 C  
HETATM   12  O   UNK     1     -10.546   7.870  69.230  1.00  0.00    -0.221 OA 
HETATM   13  N   UNK     1     -11.260   9.949  68.589  1.00  0.00    -0.472 N  
HETATM   14  H   UNK     1     -11.422  10.585  67.808  1.00  0.00     0.000 HD 
BRANCH  13  15
HETATM   15  C   UNK     1     -11.601  10.370  69.934  1.00  0.00    -0.284 C  
BRANCH  15  16
HETATM   16  C   UNK     1     -11.891  11.870  70.028  1.00  0.00    -0.407 C  
BRANCH  16  17
HETATM   17  C   UNK     1     -11.304  12.629  68.838  1.00  0.00    -0.345 C  
BRANCH  17  18
HETATM   18  C   UNK     1     -11.915  14.028  68.674  1.00  0.00    -0.389 C  
BRANCH  18  19
HETATM   19  C   UNK     1     -11.683  14.943  69.887  1.00  0.00    -0.305 C  
HETATM   20  N   UNK     1     -12.859  15.830  70.126  1.00  0.00    -0.639 NA 
HETATM   21  C   UNK     1     -10.445  15.825  69.665  1.00  0.00    -0.289 C  
HETATM   22  O   UNK     1      -9.290  15.468  69.803  1.00  0.00    -0.274 OA 
HETATM   23  O   UNK     1     -10.803  17.069  69.239  1.00  0.00    -0.279 OA 
HETATM   24  H1  UNK     1     -12.706  16.437  70.931  1.00  0.00     0.000 HD 
HETATM   25  H2  UNK     1     -13.721  15.293  70.220  1.00  0.00     0.000 HD 
ENDBRANCH  18  19
ENDBRANCH  17  18
ENDBRANCH  16  17
ENDBRANCH  15  16
ENDBRANCH  13  15
ENDBRANCH  10  11
ENDBRANCH   9  10
ENDBRANCH   8   9
ENDBRANCH   7   8
ENDBRANCH   6   7
ENDBRANCH   5   6
ENDBRANCH   4   5
ENDBRANCH   3   4
ENDBRANCH   2   3
TORSDOF 14
ENDMDL
MODEL      287
REMARK 921   NORMALIZED FREE ENERGY PREDICTED BY IDOCK:   -3.23 KCAL/MOL
REMARK 922        TOTAL FREE ENERGY PREDICTED BY IDOCK:   -6.80 KCAL/MOL
REMARK 923 INTER-LIGAND FREE ENERGY PREDICTED BY IDOCK:   -6.18 KCAL/MOL
REMARK 924 INTRA-LIGAND FREE ENERGY PREDICTED BY IDOCK:   -0.62 KCAL/MOL
REMARK 927      BINDING AFFINITY PREDICTED BY RF-SCORE:    0.00 PKD
ROOT
HETATM    1  C   UNK     1      -6.978  19.298  65.610  1.00  0.00    -0.270 C  
HETATM    2  O   UNK     1      -8.009  18.322  65.637  1.00  0.00    -0.494 OA 
ENDROOT
BRANCH   2   3
HETATM    3  C   UNK     1      -9.162  18.799  66.332  1.00  0.00    -0.307 C  
BRANCH   3   4
HETATM    4  C   UNK     1      -9.696  17.692  67.232  1.00  0.00    -0.284 C  
BRANCH   4   5
HETATM    5  O   UNK     1      -8.625  16.831  67.610  1.00  0.00    -0.201 OA 
BRANCH   5   6
HETATM    6  C   UNK     1      -9.099  15.671  68.289  1.00  0.00    -0.187 C  
BRANCH   6   7
HETATM    7  C   UNK     1     -10.622  15.701  68.325  1.00  0.00    -0.262 C  
BRANCH   7   8
HETATM    8  C   UNK     1     -11.219  14.374  68.804  1.00  0.00    -0.282 C  
BRANCH   8   9
HETATM    9  C   UNK     1     -12.267  13.869  67.815  1.00  0.00    -0.217 C  
BRANCH   9  10
HETATM   10  C   UNK     1     -11.828  12.590  67.107  1.00  0.00    -0.386 C  
BRANCH  10  11
HETATM   11  C   UNK     1     -11.934  12.739  65.601  1.00  0.00    -0.452 C  
HETATM   12  O   UNK     1     -12.642  13.575  65.050  1.00  0.00    -0.542 OA 
HETATM   13  N   UNK     1     -11.157  11.838  64.907  1.00  0.00    -0.302 N  
HETATM   14  H   UNK     1     -10.621  11.138  65.421  1.00  0.00     0.000 HD 
BRANCH  13  15
HETATM   15  C   UNK     1     -11.088  11.869  63.460  1.00  0.00    -0.428 C  
BRANCH  15  16
HETATM   16  C   UNK     1      -9.720  11.439  62.924  1.00  0.00    -0.344 C  
BRANCH  16  17
HETATM   17  C   UNK     1      -9.323  10.059  63.448  1.00  0.00    -0.300 C  
BRANCH  17  18
HETATM   18  C   UNK     1      -8.465   9.274  62.445  1.00  0.00    -0.207 C  
BRANCH  18  19
HETATM   19  C   UNK     1      -7.747   8.067  63.068  1.00  0.00    -0.136 C  
HETATM   20  N   UNK     1      -8.466   7.577  64.281  1.00  0.00    -0.366 NA 
HETATM   21  C   UNK     1      -6.313   8.446  63.473  1.00  0.00    -0.080 C  
HETATM   22  O   UNK     1      -5.365   8.530  62.715  1.00  0.00    -0.068 OA 
HETATM   23  O   UNK     1      -6.242   8.730  64.804  1.00  0.00    -0.064 OA 
HETATM   24  H1  UNK     1      -7.990   6.776  64.694  1.00  0.00     0.000 HD 
HETATM   25  H2  UNK     1      -9.444   7.368  64.077  1.00  0.00     0.000 HD 
ENDBRANCH  18  19
ENDBRANCH  17  18
ENDBRANCH  16  17
ENDBRANCH  15  16
ENDBRANCH  13  15
ENDBRANCH  10  11
ENDBRANCH   9  10
ENDBRANCH   8   9
ENDBRANCH   7   8
ENDBRANCH   6   7
ENDBRANCH   5   6
ENDBRANCH   4   5
ENDBRANCH   3   4
ENDBRANCH   2   3
TORSDOF 14
ENDMDL
MODEL      288
REMARK 921   NORMALIZED FREE ENERGY PREDICTED BY IDOCK:   -3.22 KCAL/MOL
REMARK 922        TOTAL FREE ENERGY PREDICTED BY IDOCK:   -6.79 KCAL/MOL
REMARK 923 INTER-LIGAND FREE ENERGY PREDICTED BY IDOCK:   -6.37 KCAL/MOL
REMARK 924 INTRA-LIGAND FREE ENERGY PREDICTED BY IDOCK:   -0.43 KCAL/MOL
REMARK 927      BINDING AFFINITY PREDICTED BY RF-SCORE:    0.00 PKD
ROOT
HETATM    1  C   UNK     1     -11.415  15.945  69.045  1.00  0.00    -0.380 C  
HETATM    2  O   UNK     1     -11.452  14.668  69.666  1.00  0.00    -0.262 OA 
ENDROOT
BRANCH   2   3
HETATM    3  C   UNK     1     -11.894  13.658  68.759  1.00  0.00    -0.360 C  
BRANCH   3   4
HETATM    4  C   UNK     1     -10.715  13.200  67.909  1.00  0.00    -0.235 C  
BRANCH   4   5
HETATM    5  O   UNK     1     -10.833  13.752  66.600  1.00  0.00    -0.285 OA 
BRANCH   5   6
HETATM    6  C   UNK     1     -12.165  13.644  66.104  1.00  0.00    -0.444 C  
BRANCH   6   7
HETATM    7  C   UNK     1     -12.222  14.222  64.696  1.00  0.00    -0.470 C  
BRANCH   7   8
HETATM    8  C   UNK     1     -12.147  13.136  63.617  1.00  0.00    -0.583 C  
BRANCH   8   9
HETATM    9  C   UNK     1     -10.777  12.463  63.628  1.00  0.00    -0.497 C  
BRANCH   9  10
HETATM   10  C   UNK     1     -10.865  10.972  63.940  1.00  0.00    -0.221 C  
BRANCH  10  11
HETATM   11  C   UNK     1      -9.630  10.498  64.684  1.00  0.00    -0.292 C  
HETATM   12  O   UNK     1      -8.489  10.622  64.253  1.00  0.00    -0.156 OA 
HETATM   13  N   UNK     1      -9.916   9.910  65.896  1.00  0.00    -0.278 N  
HETATM   14  H   UNK     1     -10.889   9.797  66.182  1.00  0.00     0.000 HD 
BRANCH  13  15
HETATM   15  C   UNK     1      -8.856   9.448  66.771  1.00  0.00    -0.127 C  
BRANCH  15  16
HETATM   16  C   UNK     1      -9.167   8.092  67.410  1.00  0.00    -0.159 C  
BRANCH  16  17
HETATM   17  C   UNK     1     -10.446   7.483  66.836  1.00  0.00    -0.385 C  
BRANCH  17  18
HETATM   18  C   UNK     1     -10.940   6.278  67.649  1.00  0.00    -0.438 C  
BRANCH  18  19
HETATM   19  C   UNK     1     -10.286   4.951  67.235  1.00  0.00    -0.137 C  
HETATM   20  N   UNK     1      -8.853   4.903  67.650  1.00  0.00    -0.103 NA 
HETATM   21  C   UNK     1     -10.357   4.771  65.711  1.00  0.00    -0.237 C  
HETATM   22  O   UNK     1     -11.336   4.401  65.089  1.00  0.00    -0.176 OA 
HETATM   23  O   UNK     1      -9.182   5.128  65.122  1.00  0.00    -0.140 OA 
HETATM   24  H1  UNK     1      -8.419   4.022  67.376  1.00  0.00     0.000 HD 
HETATM   25  H2  UNK     1      -8.746   5.077  68.650  1.00  0.00     0.000 HD 
ENDBRANCH  18  19
ENDBRANCH  17  18
ENDBRANCH  16  17
ENDBRANCH  15  16
ENDBRANCH  13  15
ENDBRANCH  10  11
ENDBRANCH   9  10
ENDBRANCH   8   9
ENDBRANCH   7   8
ENDBRANCH   6   7
ENDBRANCH   5   6
ENDBRANCH   4   5
ENDBRANCH   3   4
ENDBRANCH   2   3
TORSDOF 14
ENDMDL
MODEL      289
REMARK 921   NORMALIZED FREE ENERGY PREDICTED BY IDOCK:   -3.22 KCAL/MOL
REMARK 922        TOTAL FREE ENERGY PREDICTED BY IDOCK:   -6.79 KCAL/MOL
REMARK 923 INTER-LIGAND FREE ENERGY PREDICTED BY IDOCK:   -5.34 KCAL/MOL
REMARK 924 INTRA-LIGAND FREE ENERGY PREDICTED BY IDOCK:   -1.46 KCAL/MOL
REMARK 927      BINDING AFFINITY PREDICTED BY RF-SCORE:    0.00 PKD
ROOT
HETATM    1  C   UNK     1      -8.250   6.923  65.224  1.00  0.00    -0.129 C  
HETATM    2  O   UNK     1      -8.559   7.272  66.566  1.00  0.00    -0.121 OA 
ENDROOT
BRANCH   2   3
HETATM    3  C   UNK     1      -9.876   6.855  66.924  1.00  0.00    -0.183 C  
BRANCH   3   4
HETATM    4  C   UNK     1      -9.881   6.415  68.383  1.00  0.00    -0.137 C  
BRANCH   4   5
HETATM    5  O   UNK     1     -10.173   7.536  69.214  1.00  0.00    -0.191 OA 
BRANCH   5   6
HETATM    6  C   UNK     1     -10.868   7.144  70.396  1.00  0.00    -0.246 C  
BRANCH   6   7
HETATM    7  C   UNK     1     -10.454   8.056  71.544  1.00  0.00    -0.265 C  
BRANCH   7   8
HETATM    8  C   UNK     1     -11.635   8.847  72.114  1.00  0.00    -0.400 C  
BRANCH   8   9
HETATM    9  C   UNK     1     -12.614   9.224  71.006  1.00  0.00    -0.248 C  
BRANCH   9  10
HETATM   10  C   UNK     1     -12.755  10.735  70.844  1.00  0.00    -0.478 C  
BRANCH  10  11
HETATM   11  C   UNK     1     -11.685  11.284  69.918  1.00  0.00    -0.352 C  
HETATM   12  O   UNK     1     -10.859  10.582  69.343  1.00  0.00    -0.216 OA 
HETATM   13  N   UNK     1     -11.728  12.654  69.786  1.00  0.00    -0.441 N  
HETATM   14  H   UNK     1     -12.412  13.188  70.322  1.00  0.00     0.000 HD 
BRANCH  13  15
HETATM   15  C   UNK     1     -10.818  13.349  68.897  1.00  0.00    -0.220 C  
BRANCH  15  16
HETATM   16  C   UNK     1     -11.476  13.751  67.574  1.00  0.00    -0.359 C  
BRANCH  16  17
HETATM   17  C   UNK     1     -10.565  13.452  66.383  1.00  0.00    -0.285 C  
BRANCH  17  18
HETATM   18  C   UNK     1      -9.326  12.638  66.781  1.00  0.00    -0.232 C  
BRANCH  18  19
HETATM   19  C   UNK     1      -9.446  11.142  66.453  1.00  0.00    -0.193 C  
HETATM   20  N   UNK     1      -8.791  10.305  67.501  1.00  0.00    -0.128 NA 
HETATM   21  C   UNK     1      -8.783  10.834  65.101  1.00  0.00    -0.164 C  
HETATM   22  O   UNK     1      -9.279  11.041  64.009  1.00  0.00    -0.205 OA 
HETATM   23  O   UNK     1      -7.527  10.336  65.276  1.00  0.00    -0.141 OA 
HETATM   24  H1  UNK     1      -8.871   9.312  67.284  1.00  0.00     0.000 HD 
HETATM   25  H2  UNK     1      -9.156  10.516  68.430  1.00  0.00     0.000 HD 
ENDBRANCH  18  19
ENDBRANCH  17  18
ENDBRANCH  16  17
ENDBRANCH  15  16
ENDBRANCH  13  15
ENDBRANCH  10  11
ENDBRANCH   9  10
ENDBRANCH   8   9
ENDBRANCH   7   8
ENDBRANCH   6   7
ENDBRANCH   5   6
ENDBRANCH   4   5
ENDBRANCH   3   4
ENDBRANCH   2   3
TORSDOF 14
ENDMDL
MODEL      290
REMARK 921   NORMALIZED FREE ENERGY PREDICTED BY IDOCK:   -3.22 KCAL/MOL
REMARK 922        TOTAL FREE ENERGY PREDICTED BY IDOCK:   -6.79 KCAL/MOL
REMARK 923 INTER-LIGAND FREE ENERGY PREDICTED BY IDOCK:   -5.60 KCAL/MOL
REMARK 924 INTRA-LIGAND FREE ENERGY PREDICTED BY IDOCK:   -1.19 KCAL/MOL
REMARK 927      BINDING AFFINITY PREDICTED BY RF-SCORE:    0.00 PKD
ROOT
HETATM    1  C   UNK     1      -6.884   5.107  67.794  1.00  0.00    -0.060 C  
HETATM    2  O   UNK     1      -8.049   5.740  67.283  1.00  0.00    -0.102 OA 
ENDROOT
BRANCH   2   3
HETATM    3  C   UNK     1      -7.914   6.035  65.892  1.00  0.00    -0.111 C  
BRANCH   3   4
HETATM    4  C   UNK     1      -7.895   7.547  65.702  1.00  0.00    -0.110 C  
BRANCH   4   5
HETATM    5  O   UNK     1      -9.109   8.102  66.204  1.00  0.00    -0.175 OA 
BRANCH   5   6
HETATM    6  C   UNK     1      -8.860   9.188  67.094  1.00  0.00    -0.119 C  
BRANCH   6   7
HETATM    7  C   UNK     1      -8.324  10.372  66.300  1.00  0.00    -0.146 C  
BRANCH   7   8
HETATM    8  C   UNK     1      -9.241  11.596  66.391  1.00  0.00    -0.219 C  
BRANCH   8   9
HETATM    9  C   UNK     1      -9.007  12.347  67.699  1.00  0.00    -0.183 C  
BRANCH   9  10
HETATM   10  C   UNK     1     -10.288  12.973  68.246  1.00  0.00    -0.256 C  
BRANCH  10  11
HETATM   11  C   UNK     1     -11.256  11.904  68.717  1.00  0.00    -0.259 C  
HETATM   12  O   UNK     1     -12.238  11.546  68.074  1.00  0.00    -0.582 OA 
HETATM   13  N   UNK     1     -10.928  11.372  69.944  1.00  0.00    -0.471 N  
HETATM   14  H   UNK     1     -10.123  11.740  70.451  1.00  0.00     0.000 HD 
BRANCH  13  15
HETATM   15  C   UNK     1     -11.709  10.299  70.527  1.00  0.00    -0.331 C  
BRANCH  15  16
HETATM   16  C   UNK     1     -10.896   9.437  71.497  1.00  0.00    -0.398 C  
BRANCH  16  17
HETATM   17  C   UNK     1     -11.721   8.265  72.029  1.00  0.00    -0.407 C  
BRANCH  17  18
HETATM   18  C   UNK     1     -11.938   7.172  70.972  1.00  0.00    -0.387 C  
BRANCH  18  19
HETATM   19  C   UNK     1     -10.705   6.917  70.093  1.00  0.00    -0.237 C  
HETATM   20  N   UNK     1     -11.095   6.665  68.675  1.00  0.00    -0.495 NA 
HETATM   21  C   UNK     1      -9.923   5.698  70.607  1.00  0.00    -0.200 C  
HETATM   22  O   UNK     1      -9.160   5.697  71.554  1.00  0.00    -0.139 OA 
HETATM   23  O   UNK     1     -10.231   4.583  69.886  1.00  0.00    -0.208 OA 
HETATM   24  H1  UNK     1     -10.277   6.496  68.091  1.00  0.00     0.000 HD 
HETATM   25  H2  UNK     1     -11.670   7.422  68.304  1.00  0.00     0.000 HD 
ENDBRANCH  18  19
ENDBRANCH  17  18
ENDBRANCH  16  17
ENDBRANCH  15  16
ENDBRANCH  13  15
ENDBRANCH  10  11
ENDBRANCH   9  10
ENDBRANCH   8   9
ENDBRANCH   7   8
ENDBRANCH   6   7
ENDBRANCH   5   6
ENDBRANCH   4   5
ENDBRANCH   3   4
ENDBRANCH   2   3
TORSDOF 14
ENDMDL
MODEL      291
REMARK 921   NORMALIZED FREE ENERGY PREDICTED BY IDOCK:   -3.22 KCAL/MOL
REMARK 922        TOTAL FREE ENERGY PREDICTED BY IDOCK:   -6.79 KCAL/MOL
REMARK 923 INTER-LIGAND FREE ENERGY PREDICTED BY IDOCK:   -6.35 KCAL/MOL
REMARK 924 INTRA-LIGAND FREE ENERGY PREDICTED BY IDOCK:   -0.43 KCAL/MOL
REMARK 927      BINDING AFFINITY PREDICTED BY RF-SCORE:    0.00 PKD
ROOT
HETATM    1  C   UNK     1      -6.206   3.552  73.202  1.00  0.00    -0.012 C  
HETATM    2  O   UNK     1      -5.613   4.838  73.091  1.00  0.00    -0.008 OA 
ENDROOT
BRANCH   2   3
HETATM    3  C   UNK     1      -6.427   5.843  73.698  1.00  0.00    -0.073 C  
BRANCH   3   4
HETATM    4  C   UNK     1      -7.790   5.247  74.029  1.00  0.00    -0.097 C  
BRANCH   4   5
HETATM    5  O   UNK     1      -8.805   6.216  73.773  1.00  0.00    -0.124 OA 
BRANCH   5   6
HETATM    6  C   UNK     1     -10.056   5.598  73.478  1.00  0.00    -0.193 C  
BRANCH   6   7
HETATM    7  C   UNK     1      -9.838   4.494  72.451  1.00  0.00    -0.220 C  
BRANCH   7   8
HETATM    8  C   UNK     1     -10.075   4.978  71.017  1.00  0.00    -0.297 C  
BRANCH   8   9
HETATM    9  C   UNK     1     -11.065   6.140  70.998  1.00  0.00    -0.359 C  
BRANCH   9  10
HETATM   10  C   UNK     1     -11.260   6.714  69.598  1.00  0.00    -0.397 C  
BRANCH  10  11
HETATM   11  C   UNK     1     -10.647   8.098  69.488  1.00  0.00    -0.213 C  
HETATM   12  O   UNK     1     -10.044   8.648  70.404  1.00  0.00    -0.180 OA 
HETATM   13  N   UNK     1     -10.837   8.683  68.256  1.00  0.00    -0.455 N  
HETATM   14  H   UNK     1     -11.384   8.193  67.547  1.00  0.00     0.000 HD 
BRANCH  13  15
HETATM   15  C   UNK     1     -10.272   9.982  67.950  1.00  0.00    -0.188 C  
BRANCH  15  16
HETATM   16  C   UNK     1     -11.301  11.111  68.043  1.00  0.00    -0.380 C  
BRANCH  16  17
HETATM   17  C   UNK     1     -11.547  11.758  66.681  1.00  0.00    -0.273 C  
BRANCH  17  18
HETATM   18  C   UNK     1     -10.707  11.117  65.566  1.00  0.00    -0.251 C  
BRANCH  18  19
HETATM   19  C   UNK     1     -10.949  11.740  64.183  1.00  0.00    -0.374 C  
HETATM   20  N   UNK     1      -9.864  12.701  63.826  1.00  0.00    -0.679 NA 
HETATM   21  C   UNK     1     -12.290  12.491  64.159  1.00  0.00    -0.462 C  
HETATM   22  O   UNK     1     -13.385  11.975  64.040  1.00  0.00    -0.703 OA 
HETATM   23  O   UNK     1     -12.103  13.828  64.340  1.00  0.00    -0.413 OA 
HETATM   24  H1  UNK     1     -10.024  13.114  62.908  1.00  0.00     0.000 HD 
HETATM   25  H2  UNK     1      -8.943  12.264  63.885  1.00  0.00     0.000 HD 
ENDBRANCH  18  19
ENDBRANCH  17  18
ENDBRANCH  16  17
ENDBRANCH  15  16
ENDBRANCH  13  15
ENDBRANCH  10  11
ENDBRANCH   9  10
ENDBRANCH   8   9
ENDBRANCH   7   8
ENDBRANCH   6   7
ENDBRANCH   5   6
ENDBRANCH   4   5
ENDBRANCH   3   4
ENDBRANCH   2   3
TORSDOF 14
ENDMDL
MODEL      292
REMARK 921   NORMALIZED FREE ENERGY PREDICTED BY IDOCK:   -3.21 KCAL/MOL
REMARK 922        TOTAL FREE ENERGY PREDICTED BY IDOCK:   -6.77 KCAL/MOL
REMARK 923 INTER-LIGAND FREE ENERGY PREDICTED BY IDOCK:   -6.14 KCAL/MOL
REMARK 924 INTRA-LIGAND FREE ENERGY PREDICTED BY IDOCK:   -0.62 KCAL/MOL
REMARK 927      BINDING AFFINITY PREDICTED BY RF-SCORE:    0.00 PKD
ROOT
HETATM    1  C   UNK     1      -8.621   6.259  66.352  1.00  0.00    -0.133 C  
HETATM    2  O   UNK     1      -7.821   5.134  66.689  1.00  0.00    -0.098 OA 
ENDROOT
BRANCH   2   3
HETATM    3  C   UNK     1      -8.413   3.917  66.233  1.00  0.00    -0.109 C  
BRANCH   3   4
HETATM    4  C   UNK     1      -9.500   3.494  67.214  1.00  0.00    -0.187 C  
BRANCH   4   5
HETATM    5  O   UNK     1      -8.972   2.525  68.117  1.00  0.00    -0.114 OA 
BRANCH   5   6
HETATM    6  C   UNK     1      -9.158   2.918  69.475  1.00  0.00    -0.127 C  
BRANCH   6   7
HETATM    7  C   UNK     1      -9.830   4.284  69.511  1.00  0.00    -0.224 C  
BRANCH   7   8
HETATM    8  C   UNK     1      -9.759   4.932  70.898  1.00  0.00    -0.264 C  
BRANCH   8   9
HETATM    9  C   UNK     1     -11.017   5.751  71.174  1.00  0.00    -0.295 C  
BRANCH   9  10
HETATM   10  C   UNK     1     -11.493   6.516  69.942  1.00  0.00    -0.467 C  
BRANCH  10  11
HETATM   11  C   UNK     1     -11.003   7.952  69.972  1.00  0.00    -0.207 C  
HETATM   12  O   UNK     1     -10.071   8.365  69.289  1.00  0.00    -0.191 OA 
HETATM   13  N   UNK     1     -11.706   8.751  70.845  1.00  0.00    -0.328 N  
HETATM   14  H   UNK     1     -12.444   8.340  71.417  1.00  0.00     0.000 HD 
BRANCH  13  15
HETATM   15  C   UNK     1     -11.415  10.166  70.964  1.00  0.00    -0.354 C  
BRANCH  15  16
HETATM   16  C   UNK     1     -12.465  10.918  71.787  1.00  0.00    -0.238 C  
BRANCH  16  17
HETATM   17  C   UNK     1     -13.161  11.995  70.956  1.00  0.00    -0.022 C  
BRANCH  17  18
HETATM   18  C   UNK     1     -12.375  13.314  70.926  1.00  0.00    -0.413 C  
BRANCH  18  19
HETATM   19  C   UNK     1     -13.159  14.506  71.494  1.00  0.00    -0.343 C  
HETATM   20  N   UNK     1     -13.228  15.626  70.510  1.00  0.00    -0.762 NA 
HETATM   21  C   UNK     1     -12.490  15.026  72.776  1.00  0.00    -0.377 C  
HETATM   22  O   UNK     1     -12.593  14.524  73.879  1.00  0.00    -0.410 OA 
HETATM   23  O   UNK     1     -11.713  16.114  72.513  1.00  0.00    -0.483 OA 
HETATM   24  H1  UNK     1     -13.749  16.417  70.887  1.00  0.00     0.000 HD 
HETATM   25  H2  UNK     1     -13.612  15.316  69.616  1.00  0.00     0.000 HD 
ENDBRANCH  18  19
ENDBRANCH  17  18
ENDBRANCH  16  17
ENDBRANCH  15  16
ENDBRANCH  13  15
ENDBRANCH  10  11
ENDBRANCH   9  10
ENDBRANCH   8   9
ENDBRANCH   7   8
ENDBRANCH   6   7
ENDBRANCH   5   6
ENDBRANCH   4   5
ENDBRANCH   3   4
ENDBRANCH   2   3
TORSDOF 14
ENDMDL
MODEL      293
REMARK 921   NORMALIZED FREE ENERGY PREDICTED BY IDOCK:   -3.21 KCAL/MOL
REMARK 922        TOTAL FREE ENERGY PREDICTED BY IDOCK:   -6.76 KCAL/MOL
REMARK 923 INTER-LIGAND FREE ENERGY PREDICTED BY IDOCK:   -6.17 KCAL/MOL
REMARK 924 INTRA-LIGAND FREE ENERGY PREDICTED BY IDOCK:   -0.59 KCAL/MOL
REMARK 927      BINDING AFFINITY PREDICTED BY RF-SCORE:    0.00 PKD
ROOT
HETATM    1  C   UNK     1      -7.479  15.533  67.751  1.00  0.00    -0.150 C  
HETATM    2  O   UNK     1      -8.393  15.271  66.696  1.00  0.00    -0.256 OA 
ENDROOT
BRANCH   2   3
HETATM    3  C   UNK     1      -9.691  14.950  67.198  1.00  0.00    -0.228 C  
BRANCH   3   4
HETATM    4  C   UNK     1     -10.713  15.112  66.079  1.00  0.00    -0.329 C  
BRANCH   4   5
HETATM    5  O   UNK     1     -11.958  14.551  66.490  1.00  0.00    -0.397 OA 
BRANCH   5   6
HETATM    6  C   UNK     1     -12.762  14.184  65.371  1.00  0.00    -0.431 C  
BRANCH   6   7
HETATM    7  C   UNK     1     -12.523  12.715  65.047  1.00  0.00    -0.556 C  
BRANCH   7   8
HETATM    8  C   UNK     1     -11.942  12.516  63.643  1.00  0.00    -0.621 C  
BRANCH   8   9
HETATM    9  C   UNK     1     -10.710  11.617  63.694  1.00  0.00    -0.500 C  
BRANCH   9  10
HETATM   10  C   UNK     1     -10.083  11.570  65.086  1.00  0.00    -0.313 C  
BRANCH  10  11
HETATM   11  C   UNK     1      -9.513  10.194  65.378  1.00  0.00    -0.239 C  
HETATM   12  O   UNK     1      -8.619   9.675  64.718  1.00  0.00    -0.154 OA 
HETATM   13  N   UNK     1     -10.100   9.579  66.461  1.00  0.00    -0.255 N  
HETATM   14  H   UNK     1     -10.869  10.044  66.946  1.00  0.00     0.000 HD 
BRANCH  13  15
HETATM   15  C   UNK     1      -9.644   8.283  66.924  1.00  0.00    -0.207 C  
BRANCH  15  16
HETATM   16  C   UNK     1     -10.799   7.338  67.266  1.00  0.00    -0.354 C  
BRANCH  16  17
HETATM   17  C   UNK     1     -10.358   6.249  68.244  1.00  0.00    -0.233 C  
BRANCH  17  18
HETATM   18  C   UNK     1      -9.253   5.353  67.666  1.00  0.00    -0.116 C  
BRANCH  18  19
HETATM   19  C   UNK     1      -9.402   5.091  66.160  1.00  0.00    -0.153 C  
HETATM   20  N   UNK     1      -9.945   3.726  65.900  1.00  0.00    -0.410 NA 
HETATM   21  C   UNK     1      -8.041   5.216  65.456  1.00  0.00    -0.117 C  
HETATM   22  O   UNK     1      -7.499   6.261  65.150  1.00  0.00    -0.074 OA 
HETATM   23  O   UNK     1      -7.482   3.990  65.257  1.00  0.00    -0.078 OA 
HETATM   24  H1  UNK     1     -10.044   3.552  64.900  1.00  0.00     0.000 HD 
HETATM   25  H2  UNK     1     -10.823   3.571  66.396  1.00  0.00     0.000 HD 
ENDBRANCH  18  19
ENDBRANCH  17  18
ENDBRANCH  16  17
ENDBRANCH  15  16
ENDBRANCH  13  15
ENDBRANCH  10  11
ENDBRANCH   9  10
ENDBRANCH   8   9
ENDBRANCH   7   8
ENDBRANCH   6   7
ENDBRANCH   5   6
ENDBRANCH   4   5
ENDBRANCH   3   4
ENDBRANCH   2   3
TORSDOF 14
ENDMDL
MODEL      294
REMARK 921   NORMALIZED FREE ENERGY PREDICTED BY IDOCK:   -3.21 KCAL/MOL
REMARK 922        TOTAL FREE ENERGY PREDICTED BY IDOCK:   -6.76 KCAL/MOL
REMARK 923 INTER-LIGAND FREE ENERGY PREDICTED BY IDOCK:   -5.90 KCAL/MOL
REMARK 924 INTRA-LIGAND FREE ENERGY PREDICTED BY IDOCK:   -0.86 KCAL/MOL
REMARK 927      BINDING AFFINITY PREDICTED BY RF-SCORE:    0.00 PKD
ROOT
HETATM    1  C   UNK     1     -12.977  13.230  71.499  1.00  0.00    -0.337 C  
HETATM    2  O   UNK     1     -12.108  13.959  70.644  1.00  0.00    -0.332 OA 
ENDROOT
BRANCH   2   3
HETATM    3  C   UNK     1     -12.469  15.340  70.587  1.00  0.00    -0.406 C  
BRANCH   3   4
HETATM    4  C   UNK     1     -11.894  15.953  69.316  1.00  0.00    -0.318 C  
BRANCH   4   5
HETATM    5  O   UNK     1     -11.481  14.913  68.433  1.00  0.00    -0.290 OA 
BRANCH   5   6
HETATM    6  C   UNK     1     -10.666  15.416  67.377  1.00  0.00    -0.296 C  
BRANCH   6   7
HETATM    7  C   UNK     1      -9.614  16.351  67.959  1.00  0.00    -0.226 C  
BRANCH   7   8
HETATM    8  C   UNK     1      -8.219  15.717  67.980  1.00  0.00    -0.143 C  
BRANCH   8   9
HETATM    9  C   UNK     1      -7.974  15.000  69.305  1.00  0.00    -0.190 C  
BRANCH   9  10
HETATM   10  C   UNK     1      -6.835  13.987  69.215  1.00  0.00    -0.105 C  
BRANCH  10  11
HETATM   11  C   UNK     1      -7.297  12.709  68.540  1.00  0.00    -0.115 C  
HETATM   12  O   UNK     1      -6.833  12.295  67.482  1.00  0.00    -0.107 OA 
HETATM   13  N   UNK     1      -8.293  12.056  69.230  1.00  0.00    -0.116 N  
HETATM   14  H   UNK     1      -8.668  12.472  70.083  1.00  0.00     0.000 HD 
BRANCH  13  15
HETATM   15  C   UNK     1      -8.819  10.788  68.764  1.00  0.00    -0.163 C  
BRANCH  15  16
HETATM   16  C   UNK     1     -10.318  10.634  69.034  1.00  0.00    -0.237 C  
BRANCH  16  17
HETATM   17  C   UNK     1     -10.583  10.173  70.466  1.00  0.00    -0.243 C  
BRANCH  17  18
HETATM   18  C   UNK     1     -12.051   9.786  70.697  1.00  0.00    -0.311 C  
BRANCH  18  19
HETATM   19  C   UNK     1     -12.223   8.462  71.458  1.00  0.00    -0.302 C  
HETATM   20  N   UNK     1     -11.883   7.294  70.593  1.00  0.00    -0.462 NA 
HETATM   21  C   UNK     1     -13.673   8.305  71.940  1.00  0.00    -0.369 C  
HETATM   22  O   UNK     1     -14.154   8.847  72.917  1.00  0.00    -0.461 OA 
HETATM   23  O   UNK     1     -14.383   7.505  71.096  1.00  0.00    -0.370 OA 
HETATM   24  H1  UNK     1     -11.996   6.416  71.098  1.00  0.00     0.000 HD 
HETATM   25  H2  UNK     1     -10.946   7.381  70.197  1.00  0.00     0.000 HD 
ENDBRANCH  18  19
ENDBRANCH  17  18
ENDBRANCH  16  17
ENDBRANCH  15  16
ENDBRANCH  13  15
ENDBRANCH  10  11
ENDBRANCH   9  10
ENDBRANCH   8   9
ENDBRANCH   7   8
ENDBRANCH   6   7
ENDBRANCH   5   6
ENDBRANCH   4   5
ENDBRANCH   3   4
ENDBRANCH   2   3
TORSDOF 14
ENDMDL
MODEL      295
REMARK 921   NORMALIZED FREE ENERGY PREDICTED BY IDOCK:   -3.20 KCAL/MOL
REMARK 922        TOTAL FREE ENERGY PREDICTED BY IDOCK:   -6.76 KCAL/MOL
REMARK 923 INTER-LIGAND FREE ENERGY PREDICTED BY IDOCK:   -6.14 KCAL/MOL
REMARK 924 INTRA-LIGAND FREE ENERGY PREDICTED BY IDOCK:   -0.62 KCAL/MOL
REMARK 927      BINDING AFFINITY PREDICTED BY RF-SCORE:    0.00 PKD
ROOT
HETATM    1  C   UNK     1     -11.267   5.195  72.973  1.00  0.00    -0.322 C  
HETATM    2  O   UNK     1     -10.371   6.063  72.292  1.00  0.00    -0.185 OA 
ENDROOT
BRANCH   2   3
HETATM    3  C   UNK     1     -10.242   7.314  72.968  1.00  0.00    -0.268 C  
BRANCH   3   4
HETATM    4  C   UNK     1     -10.527   8.444  71.985  1.00  0.00    -0.314 C  
BRANCH   4   5
HETATM    5  O   UNK     1     -10.404   7.953  70.652  1.00  0.00    -0.200 OA 
BRANCH   5   6
HETATM    6  C   UNK     1     -10.658   8.977  69.692  1.00  0.00    -0.224 C  
BRANCH   6   7
HETATM    7  C   UNK     1     -11.233  10.195  70.402  1.00  0.00    -0.402 C  
BRANCH   7   8
HETATM    8  C   UNK     1     -11.943  11.150  69.436  1.00  0.00    -0.420 C  
BRANCH   8   9
HETATM    9  C   UNK     1     -10.968  11.676  68.387  1.00  0.00    -0.265 C  
BRANCH   9  10
HETATM   10  C   UNK     1     -11.270  11.136  66.991  1.00  0.00    -0.291 C  
BRANCH  10  11
HETATM   11  C   UNK     1     -11.132  12.227  65.945  1.00  0.00    -0.322 C  
HETATM   12  O   UNK     1     -11.722  12.215  64.869  1.00  0.00    -0.346 OA 
HETATM   13  N   UNK     1     -10.275  13.237  66.320  1.00  0.00    -0.289 N  
HETATM   14  H   UNK     1      -9.781  13.171  67.210  1.00  0.00     0.000 HD 
BRANCH  13  15
HETATM   15  C   UNK     1     -10.063  14.393  65.470  1.00  0.00    -0.356 C  
BRANCH  15  16
HETATM   16  C   UNK     1     -10.679  15.670  66.045  1.00  0.00    -0.322 C  
BRANCH  16  17
HETATM   17  C   UNK     1      -9.635  16.776  66.196  1.00  0.00    -0.302 C  
BRANCH  17  18
HETATM   18  C   UNK     1      -8.356  16.286  66.891  1.00  0.00    -0.267 C  
BRANCH  18  19
HETATM   19  C   UNK     1      -8.224  16.773  68.342  1.00  0.00    -0.224 C  
HETATM   20  N   UNK     1      -9.128  17.931  68.607  1.00  0.00    -0.282 NA 
HETATM   21  C   UNK     1      -6.779  17.206  68.633  1.00  0.00    -0.189 C  
HETATM   22  O   UNK     1      -5.853  16.456  68.875  1.00  0.00    -0.126 OA 
HETATM   23  O   UNK     1      -6.648  18.559  68.538  1.00  0.00    -0.221 OA 
HETATM   24  H1  UNK     1      -9.040  18.254  69.571  1.00  0.00     0.000 HD 
HETATM   25  H2  UNK     1     -10.096  17.712  68.372  1.00  0.00     0.000 HD 
ENDBRANCH  18  19
ENDBRANCH  17  18
ENDBRANCH  16  17
ENDBRANCH  15  16
ENDBRANCH  13  15
ENDBRANCH  10  11
ENDBRANCH   9  10
ENDBRANCH   8   9
ENDBRANCH   7   8
ENDBRANCH   6   7
ENDBRANCH   5   6
ENDBRANCH   4   5
ENDBRANCH   3   4
ENDBRANCH   2   3
TORSDOF 14
ENDMDL
MODEL      296
REMARK 921   NORMALIZED FREE ENERGY PREDICTED BY IDOCK:   -3.20 KCAL/MOL
REMARK 922        TOTAL FREE ENERGY PREDICTED BY IDOCK:   -6.75 KCAL/MOL
REMARK 923 INTER-LIGAND FREE ENERGY PREDICTED BY IDOCK:   -6.25 KCAL/MOL
REMARK 924 INTRA-LIGAND FREE ENERGY PREDICTED BY IDOCK:   -0.51 KCAL/MOL
REMARK 927      BINDING AFFINITY PREDICTED BY RF-SCORE:    0.00 PKD
ROOT
HETATM    1  C   UNK     1      -6.593   7.436  63.589  1.00  0.00    -0.053 C  
HETATM    2  O   UNK     1      -7.657   6.816  64.296  1.00  0.00    -0.090 OA 
ENDROOT
BRANCH   2   3
HETATM    3  C   UNK     1      -7.395   5.432  64.527  1.00  0.00    -0.063 C  
BRANCH   3   4
HETATM    4  C   UNK     1      -8.211   4.962  65.725  1.00  0.00    -0.113 C  
BRANCH   4   5
HETATM    5  O   UNK     1      -7.353   4.823  66.856  1.00  0.00    -0.079 OA 
BRANCH   5   6
HETATM    6  C   UNK     1      -8.096   4.751  68.071  1.00  0.00    -0.089 C  
BRANCH   6   7
HETATM    7  C   UNK     1      -8.264   6.155  68.637  1.00  0.00    -0.108 C  
BRANCH   7   8
HETATM    8  C   UNK     1      -8.785   6.143  70.078  1.00  0.00    -0.137 C  
BRANCH   8   9
HETATM    9  C   UNK     1     -10.051   6.987  70.198  1.00  0.00    -0.197 C  
BRANCH   9  10
HETATM   10  C   UNK     1     -10.373   7.737  68.908  1.00  0.00    -0.224 C  
BRANCH  10  11
HETATM   11  C   UNK     1     -10.489   9.229  69.162  1.00  0.00    -0.217 C  
HETATM   12  O   UNK     1      -9.918   9.808  70.081  1.00  0.00    -0.241 OA 
HETATM   13  N   UNK     1     -11.303   9.875  68.259  1.00  0.00    -0.530 N  
HETATM   14  H   UNK     1     -11.785   9.332  67.541  1.00  0.00     0.000 HD 
BRANCH  13  15
HETATM   15  C   UNK     1     -11.488  11.312  68.311  1.00  0.00    -0.308 C  
BRANCH  15  16
HETATM   16  C   UNK     1     -10.843  12.034  67.126  1.00  0.00    -0.297 C  
BRANCH  16  17
HETATM   17  C   UNK     1     -11.896  12.664  66.215  1.00  0.00    -0.471 C  
BRANCH  17  18
HETATM   18  C   UNK     1     -11.851  14.199  66.240  1.00  0.00    -0.427 C  
BRANCH  18  19
HETATM   19  C   UNK     1     -10.788  14.795  65.305  1.00  0.00    -0.383 C  
HETATM   20  N   UNK     1      -9.482  14.960  66.008  1.00  0.00    -0.400 NA 
HETATM   21  C   UNK     1     -11.239  16.171  64.788  1.00  0.00    -0.304 C  
HETATM   22  O   UNK     1     -12.035  16.360  63.887  1.00  0.00    -1.023 OA 
HETATM   23  O   UNK     1     -10.663  17.174  65.508  1.00  0.00    -0.493 OA 
HETATM   24  H1  UNK     1      -8.776  15.355  65.387  1.00  0.00     0.000 HD 
HETATM   25  H2  UNK     1      -9.167  14.083  66.423  1.00  0.00     0.000 HD 
ENDBRANCH  18  19
ENDBRANCH  17  18
ENDBRANCH  16  17
ENDBRANCH  15  16
ENDBRANCH  13  15
ENDBRANCH  10  11
ENDBRANCH   9  10
ENDBRANCH   8   9
ENDBRANCH   7   8
ENDBRANCH   6   7
ENDBRANCH   5   6
ENDBRANCH   4   5
ENDBRANCH   3   4
ENDBRANCH   2   3
TORSDOF 14
ENDMDL
MODEL      297
REMARK 921   NORMALIZED FREE ENERGY PREDICTED BY IDOCK:   -3.19 KCAL/MOL
REMARK 922        TOTAL FREE ENERGY PREDICTED BY IDOCK:   -6.73 KCAL/MOL
REMARK 923 INTER-LIGAND FREE ENERGY PREDICTED BY IDOCK:   -6.33 KCAL/MOL
REMARK 924 INTRA-LIGAND FREE ENERGY PREDICTED BY IDOCK:   -0.40 KCAL/MOL
REMARK 927      BINDING AFFINITY PREDICTED BY RF-SCORE:    0.00 PKD
ROOT
HETATM    1  C   UNK     1     -12.847   9.807  72.142  1.00  0.00    -0.360 C  
HETATM    2  O   UNK     1     -12.787  10.138  70.762  1.00  0.00    -0.342 OA 
ENDROOT
BRANCH   2   3
HETATM    3  C   UNK     1     -11.769  11.104  70.500  1.00  0.00    -0.293 C  
BRANCH   3   4
HETATM    4  C   UNK     1     -12.405  12.486  70.405  1.00  0.00    -0.232 C  
BRANCH   4   5
HETATM    5  O   UNK     1     -12.165  13.029  69.109  1.00  0.00    -0.225 OA 
BRANCH   5   6
HETATM    6  C   UNK     1     -11.205  12.259  68.388  1.00  0.00    -0.266 C  
BRANCH   6   7
HETATM    7  C   UNK     1     -11.910  11.499  67.272  1.00  0.00    -0.061 C  
BRANCH   7   8
HETATM    8  C   UNK     1     -11.512  12.006  65.882  1.00  0.00    -0.392 C  
BRANCH   8   9
HETATM    9  C   UNK     1     -12.528  13.024  65.371  1.00  0.00    -0.531 C  
BRANCH   9  10
HETATM   10  C   UNK     1     -11.884  14.100  64.500  1.00  0.00    -0.451 C  
BRANCH  10  11
HETATM   11  C   UNK     1     -10.942  14.967  65.315  1.00  0.00    -0.382 C  
HETATM   12  O   UNK     1     -10.332  14.566  66.300  1.00  0.00    -0.279 OA 
HETATM   13  N   UNK     1     -10.839  16.255  64.841  1.00  0.00    -0.384 N  
HETATM   14  H   UNK     1     -11.404  16.542  64.041  1.00  0.00     0.000 HD 
BRANCH  13  15
HETATM   15  C   UNK     1      -9.941  17.211  65.459  1.00  0.00     0.113 C  
BRANCH  15  16
HETATM   16  C   UNK     1     -10.681  18.278  66.270  1.00  0.00    -0.182 C  
BRANCH  16  17
HETATM   17  C   UNK     1      -9.922  18.635  67.548  1.00  0.00    -0.371 C  
BRANCH  17  18
HETATM   18  C   UNK     1     -10.509  17.951  68.791  1.00  0.00    -0.217 C  
BRANCH  18  19
HETATM   19  C   UNK     1     -10.598  16.423  68.663  1.00  0.00    -0.305 C  
HETATM   20  N   UNK     1     -12.014  15.956  68.744  1.00  0.00    -0.499 NA 
HETATM   21  C   UNK     1      -9.797  15.743  69.785  1.00  0.00    -0.218 C  
HETATM   22  O   UNK     1      -8.589  15.600  69.802  1.00  0.00    -0.184 OA 
HETATM   23  O   UNK     1     -10.616  15.354  70.802  1.00  0.00    -0.272 OA 
HETATM   24  H1  UNK     1     -12.073  14.941  68.659  1.00  0.00     0.000 HD 
HETATM   25  H2  UNK     1     -12.603  16.424  68.055  1.00  0.00     0.000 HD 
ENDBRANCH  18  19
ENDBRANCH  17  18
ENDBRANCH  16  17
ENDBRANCH  15  16
ENDBRANCH  13  15
ENDBRANCH  10  11
ENDBRANCH   9  10
ENDBRANCH   8   9
ENDBRANCH   7   8
ENDBRANCH   6   7
ENDBRANCH   5   6
ENDBRANCH   4   5
ENDBRANCH   3   4
ENDBRANCH   2   3
TORSDOF 14
ENDMDL
MODEL      298
REMARK 921   NORMALIZED FREE ENERGY PREDICTED BY IDOCK:   -3.19 KCAL/MOL
REMARK 922        TOTAL FREE ENERGY PREDICTED BY IDOCK:   -6.73 KCAL/MOL
REMARK 923 INTER-LIGAND FREE ENERGY PREDICTED BY IDOCK:   -6.50 KCAL/MOL
REMARK 924 INTRA-LIGAND FREE ENERGY PREDICTED BY IDOCK:   -0.23 KCAL/MOL
REMARK 927      BINDING AFFINITY PREDICTED BY RF-SCORE:    0.00 PKD
ROOT
HETATM    1  C   UNK     1     -12.391  15.175  74.228  1.00  0.00    -0.533 C  
HETATM    2  O   UNK     1     -12.715  16.065  73.170  1.00  0.00    -0.442 OA 
ENDROOT
BRANCH   2   3
HETATM    3  C   UNK     1     -13.864  15.622  72.448  1.00  0.00    -0.527 C  
BRANCH   3   4
HETATM    4  C   UNK     1     -13.432  15.134  71.070  1.00  0.00    -0.431 C  
BRANCH   4   5
HETATM    5  O   UNK     1     -12.187  15.737  70.724  1.00  0.00    -0.391 OA 
BRANCH   5   6
HETATM    6  C   UNK     1     -12.025  15.831  69.311  1.00  0.00    -0.289 C  
BRANCH   6   7
HETATM    7  C   UNK     1     -10.746  16.599  69.004  1.00  0.00    -0.343 C  
BRANCH   7   8
HETATM    8  C   UNK     1      -9.697  15.728  68.305  1.00  0.00    -0.201 C  
BRANCH   8   9
HETATM    9  C   UNK     1      -9.469  16.206  66.874  1.00  0.00    -0.245 C  
BRANCH   9  10
HETATM   10  C   UNK     1     -10.614  15.816  65.942  1.00  0.00    -0.350 C  
BRANCH  10  11
HETATM   11  C   UNK     1     -10.465  14.381  65.470  1.00  0.00    -0.350 C  
HETATM   12  O   UNK     1     -10.294  14.067  64.296  1.00  0.00    -0.253 OA 
HETATM   13  N   UNK     1     -10.544  13.460  66.490  1.00  0.00    -0.285 N  
HETATM   14  H   UNK     1     -10.730  13.780  67.441  1.00  0.00     0.000 HD 
BRANCH  13  15
HETATM   15  C   UNK     1     -10.367  12.044  66.234  1.00  0.00    -0.221 C  
BRANCH  15  16
HETATM   16  C   UNK     1     -10.992  11.165  67.321  1.00  0.00    -0.354 C  
BRANCH  16  17
HETATM   17  C   UNK     1      -9.923  10.540  68.217  1.00  0.00    -0.176 C  
BRANCH  17  18
HETATM   18  C   UNK     1     -10.492   9.456  69.143  1.00  0.00    -0.230 C  
BRANCH  18  19
HETATM   19  C   UNK     1      -9.747   8.116  69.047  1.00  0.00    -0.163 C  
HETATM   20  N   UNK     1      -8.293   8.285  69.337  1.00  0.00    -0.120 NA 
HETATM   21  C   UNK     1      -9.896   7.519  67.639  1.00  0.00    -0.161 C  
HETATM   22  O   UNK     1     -10.873   6.925  67.224  1.00  0.00    -0.309 OA 
HETATM   23  O   UNK     1      -8.796   7.784  66.879  1.00  0.00    -0.123 OA 
HETATM   24  H1  UNK     1      -7.798   7.395  69.274  1.00  0.00     0.000 HD 
HETATM   25  H2  UNK     1      -8.141   8.734  70.241  1.00  0.00     0.000 HD 
ENDBRANCH  18  19
ENDBRANCH  17  18
ENDBRANCH  16  17
ENDBRANCH  15  16
ENDBRANCH  13  15
ENDBRANCH  10  11
ENDBRANCH   9  10
ENDBRANCH   8   9
ENDBRANCH   7   8
ENDBRANCH   6   7
ENDBRANCH   5   6
ENDBRANCH   4   5
ENDBRANCH   3   4
ENDBRANCH   2   3
TORSDOF 14
ENDMDL
MODEL      299
REMARK 921   NORMALIZED FREE ENERGY PREDICTED BY IDOCK:   -3.18 KCAL/MOL
REMARK 922        TOTAL FREE ENERGY PREDICTED BY IDOCK:   -6.71 KCAL/MOL
REMARK 923 INTER-LIGAND FREE ENERGY PREDICTED BY IDOCK:   -6.22 KCAL/MOL
REMARK 924 INTRA-LIGAND FREE ENERGY PREDICTED BY IDOCK:   -0.49 KCAL/MOL
REMARK 927      BINDING AFFINITY PREDICTED BY RF-SCORE:    0.00 PKD
ROOT
HETATM    1  C   UNK     1     -10.169  19.445  68.687  1.00  0.00    -0.371 C  
HETATM    2  O   UNK     1     -10.109  19.563  67.273  1.00  0.00    -0.355 OA 
ENDROOT
BRANCH   2   3
HETATM    3  C   UNK     1      -8.775  19.800  66.824  1.00  0.00    -0.339 C  
BRANCH   3   4
HETATM    4  C   UNK     1      -8.069  18.464  66.626  1.00  0.00    -0.264 C  
BRANCH   4   5
HETATM    5  O   UNK     1      -8.912  17.591  65.878  1.00  0.00    -0.517 OA 
BRANCH   5   6
HETATM    6  C   UNK     1      -8.736  16.231  66.269  1.00  0.00    -0.335 C  
BRANCH   6   7
HETATM    7  C   UNK     1     -10.061  15.494  66.124  1.00  0.00    -0.329 C  
BRANCH   7   8
HETATM    8  C   UNK     1     -10.812  15.380  67.455  1.00  0.00    -0.309 C  
BRANCH   8   9
HETATM    9  C   UNK     1     -10.362  14.140  68.221  1.00  0.00    -0.245 C  
BRANCH   9  10
HETATM   10  C   UNK     1     -11.305  13.793  69.371  1.00  0.00    -0.306 C  
BRANCH  10  11
HETATM   11  C   UNK     1     -11.460  12.290  69.511  1.00  0.00    -0.249 C  
HETATM   12  O   UNK     1     -12.498  11.746  69.873  1.00  0.00    -0.148 OA 
HETATM   13  N   UNK     1     -10.316  11.591  69.196  1.00  0.00    -0.405 N  
HETATM   14  H   UNK     1      -9.470  12.102  68.942  1.00  0.00     0.000 HD 
BRANCH  13  15
HETATM   15  C   UNK     1     -10.295  10.142  69.218  1.00  0.00    -0.223 C  
BRANCH  15  16
HETATM   16  C   UNK     1      -9.600   9.542  67.993  1.00  0.00    -0.155 C  
BRANCH  16  17
HETATM   17  C   UNK     1      -9.076   8.135  68.281  1.00  0.00    -0.135 C  
BRANCH  17  18
HETATM   18  C   UNK     1      -8.942   7.286  67.008  1.00  0.00    -0.140 C  
BRANCH  18  19
HETATM   19  C   UNK     1      -9.885   6.074  66.979  1.00  0.00    -0.152 C  
HETATM   20  N   UNK     1     -11.315   6.502  66.976  1.00  0.00    -0.780 NA 
HETATM   21  C   UNK     1      -9.648   5.180  68.206  1.00  0.00    -0.135 C  
HETATM   22  O   UNK     1      -8.739   4.380  68.331  1.00  0.00    -0.096 OA 
HETATM   23  O   UNK     1     -10.570   5.430  69.177  1.00  0.00    -0.234 OA 
HETATM   24  H1  UNK     1     -11.941   5.698  66.955  1.00  0.00     0.000 HD 
HETATM   25  H2  UNK     1     -11.510   7.149  66.211  1.00  0.00     0.000 HD 
ENDBRANCH  18  19
ENDBRANCH  17  18
ENDBRANCH  16  17
ENDBRANCH  15  16
ENDBRANCH  13  15
ENDBRANCH  10  11
ENDBRANCH   9  10
ENDBRANCH   8   9
ENDBRANCH   7   8
ENDBRANCH   6   7
ENDBRANCH   5   6
ENDBRANCH   4   5
ENDBRANCH   3   4
ENDBRANCH   2   3
TORSDOF 14
ENDMDL
MODEL      300
REMARK 921   NORMALIZED FREE ENERGY PREDICTED BY IDOCK:   -3.18 KCAL/MOL
REMARK 922        TOTAL FREE ENERGY PREDICTED BY IDOCK:   -6.71 KCAL/MOL
REMARK 923 INTER-LIGAND FREE ENERGY PREDICTED BY IDOCK:   -6.15 KCAL/MOL
REMARK 924 INTRA-LIGAND FREE ENERGY PREDICTED BY IDOCK:   -0.56 KCAL/MOL
REMARK 927      BINDING AFFINITY PREDICTED BY RF-SCORE:    0.00 PKD
ROOT
HETATM    1  C   UNK     1      -7.151   4.987  72.889  1.00  0.00    -0.084 C  
HETATM    2  O   UNK     1      -6.500   6.222  73.153  1.00  0.00    -0.066 OA 
ENDROOT
BRANCH   2   3
HETATM    3  C   UNK     1      -7.330   7.096  73.918  1.00  0.00    -0.093 C  
BRANCH   3   4
HETATM    4  C   UNK     1      -8.792   6.760  73.650  1.00  0.00    -0.137 C  
BRANCH   4   5
HETATM    5  O   UNK     1      -9.517   7.962  73.406  1.00  0.00    -0.271 OA 
BRANCH   5   6
HETATM    6  C   UNK     1     -10.871   7.694  73.050  1.00  0.00    -0.400 C  
BRANCH   6   7
HETATM    7  C   UNK     1     -10.897   6.689  71.906  1.00  0.00    -0.267 C  
BRANCH   7   8
HETATM    8  C   UNK     1     -10.749   7.362  70.536  1.00  0.00    -0.247 C  
BRANCH   8   9
HETATM    9  C   UNK     1     -11.227   8.810  70.595  1.00  0.00    -0.294 C  
BRANCH   9  10
HETATM   10  C   UNK     1     -10.438   9.720  69.658  1.00  0.00    -0.263 C  
BRANCH  10  11
HETATM   11  C   UNK     1     -11.228  10.972  69.324  1.00  0.00    -0.257 C  
HETATM   12  O   UNK     1     -11.890  11.597  70.147  1.00  0.00    -0.330 OA 
HETATM   13  N   UNK     1     -11.133  11.341  68.001  1.00  0.00    -0.243 N  
HETATM   14  H   UNK     1     -10.601  10.757  67.355  1.00  0.00     0.000 HD 
BRANCH  13  15
HETATM   15  C   UNK     1     -11.776  12.544  67.511  1.00  0.00    -0.374 C  
BRANCH  15  16
HETATM   16  C   UNK     1     -11.624  12.721  65.998  1.00  0.00    -0.432 C  
BRANCH  16  17
HETATM   17  C   UNK     1     -10.398  13.567  65.655  1.00  0.00    -0.303 C  
BRANCH  17  18
HETATM   18  C   UNK     1     -10.693  15.073  65.693  1.00  0.00    -0.365 C  
BRANCH  18  19
HETATM   19  C   UNK     1     -10.038  15.796  66.879  1.00  0.00    -0.266 C  
HETATM   20  N   UNK     1     -11.043  16.125  67.933  1.00  0.00    -0.325 NA 
HETATM   21  C   UNK     1      -9.376  17.102  66.413  1.00  0.00    -0.262 C  
HETATM   22  O   UNK     1      -8.298  17.187  65.857  1.00  0.00    -0.527 OA 
HETATM   23  O   UNK     1     -10.183  18.172  66.660  1.00  0.00    -0.343 OA 
HETATM   24  H1  UNK     1     -10.608  16.604  68.721  1.00  0.00     0.000 HD 
HETATM   25  H2  UNK     1     -11.554  15.295  68.235  1.00  0.00     0.000 HD 
ENDBRANCH  18  19
ENDBRANCH  17  18
ENDBRANCH  16  17
ENDBRANCH  15  16
ENDBRANCH  13  15
ENDBRANCH  10  11
ENDBRANCH   9  10
ENDBRANCH   8   9
ENDBRANCH   7   8
ENDBRANCH   6   7
ENDBRANCH   5   6
ENDBRANCH   4   5
ENDBRANCH   3   4
ENDBRANCH   2   3
TORSDOF 14
ENDMDL
MODEL      301
REMARK 921   NORMALIZED FREE ENERGY PREDICTED BY IDOCK:   -3.17 KCAL/MOL
REMARK 922        TOTAL FREE ENERGY PREDICTED BY IDOCK:   -6.70 KCAL/MOL
REMARK 923 INTER-LIGAND FREE ENERGY PREDICTED BY IDOCK:   -5.55 KCAL/MOL
REMARK 924 INTRA-LIGAND FREE ENERGY PREDICTED BY IDOCK:   -1.15 KCAL/MOL
REMARK 927      BINDING AFFINITY PREDICTED BY RF-SCORE:    0.00 PKD
ROOT
HETATM    1  C   UNK     1     -13.549  14.039  71.607  1.00  0.00    -0.350 C  
HETATM    2  O   UNK     1     -12.139  14.153  71.481  1.00  0.00    -0.314 OA 
ENDROOT
BRANCH   2   3
HETATM    3  C   UNK     1     -11.758  15.460  71.047  1.00  0.00    -0.364 C  
BRANCH   3   4
HETATM    4  C   UNK     1     -10.974  15.344  69.745  1.00  0.00    -0.287 C  
BRANCH   4   5
HETATM    5  O   UNK     1     -11.065  14.009  69.255  1.00  0.00    -0.248 OA 
BRANCH   5   6
HETATM    6  C   UNK     1     -10.724  13.934  67.873  1.00  0.00    -0.240 C  
BRANCH   6   7
HETATM    7  C   UNK     1      -9.621  14.941  67.575  1.00  0.00    -0.204 C  
BRANCH   7   8
HETATM    8  C   UNK     1      -8.266  14.266  67.334  1.00  0.00    -0.217 C  
BRANCH   8   9
HETATM    9  C   UNK     1      -7.659  13.794  68.653  1.00  0.00    -0.125 C  
BRANCH   9  10
HETATM   10  C   UNK     1      -6.686  12.634  68.461  1.00  0.00    -0.089 C  
BRANCH  10  11
HETATM   11  C   UNK     1      -7.427  11.312  68.374  1.00  0.00    -0.108 C  
HETATM   12  O   UNK     1      -7.019  10.346  67.737  1.00  0.00    -0.080 OA 
HETATM   13  N   UNK     1      -8.608  11.301  69.081  1.00  0.00    -0.379 N  
HETATM   14  H   UNK     1      -8.916  12.149  69.557  1.00  0.00     0.000 HD 
BRANCH  13  15
HETATM   15  C   UNK     1      -9.422  10.104  69.159  1.00  0.00    -0.206 C  
BRANCH  15  16
HETATM   16  C   UNK     1     -10.454  10.016  68.031  1.00  0.00    -0.260 C  
BRANCH  16  17
HETATM   17  C   UNK     1     -10.065   8.959  66.999  1.00  0.00    -0.331 C  
BRANCH  17  18
HETATM   18  C   UNK     1      -9.303   7.781  67.622  1.00  0.00    -0.160 C  
BRANCH  18  19
HETATM   19  C   UNK     1     -10.179   6.541  67.859  1.00  0.00    -0.168 C  
HETATM   20  N   UNK     1     -11.510   6.687  67.200  1.00  0.00    -0.746 NA 
HETATM   21  C   UNK     1     -10.402   6.322  69.364  1.00  0.00    -0.216 C  
HETATM   22  O   UNK     1      -9.603   5.816  70.129  1.00  0.00    -0.158 OA 
HETATM   23  O   UNK     1     -11.610   6.817  69.754  1.00  0.00    -0.298 OA 
HETATM   24  H1  UNK     1     -12.092   5.865  67.357  1.00  0.00     0.000 HD 
HETATM   25  H2  UNK     1     -11.415   6.895  66.206  1.00  0.00     0.000 HD 
ENDBRANCH  18  19
ENDBRANCH  17  18
ENDBRANCH  16  17
ENDBRANCH  15  16
ENDBRANCH  13  15
ENDBRANCH  10  11
ENDBRANCH   9  10
ENDBRANCH   8   9
ENDBRANCH   7   8
ENDBRANCH   6   7
ENDBRANCH   5   6
ENDBRANCH   4   5
ENDBRANCH   3   4
ENDBRANCH   2   3
TORSDOF 14
ENDMDL
MODEL      302
REMARK 921   NORMALIZED FREE ENERGY PREDICTED BY IDOCK:   -3.17 KCAL/MOL
REMARK 922        TOTAL FREE ENERGY PREDICTED BY IDOCK:   -6.70 KCAL/MOL
REMARK 923 INTER-LIGAND FREE ENERGY PREDICTED BY IDOCK:   -5.89 KCAL/MOL
REMARK 924 INTRA-LIGAND FREE ENERGY PREDICTED BY IDOCK:   -0.81 KCAL/MOL
REMARK 927      BINDING AFFINITY PREDICTED BY RF-SCORE:    0.00 PKD
ROOT
HETATM    1  C   UNK     1      -6.756  18.685  65.523  1.00  0.00    -0.249 C  
HETATM    2  O   UNK     1      -7.937  18.037  65.974  1.00  0.00    -0.475 OA 
ENDROOT
BRANCH   2   3
HETATM    3  C   UNK     1      -8.379  18.570  67.223  1.00  0.00    -0.253 C  
BRANCH   3   4
HETATM    4  C   UNK     1      -8.495  17.438  68.236  1.00  0.00    -0.249 C  
BRANCH   4   5
HETATM    5  O   UNK     1      -7.439  16.504  68.025  1.00  0.00    -0.149 OA 
BRANCH   5   6
HETATM    6  C   UNK     1      -7.919  15.162  68.018  1.00  0.00    -0.132 C  
BRANCH   6   7
HETATM    7  C   UNK     1      -9.378  15.156  67.579  1.00  0.00    -0.198 C  
BRANCH   7   8
HETATM    8  C   UNK     1     -10.074  13.826  67.888  1.00  0.00    -0.246 C  
BRANCH   8   9
HETATM    9  C   UNK     1      -9.479  12.701  67.045  1.00  0.00    -0.220 C  
BRANCH   9  10
HETATM   10  C   UNK     1     -10.339  11.440  67.070  1.00  0.00    -0.258 C  
BRANCH  10  11
HETATM   11  C   UNK     1     -10.385  10.841  68.464  1.00  0.00    -0.185 C  
HETATM   12  O   UNK     1      -9.385  10.511  69.094  1.00  0.00    -0.194 OA 
HETATM   13  N   UNK     1     -11.663  10.701  68.956  1.00  0.00    -0.460 N  
HETATM   14  H   UNK     1     -12.457  10.955  68.368  1.00  0.00     0.000 HD 
BRANCH  13  15
HETATM   15  C   UNK     1     -11.898  10.199  70.295  1.00  0.00    -0.261 C  
BRANCH  15  16
HETATM   16  C   UNK     1     -13.023  10.945  71.017  1.00  0.00    -0.396 C  
BRANCH  16  17
HETATM   17  C   UNK     1     -13.146  12.386  70.522  1.00  0.00     0.424 C  
BRANCH  17  18
HETATM   18  C   UNK     1     -12.198  13.343  71.259  1.00  0.00    -0.163 C  
BRANCH  18  19
HETATM   19  C   UNK     1     -12.852  14.053  72.453  1.00  0.00    -0.317 C  
HETATM   20  N   UNK     1     -14.196  13.477  72.754  1.00  0.00    -0.544 NA 
HETATM   21  C   UNK     1     -13.020  15.553  72.160  1.00  0.00    -0.422 C  
HETATM   22  O   UNK     1     -12.140  16.389  72.236  1.00  0.00    -0.501 OA 
HETATM   23  O   UNK     1     -14.290  15.830  71.750  1.00  0.00    -0.437 OA 
HETATM   24  H1  UNK     1     -14.630  13.948  73.547  1.00  0.00     0.000 HD 
HETATM   25  H2  UNK     1     -14.148  12.468  72.898  1.00  0.00     0.000 HD 
ENDBRANCH  18  19
ENDBRANCH  17  18
ENDBRANCH  16  17
ENDBRANCH  15  16
ENDBRANCH  13  15
ENDBRANCH  10  11
ENDBRANCH   9  10
ENDBRANCH   8   9
ENDBRANCH   7   8
ENDBRANCH   6   7
ENDBRANCH   5   6
ENDBRANCH   4   5
ENDBRANCH   3   4
ENDBRANCH   2   3
TORSDOF 14
ENDMDL
MODEL      303
REMARK 921   NORMALIZED FREE ENERGY PREDICTED BY IDOCK:   -3.16 KCAL/MOL
REMARK 922        TOTAL FREE ENERGY PREDICTED BY IDOCK:   -6.67 KCAL/MOL
REMARK 923 INTER-LIGAND FREE ENERGY PREDICTED BY IDOCK:   -6.17 KCAL/MOL
REMARK 924 INTRA-LIGAND FREE ENERGY PREDICTED BY IDOCK:   -0.50 KCAL/MOL
REMARK 927      BINDING AFFINITY PREDICTED BY RF-SCORE:    0.00 PKD
ROOT
HETATM    1  C   UNK     1     -12.278  15.624  73.741  1.00  0.00    -0.561 C  
HETATM    2  O   UNK     1     -13.025  15.843  72.553  1.00  0.00    -0.446 OA 
ENDROOT
BRANCH   2   3
HETATM    3  C   UNK     1     -13.927  14.766  72.297  1.00  0.00    -0.496 C  
BRANCH   3   4
HETATM    4  C   UNK     1     -13.207  13.694  71.488  1.00  0.00    -0.331 C  
BRANCH   4   5
HETATM    5  O   UNK     1     -12.339  14.317  70.544  1.00  0.00    -0.316 OA 
BRANCH   5   6
HETATM    6  C   UNK     1     -11.981  13.422  69.493  1.00  0.00    -0.319 C  
BRANCH   6   7
HETATM    7  C   UNK     1     -11.167  14.178  68.450  1.00  0.00    -0.289 C  
BRANCH   7   8
HETATM    8  C   UNK     1      -9.798  13.536  68.203  1.00  0.00    -0.237 C  
BRANCH   8   9
HETATM    9  C   UNK     1      -9.465  13.538  66.713  1.00  0.00    -0.272 C  
BRANCH   9  10
HETATM   10  C   UNK     1     -10.306  12.534  65.929  1.00  0.00    -0.284 C  
BRANCH  10  11
HETATM   11  C   UNK     1      -9.623  11.180  65.873  1.00  0.00    -0.218 C  
HETATM   12  O   UNK     1      -8.755  10.891  65.056  1.00  0.00    -0.179 OA 
HETATM   13  N   UNK     1     -10.076  10.300  66.830  1.00  0.00    -0.211 N  
HETATM   14  H   UNK     1     -10.831  10.584  67.455  1.00  0.00     0.000 HD 
BRANCH  13  15
HETATM   15  C   UNK     1      -9.498   8.978  66.964  1.00  0.00    -0.163 C  
BRANCH  15  16
HETATM   16  C   UNK     1     -10.535   7.915  67.335  1.00  0.00    -0.360 C  
BRANCH  16  17
HETATM   17  C   UNK     1     -10.468   7.563  68.821  1.00  0.00    -0.212 C  
BRANCH  17  18
HETATM   18  C   UNK     1     -11.281   6.306  69.165  1.00  0.00    -0.439 C  
BRANCH  18  19
HETATM   19  C   UNK     1     -10.459   5.222  69.878  1.00  0.00    -0.281 C  
HETATM   20  N   UNK     1      -9.670   5.797  71.007  1.00  0.00    -0.167 NA 
HETATM   21  C   UNK     1      -9.485   4.553  68.895  1.00  0.00    -0.160 C  
HETATM   22  O   UNK     1      -9.779   3.696  68.083  1.00  0.00    -0.137 OA 
HETATM   23  O   UNK     1      -8.235   5.082  69.012  1.00  0.00    -0.086 OA 
HETATM   24  H1  UNK     1      -9.125   5.078  71.480  1.00  0.00     0.000 HD 
HETATM   25  H2  UNK     1     -10.267   6.306  71.660  1.00  0.00     0.000 HD 
ENDBRANCH  18  19
ENDBRANCH  17  18
ENDBRANCH  16  17
ENDBRANCH  15  16
ENDBRANCH  13  15
ENDBRANCH  10  11
ENDBRANCH   9  10
ENDBRANCH   8   9
ENDBRANCH   7   8
ENDBRANCH   6   7
ENDBRANCH   5   6
ENDBRANCH   4   5
ENDBRANCH   3   4
ENDBRANCH   2   3
TORSDOF 14
ENDMDL
MODEL      304
REMARK 921   NORMALIZED FREE ENERGY PREDICTED BY IDOCK:   -3.16 KCAL/MOL
REMARK 922        TOTAL FREE ENERGY PREDICTED BY IDOCK:   -6.67 KCAL/MOL
REMARK 923 INTER-LIGAND FREE ENERGY PREDICTED BY IDOCK:   -6.33 KCAL/MOL
REMARK 924 INTRA-LIGAND FREE ENERGY PREDICTED BY IDOCK:   -0.34 KCAL/MOL
REMARK 927      BINDING AFFINITY PREDICTED BY RF-SCORE:    0.00 PKD
ROOT
HETATM    1  C   UNK     1     -13.177  12.461  71.545  1.00  0.00    -0.190 C  
HETATM    2  O   UNK     1     -13.798  13.524  72.252  1.00  0.00    -0.525 OA 
ENDROOT
BRANCH   2   3
HETATM    3  C   UNK     1     -13.333  14.796  71.798  1.00  0.00    -0.356 C  
BRANCH   3   4
HETATM    4  C   UNK     1     -12.443  14.595  70.577  1.00  0.00    -0.347 C  
BRANCH   4   5
HETATM    5  O   UNK     1     -12.395  15.803  69.823  1.00  0.00    -0.319 OA 
BRANCH   5   6
HETATM    6  C   UNK     1     -11.702  15.624  68.589  1.00  0.00    -0.352 C  
BRANCH   6   7
HETATM    7  C   UNK     1     -11.703  14.144  68.227  1.00  0.00    -0.383 C  
BRANCH   7   8
HETATM    8  C   UNK     1     -11.967  13.910  66.736  1.00  0.00    -0.472 C  
BRANCH   8   9
HETATM    9  C   UNK     1     -10.814  13.138  66.101  1.00  0.00    -0.293 C  
BRANCH   9  10
HETATM   10  C   UNK     1     -11.290  11.891  65.359  1.00  0.00    -0.334 C  
BRANCH  10  11
HETATM   11  C   UNK     1     -10.458  10.681  65.741  1.00  0.00    -0.164 C  
HETATM   12  O   UNK     1      -9.754  10.063  64.948  1.00  0.00    -0.296 OA 
HETATM   13  N   UNK     1     -10.571  10.338  67.070  1.00  0.00    -0.251 N  
HETATM   14  H   UNK     1     -11.206  10.864  67.671  1.00  0.00     0.000 HD 
BRANCH  13  15
HETATM   15  C   UNK     1      -9.804   9.241  67.627  1.00  0.00    -0.176 C  
BRANCH  15  16
HETATM   16  C   UNK     1     -10.183   8.934  69.078  1.00  0.00    -0.217 C  
BRANCH  16  17
HETATM   17  C   UNK     1     -10.219   7.428  69.339  1.00  0.00    -0.201 C  
BRANCH  17  18
HETATM   18  C   UNK     1     -11.444   7.003  70.162  1.00  0.00    -0.302 C  
BRANCH  18  19
HETATM   19  C   UNK     1     -11.100   6.079  71.340  1.00  0.00    -0.274 C  
HETATM   20  N   UNK     1     -11.611   6.633  72.628  1.00  0.00    -0.456 NA 
HETATM   21  C   UNK     1      -9.577   5.903  71.456  1.00  0.00    -0.153 C  
HETATM   22  O   UNK     1      -8.898   5.164  70.770  1.00  0.00    -0.128 OA 
HETATM   23  O   UNK     1      -9.063   6.729  72.410  1.00  0.00    -0.136 OA 
HETATM   24  H1  UNK     1     -11.383   6.020  73.410  1.00  0.00     0.000 HD 
HETATM   25  H2  UNK     1     -12.612   6.825  72.582  1.00  0.00     0.000 HD 
ENDBRANCH  18  19
ENDBRANCH  17  18
ENDBRANCH  16  17
ENDBRANCH  15  16
ENDBRANCH  13  15
ENDBRANCH  10  11
ENDBRANCH   9  10
ENDBRANCH   8   9
ENDBRANCH   7   8
ENDBRANCH   6   7
ENDBRANCH   5   6
ENDBRANCH   4   5
ENDBRANCH   3   4
ENDBRANCH   2   3
TORSDOF 14
ENDMDL
MODEL      305
REMARK 921   NORMALIZED FREE ENERGY PREDICTED BY IDOCK:   -3.15 KCAL/MOL
REMARK 922        TOTAL FREE ENERGY PREDICTED BY IDOCK:   -6.65 KCAL/MOL
REMARK 923 INTER-LIGAND FREE ENERGY PREDICTED BY IDOCK:   -5.91 KCAL/MOL
REMARK 924 INTRA-LIGAND FREE ENERGY PREDICTED BY IDOCK:   -0.74 KCAL/MOL
REMARK 927      BINDING AFFINITY PREDICTED BY RF-SCORE:    0.00 PKD
ROOT
HETATM    1  C   UNK     1      -8.097  19.606  66.439  1.00  0.00    -0.326 C  
HETATM    2  O   UNK     1      -9.380  19.981  65.959  1.00  0.00    -0.383 OA 
ENDROOT
BRANCH   2   3
HETATM    3  C   UNK     1     -10.407  19.158  66.516  1.00  0.00    -0.442 C  
BRANCH   3   4
HETATM    4  C   UNK     1     -10.417  19.330  68.030  1.00  0.00    -0.386 C  
BRANCH   4   5
HETATM    5  O   UNK     1     -10.229  18.061  68.651  1.00  0.00    -0.376 OA 
BRANCH   5   6
HETATM    6  C   UNK     1     -10.545  16.991  67.763  1.00  0.00    -0.350 C  
BRANCH   6   7
HETATM    7  C   UNK     1     -11.262  15.893  68.539  1.00  0.00    -0.362 C  
BRANCH   7   8
HETATM    8  C   UNK     1     -10.518  14.555  68.476  1.00  0.00    -0.250 C  
BRANCH   8   9
HETATM    9  C   UNK     1     -11.014  13.720  67.299  1.00  0.00    -0.302 C  
BRANCH   9  10
HETATM   10  C   UNK     1     -11.751  12.462  67.749  1.00  0.00    -0.413 C  
BRANCH  10  11
HETATM   11  C   UNK     1     -11.103  11.216  67.172  1.00  0.00    -0.287 C  
HETATM   12  O   UNK     1     -10.568  11.179  66.068  1.00  0.00    -0.256 OA 
HETATM   13  N   UNK     1     -11.175  10.126  68.009  1.00  0.00    -0.487 N  
HETATM   14  H   UNK     1     -11.669  10.207  68.897  1.00  0.00     0.000 HD 
BRANCH  13  15
HETATM   15  C   UNK     1     -10.559   8.864  67.648  1.00  0.00    -0.224 C  
BRANCH  15  16
HETATM   16  C   UNK     1      -9.360   8.516  68.534  1.00  0.00    -0.139 C  
BRANCH  16  17
HETATM   17  C   UNK     1      -8.090   8.326  67.705  1.00  0.00    -0.127 C  
BRANCH  17  18
HETATM   18  C   UNK     1      -7.433   9.660  67.322  1.00  0.00    -0.088 C  
BRANCH  18  19
HETATM   19  C   UNK     1      -7.039   9.744  65.840  1.00  0.00    -0.102 C  
HETATM   20  N   UNK     1      -7.733  10.877  65.160  1.00  0.00    -0.358 NA 
HETATM   21  C   UNK     1      -7.406   8.441  65.112  1.00  0.00    -0.081 C  
HETATM   22  O   UNK     1      -6.767   7.408  65.150  1.00  0.00    -0.043 OA 
HETATM   23  O   UNK     1      -8.586   8.574  64.443  1.00  0.00    -0.127 OA 
HETATM   24  H1  UNK     1      -7.471  10.934  64.177  1.00  0.00     0.000 HD 
HETATM   25  H2  UNK     1      -7.568  11.761  65.643  1.00  0.00     0.000 HD 
ENDBRANCH  18  19
ENDBRANCH  17  18
ENDBRANCH  16  17
ENDBRANCH  15  16
ENDBRANCH  13  15
ENDBRANCH  10  11
ENDBRANCH   9  10
ENDBRANCH   8   9
ENDBRANCH   7   8
ENDBRANCH   6   7
ENDBRANCH   5   6
ENDBRANCH   4   5
ENDBRANCH   3   4
ENDBRANCH   2   3
TORSDOF 14
ENDMDL
MODEL      306
REMARK 921   NORMALIZED FREE ENERGY PREDICTED BY IDOCK:   -3.15 KCAL/MOL
REMARK 922        TOTAL FREE ENERGY PREDICTED BY IDOCK:   -6.65 KCAL/MOL
REMARK 923 INTER-LIGAND FREE ENERGY PREDICTED BY IDOCK:   -6.32 KCAL/MOL
REMARK 924 INTRA-LIGAND FREE ENERGY PREDICTED BY IDOCK:   -0.33 KCAL/MOL
REMARK 927      BINDING AFFINITY PREDICTED BY RF-SCORE:    0.00 PKD
ROOT
HETATM    1  C   UNK     1     -10.980   5.047  72.938  1.00  0.00    -0.277 C  
HETATM    2  O   UNK     1     -11.477   5.885  71.904  1.00  0.00    -0.279 OA 
ENDROOT
BRANCH   2   3
HETATM    3  C   UNK     1     -11.866   7.162  72.409  1.00  0.00    -0.185 C  
BRANCH   3   4
HETATM    4  C   UNK     1     -11.774   8.191  71.289  1.00  0.00    -0.279 C  
BRANCH   4   5
HETATM    5  O   UNK     1     -11.715   9.500  71.851  1.00  0.00    -0.374 OA 
BRANCH   5   6
HETATM    6  C   UNK     1     -12.621  10.390  71.202  1.00  0.00    -0.410 C  
BRANCH   6   7
HETATM    7  C   UNK     1     -11.826  11.415  70.404  1.00  0.00    -0.428 C  
BRANCH   7   8
HETATM    8  C   UNK     1     -12.146  11.361  68.906  1.00  0.00    -0.285 C  
BRANCH   8   9
HETATM    9  C   UNK     1     -11.515  12.546  68.179  1.00  0.00    -0.368 C  
BRANCH   9  10
HETATM   10  C   UNK     1     -10.185  12.183  67.523  1.00  0.00    -0.209 C  
BRANCH  10  11
HETATM   11  C   UNK     1      -9.080  13.116  67.984  1.00  0.00    -0.207 C  
HETATM   12  O   UNK     1      -7.963  13.147  67.478  1.00  0.00    -0.156 OA 
HETATM   13  N   UNK     1      -9.452  13.928  69.032  1.00  0.00    -0.404 N  
HETATM   14  H   UNK     1     -10.382  13.827  69.438  1.00  0.00     0.000 HD 
BRANCH  13  15
HETATM   15  C   UNK     1      -8.544  14.923  69.566  1.00  0.00     0.010 C  
BRANCH  15  16
HETATM   16  C   UNK     1      -8.945  16.351  69.192  1.00  0.00    -0.197 C  
BRANCH  16  17
HETATM   17  C   UNK     1     -10.156  16.365  68.258  1.00  0.00    -0.248 C  
BRANCH  17  18
HETATM   18  C   UNK     1     -10.082  17.492  67.218  1.00  0.00    -0.327 C  
BRANCH  18  19
HETATM   19  C   UNK     1      -9.153  18.644  67.627  1.00  0.00    -0.278 C  
HETATM   20  N   UNK     1      -9.637  19.312  68.871  1.00  0.00    -0.411 NA 
HETATM   21  C   UNK     1      -9.076  19.695  66.509  1.00  0.00    -0.373 C  
HETATM   22  O   UNK     1      -8.402  19.604  65.500  1.00  0.00    -0.311 OA 
HETATM   23  O   UNK     1      -9.909  20.742  66.766  1.00  0.00    -0.324 OA 
HETATM   24  H1  UNK     1      -9.020  20.077  69.143  1.00  0.00     0.000 HD 
HETATM   25  H2  UNK     1      -9.762  18.643  69.631  1.00  0.00     0.000 HD 
ENDBRANCH  18  19
ENDBRANCH  17  18
ENDBRANCH  16  17
ENDBRANCH  15  16
ENDBRANCH  13  15
ENDBRANCH  10  11
ENDBRANCH   9  10
ENDBRANCH   8   9
ENDBRANCH   7   8
ENDBRANCH   6   7
ENDBRANCH   5   6
ENDBRANCH   4   5
ENDBRANCH   3   4
ENDBRANCH   2   3
TORSDOF 14
ENDMDL
MODEL      307
REMARK 921   NORMALIZED FREE ENERGY PREDICTED BY IDOCK:   -3.13 KCAL/MOL
REMARK 922        TOTAL FREE ENERGY PREDICTED BY IDOCK:   -6.62 KCAL/MOL
REMARK 923 INTER-LIGAND FREE ENERGY PREDICTED BY IDOCK:   -4.81 KCAL/MOL
REMARK 924 INTRA-LIGAND FREE ENERGY PREDICTED BY IDOCK:   -1.82 KCAL/MOL
REMARK 927      BINDING AFFINITY PREDICTED BY RF-SCORE:    0.00 PKD
ROOT
HETATM    1  C   UNK     1     -10.528   8.160  67.415  1.00  0.00    -0.285 C  
HETATM    2  O   UNK     1      -9.646   8.232  68.525  1.00  0.00    -0.146 OA 
ENDROOT
BRANCH   2   3
HETATM    3  C   UNK     1      -8.675   7.186  68.489  1.00  0.00    -0.126 C  
BRANCH   3   4
HETATM    4  C   UNK     1      -8.313   6.791  69.916  1.00  0.00    -0.135 C  
BRANCH   4   5
HETATM    5  O   UNK     1      -6.895   6.726  70.044  1.00  0.00    -0.054 OA 
BRANCH   5   6
HETATM    6  C   UNK     1      -6.258   7.811  69.371  1.00  0.00    -0.034 C  
BRANCH   6   7
HETATM    7  C   UNK     1      -5.944   8.908  70.379  1.00  0.00    -0.035 C  
BRANCH   7   8
HETATM    8  C   UNK     1      -6.893  10.105  70.251  1.00  0.00    -0.150 C  
BRANCH   8   9
HETATM    9  C   UNK     1      -6.500  10.978  69.063  1.00  0.00    -0.056 C  
BRANCH   9  10
HETATM   10  C   UNK     1      -7.509  10.894  67.921  1.00  0.00    -0.090 C  
BRANCH  10  11
HETATM   11  C   UNK     1      -8.335  12.164  67.831  1.00  0.00    -0.161 C  
HETATM   12  O   UNK     1      -8.014  13.136  67.155  1.00  0.00    -0.157 OA 
HETATM   13  N   UNK     1      -9.485  12.122  68.587  1.00  0.00    -0.389 N  
HETATM   14  H   UNK     1      -9.677  11.301  69.163  1.00  0.00     0.000 HD 
BRANCH  13  15
HETATM   15  C   UNK     1     -10.426  13.224  68.580  1.00  0.00    -0.250 C  
BRANCH  15  16
HETATM   16  C   UNK     1     -11.877  12.763  68.734  1.00  0.00    -0.346 C  
BRANCH  16  17
HETATM   17  C   UNK     1     -11.959  11.269  69.048  1.00  0.00    -0.393 C  
BRANCH  17  18
HETATM   18  C   UNK     1     -12.642  10.988  70.394  1.00  0.00    -0.349 C  
BRANCH  18  19
HETATM   19  C   UNK     1     -11.763  10.193  71.371  1.00  0.00    -0.290 C  
HETATM   20  N   UNK     1     -10.412   9.932  70.793  1.00  0.00    -0.357 NA 
HETATM   21  C   UNK     1     -12.418   8.843  71.706  1.00  0.00    -0.362 C  
HETATM   22  O   UNK     1     -13.325   8.677  72.499  1.00  0.00    -0.356 OA 
HETATM   23  O   UNK     1     -11.879   7.841  70.957  1.00  0.00    -0.289 OA 
HETATM   24  H1  UNK     1      -9.828   9.405  71.442  1.00  0.00     0.000 HD 
HETATM   25  H2  UNK     1      -9.957  10.796  70.498  1.00  0.00     0.000 HD 
ENDBRANCH  18  19
ENDBRANCH  17  18
ENDBRANCH  16  17
ENDBRANCH  15  16
ENDBRANCH  13  15
ENDBRANCH  10  11
ENDBRANCH   9  10
ENDBRANCH   8   9
ENDBRANCH   7   8
ENDBRANCH   6   7
ENDBRANCH   5   6
ENDBRANCH   4   5
ENDBRANCH   3   4
ENDBRANCH   2   3
TORSDOF 14
ENDMDL
MODEL      308
REMARK 921   NORMALIZED FREE ENERGY PREDICTED BY IDOCK:   -3.13 KCAL/MOL
REMARK 922        TOTAL FREE ENERGY PREDICTED BY IDOCK:   -6.62 KCAL/MOL
REMARK 923 INTER-LIGAND FREE ENERGY PREDICTED BY IDOCK:   -5.87 KCAL/MOL
REMARK 924 INTRA-LIGAND FREE ENERGY PREDICTED BY IDOCK:   -0.75 KCAL/MOL
REMARK 927      BINDING AFFINITY PREDICTED BY RF-SCORE:    0.00 PKD
ROOT
HETATM    1  C   UNK     1      -7.022   5.172  66.511  1.00  0.00    -0.067 C  
HETATM    2  O   UNK     1      -6.993   3.787  66.822  1.00  0.00    -0.056 OA 
ENDROOT
BRANCH   2   3
HETATM    3  C   UNK     1      -8.133   3.108  66.295  1.00  0.00    -0.089 C  
BRANCH   3   4
HETATM    4  C   UNK     1      -9.317   3.320  67.231  1.00  0.00    -0.192 C  
BRANCH   4   5
HETATM    5  O   UNK     1      -9.328   2.294  68.220  1.00  0.00    -0.187 OA 
BRANCH   5   6
HETATM    6  C   UNK     1      -9.270   2.836  69.538  1.00  0.00    -0.134 C  
BRANCH   6   7
HETATM    7  C   UNK     1      -9.406   4.351  69.461  1.00  0.00    -0.226 C  
BRANCH   7   8
HETATM    8  C   UNK     1     -10.096   4.937  70.697  1.00  0.00    -0.306 C  
BRANCH   8   9
HETATM    9  C   UNK     1     -11.134   5.979  70.290  1.00  0.00    -0.415 C  
BRANCH   9  10
HETATM   10  C   UNK     1     -10.984   6.409  68.833  1.00  0.00    -0.412 C  
BRANCH  10  11
HETATM   11  C   UNK     1     -10.448   7.826  68.738  1.00  0.00    -0.181 C  
HETATM   12  O   UNK     1      -9.523   8.250  69.424  1.00  0.00    -0.158 OA 
HETATM   13  N   UNK     1     -11.106   8.597  67.806  1.00  0.00    -0.408 N  
HETATM   14  H   UNK     1     -11.896   8.201  67.296  1.00  0.00     0.000 HD 
BRANCH  13  15
HETATM   15  C   UNK     1     -10.693   9.961  67.538  1.00  0.00    -0.272 C  
BRANCH  15  16
HETATM   16  C   UNK     1     -11.614  10.995  68.190  1.00  0.00    -0.345 C  
BRANCH  16  17
HETATM   17  C   UNK     1     -11.890  12.168  67.250  1.00  0.00    -0.293 C  
BRANCH  17  18
HETATM   18  C   UNK     1     -10.875  13.308  67.418  1.00  0.00    -0.279 C  
BRANCH  18  19
HETATM   19  C   UNK     1     -10.087  13.619  66.136  1.00  0.00    -0.306 C  
HETATM   20  N   UNK     1      -8.693  14.051  66.451  1.00  0.00    -0.435 NA 
HETATM   21  C   UNK     1     -10.776  14.740  65.342  1.00  0.00    -0.371 C  
HETATM   22  O   UNK     1     -11.749  14.601  64.625  1.00  0.00    -0.404 OA 
HETATM   23  O   UNK     1     -10.181  15.942  65.580  1.00  0.00    -0.334 OA 
HETATM   24  H1  UNK     1      -8.170  14.257  65.600  1.00  0.00     0.000 HD 
HETATM   25  H2  UNK     1      -8.210  13.364  67.031  1.00  0.00     0.000 HD 
ENDBRANCH  18  19
ENDBRANCH  17  18
ENDBRANCH  16  17
ENDBRANCH  15  16
ENDBRANCH  13  15
ENDBRANCH  10  11
ENDBRANCH   9  10
ENDBRANCH   8   9
ENDBRANCH   7   8
ENDBRANCH   6   7
ENDBRANCH   5   6
ENDBRANCH   4   5
ENDBRANCH   3   4
ENDBRANCH   2   3
TORSDOF 14
ENDMDL
MODEL      309
REMARK 921   NORMALIZED FREE ENERGY PREDICTED BY IDOCK:   -3.13 KCAL/MOL
REMARK 922        TOTAL FREE ENERGY PREDICTED BY IDOCK:   -6.62 KCAL/MOL
REMARK 923 INTER-LIGAND FREE ENERGY PREDICTED BY IDOCK:   -5.59 KCAL/MOL
REMARK 924 INTRA-LIGAND FREE ENERGY PREDICTED BY IDOCK:   -1.03 KCAL/MOL
REMARK 927      BINDING AFFINITY PREDICTED BY RF-SCORE:    0.00 PKD
ROOT
HETATM    1  C   UNK     1      -8.069   4.776  63.099  1.00  0.00    -0.091 C  
HETATM    2  O   UNK     1      -7.266   4.632  64.262  1.00  0.00    -0.053 OA 
ENDROOT
BRANCH   2   3
HETATM    3  C   UNK     1      -7.771   3.610  65.122  1.00  0.00    -0.085 C  
BRANCH   3   4
HETATM    4  C   UNK     1      -9.211   3.940  65.497  1.00  0.00    -0.151 C  
BRANCH   4   5
HETATM    5  O   UNK     1      -9.221   4.763  66.661  1.00  0.00    -0.120 OA 
BRANCH   5   6
HETATM    6  C   UNK     1      -9.700   6.074  66.371  1.00  0.00    -0.121 C  
BRANCH   6   7
HETATM    7  C   UNK     1     -10.610   6.535  67.502  1.00  0.00    -0.345 C  
BRANCH   7   8
HETATM    8  C   UNK     1      -9.867   7.385  68.538  1.00  0.00    -0.164 C  
BRANCH   8   9
HETATM    9  C   UNK     1      -8.673   8.088  67.898  1.00  0.00    -0.128 C  
BRANCH   9  10
HETATM   10  C   UNK     1      -8.760   9.607  68.021  1.00  0.00    -0.119 C  
BRANCH  10  11
HETATM   11  C   UNK     1      -8.270  10.283  66.753  1.00  0.00    -0.124 C  
HETATM   12  O   UNK     1      -7.407  11.155  66.739  1.00  0.00    -0.132 OA 
HETATM   13  N   UNK     1      -8.892   9.824  65.614  1.00  0.00    -0.146 N  
HETATM   14  H   UNK     1      -9.632   9.126  65.693  1.00  0.00     0.000 HD 
BRANCH  13  15
HETATM   15  C   UNK     1      -8.511  10.315  64.304  1.00  0.00    -0.179 C  
BRANCH  15  16
HETATM   16  C   UNK     1      -9.689  10.368  63.328  1.00  0.00    -0.308 C  
BRANCH  16  17
HETATM   17  C   UNK     1     -10.886  11.097  63.937  1.00  0.00    -0.346 C  
BRANCH  17  18
HETATM   18  C   UNK     1     -10.997  12.551  63.455  1.00  0.00    -0.472 C  
BRANCH  18  19
HETATM   19  C   UNK     1     -10.957  13.578  64.597  1.00  0.00    -0.385 C  
HETATM   20  N   UNK     1     -10.739  12.913  65.915  1.00  0.00    -0.268 NA 
HETATM   21  C   UNK     1     -12.278  14.362  64.659  1.00  0.00    -0.464 C  
HETATM   22  O   UNK     1     -12.584  15.287  63.932  1.00  0.00    -0.765 OA 
HETATM   23  O   UNK     1     -13.101  13.852  65.618  1.00  0.00    -0.625 OA 
HETATM   24  H1  UNK     1     -10.712  13.595  66.672  1.00  0.00     0.000 HD 
HETATM   25  H2  UNK     1      -9.902  12.330  65.906  1.00  0.00     0.000 HD 
ENDBRANCH  18  19
ENDBRANCH  17  18
ENDBRANCH  16  17
ENDBRANCH  15  16
ENDBRANCH  13  15
ENDBRANCH  10  11
ENDBRANCH   9  10
ENDBRANCH   8   9
ENDBRANCH   7   8
ENDBRANCH   6   7
ENDBRANCH   5   6
ENDBRANCH   4   5
ENDBRANCH   3   4
ENDBRANCH   2   3
TORSDOF 14
ENDMDL
MODEL      310
REMARK 921   NORMALIZED FREE ENERGY PREDICTED BY IDOCK:   -3.13 KCAL/MOL
REMARK 922        TOTAL FREE ENERGY PREDICTED BY IDOCK:   -6.62 KCAL/MOL
REMARK 923 INTER-LIGAND FREE ENERGY PREDICTED BY IDOCK:   -6.12 KCAL/MOL
REMARK 924 INTRA-LIGAND FREE ENERGY PREDICTED BY IDOCK:   -0.50 KCAL/MOL
REMARK 927      BINDING AFFINITY PREDICTED BY RF-SCORE:    0.00 PKD
ROOT
HETATM    1  C   UNK     1      -7.641   4.634  69.920  1.00  0.00    -0.054 C  
HETATM    2  O   UNK     1      -8.169   3.717  70.869  1.00  0.00    -0.064 OA 
ENDROOT
BRANCH   2   3
HETATM    3  C   UNK     1      -9.592   3.635  70.779  1.00  0.00    -0.179 C  
BRANCH   3   4
HETATM    4  C   UNK     1     -10.159   5.030  70.548  1.00  0.00    -0.253 C  
BRANCH   4   5
HETATM    5  O   UNK     1     -10.675   5.541  71.775  1.00  0.00    -0.231 OA 
BRANCH   5   6
HETATM    6  C   UNK     1     -11.832   6.347  71.562  1.00  0.00    -0.298 C  
BRANCH   6   7
HETATM    7  C   UNK     1     -11.640   7.689  72.256  1.00  0.00    -0.370 C  
BRANCH   7   8
HETATM    8  C   UNK     1     -12.266   8.846  71.469  1.00  0.00    -0.388 C  
BRANCH   8   9
HETATM    9  C   UNK     1     -11.183   9.783  70.940  1.00  0.00    -0.429 C  
BRANCH   9  10
HETATM   10  C   UNK     1     -11.749  10.865  70.025  1.00  0.00    -0.427 C  
BRANCH  10  11
HETATM   11  C   UNK     1     -10.923  10.992  68.758  1.00  0.00    -0.221 C  
HETATM   12  O   UNK     1     -11.241  10.485  67.687  1.00  0.00    -0.326 OA 
HETATM   13  N   UNK     1      -9.776  11.734  68.926  1.00  0.00    -0.410 N  
HETATM   14  H   UNK     1      -9.544  12.095  69.852  1.00  0.00     0.000 HD 
BRANCH  13  15
HETATM   15  C   UNK     1      -8.892  12.009  67.811  1.00  0.00    -0.165 C  
BRANCH  15  16
HETATM   16  C   UNK     1      -9.194  13.347  67.133  1.00  0.00    -0.240 C  
BRANCH  16  17
HETATM   17  C   UNK     1      -9.680  14.387  68.142  1.00  0.00    -0.223 C  
BRANCH  17  18
HETATM   18  C   UNK     1     -10.717  15.349  67.542  1.00  0.00    -0.295 C  
BRANCH  18  19
HETATM   19  C   UNK     1     -11.565  16.072  68.599  1.00  0.00    -0.343 C  
HETATM   20  N   UNK     1     -10.950  17.376  68.985  1.00  0.00    -0.222 NA 
HETATM   21  C   UNK     1     -11.701  15.205  69.862  1.00  0.00    -0.315 C  
HETATM   22  O   UNK     1     -12.464  14.267  69.994  1.00  0.00    -0.338 OA 
HETATM   23  O   UNK     1     -10.812  15.595  70.818  1.00  0.00    -0.325 OA 
HETATM   24  H1  UNK     1     -11.514  17.856  69.686  1.00  0.00     0.000 HD 
HETATM   25  H2  UNK     1     -10.783  17.967  68.170  1.00  0.00     0.000 HD 
ENDBRANCH  18  19
ENDBRANCH  17  18
ENDBRANCH  16  17
ENDBRANCH  15  16
ENDBRANCH  13  15
ENDBRANCH  10  11
ENDBRANCH   9  10
ENDBRANCH   8   9
ENDBRANCH   7   8
ENDBRANCH   6   7
ENDBRANCH   5   6
ENDBRANCH   4   5
ENDBRANCH   3   4
ENDBRANCH   2   3
TORSDOF 14
ENDMDL
MODEL      311
REMARK 921   NORMALIZED FREE ENERGY PREDICTED BY IDOCK:   -3.12 KCAL/MOL
REMARK 922        TOTAL FREE ENERGY PREDICTED BY IDOCK:   -6.60 KCAL/MOL
REMARK 923 INTER-LIGAND FREE ENERGY PREDICTED BY IDOCK:   -5.52 KCAL/MOL
REMARK 924 INTRA-LIGAND FREE ENERGY PREDICTED BY IDOCK:   -1.09 KCAL/MOL
REMARK 927      BINDING AFFINITY PREDICTED BY RF-SCORE:    0.00 PKD
ROOT
HETATM    1  C   UNK     1      -9.352  18.327  68.468  1.00  0.00    -0.319 C  
HETATM    2  O   UNK     1      -8.763  17.207  69.115  1.00  0.00    -0.155 OA 
ENDROOT
BRANCH   2   3
HETATM    3  C   UNK     1      -9.557  16.032  68.948  1.00  0.00    -0.236 C  
BRANCH   3   4
HETATM    4  C   UNK     1     -10.152  16.025  67.545  1.00  0.00    -0.247 C  
BRANCH   4   5
HETATM    5  O   UNK     1     -10.577  14.705  67.217  1.00  0.00    -0.277 OA 
BRANCH   5   6
HETATM    6  C   UNK     1     -11.996  14.580  67.283  1.00  0.00    -0.344 C  
BRANCH   6   7
HETATM    7  C   UNK     1     -12.494  13.877  66.027  1.00  0.00    -0.501 C  
BRANCH   7   8
HETATM    8  C   UNK     1     -11.671  14.247  64.788  1.00  0.00    -0.420 C  
BRANCH   8   9
HETATM    9  C   UNK     1     -11.803  13.169  63.715  1.00  0.00    -0.546 C  
BRANCH   9  10
HETATM   10  C   UNK     1     -11.874  11.765  64.308  1.00  0.00    -0.307 C  
BRANCH  10  11
HETATM   11  C   UNK     1     -10.627  10.969  63.971  1.00  0.00    -0.324 C  
HETATM   12  O   UNK     1     -10.049  11.038  62.891  1.00  0.00    -0.282 OA 
HETATM   13  N   UNK     1     -10.205  10.154  64.997  1.00  0.00    -0.259 N  
HETATM   14  H   UNK     1     -10.751  10.108  65.858  1.00  0.00     0.000 HD 
BRANCH  13  15
HETATM   15  C   UNK     1      -8.997   9.362  64.876  1.00  0.00    -0.209 C  
BRANCH  15  16
HETATM   16  C   UNK     1      -7.728  10.173  65.149  1.00  0.00    -0.141 C  
BRANCH  16  17
HETATM   17  C   UNK     1      -7.939  11.176  66.283  1.00  0.00    -0.125 C  
BRANCH  17  18
HETATM   18  C   UNK     1      -7.279  10.726  67.595  1.00  0.00    -0.092 C  
BRANCH  18  19
HETATM   19  C   UNK     1      -7.715  11.553  68.814  1.00  0.00    -0.124 C  
HETATM   20  N   UNK     1      -8.726  12.582  68.434  1.00  0.00    -0.296 NA 
HETATM   21  C   UNK     1      -6.505  12.266  69.439  1.00  0.00    -0.105 C  
HETATM   22  O   UNK     1      -5.683  11.750  70.172  1.00  0.00    -0.112 OA 
HETATM   23  O   UNK     1      -6.438  13.563  69.025  1.00  0.00    -0.096 OA 
HETATM   24  H1  UNK     1      -9.016  13.131  69.243  1.00  0.00     0.000 HD 
HETATM   25  H2  UNK     1      -9.527  12.164  67.959  1.00  0.00     0.000 HD 
ENDBRANCH  18  19
ENDBRANCH  17  18
ENDBRANCH  16  17
ENDBRANCH  15  16
ENDBRANCH  13  15
ENDBRANCH  10  11
ENDBRANCH   9  10
ENDBRANCH   8   9
ENDBRANCH   7   8
ENDBRANCH   6   7
ENDBRANCH   5   6
ENDBRANCH   4   5
ENDBRANCH   3   4
ENDBRANCH   2   3
TORSDOF 14
ENDMDL
MODEL      312
REMARK 921   NORMALIZED FREE ENERGY PREDICTED BY IDOCK:   -3.12 KCAL/MOL
REMARK 922        TOTAL FREE ENERGY PREDICTED BY IDOCK:   -6.60 KCAL/MOL
REMARK 923 INTER-LIGAND FREE ENERGY PREDICTED BY IDOCK:   -5.94 KCAL/MOL
REMARK 924 INTRA-LIGAND FREE ENERGY PREDICTED BY IDOCK:   -0.66 KCAL/MOL
REMARK 927      BINDING AFFINITY PREDICTED BY RF-SCORE:    0.00 PKD
ROOT
HETATM    1  C   UNK     1      -9.145   3.215  73.863  1.00  0.00    -0.081 C  
HETATM    2  O   UNK     1      -8.854   4.141  72.827  1.00  0.00    -0.102 OA 
ENDROOT
BRANCH   2   3
HETATM    3  C   UNK     1      -9.120   5.483  73.236  1.00  0.00    -0.129 C  
BRANCH   3   4
HETATM    4  C   UNK     1     -10.595   5.791  73.011  1.00  0.00    -0.242 C  
BRANCH   4   5
HETATM    5  O   UNK     1     -10.723   7.067  72.388  1.00  0.00    -0.215 OA 
BRANCH   5   6
HETATM    6  C   UNK     1     -11.594   7.014  71.260  1.00  0.00    -0.303 C  
BRANCH   6   7
HETATM    7  C   UNK     1     -12.458   8.268  71.238  1.00  0.00    -0.264 C  
BRANCH   7   8
HETATM    8  C   UNK     1     -11.675   9.522  71.642  1.00  0.00    -0.460 C  
BRANCH   8   9
HETATM    9  C   UNK     1     -12.331  10.773  71.065  1.00  0.00    -0.509 C  
BRANCH   9  10
HETATM   10  C   UNK     1     -11.967  10.996  69.599  1.00  0.00    -0.424 C  
BRANCH  10  11
HETATM   11  C   UNK     1     -11.967  12.475  69.258  1.00  0.00    -0.250 C  
HETATM   12  O   UNK     1     -11.853  13.365  70.095  1.00  0.00    -0.311 OA 
HETATM   13  N   UNK     1     -12.110  12.725  67.912  1.00  0.00    -0.248 N  
HETATM   14  H   UNK     1     -12.243  11.944  67.268  1.00  0.00     0.000 HD 
BRANCH  13  15
HETATM   15  C   UNK     1     -12.076  14.078  67.394  1.00  0.00    -0.349 C  
BRANCH  15  16
HETATM   16  C   UNK     1     -11.170  14.219  66.168  1.00  0.00    -0.331 C  
BRANCH  16  17
HETATM   17  C   UNK     1      -9.704  13.976  66.526  1.00  0.00    -0.305 C  
BRANCH  17  18
HETATM   18  C   UNK     1      -9.207  14.910  67.638  1.00  0.00    -0.187 C  
BRANCH  18  19
HETATM   19  C   UNK     1      -8.385  16.099  67.117  1.00  0.00    -0.197 C  
HETATM   20  N   UNK     1      -7.231  16.392  68.016  1.00  0.00    -0.132 NA 
HETATM   21  C   UNK     1      -9.262  17.357  67.025  1.00  0.00    -0.246 C  
HETATM   22  O   UNK     1     -10.052  17.603  66.133  1.00  0.00    -0.377 OA 
HETATM   23  O   UNK     1      -9.079  18.159  68.111  1.00  0.00    -0.275 OA 
HETATM   24  H1  UNK     1      -6.685  17.181  67.670  1.00  0.00     0.000 HD 
HETATM   25  H2  UNK     1      -6.647  15.567  68.159  1.00  0.00     0.000 HD 
ENDBRANCH  18  19
ENDBRANCH  17  18
ENDBRANCH  16  17
ENDBRANCH  15  16
ENDBRANCH  13  15
ENDBRANCH  10  11
ENDBRANCH   9  10
ENDBRANCH   8   9
ENDBRANCH   7   8
ENDBRANCH   6   7
ENDBRANCH   5   6
ENDBRANCH   4   5
ENDBRANCH   3   4
ENDBRANCH   2   3
TORSDOF 14
ENDMDL
MODEL      313
REMARK 921   NORMALIZED FREE ENERGY PREDICTED BY IDOCK:   -3.11 KCAL/MOL
REMARK 922        TOTAL FREE ENERGY PREDICTED BY IDOCK:   -6.59 KCAL/MOL
REMARK 923 INTER-LIGAND FREE ENERGY PREDICTED BY IDOCK:   -6.14 KCAL/MOL
REMARK 924 INTRA-LIGAND FREE ENERGY PREDICTED BY IDOCK:   -0.45 KCAL/MOL
REMARK 927      BINDING AFFINITY PREDICTED BY RF-SCORE:    0.00 PKD
ROOT
HETATM    1  C   UNK     1      -9.725  19.619  68.883  1.00  0.00    -0.380 C  
HETATM    2  O   UNK     1      -8.730  19.735  67.876  1.00  0.00    -0.313 OA 
ENDROOT
BRANCH   2   3
HETATM    3  C   UNK     1      -7.419  19.783  68.441  1.00  0.00    -0.314 C  
BRANCH   3   4
HETATM    4  C   UNK     1      -6.978  18.368  68.798  1.00  0.00    -0.277 C  
BRANCH   4   5
HETATM    5  O   UNK     1      -7.433  17.463  67.795  1.00  0.00    -0.182 OA 
BRANCH   5   6
HETATM    6  C   UNK     1      -7.806  16.206  68.355  1.00  0.00    -0.160 C  
BRANCH   6   7
HETATM    7  C   UNK     1      -7.930  15.179  67.236  1.00  0.00    -0.234 C  
BRANCH   7   8
HETATM    8  C   UNK     1      -9.201  15.378  66.402  1.00  0.00    -0.339 C  
BRANCH   8   9
HETATM    9  C   UNK     1     -10.442  15.047  67.226  1.00  0.00    -0.265 C  
BRANCH   9  10
HETATM   10  C   UNK     1     -11.582  14.507  66.367  1.00  0.00    -0.370 C  
BRANCH  10  11
HETATM   11  C   UNK     1     -11.895  13.065  66.724  1.00  0.00    -0.388 C  
HETATM   12  O   UNK     1     -12.388  12.263  65.938  1.00  0.00    -0.618 OA 
HETATM   13  N   UNK     1     -11.574  12.743  68.023  1.00  0.00    -0.320 N  
HETATM   14  H   UNK     1     -11.205  13.464  68.643  1.00  0.00     0.000 HD 
BRANCH  13  15
HETATM   15  C   UNK     1     -11.751  11.394  68.525  1.00  0.00    -0.318 C  
BRANCH  15  16
HETATM   16  C   UNK     1     -10.476  10.824  69.150  1.00  0.00    -0.243 C  
BRANCH  16  17
HETATM   17  C   UNK     1     -10.600   9.321  69.401  1.00  0.00    -0.234 C  
BRANCH  17  18
HETATM   18  C   UNK     1      -9.270   8.580  69.203  1.00  0.00    -0.150 C  
BRANCH  18  19
HETATM   19  C   UNK     1      -8.922   7.628  70.357  1.00  0.00    -0.152 C  
HETATM   20  N   UNK     1      -9.805   6.424  70.349  1.00  0.00    -0.168 NA 
HETATM   21  C   UNK     1      -9.084   8.341  71.709  1.00  0.00    -0.193 C  
HETATM   22  O   UNK     1      -8.283   9.114  72.199  1.00  0.00    -0.303 OA 
HETATM   23  O   UNK     1     -10.282   8.033  72.281  1.00  0.00    -0.217 OA 
HETATM   24  H1  UNK     1      -9.574   5.792  71.115  1.00  0.00     0.000 HD 
HETATM   25  H2  UNK     1      -9.779   5.947  69.448  1.00  0.00     0.000 HD 
ENDBRANCH  18  19
ENDBRANCH  17  18
ENDBRANCH  16  17
ENDBRANCH  15  16
ENDBRANCH  13  15
ENDBRANCH  10  11
ENDBRANCH   9  10
ENDBRANCH   8   9
ENDBRANCH   7   8
ENDBRANCH   6   7
ENDBRANCH   5   6
ENDBRANCH   4   5
ENDBRANCH   3   4
ENDBRANCH   2   3
TORSDOF 14
ENDMDL
MODEL      314
REMARK 921   NORMALIZED FREE ENERGY PREDICTED BY IDOCK:   -3.10 KCAL/MOL
REMARK 922        TOTAL FREE ENERGY PREDICTED BY IDOCK:   -6.57 KCAL/MOL
REMARK 923 INTER-LIGAND FREE ENERGY PREDICTED BY IDOCK:   -5.99 KCAL/MOL
REMARK 924 INTRA-LIGAND FREE ENERGY PREDICTED BY IDOCK:   -0.58 KCAL/MOL
REMARK 927      BINDING AFFINITY PREDICTED BY RF-SCORE:    0.00 PKD
ROOT
HETATM    1  C   UNK     1      -9.484  10.394  65.934  1.00  0.00    -0.189 C  
HETATM    2  O   UNK     1     -10.120   9.145  66.165  1.00  0.00    -0.290 OA 
ENDROOT
BRANCH   2   3
HETATM    3  C   UNK     1      -9.166   8.094  66.319  1.00  0.00    -0.191 C  
BRANCH   3   4
HETATM    4  C   UNK     1      -9.365   7.436  67.679  1.00  0.00    -0.133 C  
BRANCH   4   5
HETATM    5  O   UNK     1      -8.133   7.450  68.396  1.00  0.00    -0.121 OA 
BRANCH   5   6
HETATM    6  C   UNK     1      -8.321   7.839  69.755  1.00  0.00    -0.131 C  
BRANCH   6   7
HETATM    7  C   UNK     1      -9.801   8.105  69.997  1.00  0.00    -0.182 C  
BRANCH   7   8
HETATM    8  C   UNK     1     -10.034   9.323  70.897  1.00  0.00    -0.367 C  
BRANCH   8   9
HETATM    9  C   UNK     1     -11.323  10.041  70.505  1.00  0.00    -0.409 C  
BRANCH   9  10
HETATM   10  C   UNK     1     -11.251  10.637  69.101  1.00  0.00    -0.324 C  
BRANCH  10  11
HETATM   11  C   UNK     1     -10.164  11.692  69.014  1.00  0.00    -0.055 C  
HETATM   12  O   UNK     1      -8.971  11.430  68.899  1.00  0.00    -0.122 OA 
HETATM   13  N   UNK     1     -10.646  12.980  69.078  1.00  0.00    -0.423 N  
HETATM   14  H   UNK     1     -11.645  13.135  69.216  1.00  0.00     0.000 HD 
BRANCH  13  15
HETATM   15  C   UNK     1      -9.758  14.119  68.954  1.00  0.00    -0.080 C  
BRANCH  15  16
HETATM   16  C   UNK     1     -10.333  15.389  69.585  1.00  0.00    -0.283 C  
BRANCH  16  17
HETATM   17  C   UNK     1     -11.747  15.674  69.080  1.00  0.00    -0.408 C  
BRANCH  17  18
HETATM   18  C   UNK     1     -12.825  15.303  70.108  1.00  0.00    -0.213 C  
BRANCH  18  19
HETATM   19  C   UNK     1     -12.258  14.682  71.393  1.00  0.00    -0.348 C  
HETATM   20  N   UNK     1     -12.816  13.317  71.625  1.00  0.00    -0.331 NA 
HETATM   21  C   UNK     1     -12.596  15.559  72.609  1.00  0.00    -0.406 C  
HETATM   22  O   UNK     1     -12.013  16.577  72.928  1.00  0.00    -0.536 OA 
HETATM   23  O   UNK     1     -13.683  15.073  73.272  1.00  0.00    -0.452 OA 
HETATM   24  H1  UNK     1     -12.438  12.904  72.477  1.00  0.00     0.000 HD 
HETATM   25  H2  UNK     1     -12.669  12.710  70.818  1.00  0.00     0.000 HD 
ENDBRANCH  18  19
ENDBRANCH  17  18
ENDBRANCH  16  17
ENDBRANCH  15  16
ENDBRANCH  13  15
ENDBRANCH  10  11
ENDBRANCH   9  10
ENDBRANCH   8   9
ENDBRANCH   7   8
ENDBRANCH   6   7
ENDBRANCH   5   6
ENDBRANCH   4   5
ENDBRANCH   3   4
ENDBRANCH   2   3
TORSDOF 14
ENDMDL
MODEL      315
REMARK 921   NORMALIZED FREE ENERGY PREDICTED BY IDOCK:   -3.10 KCAL/MOL
REMARK 922        TOTAL FREE ENERGY PREDICTED BY IDOCK:   -6.56 KCAL/MOL
REMARK 923 INTER-LIGAND FREE ENERGY PREDICTED BY IDOCK:   -6.08 KCAL/MOL
REMARK 924 INTRA-LIGAND FREE ENERGY PREDICTED BY IDOCK:   -0.49 KCAL/MOL
REMARK 927      BINDING AFFINITY PREDICTED BY RF-SCORE:    0.00 PKD
ROOT
HETATM    1  C   UNK     1     -12.818  13.975  65.757  1.00  0.00    -0.377 C  
HETATM    2  O   UNK     1     -12.803  14.460  64.422  1.00  0.00    -0.615 OA 
ENDROOT
BRANCH   2   3
HETATM    3  C   UNK     1     -11.938  13.682  63.594  1.00  0.00    -0.321 C  
BRANCH   3   4
HETATM    4  C   UNK     1     -12.510  12.275  63.458  1.00  0.00    -0.534 C  
BRANCH   4   5
HETATM    5  O   UNK     1     -11.443  11.347  63.278  1.00  0.00    -0.249 OA 
BRANCH   5   6
HETATM    6  C   UNK     1     -10.196  11.892  63.704  1.00  0.00    -0.438 C  
BRANCH   6   7
HETATM    7  C   UNK     1      -9.385  10.804  64.394  1.00  0.00    -0.279 C  
BRANCH   7   8
HETATM    8  C   UNK     1      -9.890  10.512  65.812  1.00  0.00    -0.295 C  
BRANCH   8   9
HETATM    9  C   UNK     1      -9.546   9.082  66.221  1.00  0.00    -0.327 C  
BRANCH   9  10
HETATM   10  C   UNK     1      -8.057   8.780  66.076  1.00  0.00    -0.112 C  
BRANCH  10  11
HETATM   11  C   UNK     1      -7.648   7.622  66.968  1.00  0.00    -0.103 C  
HETATM   12  O   UNK     1      -6.553   7.540  67.515  1.00  0.00    -0.058 OA 
HETATM   13  N   UNK     1      -8.629   6.665  67.103  1.00  0.00    -0.112 N  
HETATM   14  H   UNK     1      -9.504   6.767  66.590  1.00  0.00     0.000 HD 
BRANCH  13  15
HETATM   15  C   UNK     1      -8.437   5.514  67.964  1.00  0.00    -0.098 C  
BRANCH  15  16
HETATM   16  C   UNK     1      -8.717   5.824  69.437  1.00  0.00    -0.111 C  
BRANCH  16  17
HETATM   17  C   UNK     1     -10.028   5.191  69.901  1.00  0.00    -0.316 C  
BRANCH  17  18
HETATM   18  C   UNK     1     -11.226   6.140  69.750  1.00  0.00    -0.494 C  
BRANCH  18  19
HETATM   19  C   UNK     1     -11.460   7.031  70.979  1.00  0.00    -0.303 C  
HETATM   20  N   UNK     1     -10.740   8.332  70.848  1.00  0.00    -0.214 NA 
HETATM   21  C   UNK     1     -10.967   6.328  72.253  1.00  0.00    -0.259 C  
HETATM   22  O   UNK     1     -11.568   5.459  72.857  1.00  0.00    -0.312 OA 
HETATM   23  O   UNK     1      -9.728   6.771  72.606  1.00  0.00    -0.150 OA 
HETATM   24  H1  UNK     1     -10.896   8.923  71.664  1.00  0.00     0.000 HD 
HETATM   25  H2  UNK     1     -10.989   8.812  69.983  1.00  0.00     0.000 HD 
ENDBRANCH  18  19
ENDBRANCH  17  18
ENDBRANCH  16  17
ENDBRANCH  15  16
ENDBRANCH  13  15
ENDBRANCH  10  11
ENDBRANCH   9  10
ENDBRANCH   8   9
ENDBRANCH   7   8
ENDBRANCH   6   7
ENDBRANCH   5   6
ENDBRANCH   4   5
ENDBRANCH   3   4
ENDBRANCH   2   3
TORSDOF 14
ENDMDL
MODEL      316
REMARK 921   NORMALIZED FREE ENERGY PREDICTED BY IDOCK:   -3.10 KCAL/MOL
REMARK 922        TOTAL FREE ENERGY PREDICTED BY IDOCK:   -6.56 KCAL/MOL
REMARK 923 INTER-LIGAND FREE ENERGY PREDICTED BY IDOCK:   -5.64 KCAL/MOL
REMARK 924 INTRA-LIGAND FREE ENERGY PREDICTED BY IDOCK:   -0.92 KCAL/MOL
REMARK 927      BINDING AFFINITY PREDICTED BY RF-SCORE:    0.00 PKD
ROOT
HETATM    1  C   UNK     1     -12.623  12.034  63.885  1.00  0.00    -0.406 C  
HETATM    2  O   UNK     1     -12.414  12.264  65.271  1.00  0.00    -0.585 OA 
ENDROOT
BRANCH   2   3
HETATM    3  C   UNK     1     -12.460  13.656  65.582  1.00  0.00    -0.496 C  
BRANCH   3   4
HETATM    4  C   UNK     1     -12.152  14.460  64.325  1.00  0.00    -0.436 C  
BRANCH   4   5
HETATM    5  O   UNK     1     -10.878  15.085  64.463  1.00  0.00    -0.313 OA 
BRANCH   5   6
HETATM    6  C   UNK     1     -10.781  15.812  65.685  1.00  0.00    -0.348 C  
BRANCH   6   7
HETATM    7  C   UNK     1     -10.633  17.295  65.374  1.00  0.00    -0.083 C  
BRANCH   7   8
HETATM    8  C   UNK     1     -10.258  18.115  66.613  1.00  0.00    -0.388 C  
BRANCH   8   9
HETATM    9  C   UNK     1      -8.886  18.760  66.435  1.00  0.00    -0.298 C  
BRANCH   9  10
HETATM   10  C   UNK     1      -7.751  17.743  66.527  1.00  0.00    -0.298 C  
BRANCH  10  11
HETATM   11  C   UNK     1      -7.862  16.919  67.797  1.00  0.00    -0.178 C  
HETATM   12  O   UNK     1      -7.866  17.405  68.924  1.00  0.00    -0.256 OA 
HETATM   13  N   UNK     1      -7.954  15.566  67.563  1.00  0.00    -0.153 N  
HETATM   14  H   UNK     1      -7.902  15.218  66.606  1.00  0.00     0.000 HD 
BRANCH  13  15
HETATM   15  C   UNK     1      -8.124  14.627  68.655  1.00  0.00    -0.150 C  
BRANCH  15  16
HETATM   16  C   UNK     1      -9.545  14.066  68.736  1.00  0.00    -0.098 C  
BRANCH  16  17
HETATM   17  C   UNK     1      -9.688  12.785  67.914  1.00  0.00    -0.217 C  
BRANCH  17  18
HETATM   18  C   UNK     1      -8.516  11.816  68.127  1.00  0.00    -0.158 C  
BRANCH  18  19
HETATM   19  C   UNK     1      -8.879  10.598  68.991  1.00  0.00    -0.148 C  
HETATM   20  N   UNK     1      -7.657   9.859  69.424  1.00  0.00    -0.100 NA 
HETATM   21  C   UNK     1      -9.779   9.632  68.205  1.00  0.00    -0.146 C  
HETATM   22  O   UNK     1     -10.974   9.770  68.024  1.00  0.00    -0.246 OA 
HETATM   23  O   UNK     1      -9.052   8.604  67.684  1.00  0.00    -0.134 OA 
HETATM   24  H1  UNK     1      -7.897   9.051  69.997  1.00  0.00     0.000 HD 
HETATM   25  H2  UNK     1      -6.997  10.474  69.900  1.00  0.00     0.000 HD 
ENDBRANCH  18  19
ENDBRANCH  17  18
ENDBRANCH  16  17
ENDBRANCH  15  16
ENDBRANCH  13  15
ENDBRANCH  10  11
ENDBRANCH   9  10
ENDBRANCH   8   9
ENDBRANCH   7   8
ENDBRANCH   6   7
ENDBRANCH   5   6
ENDBRANCH   4   5
ENDBRANCH   3   4
ENDBRANCH   2   3
TORSDOF 14
ENDMDL
MODEL      317
REMARK 921   NORMALIZED FREE ENERGY PREDICTED BY IDOCK:   -3.09 KCAL/MOL
REMARK 922        TOTAL FREE ENERGY PREDICTED BY IDOCK:   -6.55 KCAL/MOL
REMARK 923 INTER-LIGAND FREE ENERGY PREDICTED BY IDOCK:   -5.78 KCAL/MOL
REMARK 924 INTRA-LIGAND FREE ENERGY PREDICTED BY IDOCK:   -0.78 KCAL/MOL
REMARK 927      BINDING AFFINITY PREDICTED BY RF-SCORE:    0.00 PKD
ROOT
HETATM    1  C   UNK     1     -11.074  14.514  67.905  1.00  0.00    -0.279 C  
HETATM    2  O   UNK     1     -11.831  15.016  66.813  1.00  0.00    -0.245 OA 
ENDROOT
BRANCH   2   3
HETATM    3  C   UNK     1     -12.466  13.961  66.089  1.00  0.00    -0.436 C  
BRANCH   3   4
HETATM    4  C   UNK     1     -12.102  12.627  66.730  1.00  0.00    -0.166 C  
BRANCH   4   5
HETATM    5  O   UNK     1     -11.772  11.687  65.710  1.00  0.00    -0.309 OA 
BRANCH   5   6
HETATM    6  C   UNK     1     -11.791  12.288  64.417  1.00  0.00    -0.388 C  
BRANCH   6   7
HETATM    7  C   UNK     1     -10.376  12.305  63.854  1.00  0.00    -0.455 C  
BRANCH   7   8
HETATM    8  C   UNK     1     -10.107  11.118  62.922  1.00  0.00    -0.235 C  
BRANCH   8   9
HETATM    9  C   UNK     1      -9.189  10.103  63.598  1.00  0.00    -0.320 C  
BRANCH   9  10
HETATM   10  C   UNK     1      -8.466  10.689  64.808  1.00  0.00    -0.102 C  
BRANCH  10  11
HETATM   11  C   UNK     1      -8.461   9.707  65.966  1.00  0.00    -0.124 C  
HETATM   12  O   UNK     1      -7.452   9.138  66.368  1.00  0.00    -0.091 OA 
HETATM   13  N   UNK     1      -9.705   9.514  66.523  1.00  0.00    -0.204 N  
HETATM   14  H   UNK     1     -10.515   9.985  66.118  1.00  0.00     0.000 HD 
BRANCH  13  15
HETATM   15  C   UNK     1      -9.883   8.654  67.676  1.00  0.00    -0.180 C  
BRANCH  15  16
HETATM   16  C   UNK     1     -10.300   7.231  67.293  1.00  0.00    -0.349 C  
BRANCH  16  17
HETATM   17  C   UNK     1     -11.147   6.583  68.388  1.00  0.00    -0.340 C  
BRANCH  17  18
HETATM   18  C   UNK     1     -10.343   5.596  69.246  1.00  0.00    -0.340 C  
BRANCH  18  19
HETATM   19  C   UNK     1     -10.038   6.119  70.658  1.00  0.00    -0.193 C  
HETATM   20  N   UNK     1     -10.036   5.009  71.656  1.00  0.00    -0.180 NA 
HETATM   21  C   UNK     1     -11.089   7.155  71.085  1.00  0.00    -0.254 C  
HETATM   22  O   UNK     1     -11.114   8.320  70.735  1.00  0.00    -0.250 OA 
HETATM   23  O   UNK     1     -12.038   6.587  71.881  1.00  0.00    -0.334 OA 
HETATM   24  H1  UNK     1      -9.833   5.356  72.593  1.00  0.00     0.000 HD 
HETATM   25  H2  UNK     1      -9.394   4.263  71.385  1.00  0.00     0.000 HD 
ENDBRANCH  18  19
ENDBRANCH  17  18
ENDBRANCH  16  17
ENDBRANCH  15  16
ENDBRANCH  13  15
ENDBRANCH  10  11
ENDBRANCH   9  10
ENDBRANCH   8   9
ENDBRANCH   7   8
ENDBRANCH   6   7
ENDBRANCH   5   6
ENDBRANCH   4   5
ENDBRANCH   3   4
ENDBRANCH   2   3
TORSDOF 14
ENDMDL
MODEL      318
REMARK 921   NORMALIZED FREE ENERGY PREDICTED BY IDOCK:   -3.09 KCAL/MOL
REMARK 922        TOTAL FREE ENERGY PREDICTED BY IDOCK:   -6.55 KCAL/MOL
REMARK 923 INTER-LIGAND FREE ENERGY PREDICTED BY IDOCK:   -5.65 KCAL/MOL
REMARK 924 INTRA-LIGAND FREE ENERGY PREDICTED BY IDOCK:   -0.90 KCAL/MOL
REMARK 927      BINDING AFFINITY PREDICTED BY RF-SCORE:    0.00 PKD
ROOT
HETATM    1  C   UNK     1      -8.120   4.178  71.299  1.00  0.00    -0.077 C  
HETATM    2  O   UNK     1      -7.940   5.071  70.209  1.00  0.00    -0.075 OA 
ENDROOT
BRANCH   2   3
HETATM    3  C   UNK     1      -7.804   4.366  68.974  1.00  0.00    -0.069 C  
BRANCH   3   4
HETATM    4  C   UNK     1      -7.695   5.373  67.835  1.00  0.00    -0.092 C  
BRANCH   4   5
HETATM    5  O   UNK     1      -8.439   6.543  68.164  1.00  0.00    -0.116 OA 
BRANCH   5   6
HETATM    6  C   UNK     1      -9.310   6.926  67.102  1.00  0.00    -0.141 C  
BRANCH   6   7
HETATM    7  C   UNK     1     -10.543   7.603  67.687  1.00  0.00    -0.294 C  
BRANCH   7   8
HETATM    8  C   UNK     1     -10.522   9.123  67.485  1.00  0.00    -0.335 C  
BRANCH   8   9
HETATM    9  C   UNK     1     -10.338   9.839  68.821  1.00  0.00    -0.227 C  
BRANCH   9  10
HETATM   10  C   UNK     1     -11.409  10.899  69.063  1.00  0.00    -0.348 C  
BRANCH  10  11
HETATM   11  C   UNK     1     -11.042  12.206  68.384  1.00  0.00    -0.245 C  
HETATM   12  O   UNK     1      -9.917  12.695  68.415  1.00  0.00    -0.226 OA 
HETATM   13  N   UNK     1     -12.099  12.797  67.729  1.00  0.00    -0.250 N  
HETATM   14  H   UNK     1     -13.022  12.364  67.775  1.00  0.00     0.000 HD 
BRANCH  13  15
HETATM   15  C   UNK     1     -11.922  14.023  66.977  1.00  0.00    -0.438 C  
BRANCH  15  16
HETATM   16  C   UNK     1     -11.805  13.780  65.470  1.00  0.00    -0.378 C  
BRANCH  16  17
HETATM   17  C   UNK     1     -10.703  14.638  64.849  1.00  0.00    -0.447 C  
BRANCH  17  18
HETATM   18  C   UNK     1     -10.510  15.972  65.587  1.00  0.00    -0.416 C  
BRANCH  18  19
HETATM   19  C   UNK     1      -9.080  16.183  66.105  1.00  0.00    -0.347 C  
HETATM   20  N   UNK     1      -8.482  14.900  66.578  1.00  0.00    -0.431 NA 
HETATM   21  C   UNK     1      -9.075  17.182  67.273  1.00  0.00    -0.222 C  
HETATM   22  O   UNK     1      -9.139  18.392  67.167  1.00  0.00    -0.260 OA 
HETATM   23  O   UNK     1      -9.037  16.532  68.470  1.00  0.00    -0.214 OA 
HETATM   24  H1  UNK     1      -7.533  15.040  66.922  1.00  0.00     0.000 HD 
HETATM   25  H2  UNK     1      -8.516  14.182  65.855  1.00  0.00     0.000 HD 
ENDBRANCH  18  19
ENDBRANCH  17  18
ENDBRANCH  16  17
ENDBRANCH  15  16
ENDBRANCH  13  15
ENDBRANCH  10  11
ENDBRANCH   9  10
ENDBRANCH   8   9
ENDBRANCH   7   8
ENDBRANCH   6   7
ENDBRANCH   5   6
ENDBRANCH   4   5
ENDBRANCH   3   4
ENDBRANCH   2   3
TORSDOF 14
ENDMDL
MODEL      319
REMARK 921   NORMALIZED FREE ENERGY PREDICTED BY IDOCK:   -3.09 KCAL/MOL
REMARK 922        TOTAL FREE ENERGY PREDICTED BY IDOCK:   -6.54 KCAL/MOL
REMARK 923 INTER-LIGAND FREE ENERGY PREDICTED BY IDOCK:   -5.04 KCAL/MOL
REMARK 924 INTRA-LIGAND FREE ENERGY PREDICTED BY IDOCK:   -1.50 KCAL/MOL
REMARK 927      BINDING AFFINITY PREDICTED BY RF-SCORE:    0.00 PKD
ROOT
HETATM    1  C   UNK     1     -11.385  14.730  68.352  1.00  0.00    -0.299 C  
HETATM    2  O   UNK     1     -11.881  15.077  67.067  1.00  0.00    -0.272 OA 
ENDROOT
BRANCH   2   3
HETATM    3  C   UNK     1     -12.159  13.916  66.284  1.00  0.00    -0.451 C  
BRANCH   3   4
HETATM    4  C   UNK     1     -11.551  12.696  66.965  1.00  0.00    -0.365 C  
BRANCH   4   5
HETATM    5  O   UNK     1     -11.124  11.764  65.974  1.00  0.00    -0.311 OA 
BRANCH   5   6
HETATM    6  C   UNK     1     -11.209  12.319  64.663  1.00  0.00    -0.315 C  
BRANCH   6   7
HETATM    7  C   UNK     1      -9.845  12.225  63.992  1.00  0.00    -0.194 C  
BRANCH   7   8
HETATM    8  C   UNK     1      -9.835  11.224  62.831  1.00  0.00    -0.317 C  
BRANCH   8   9
HETATM    9  C   UNK     1      -9.285   9.876  63.290  1.00  0.00    -0.274 C  
BRANCH   9  10
HETATM   10  C   UNK     1      -8.338  10.010  64.479  1.00  0.00    -0.168 C  
BRANCH  10  11
HETATM   11  C   UNK     1      -8.526   8.863  65.455  1.00  0.00    -0.159 C  
HETATM   12  O   UNK     1      -8.036   7.749  65.297  1.00  0.00    -0.112 OA 
HETATM   13  N   UNK     1      -9.307   9.192  66.540  1.00  0.00    -0.175 N  
HETATM   14  H   UNK     1      -9.722  10.123  66.595  1.00  0.00     0.000 HD 
BRANCH  13  15
HETATM   15  C   UNK     1      -9.549   8.239  67.605  1.00  0.00    -0.152 C  
BRANCH  15  16
HETATM   16  C   UNK     1     -10.908   7.546  67.481  1.00  0.00    -0.232 C  
BRANCH  16  17
HETATM   17  C   UNK     1     -10.773   6.027  67.585  1.00  0.00    -0.377 C  
BRANCH  17  18
HETATM   18  C   UNK     1     -10.528   5.364  66.222  1.00  0.00    -0.277 C  
BRANCH  18  19
HETATM   19  C   UNK     1      -9.347   4.381  66.224  1.00  0.00    -0.160 C  
HETATM   20  N   UNK     1      -8.054   5.090  66.454  1.00  0.00    -0.107 NA 
HETATM   21  C   UNK     1      -9.264   3.639  64.880  1.00  0.00    -0.147 C  
HETATM   22  O   UNK     1      -9.957   2.696  64.551  1.00  0.00    -0.084 OA 
HETATM   23  O   UNK     1      -8.332   4.210  64.066  1.00  0.00    -0.091 OA 
HETATM   24  H1  UNK     1      -7.271   4.438  66.455  1.00  0.00     0.000 HD 
HETATM   25  H2  UNK     1      -8.079   5.648  67.308  1.00  0.00     0.000 HD 
ENDBRANCH  18  19
ENDBRANCH  17  18
ENDBRANCH  16  17
ENDBRANCH  15  16
ENDBRANCH  13  15
ENDBRANCH  10  11
ENDBRANCH   9  10
ENDBRANCH   8   9
ENDBRANCH   7   8
ENDBRANCH   6   7
ENDBRANCH   5   6
ENDBRANCH   4   5
ENDBRANCH   3   4
ENDBRANCH   2   3
TORSDOF 14
ENDMDL
MODEL      320
REMARK 921   NORMALIZED FREE ENERGY PREDICTED BY IDOCK:   -3.09 KCAL/MOL
REMARK 922        TOTAL FREE ENERGY PREDICTED BY IDOCK:   -6.54 KCAL/MOL
REMARK 923 INTER-LIGAND FREE ENERGY PREDICTED BY IDOCK:   -5.69 KCAL/MOL
REMARK 924 INTRA-LIGAND FREE ENERGY PREDICTED BY IDOCK:   -0.85 KCAL/MOL
REMARK 927      BINDING AFFINITY PREDICTED BY RF-SCORE:    0.00 PKD
ROOT
HETATM    1  C   UNK     1      -7.074   5.671  68.482  1.00  0.00    -0.070 C  
HETATM    2  O   UNK     1      -6.002   5.603  69.411  1.00  0.00    -0.018 OA 
ENDROOT
BRANCH   2   3
HETATM    3  C   UNK     1      -6.272   4.662  70.451  1.00  0.00    -0.022 C  
BRANCH   3   4
HETATM    4  C   UNK     1      -5.969   5.308  71.798  1.00  0.00    -0.025 C  
BRANCH   4   5
HETATM    5  O   UNK     1      -5.712   6.697  71.610  1.00  0.00    -0.034 OA 
BRANCH   5   6
HETATM    6  C   UNK     1      -6.401   7.493  72.572  1.00  0.00    -0.051 C  
BRANCH   6   7
HETATM    7  C   UNK     1      -7.424   8.365  71.857  1.00  0.00    -0.129 C  
BRANCH   7   8
HETATM    8  C   UNK     1      -8.797   8.329  72.538  1.00  0.00    -0.297 C  
BRANCH   8   9
HETATM    9  C   UNK     1      -9.086   6.936  73.090  1.00  0.00    -0.154 C  
BRANCH   9  10
HETATM   10  C   UNK     1     -10.552   6.757  73.476  1.00  0.00    -0.358 C  
BRANCH  10  11
HETATM   11  C   UNK     1     -11.469   7.242  72.368  1.00  0.00    -0.287 C  
HETATM   12  O   UNK     1     -11.498   6.747  71.246  1.00  0.00    -0.271 OA 
HETATM   13  N   UNK     1     -12.268   8.298  72.744  1.00  0.00    -0.580 N  
HETATM   14  H   UNK     1     -12.168   8.694  73.679  1.00  0.00     0.000 HD 
BRANCH  13  15
HETATM   15  C   UNK     1     -13.247   8.856  71.833  1.00  0.00    -0.393 C  
BRANCH  15  16
HETATM   16  C   UNK     1     -13.035  10.351  71.581  1.00  0.00    -0.581 C  
BRANCH  16  17
HETATM   17  C   UNK     1     -11.841  10.599  70.660  1.00  0.00    -0.463 C  
BRANCH  17  18
HETATM   18  C   UNK     1     -12.246  11.268  69.338  1.00  0.00    -0.315 C  
BRANCH  18  19
HETATM   19  C   UNK     1     -11.325  12.428  68.932  1.00  0.00    -0.294 C  
HETATM   20  N   UNK     1     -11.570  13.634  69.776  1.00  0.00    -0.404 NA 
HETATM   21  C   UNK     1     -11.556  12.807  67.461  1.00  0.00    -0.356 C  
HETATM   22  O   UNK     1     -11.111  12.210  66.500  1.00  0.00    -0.276 OA 
HETATM   23  O   UNK     1     -12.379  13.890  67.361  1.00  0.00    -0.316 OA 
HETATM   24  H1  UNK     1     -10.958  14.404  69.507  1.00  0.00     0.000 HD 
HETATM   25  H2  UNK     1     -11.487  13.419  70.770  1.00  0.00     0.000 HD 
ENDBRANCH  18  19
ENDBRANCH  17  18
ENDBRANCH  16  17
ENDBRANCH  15  16
ENDBRANCH  13  15
ENDBRANCH  10  11
ENDBRANCH   9  10
ENDBRANCH   8   9
ENDBRANCH   7   8
ENDBRANCH   6   7
ENDBRANCH   5   6
ENDBRANCH   4   5
ENDBRANCH   3   4
ENDBRANCH   2   3
TORSDOF 14
ENDMDL
MODEL      321
REMARK 921   NORMALIZED FREE ENERGY PREDICTED BY IDOCK:   -3.08 KCAL/MOL
REMARK 922        TOTAL FREE ENERGY PREDICTED BY IDOCK:   -6.53 KCAL/MOL
REMARK 923 INTER-LIGAND FREE ENERGY PREDICTED BY IDOCK:   -6.29 KCAL/MOL
REMARK 924 INTRA-LIGAND FREE ENERGY PREDICTED BY IDOCK:   -0.24 KCAL/MOL
REMARK 927      BINDING AFFINITY PREDICTED BY RF-SCORE:    0.00 PKD
ROOT
HETATM    1  C   UNK     1     -13.755   8.842  72.132  1.00  0.00    -0.447 C  
HETATM    2  O   UNK     1     -13.813   7.767  71.206  1.00  0.00    -0.303 OA 
ENDROOT
BRANCH   2   3
HETATM    3  C   UNK     1     -12.689   6.897  71.343  1.00  0.00    -0.334 C  
BRANCH   3   4
HETATM    4  C   UNK     1     -11.471   7.717  71.752  1.00  0.00    -0.264 C  
BRANCH   4   5
HETATM    5  O   UNK     1     -10.804   8.188  70.584  1.00  0.00    -0.225 OA 
BRANCH   5   6
HETATM    6  C   UNK     1     -10.559   7.132  69.658  1.00  0.00    -0.234 C  
BRANCH   6   7
HETATM    7  C   UNK     1     -10.786   7.646  68.243  1.00  0.00    -0.023 C  
BRANCH   7   8
HETATM    8  C   UNK     1      -9.892   8.846  67.909  1.00  0.00    -0.205 C  
BRANCH   8   9
HETATM    9  C   UNK     1     -10.713  10.132  67.867  1.00  0.00    -0.317 C  
BRANCH   9  10
HETATM   10  C   UNK     1     -10.260  11.073  66.754  1.00  0.00    -0.272 C  
BRANCH  10  11
HETATM   11  C   UNK     1      -9.436  12.218  67.312  1.00  0.00    -0.186 C  
HETATM   12  O   UNK     1      -8.615  12.087  68.215  1.00  0.00    -0.168 OA 
HETATM   13  N   UNK     1      -9.701  13.427  66.709  1.00  0.00    -0.255 N  
HETATM   14  H   UNK     1     -10.425  13.481  65.992  1.00  0.00     0.000 HD 
BRANCH  13  15
HETATM   15  C   UNK     1      -8.967  14.622  67.074  1.00  0.00    -0.240 C  
BRANCH  15  16
HETATM   16  C   UNK     1      -9.802  15.897  66.923  1.00  0.00    -0.251 C  
BRANCH  16  17
HETATM   17  C   UNK     1      -9.493  16.902  68.032  1.00  0.00    -0.243 C  
BRANCH  17  18
HETATM   18  C   UNK     1     -10.479  18.079  68.051  1.00  0.00    -0.388 C  
BRANCH  18  19
HETATM   19  C   UNK     1     -10.056  19.247  67.148  1.00  0.00    -0.377 C  
HETATM   20  N   UNK     1     -10.614  19.097  65.772  1.00  0.00    -0.513 NA 
HETATM   21  C   UNK     1      -8.524  19.319  67.047  1.00  0.00    -0.284 C  
HETATM   22  O   UNK     1      -7.783  19.792  67.887  1.00  0.00    -0.283 OA 
HETATM   23  O   UNK     1      -8.084  18.732  65.898  1.00  0.00    -0.476 OA 
HETATM   24  H1  UNK     1     -10.333  19.873  65.173  1.00  0.00     0.000 HD 
HETATM   25  H2  UNK     1     -11.628  18.985  65.789  1.00  0.00     0.000 HD 
ENDBRANCH  18  19
ENDBRANCH  17  18
ENDBRANCH  16  17
ENDBRANCH  15  16
ENDBRANCH  13  15
ENDBRANCH  10  11
ENDBRANCH   9  10
ENDBRANCH   8   9
ENDBRANCH   7   8
ENDBRANCH   6   7
ENDBRANCH   5   6
ENDBRANCH   4   5
ENDBRANCH   3   4
ENDBRANCH   2   3
TORSDOF 14
ENDMDL
MODEL      322
REMARK 921   NORMALIZED FREE ENERGY PREDICTED BY IDOCK:   -3.07 KCAL/MOL
REMARK 922        TOTAL FREE ENERGY PREDICTED BY IDOCK:   -6.52 KCAL/MOL
REMARK 923 INTER-LIGAND FREE ENERGY PREDICTED BY IDOCK:   -5.45 KCAL/MOL
REMARK 924 INTRA-LIGAND FREE ENERGY PREDICTED BY IDOCK:   -1.07 KCAL/MOL
REMARK 927      BINDING AFFINITY PREDICTED BY RF-SCORE:    0.00 PKD
ROOT
HETATM    1  C   UNK     1     -12.994  10.384  70.653  1.00  0.00    -0.283 C  
HETATM    2  O   UNK     1     -12.305  10.266  71.889  1.00  0.00    -0.335 OA 
ENDROOT
BRANCH   2   3
HETATM    3  C   UNK     1     -12.552   9.002  72.506  1.00  0.00    -0.272 C  
BRANCH   3   4
HETATM    4  C   UNK     1     -13.463   8.177  71.605  1.00  0.00    -0.332 C  
BRANCH   4   5
HETATM    5  O   UNK     1     -12.951   6.850  71.501  1.00  0.00    -0.367 OA 
BRANCH   5   6
HETATM    6  C   UNK     1     -11.526   6.833  71.565  1.00  0.00    -0.287 C  
BRANCH   6   7
HETATM    7  C   UNK     1     -11.061   5.441  71.972  1.00  0.00    -0.204 C  
BRANCH   7   8
HETATM    8  C   UNK     1     -10.886   5.307  73.489  1.00  0.00    -0.358 C  
BRANCH   8   9
HETATM    9  C   UNK     1     -10.236   6.560  74.067  1.00  0.00    -0.374 C  
BRANCH   9  10
HETATM   10  C   UNK     1      -8.715   6.537  73.941  1.00  0.00    -0.144 C  
BRANCH  10  11
HETATM   11  C   UNK     1      -8.204   7.808  73.288  1.00  0.00    -0.158 C  
HETATM   12  O   UNK     1      -7.714   8.742  73.913  1.00  0.00    -0.417 OA 
HETATM   13  N   UNK     1      -8.346   7.812  71.918  1.00  0.00    -0.108 N  
HETATM   14  H   UNK     1      -8.800   7.023  71.458  1.00  0.00     0.000 HD 
BRANCH  13  15
HETATM   15  C   UNK     1      -7.862   8.921  71.120  1.00  0.00    -0.140 C  
BRANCH  15  16
HETATM   16  C   UNK     1      -8.966   9.574  70.284  1.00  0.00    -0.288 C  
BRANCH  16  17
HETATM   17  C   UNK     1      -8.935   9.085  68.837  1.00  0.00    -0.140 C  
BRANCH  17  18
HETATM   18  C   UNK     1      -9.527   7.677  68.679  1.00  0.00    -0.151 C  
BRANCH  18  19
HETATM   19  C   UNK     1      -9.253   7.048  67.305  1.00  0.00    -0.129 C  
HETATM   20  N   UNK     1     -10.105   7.669  66.248  1.00  0.00    -0.464 NA 
HETATM   21  C   UNK     1      -9.541   5.539  67.338  1.00  0.00    -0.122 C  
HETATM   22  O   UNK     1      -8.800   4.689  67.795  1.00  0.00    -0.103 OA 
HETATM   23  O   UNK     1     -10.774   5.267  66.826  1.00  0.00    -0.273 OA 
HETATM   24  H1  UNK     1      -9.924   7.252  65.336  1.00  0.00     0.000 HD 
HETATM   25  H2  UNK     1      -9.995   8.683  66.226  1.00  0.00     0.000 HD 
ENDBRANCH  18  19
ENDBRANCH  17  18
ENDBRANCH  16  17
ENDBRANCH  15  16
ENDBRANCH  13  15
ENDBRANCH  10  11
ENDBRANCH   9  10
ENDBRANCH   8   9
ENDBRANCH   7   8
ENDBRANCH   6   7
ENDBRANCH   5   6
ENDBRANCH   4   5
ENDBRANCH   3   4
ENDBRANCH   2   3
TORSDOF 14
ENDMDL
MODEL      323
REMARK 921   NORMALIZED FREE ENERGY PREDICTED BY IDOCK:   -3.06 KCAL/MOL
REMARK 922        TOTAL FREE ENERGY PREDICTED BY IDOCK:   -6.50 KCAL/MOL
REMARK 923 INTER-LIGAND FREE ENERGY PREDICTED BY IDOCK:   -6.32 KCAL/MOL
REMARK 924 INTRA-LIGAND FREE ENERGY PREDICTED BY IDOCK:   -0.18 KCAL/MOL
REMARK 927      BINDING AFFINITY PREDICTED BY RF-SCORE:    0.00 PKD
ROOT
HETATM    1  C   UNK     1      -7.366   3.419  70.106  1.00  0.00    -0.041 C  
HETATM    2  O   UNK     1      -6.751   3.552  71.379  1.00  0.00    -0.029 OA 
ENDROOT
BRANCH   2   3
HETATM    3  C   UNK     1      -7.664   3.250  72.434  1.00  0.00    -0.058 C  
BRANCH   3   4
HETATM    4  C   UNK     1      -9.063   3.083  71.852  1.00  0.00    -0.097 C  
BRANCH   4   5
HETATM    5  O   UNK     1      -9.938   4.042  72.441  1.00  0.00    -0.151 OA 
BRANCH   5   6
HETATM    6  C   UNK     1      -9.644   5.363  71.994  1.00  0.00    -0.155 C  
BRANCH   6   7
HETATM    7  C   UNK     1     -10.582   5.723  70.849  1.00  0.00    -0.329 C  
BRANCH   7   8
HETATM    8  C   UNK     1     -10.602   7.229  70.564  1.00  0.00    -0.237 C  
BRANCH   8   9
HETATM    9  C   UNK     1     -10.578   8.022  71.868  1.00  0.00    -0.305 C  
BRANCH   9  10
HETATM   10  C   UNK     1     -11.841   7.810  72.699  1.00  0.00    -0.317 C  
BRANCH  10  11
HETATM   11  C   UNK     1     -12.952   8.740  72.247  1.00  0.00    -0.408 C  
HETATM   12  O   UNK     1     -14.080   8.357  71.954  1.00  0.00    -0.399 OA 
HETATM   13  N   UNK     1     -12.570  10.061  72.193  1.00  0.00    -0.283 N  
HETATM   14  H   UNK     1     -11.605  10.314  72.408  1.00  0.00     0.000 HD 
BRANCH  13  15
HETATM   15  C   UNK     1     -13.517  11.099  71.837  1.00  0.00    -0.180 C  
BRANCH  15  16
HETATM   16  C   UNK     1     -12.841  12.443  71.552  1.00  0.00    -0.377 C  
BRANCH  16  17
HETATM   17  C   UNK     1     -13.668  13.610  72.091  1.00  0.00    -0.649 C  
BRANCH  17  18
HETATM   18  C   UNK     1     -13.501  14.885  71.252  1.00  0.00    -0.500 C  
BRANCH  18  19
HETATM   19  C   UNK     1     -12.067  15.103  70.746  1.00  0.00    -0.336 C  
HETATM   20  N   UNK     1     -11.630  16.514  70.954  1.00  0.00    -0.548 NA 
HETATM   21  C   UNK     1     -11.972  14.779  69.247  1.00  0.00    -0.294 C  
HETATM   22  O   UNK     1     -11.895  13.663  68.770  1.00  0.00    -0.323 OA 
HETATM   23  O   UNK     1     -12.033  15.916  68.499  1.00  0.00    -0.306 OA 
HETATM   24  H1  UNK     1     -10.678  16.659  70.619  1.00  0.00     0.000 HD 
HETATM   25  H2  UNK     1     -11.731  16.799  71.928  1.00  0.00     0.000 HD 
ENDBRANCH  18  19
ENDBRANCH  17  18
ENDBRANCH  16  17
ENDBRANCH  15  16
ENDBRANCH  13  15
ENDBRANCH  10  11
ENDBRANCH   9  10
ENDBRANCH   8   9
ENDBRANCH   7   8
ENDBRANCH   6   7
ENDBRANCH   5   6
ENDBRANCH   4   5
ENDBRANCH   3   4
ENDBRANCH   2   3
TORSDOF 14
ENDMDL
MODEL      324
REMARK 921   NORMALIZED FREE ENERGY PREDICTED BY IDOCK:   -3.06 KCAL/MOL
REMARK 922        TOTAL FREE ENERGY PREDICTED BY IDOCK:   -6.49 KCAL/MOL
REMARK 923 INTER-LIGAND FREE ENERGY PREDICTED BY IDOCK:   -5.57 KCAL/MOL
REMARK 924 INTRA-LIGAND FREE ENERGY PREDICTED BY IDOCK:   -0.93 KCAL/MOL
REMARK 927      BINDING AFFINITY PREDICTED BY RF-SCORE:    0.00 PKD
ROOT
HETATM    1  C   UNK     1      -7.949  14.304  68.162  1.00  0.00    -0.140 C  
HETATM    2  O   UNK     1      -8.722  15.481  67.975  1.00  0.00    -0.161 OA 
ENDROOT
BRANCH   2   3
HETATM    3  C   UNK     1      -8.740  15.881  66.604  1.00  0.00    -0.289 C  
BRANCH   3   4
HETATM    4  C   UNK     1      -9.736  15.014  65.843  1.00  0.00    -0.342 C  
BRANCH   4   5
HETATM    5  O   UNK     1     -10.860  14.742  66.677  1.00  0.00    -0.307 OA 
BRANCH   5   6
HETATM    6  C   UNK     1     -11.489  13.512  66.323  1.00  0.00    -0.326 C  
BRANCH   6   7
HETATM    7  C   UNK     1     -11.179  12.468  67.388  1.00  0.00    -0.344 C  
BRANCH   7   8
HETATM    8  C   UNK     1     -11.013  13.088  68.780  1.00  0.00    -0.295 C  
BRANCH   8   9
HETATM    9  C   UNK     1     -11.668  12.208  69.842  1.00  0.00    -0.361 C  
BRANCH   9  10
HETATM   10  C   UNK     1     -12.097  10.852  69.287  1.00  0.00    -0.332 C  
BRANCH  10  11
HETATM   11  C   UNK     1     -11.158   9.754  69.751  1.00  0.00    -0.237 C  
HETATM   12  O   UNK     1      -9.970   9.935  69.995  1.00  0.00    -0.242 OA 
HETATM   13  N   UNK     1     -11.770   8.526  69.869  1.00  0.00    -0.308 N  
HETATM   14  H   UNK     1     -12.752   8.429  69.611  1.00  0.00     0.000 HD 
BRANCH  13  15
HETATM   15  C   UNK     1     -11.041   7.371  70.354  1.00  0.00    -0.265 C  
BRANCH  15  16
HETATM   16  C   UNK     1     -10.558   6.460  69.223  1.00  0.00    -0.311 C  
BRANCH  16  17
HETATM   17  C   UNK     1      -9.036   6.316  69.233  1.00  0.00    -0.134 C  
BRANCH  17  18
HETATM   18  C   UNK     1      -8.411   6.582  67.856  1.00  0.00    -0.118 C  
BRANCH  18  19
HETATM   19  C   UNK     1      -9.445   6.909  66.768  1.00  0.00    -0.165 C  
HETATM   20  N   UNK     1      -9.334   5.965  65.617  1.00  0.00    -0.363 NA 
HETATM   21  C   UNK     1      -9.239   8.340  66.245  1.00  0.00    -0.203 C  
HETATM   22  O   UNK     1      -9.611   9.355  66.803  1.00  0.00    -0.157 OA 
HETATM   23  O   UNK     1      -8.534   8.335  65.079  1.00  0.00    -0.166 OA 
HETATM   24  H1  UNK     1     -10.021   6.181  64.895  1.00  0.00     0.000 HD 
HETATM   25  H2  UNK     1      -9.404   4.994  65.922  1.00  0.00     0.000 HD 
ENDBRANCH  18  19
ENDBRANCH  17  18
ENDBRANCH  16  17
ENDBRANCH  15  16
ENDBRANCH  13  15
ENDBRANCH  10  11
ENDBRANCH   9  10
ENDBRANCH   8   9
ENDBRANCH   7   8
ENDBRANCH   6   7
ENDBRANCH   5   6
ENDBRANCH   4   5
ENDBRANCH   3   4
ENDBRANCH   2   3
TORSDOF 14
ENDMDL
MODEL      325
REMARK 921   NORMALIZED FREE ENERGY PREDICTED BY IDOCK:   -3.05 KCAL/MOL
REMARK 922        TOTAL FREE ENERGY PREDICTED BY IDOCK:   -6.48 KCAL/MOL
REMARK 923 INTER-LIGAND FREE ENERGY PREDICTED BY IDOCK:   -5.92 KCAL/MOL
REMARK 924 INTRA-LIGAND FREE ENERGY PREDICTED BY IDOCK:   -0.56 KCAL/MOL
REMARK 927      BINDING AFFINITY PREDICTED BY RF-SCORE:    0.00 PKD
ROOT
HETATM    1  C   UNK     1     -11.452  10.407  68.771  1.00  0.00    -0.175 C  
HETATM    2  O   UNK     1     -12.171  11.627  68.661  1.00  0.00    -0.455 OA 
ENDROOT
BRANCH   2   3
HETATM    3  C   UNK     1     -11.308  12.712  68.319  1.00  0.00    -0.295 C  
BRANCH   3   4
HETATM    4  C   UNK     1     -12.136  13.985  68.187  1.00  0.00    -0.272 C  
BRANCH   4   5
HETATM    5  O   UNK     1     -12.224  14.351  66.812  1.00  0.00    -0.420 OA 
BRANCH   5   6
HETATM    6  C   UNK     1     -12.276  13.204  65.966  1.00  0.00    -0.414 C  
BRANCH   6   7
HETATM    7  C   UNK     1     -12.208  13.652  64.512  1.00  0.00    -0.444 C  
BRANCH   7   8
HETATM    8  C   UNK     1     -12.115  12.469  63.542  1.00  0.00    -0.653 C  
BRANCH   8   9
HETATM    9  C   UNK     1     -10.681  11.951  63.464  1.00  0.00    -0.504 C  
BRANCH   9  10
HETATM   10  C   UNK     1     -10.453  10.738  64.361  1.00  0.00    -0.344 C  
BRANCH  10  11
HETATM   11  C   UNK     1      -9.175  10.013  63.980  1.00  0.00    -0.272 C  
HETATM   12  O   UNK     1      -8.835   9.800  62.820  1.00  0.00    -0.208 OA 
HETATM   13  N   UNK     1      -8.429   9.613  65.066  1.00  0.00    -0.140 N  
HETATM   14  H   UNK     1      -8.784   9.782  66.008  1.00  0.00     0.000 HD 
BRANCH  13  15
HETATM   15  C   UNK     1      -7.149   8.956  64.893  1.00  0.00    -0.083 C  
BRANCH  15  16
HETATM   16  C   UNK     1      -6.437   8.690  66.222  1.00  0.00    -0.061 C  
BRANCH  16  17
HETATM   17  C   UNK     1      -7.431   8.324  67.325  1.00  0.00    -0.089 C  
BRANCH  17  18
HETATM   18  C   UNK     1      -6.934   8.724  68.721  1.00  0.00    -0.063 C  
BRANCH  18  19
HETATM   19  C   UNK     1      -7.981   9.483  69.550  1.00  0.00    -0.110 C  
HETATM   20  N   UNK     1      -7.348  10.564  70.361  1.00  0.00    -0.454 NA 
HETATM   21  C   UNK     1      -8.710   8.522  70.503  1.00  0.00    -0.152 C  
HETATM   22  O   UNK     1      -9.610   7.766  70.190  1.00  0.00    -0.168 OA 
HETATM   23  O   UNK     1      -8.183   8.589  71.758  1.00  0.00    -0.143 OA 
HETATM   24  H1  UNK     1      -8.043  11.068  70.910  1.00  0.00     0.000 HD 
HETATM   25  H2  UNK     1      -6.800  11.197  69.779  1.00  0.00     0.000 HD 
ENDBRANCH  18  19
ENDBRANCH  17  18
ENDBRANCH  16  17
ENDBRANCH  15  16
ENDBRANCH  13  15
ENDBRANCH  10  11
ENDBRANCH   9  10
ENDBRANCH   8   9
ENDBRANCH   7   8
ENDBRANCH   6   7
ENDBRANCH   5   6
ENDBRANCH   4   5
ENDBRANCH   3   4
ENDBRANCH   2   3
TORSDOF 14
ENDMDL
MODEL      326
REMARK 921   NORMALIZED FREE ENERGY PREDICTED BY IDOCK:   -3.04 KCAL/MOL
REMARK 922        TOTAL FREE ENERGY PREDICTED BY IDOCK:   -6.47 KCAL/MOL
REMARK 923 INTER-LIGAND FREE ENERGY PREDICTED BY IDOCK:   -5.95 KCAL/MOL
REMARK 924 INTRA-LIGAND FREE ENERGY PREDICTED BY IDOCK:   -0.51 KCAL/MOL
REMARK 927      BINDING AFFINITY PREDICTED BY RF-SCORE:    0.00 PKD
ROOT
HETATM    1  C   UNK     1      -5.651  18.497  67.295  1.00  0.00    -0.133 C  
HETATM    2  O   UNK     1      -6.892  19.163  67.114  1.00  0.00    -0.199 OA 
ENDROOT
BRANCH   2   3
HETATM    3  C   UNK     1      -7.993  18.264  67.255  1.00  0.00    -0.224 C  
BRANCH   3   4
HETATM    4  C   UNK     1      -7.929  17.608  68.629  1.00  0.00    -0.275 C  
BRANCH   4   5
HETATM    5  O   UNK     1      -8.622  16.362  68.591  1.00  0.00    -0.213 OA 
BRANCH   5   6
HETATM    6  C   UNK     1      -9.879  16.483  67.930  1.00  0.00    -0.240 C  
BRANCH   6   7
HETATM    7  C   UNK     1     -10.932  16.928  68.936  1.00  0.00    -0.207 C  
BRANCH   7   8
HETATM    8  C   UNK     1     -11.085  15.938  70.096  1.00  0.00    -0.369 C  
BRANCH   8   9
HETATM    9  C   UNK     1     -12.559  15.701  70.410  1.00  0.00    -0.376 C  
BRANCH   9  10
HETATM   10  C   UNK     1     -12.837  14.264  70.844  1.00  0.00    -0.416 C  
BRANCH  10  11
HETATM   11  C   UNK     1     -12.274  13.275  69.839  1.00  0.00    -0.246 C  
HETATM   12  O   UNK     1     -12.318  13.442  68.625  1.00  0.00    -0.203 OA 
HETATM   13  N   UNK     1     -11.709  12.165  70.425  1.00  0.00    -0.532 N  
HETATM   14  H   UNK     1     -11.740  12.062  71.440  1.00  0.00     0.000 HD 
BRANCH  13  15
HETATM   15  C   UNK     1     -11.071  11.140  69.623  1.00  0.00    -0.232 C  
BRANCH  15  16
HETATM   16  C   UNK     1     -10.729   9.885  70.431  1.00  0.00    -0.379 C  
BRANCH  16  17
HETATM   17  C   UNK     1      -9.399   9.279  69.986  1.00  0.00    -0.232 C  
BRANCH  17  18
HETATM   18  C   UNK     1      -9.411   7.743  70.023  1.00  0.00    -0.157 C  
BRANCH  18  19
HETATM   19  C   UNK     1     -10.760   7.132  69.617  1.00  0.00    -0.239 C  
HETATM   20  N   UNK     1     -11.078   5.930  70.443  1.00  0.00    -0.311 NA 
HETATM   21  C   UNK     1     -10.738   6.715  68.138  1.00  0.00    -0.258 C  
HETATM   22  O   UNK     1     -10.874   7.466  67.191  1.00  0.00    -0.331 OA 
HETATM   23  O   UNK     1     -10.494   5.380  68.012  1.00  0.00    -0.180 OA 
HETATM   24  H1  UNK     1     -11.974   5.524  70.174  1.00  0.00     0.000 HD 
HETATM   25  H2  UNK     1     -11.047   6.141  71.440  1.00  0.00     0.000 HD 
ENDBRANCH  18  19
ENDBRANCH  17  18
ENDBRANCH  16  17
ENDBRANCH  15  16
ENDBRANCH  13  15
ENDBRANCH  10  11
ENDBRANCH   9  10
ENDBRANCH   8   9
ENDBRANCH   7   8
ENDBRANCH   6   7
ENDBRANCH   5   6
ENDBRANCH   4   5
ENDBRANCH   3   4
ENDBRANCH   2   3
TORSDOF 14
ENDMDL
MODEL      327
REMARK 921   NORMALIZED FREE ENERGY PREDICTED BY IDOCK:   -3.04 KCAL/MOL
REMARK 922        TOTAL FREE ENERGY PREDICTED BY IDOCK:   -6.47 KCAL/MOL
REMARK 923 INTER-LIGAND FREE ENERGY PREDICTED BY IDOCK:   -5.78 KCAL/MOL
REMARK 924 INTRA-LIGAND FREE ENERGY PREDICTED BY IDOCK:   -0.69 KCAL/MOL
REMARK 927      BINDING AFFINITY PREDICTED BY RF-SCORE:    0.00 PKD
ROOT
HETATM    1  C   UNK     1      -5.338   7.905  63.486  1.00  0.00    -0.045 C  
HETATM    2  O   UNK     1      -6.650   7.770  64.013  1.00  0.00    -0.056 OA 
ENDROOT
BRANCH   2   3
HETATM    3  C   UNK     1      -7.373   8.999  63.936  1.00  0.00    -0.097 C  
BRANCH   3   4
HETATM    4  C   UNK     1      -7.804   9.414  65.338  1.00  0.00    -0.104 C  
BRANCH   4   5
HETATM    5  O   UNK     1      -9.182   9.099  65.522  1.00  0.00    -0.216 OA 
BRANCH   5   6
HETATM    6  C   UNK     1     -10.014   9.860  64.648  1.00  0.00    -0.002 C  
BRANCH   6   7
HETATM    7  C   UNK     1      -9.388  11.233  64.434  1.00  0.00    -0.144 C  
BRANCH   7   8
HETATM    8  C   UNK     1     -10.189  12.089  63.447  1.00  0.00    -0.457 C  
BRANCH   8   9
HETATM    9  C   UNK     1     -11.670  12.090  63.815  1.00  0.00    -0.575 C  
BRANCH   9  10
HETATM   10  C   UNK     1     -12.245  13.501  63.905  1.00  0.00    -0.458 C  
BRANCH  10  11
HETATM   11  C   UNK     1     -11.862  14.161  65.217  1.00  0.00    -0.367 C  
HETATM   12  O   UNK     1     -11.493  15.328  65.308  1.00  0.00    -0.309 OA 
HETATM   13  N   UNK     1     -11.968  13.320  66.302  1.00  0.00    -0.403 N  
HETATM   14  H   UNK     1     -12.240  12.348  66.158  1.00  0.00     0.000 HD 
BRANCH  13  15
HETATM   15  C   UNK     1     -11.698  13.794  67.645  1.00  0.00    -0.367 C  
BRANCH  15  16
HETATM   16  C   UNK     1     -10.657  12.941  68.375  1.00  0.00    -0.267 C  
BRANCH  16  17
HETATM   17  C   UNK     1     -10.591  11.527  67.800  1.00  0.00    -0.227 C  
BRANCH  17  18
HETATM   18  C   UNK     1     -11.117  10.468  68.780  1.00  0.00    -0.315 C  
BRANCH  18  19
HETATM   19  C   UNK     1     -10.670  10.703  70.231  1.00  0.00     0.003 C  
HETATM   20  N   UNK     1      -9.435   9.926  70.548  1.00  0.00    -0.345 NA 
HETATM   21  C   UNK     1     -11.776  10.277  71.209  1.00  0.00    -0.291 C  
HETATM   22  O   UNK     1     -12.765  10.931  71.483  1.00  0.00    -0.408 OA 
HETATM   23  O   UNK     1     -11.534   9.032  71.707  1.00  0.00    -0.329 OA 
HETATM   24  H1  UNK     1      -9.138  10.082  71.511  1.00  0.00     0.000 HD 
HETATM   25  H2  UNK     1      -8.685  10.129  69.887  1.00  0.00     0.000 HD 
ENDBRANCH  18  19
ENDBRANCH  17  18
ENDBRANCH  16  17
ENDBRANCH  15  16
ENDBRANCH  13  15
ENDBRANCH  10  11
ENDBRANCH   9  10
ENDBRANCH   8   9
ENDBRANCH   7   8
ENDBRANCH   6   7
ENDBRANCH   5   6
ENDBRANCH   4   5
ENDBRANCH   3   4
ENDBRANCH   2   3
TORSDOF 14
ENDMDL
MODEL      328
REMARK 921   NORMALIZED FREE ENERGY PREDICTED BY IDOCK:   -3.04 KCAL/MOL
REMARK 922        TOTAL FREE ENERGY PREDICTED BY IDOCK:   -6.45 KCAL/MOL
REMARK 923 INTER-LIGAND FREE ENERGY PREDICTED BY IDOCK:   -5.12 KCAL/MOL
REMARK 924 INTRA-LIGAND FREE ENERGY PREDICTED BY IDOCK:   -1.33 KCAL/MOL
REMARK 927      BINDING AFFINITY PREDICTED BY RF-SCORE:    0.00 PKD
ROOT
HETATM    1  C   UNK     1      -8.008  16.094  67.020  1.00  0.00    -0.219 C  
HETATM    2  O   UNK     1      -8.978  15.130  67.404  1.00  0.00    -0.172 OA 
ENDROOT
BRANCH   2   3
HETATM    3  C   UNK     1      -9.471  14.407  66.276  1.00  0.00    -0.271 C  
BRANCH   3   4
HETATM    4  C   UNK     1     -10.261  13.198  66.765  1.00  0.00    -0.252 C  
BRANCH   4   5
HETATM    5  O   UNK     1     -11.340  13.638  67.585  1.00  0.00    -0.275 OA 
BRANCH   5   6
HETATM    6  C   UNK     1     -11.945  12.552  68.283  1.00  0.00    -0.221 C  
BRANCH   6   7
HETATM    7  C   UNK     1     -11.366  12.477  69.689  1.00  0.00    -0.182 C  
BRANCH   7   8
HETATM    8  C   UNK     1     -12.428  12.126  70.738  1.00  0.00    -0.362 C  
BRANCH   8   9
HETATM    9  C   UNK     1     -12.864  10.670  70.593  1.00  0.00    -0.404 C  
BRANCH   9  10
HETATM   10  C   UNK     1     -12.170   9.753  71.596  1.00  0.00    -0.488 C  
BRANCH  10  11
HETATM   11  C   UNK     1     -11.461   8.612  70.889  1.00  0.00    -0.275 C  
HETATM   12  O   UNK     1     -11.268   7.514  71.398  1.00  0.00    -0.238 OA 
HETATM   13  N   UNK     1     -11.051   8.931  69.614  1.00  0.00    -0.423 N  
HETATM   14  H   UNK     1     -11.203   9.876  69.260  1.00  0.00     0.000 HD 
BRANCH  13  15
HETATM   15  C   UNK     1     -10.407   7.947  68.767  1.00  0.00    -0.203 C  
BRANCH  15  16
HETATM   16  C   UNK     1      -8.899   8.178  68.633  1.00  0.00    -0.134 C  
BRANCH  16  17
HETATM   17  C   UNK     1      -8.441   9.371  69.472  1.00  0.00    -0.152 C  
BRANCH  17  18
HETATM   18  C   UNK     1      -8.462  10.688  68.683  1.00  0.00    -0.142 C  
BRANCH  18  19
HETATM   19  C   UNK     1      -7.215  11.557  68.910  1.00  0.00    -0.117 C  
HETATM   20  N   UNK     1      -7.581  12.995  69.067  1.00  0.00    -0.323 NA 
HETATM   21  C   UNK     1      -6.248  11.427  67.722  1.00  0.00    -0.050 C  
HETATM   22  O   UNK     1      -5.481  10.502  67.535  1.00  0.00    -0.043 OA 
HETATM   23  O   UNK     1      -6.390  12.475  66.862  1.00  0.00    -0.176 OA 
HETATM   24  H1  UNK     1      -6.754  13.572  69.218  1.00  0.00     0.000 HD 
HETATM   25  H2  UNK     1      -8.270  13.128  69.808  1.00  0.00     0.000 HD 
ENDBRANCH  18  19
ENDBRANCH  17  18
ENDBRANCH  16  17
ENDBRANCH  15  16
ENDBRANCH  13  15
ENDBRANCH  10  11
ENDBRANCH   9  10
ENDBRANCH   8   9
ENDBRANCH   7   8
ENDBRANCH   6   7
ENDBRANCH   5   6
ENDBRANCH   4   5
ENDBRANCH   3   4
ENDBRANCH   2   3
TORSDOF 14
ENDMDL
MODEL      329
REMARK 921   NORMALIZED FREE ENERGY PREDICTED BY IDOCK:   -3.04 KCAL/MOL
REMARK 922        TOTAL FREE ENERGY PREDICTED BY IDOCK:   -6.45 KCAL/MOL
REMARK 923 INTER-LIGAND FREE ENERGY PREDICTED BY IDOCK:   -5.65 KCAL/MOL
REMARK 924 INTRA-LIGAND FREE ENERGY PREDICTED BY IDOCK:   -0.80 KCAL/MOL
REMARK 927      BINDING AFFINITY PREDICTED BY RF-SCORE:    0.00 PKD
ROOT
HETATM    1  C   UNK     1     -10.380   7.722  72.653  1.00  0.00    -0.292 C  
HETATM    2  O   UNK     1      -9.560   7.506  71.514  1.00  0.00    -0.155 OA 
ENDROOT
BRANCH   2   3
HETATM    3  C   UNK     1     -10.104   8.135  70.353  1.00  0.00    -0.194 C  
BRANCH   3   4
HETATM    4  C   UNK     1      -9.892   7.227  69.147  1.00  0.00    -0.166 C  
BRANCH   4   5
HETATM    5  O   UNK     1      -8.736   7.654  68.431  1.00  0.00    -0.128 OA 
BRANCH   5   6
HETATM    6  C   UNK     1      -8.803   7.279  67.057  1.00  0.00    -0.128 C  
BRANCH   6   7
HETATM    7  C   UNK     1      -7.677   7.967  66.296  1.00  0.00    -0.091 C  
BRANCH   7   8
HETATM    8  C   UNK     1      -7.184   9.234  67.005  1.00  0.00    -0.087 C  
BRANCH   8   9
HETATM    9  C   UNK     1      -7.610  10.480  66.234  1.00  0.00    -0.133 C  
BRANCH   9  10
HETATM   10  C   UNK     1      -7.888  10.186  64.762  1.00  0.00    -0.146 C  
BRANCH  10  11
HETATM   11  C   UNK     1      -9.177  10.847  64.310  1.00  0.00    -0.197 C  
HETATM   12  O   UNK     1      -9.885  10.409  63.408  1.00  0.00    -0.307 OA 
HETATM   13  N   UNK     1      -9.477  11.993  65.010  1.00  0.00    -0.439 N  
HETATM   14  H   UNK     1      -8.828  12.331  65.722  1.00  0.00     0.000 HD 
BRANCH  13  15
HETATM   15  C   UNK     1     -10.700  12.728  64.754  1.00  0.00    -0.316 C  
BRANCH  15  16
HETATM   16  C   UNK     1     -11.790  12.443  65.791  1.00  0.00    -0.467 C  
BRANCH  16  17
HETATM   17  C   UNK     1     -12.401  13.736  66.330  1.00  0.00    -0.479 C  
BRANCH  17  18
HETATM   18  C   UNK     1     -11.340  14.711  66.860  1.00  0.00    -0.361 C  
BRANCH  18  19
HETATM   19  C   UNK     1     -11.216  14.706  68.391  1.00  0.00    -0.274 C  
HETATM   20  N   UNK     1     -12.403  15.345  69.032  1.00  0.00    -0.612 NA 
HETATM   21  C   UNK     1      -9.957  15.471  68.830  1.00  0.00    -0.214 C  
HETATM   22  O   UNK     1      -8.822  15.033  68.807  1.00  0.00    -0.176 OA 
HETATM   23  O   UNK     1     -10.267  16.742  69.210  1.00  0.00    -0.288 OA 
HETATM   24  H1  UNK     1     -12.321  15.341  70.048  1.00  0.00     0.000 HD 
HETATM   25  H2  UNK     1     -13.273  14.909  68.725  1.00  0.00     0.000 HD 
ENDBRANCH  18  19
ENDBRANCH  17  18
ENDBRANCH  16  17
ENDBRANCH  15  16
ENDBRANCH  13  15
ENDBRANCH  10  11
ENDBRANCH   9  10
ENDBRANCH   8   9
ENDBRANCH   7   8
ENDBRANCH   6   7
ENDBRANCH   5   6
ENDBRANCH   4   5
ENDBRANCH   3   4
ENDBRANCH   2   3
TORSDOF 14
ENDMDL
MODEL      330
REMARK 921   NORMALIZED FREE ENERGY PREDICTED BY IDOCK:   -3.04 KCAL/MOL
REMARK 922        TOTAL FREE ENERGY PREDICTED BY IDOCK:   -6.45 KCAL/MOL
REMARK 923 INTER-LIGAND FREE ENERGY PREDICTED BY IDOCK:   -5.92 KCAL/MOL
REMARK 924 INTRA-LIGAND FREE ENERGY PREDICTED BY IDOCK:   -0.53 KCAL/MOL
REMARK 927      BINDING AFFINITY PREDICTED BY RF-SCORE:    0.00 PKD
ROOT
HETATM    1  C   UNK     1      -8.313  19.325  66.907  1.00  0.00    -0.283 C  
HETATM    2  O   UNK     1      -9.065  19.597  65.734  1.00  0.00    -0.377 OA 
ENDROOT
BRANCH   2   3
HETATM    3  C   UNK     1     -10.453  19.319  65.927  1.00  0.00    -0.451 C  
BRANCH   3   4
HETATM    4  C   UNK     1     -10.672  17.812  65.870  1.00  0.00    -0.116 C  
BRANCH   4   5
HETATM    5  O   UNK     1     -11.195  17.458  64.591  1.00  0.00    -0.992 OA 
BRANCH   5   6
HETATM    6  C   UNK     1     -11.468  16.061  64.505  1.00  0.00    -0.271 C  
BRANCH   6   7
HETATM    7  C   UNK     1     -10.335  15.290  65.171  1.00  0.00    -0.413 C  
BRANCH   7   8
HETATM    8  C   UNK     1     -10.317  13.813  64.761  1.00  0.00    -0.422 C  
BRANCH   8   9
HETATM    9  C   UNK     1     -10.175  12.917  65.988  1.00  0.00    -0.293 C  
BRANCH   9  10
HETATM   10  C   UNK     1     -10.995  11.635  65.868  1.00  0.00    -0.334 C  
BRANCH  10  11
HETATM   11  C   UNK     1     -10.104  10.409  65.954  1.00  0.00    -0.261 C  
HETATM   12  O   UNK     1      -9.709   9.787  64.973  1.00  0.00    -0.298 OA 
HETATM   13  N   UNK     1      -9.780  10.059  67.245  1.00  0.00    -0.162 N  
HETATM   14  H   UNK     1     -10.173  10.590  68.022  1.00  0.00     0.000 HD 
BRANCH  13  15
HETATM   15  C   UNK     1      -8.891   8.948  67.518  1.00  0.00    -0.130 C  
BRANCH  15  16
HETATM   16  C   UNK     1      -7.685   9.351  68.371  1.00  0.00    -0.086 C  
BRANCH  16  17
HETATM   17  C   UNK     1      -8.114   9.803  69.767  1.00  0.00    -0.174 C  
BRANCH  17  18
HETATM   18  C   UNK     1      -9.250   8.942  70.340  1.00  0.00    -0.222 C  
BRANCH  18  19
HETATM   19  C   UNK     1      -8.755   7.735  71.150  1.00  0.00    -0.135 C  
HETATM   20  N   UNK     1      -7.299   7.853  71.458  1.00  0.00    -0.064 NA 
HETATM   21  C   UNK     1      -8.983   6.433  70.367  1.00  0.00    -0.155 C  
HETATM   22  O   UNK     1     -10.043   5.844  70.271  1.00  0.00    -0.181 OA 
HETATM   23  O   UNK     1      -7.840   6.035  69.740  1.00  0.00    -0.097 OA 
HETATM   24  H1  UNK     1      -6.970   7.052  71.997  1.00  0.00     0.000 HD 
HETATM   25  H2  UNK     1      -7.085   8.733  71.928  1.00  0.00     0.000 HD 
ENDBRANCH  18  19
ENDBRANCH  17  18
ENDBRANCH  16  17
ENDBRANCH  15  16
ENDBRANCH  13  15
ENDBRANCH  10  11
ENDBRANCH   9  10
ENDBRANCH   8   9
ENDBRANCH   7   8
ENDBRANCH   6   7
ENDBRANCH   5   6
ENDBRANCH   4   5
ENDBRANCH   3   4
ENDBRANCH   2   3
TORSDOF 14
ENDMDL
MODEL      331
REMARK 921   NORMALIZED FREE ENERGY PREDICTED BY IDOCK:   -3.03 KCAL/MOL
REMARK 922        TOTAL FREE ENERGY PREDICTED BY IDOCK:   -6.44 KCAL/MOL
REMARK 923 INTER-LIGAND FREE ENERGY PREDICTED BY IDOCK:   -6.02 KCAL/MOL
REMARK 924 INTRA-LIGAND FREE ENERGY PREDICTED BY IDOCK:   -0.42 KCAL/MOL
REMARK 927      BINDING AFFINITY PREDICTED BY RF-SCORE:    0.00 PKD
ROOT
HETATM    1  C   UNK     1     -11.796  10.495  69.772  1.00  0.00    -0.257 C  
HETATM    2  O   UNK     1     -12.269  11.242  70.884  1.00  0.00    -0.365 OA 
ENDROOT
BRANCH   2   3
HETATM    3  C   UNK     1     -12.412  12.626  70.562  1.00  0.00    -0.193 C  
BRANCH   3   4
HETATM    4  C   UNK     1     -11.896  12.864  69.147  1.00  0.00    -0.303 C  
BRANCH   4   5
HETATM    5  O   UNK     1     -12.342  14.139  68.690  1.00  0.00    -0.257 OA 
BRANCH   5   6
HETATM    6  C   UNK     1     -11.873  14.416  67.372  1.00  0.00    -0.400 C  
BRANCH   6   7
HETATM    7  C   UNK     1     -12.364  13.325  66.429  1.00  0.00    -0.347 C  
BRANCH   7   8
HETATM    8  C   UNK     1     -12.856  13.889  65.092  1.00  0.00    -0.383 C  
BRANCH   8   9
HETATM    9  C   UNK     1     -11.879  13.546  63.972  1.00  0.00    -0.476 C  
BRANCH   9  10
HETATM   10  C   UNK     1     -11.958  12.079  63.560  1.00  0.00    -0.605 C  
BRANCH  10  11
HETATM   11  C   UNK     1     -10.603  11.406  63.681  1.00  0.00    -0.412 C  
HETATM   12  O   UNK     1      -9.684  11.585  62.889  1.00  0.00    -0.372 OA 
HETATM   13  N   UNK     1     -10.504  10.568  64.769  1.00  0.00    -0.236 N  
HETATM   14  H   UNK     1     -11.318  10.427  65.368  1.00  0.00     0.000 HD 
BRANCH  13  15
HETATM   15  C   UNK     1      -9.264   9.884  65.076  1.00  0.00    -0.240 C  
BRANCH  15  16
HETATM   16  C   UNK     1      -8.999   9.788  66.580  1.00  0.00    -0.161 C  
BRANCH  16  17
HETATM   17  C   UNK     1      -8.679   8.354  67.001  1.00  0.00    -0.132 C  
BRANCH  17  18
HETATM   18  C   UNK     1      -9.486   7.908  68.229  1.00  0.00    -0.149 C  
BRANCH  18  19
HETATM   19  C   UNK     1     -10.075   6.496  68.093  1.00  0.00    -0.155 C  
HETATM   20  N   UNK     1     -10.126   5.802  69.414  1.00  0.00    -0.194 NA 
HETATM   21  C   UNK     1      -9.226   5.649  67.131  1.00  0.00    -0.114 C  
HETATM   22  O   UNK     1      -9.268   5.707  65.917  1.00  0.00    -0.161 OA 
HETATM   23  O   UNK     1      -8.368   4.844  67.819  1.00  0.00    -0.104 OA 
HETATM   24  H1  UNK     1     -10.518   4.865  69.324  1.00  0.00     0.000 HD 
HETATM   25  H2  UNK     1     -10.630   6.354  70.108  1.00  0.00     0.000 HD 
ENDBRANCH  18  19
ENDBRANCH  17  18
ENDBRANCH  16  17
ENDBRANCH  15  16
ENDBRANCH  13  15
ENDBRANCH  10  11
ENDBRANCH   9  10
ENDBRANCH   8   9
ENDBRANCH   7   8
ENDBRANCH   6   7
ENDBRANCH   5   6
ENDBRANCH   4   5
ENDBRANCH   3   4
ENDBRANCH   2   3
TORSDOF 14
ENDMDL
MODEL      332
REMARK 921   NORMALIZED FREE ENERGY PREDICTED BY IDOCK:   -3.02 KCAL/MOL
REMARK 922        TOTAL FREE ENERGY PREDICTED BY IDOCK:   -6.43 KCAL/MOL
REMARK 923 INTER-LIGAND FREE ENERGY PREDICTED BY IDOCK:   -5.50 KCAL/MOL
REMARK 924 INTRA-LIGAND FREE ENERGY PREDICTED BY IDOCK:   -0.93 KCAL/MOL
REMARK 927      BINDING AFFINITY PREDICTED BY RF-SCORE:    0.00 PKD
ROOT
HETATM    1  C   UNK     1     -10.660  14.998  68.202  1.00  0.00    -0.248 C  
HETATM    2  O   UNK     1     -11.587  15.346  67.184  1.00  0.00    -0.220 OA 
ENDROOT
BRANCH   2   3
HETATM    3  C   UNK     1     -12.283  14.199  66.696  1.00  0.00    -0.418 C  
BRANCH   3   4
HETATM    4  C   UNK     1     -11.613  12.941  67.237  1.00  0.00    -0.360 C  
BRANCH   4   5
HETATM    5  O   UNK     1     -11.800  11.871  66.315  1.00  0.00    -0.546 OA 
BRANCH   5   6
HETATM    6  C   UNK     1     -11.953  12.350  64.980  1.00  0.00    -0.402 C  
BRANCH   6   7
HETATM    7  C   UNK     1     -10.611  12.274  64.265  1.00  0.00    -0.387 C  
BRANCH   7   8
HETATM    8  C   UNK     1     -10.506  11.047  63.352  1.00  0.00    -0.320 C  
BRANCH   8   9
HETATM    9  C   UNK     1      -9.505  10.043  63.916  1.00  0.00    -0.280 C  
BRANCH   9  10
HETATM   10  C   UNK     1      -8.592  10.663  64.971  1.00  0.00    -0.166 C  
BRANCH  10  11
HETATM   11  C   UNK     1      -8.392   9.715  66.140  1.00  0.00    -0.119 C  
HETATM   12  O   UNK     1      -9.007   8.663  66.274  1.00  0.00    -0.151 OA 
HETATM   13  N   UNK     1      -7.449  10.154  67.042  1.00  0.00    -0.091 N  
HETATM   14  H   UNK     1      -7.001  11.059  66.899  1.00  0.00     0.000 HD 
BRANCH  13  15
HETATM   15  C   UNK     1      -7.085   9.352  68.193  1.00  0.00    -0.076 C  
BRANCH  15  16
HETATM   16  C   UNK     1      -7.450  10.021  69.520  1.00  0.00    -0.123 C  
BRANCH  16  17
HETATM   17  C   UNK     1      -8.823   9.567  70.016  1.00  0.00    -0.246 C  
BRANCH  17  18
HETATM   18  C   UNK     1      -9.960  10.457  69.494  1.00  0.00    -0.229 C  
BRANCH  18  19
HETATM   19  C   UNK     1     -11.228   9.674  69.121  1.00  0.00    -0.019 C  
HETATM   20  N   UNK     1     -12.458  10.398  69.558  1.00  0.00    -0.637 NA 
HETATM   21  C   UNK     1     -11.218   8.288  69.785  1.00  0.00     0.036 C  
HETATM   22  O   UNK     1     -10.591   7.323  69.391  1.00  0.00    -0.222 OA 
HETATM   23  O   UNK     1     -11.974   8.286  70.918  1.00  0.00    -0.273 OA 
HETATM   24  H1  UNK     1     -13.300   9.879  69.310  1.00  0.00     0.000 HD 
HETATM   25  H2  UNK     1     -12.483  11.350  69.190  1.00  0.00     0.000 HD 
ENDBRANCH  18  19
ENDBRANCH  17  18
ENDBRANCH  16  17
ENDBRANCH  15  16
ENDBRANCH  13  15
ENDBRANCH  10  11
ENDBRANCH   9  10
ENDBRANCH   8   9
ENDBRANCH   7   8
ENDBRANCH   6   7
ENDBRANCH   5   6
ENDBRANCH   4   5
ENDBRANCH   3   4
ENDBRANCH   2   3
TORSDOF 14
ENDMDL
MODEL      333
REMARK 921   NORMALIZED FREE ENERGY PREDICTED BY IDOCK:   -3.02 KCAL/MOL
REMARK 922        TOTAL FREE ENERGY PREDICTED BY IDOCK:   -6.43 KCAL/MOL
REMARK 923 INTER-LIGAND FREE ENERGY PREDICTED BY IDOCK:   -5.69 KCAL/MOL
REMARK 924 INTRA-LIGAND FREE ENERGY PREDICTED BY IDOCK:   -0.74 KCAL/MOL
REMARK 927      BINDING AFFINITY PREDICTED BY RF-SCORE:    0.00 PKD
ROOT
HETATM    1  C   UNK     1      -8.214   4.238  70.916  1.00  0.00    -0.079 C  
HETATM    2  O   UNK     1      -7.619   5.076  69.935  1.00  0.00    -0.059 OA 
ENDROOT
BRANCH   2   3
HETATM    3  C   UNK     1      -7.044   4.312  68.875  1.00  0.00    -0.051 C  
BRANCH   3   4
HETATM    4  C   UNK     1      -6.937   5.186  67.631  1.00  0.00    -0.065 C  
BRANCH   4   5
HETATM    5  O   UNK     1      -7.775   6.329  67.783  1.00  0.00    -0.099 OA 
BRANCH   5   6
HETATM    6  C   UNK     1      -8.863   6.306  66.862  1.00  0.00    -0.115 C  
BRANCH   6   7
HETATM    7  C   UNK     1     -10.139   5.935  67.607  1.00  0.00    -0.194 C  
BRANCH   7   8
HETATM    8  C   UNK     1     -10.776   7.140  68.307  1.00  0.00    -0.202 C  
BRANCH   8   9
HETATM    9  C   UNK     1     -10.811   6.927  69.818  1.00  0.00    -0.295 C  
BRANCH   9  10
HETATM   10  C   UNK     1     -11.993   7.634  70.476  1.00  0.00    -0.044 C  
BRANCH  10  11
HETATM   11  C   UNK     1     -11.591   9.007  70.983  1.00  0.00    -0.300 C  
HETATM   12  O   UNK     1     -10.472   9.273  71.409  1.00  0.00    -0.319 OA 
HETATM   13  N   UNK     1     -12.610   9.932  70.920  1.00  0.00    -0.430 N  
HETATM   14  H   UNK     1     -13.532   9.640  70.595  1.00  0.00     0.000 HD 
BRANCH  13  15
HETATM   15  C   UNK     1     -12.393  11.311  71.309  1.00  0.00    -0.270 C  
BRANCH  15  16
HETATM   16  C   UNK     1     -12.015  12.206  70.126  1.00  0.00    -0.394 C  
BRANCH  16  17
HETATM   17  C   UNK     1     -12.490  13.643  70.338  1.00  0.00    -0.364 C  
BRANCH  17  18
HETATM   18  C   UNK     1     -12.886  13.922  71.795  1.00  0.00    -0.421 C  
BRANCH  18  19
HETATM   19  C   UNK     1     -13.447  15.335  72.017  1.00  0.00    -0.448 C  
HETATM   20  N   UNK     1     -13.283  16.179  70.797  1.00  0.00    -0.229 NA 
HETATM   21  C   UNK     1     -12.723  16.022  73.186  1.00  0.00    -0.515 C  
HETATM   22  O   UNK     1     -12.944  15.826  74.366  1.00  0.00    -0.459 OA 
HETATM   23  O   UNK     1     -11.751  16.861  72.730  1.00  0.00    -0.336 OA 
HETATM   24  H1  UNK     1     -13.656  17.116  70.944  1.00  0.00     0.000 HD 
HETATM   25  H2  UNK     1     -13.697  15.735  69.977  1.00  0.00     0.000 HD 
ENDBRANCH  18  19
ENDBRANCH  17  18
ENDBRANCH  16  17
ENDBRANCH  15  16
ENDBRANCH  13  15
ENDBRANCH  10  11
ENDBRANCH   9  10
ENDBRANCH   8   9
ENDBRANCH   7   8
ENDBRANCH   6   7
ENDBRANCH   5   6
ENDBRANCH   4   5
ENDBRANCH   3   4
ENDBRANCH   2   3
TORSDOF 14
ENDMDL
MODEL      334
REMARK 921   NORMALIZED FREE ENERGY PREDICTED BY IDOCK:   -3.02 KCAL/MOL
REMARK 922        TOTAL FREE ENERGY PREDICTED BY IDOCK:   -6.41 KCAL/MOL
REMARK 923 INTER-LIGAND FREE ENERGY PREDICTED BY IDOCK:   -5.66 KCAL/MOL
REMARK 924 INTRA-LIGAND FREE ENERGY PREDICTED BY IDOCK:   -0.76 KCAL/MOL
REMARK 927      BINDING AFFINITY PREDICTED BY RF-SCORE:    0.00 PKD
ROOT
HETATM    1  C   UNK     1     -10.051  17.269  68.229  1.00  0.00    -0.321 C  
HETATM    2  O   UNK     1      -9.866  16.208  67.304  1.00  0.00    -0.235 OA 
ENDROOT
BRANCH   2   3
HETATM    3  C   UNK     1     -10.320  16.568  65.999  1.00  0.00    -0.345 C  
BRANCH   3   4
HETATM    4  C   UNK     1     -11.144  15.423  65.423  1.00  0.00    -0.326 C  
BRANCH   4   5
HETATM    5  O   UNK     1     -10.338  14.665  64.523  1.00  0.00    -0.233 OA 
BRANCH   5   6
HETATM    6  C   UNK     1     -10.905  13.383  64.266  1.00  0.00    -0.363 C  
BRANCH   6   7
HETATM    7  C   UNK     1     -10.464  12.414  65.355  1.00  0.00    -0.306 C  
BRANCH   7   8
HETATM    8  C   UNK     1     -11.650  11.845  66.142  1.00  0.00    -0.299 C  
BRANCH   8   9
HETATM    9  C   UNK     1     -11.627  12.344  67.584  1.00  0.00    -0.421 C  
BRANCH   9  10
HETATM   10  C   UNK     1     -10.212  12.651  68.069  1.00  0.00    -0.230 C  
BRANCH  10  11
HETATM   11  C   UNK     1      -9.466  11.375  68.411  1.00  0.00    -0.194 C  
HETATM   12  O   UNK     1      -8.467  10.991  67.812  1.00  0.00    -0.119 OA 
HETATM   13  N   UNK     1     -10.022  10.682  69.463  1.00  0.00    -0.400 N  
HETATM   14  H   UNK     1     -10.879  11.030  69.895  1.00  0.00     0.000 HD 
BRANCH  13  15
HETATM   15  C   UNK     1      -9.411   9.468  69.966  1.00  0.00    -0.234 C  
BRANCH  15  16
HETATM   16  C   UNK     1      -9.938   8.210  69.272  1.00  0.00    -0.188 C  
BRANCH  16  17
HETATM   17  C   UNK     1      -9.112   6.979  69.644  1.00  0.00    -0.144 C  
BRANCH  17  18
HETATM   18  C   UNK     1      -9.946   5.904  70.358  1.00  0.00    -0.247 C  
BRANCH  18  19
HETATM   19  C   UNK     1      -9.984   6.073  71.884  1.00  0.00    -0.169 C  
HETATM   20  N   UNK     1      -9.561   4.820  72.576  1.00  0.00    -0.136 NA 
HETATM   21  C   UNK     1     -11.405   6.430  72.349  1.00  0.00    -0.287 C  
HETATM   22  O   UNK     1     -11.911   7.534  72.286  1.00  0.00    -0.298 OA 
HETATM   23  O   UNK     1     -12.059   5.326  72.807  1.00  0.00    -0.164 OA 
HETATM   24  H1  UNK     1      -9.586   4.932  73.589  1.00  0.00     0.000 HD 
HETATM   25  H2  UNK     1      -8.645   4.506  72.256  1.00  0.00     0.000 HD 
ENDBRANCH  18  19
ENDBRANCH  17  18
ENDBRANCH  16  17
ENDBRANCH  15  16
ENDBRANCH  13  15
ENDBRANCH  10  11
ENDBRANCH   9  10
ENDBRANCH   8   9
ENDBRANCH   7   8
ENDBRANCH   6   7
ENDBRANCH   5   6
ENDBRANCH   4   5
ENDBRANCH   3   4
ENDBRANCH   2   3
TORSDOF 14
ENDMDL
MODEL      335
REMARK 921   NORMALIZED FREE ENERGY PREDICTED BY IDOCK:   -3.00 KCAL/MOL
REMARK 922        TOTAL FREE ENERGY PREDICTED BY IDOCK:   -6.39 KCAL/MOL
REMARK 923 INTER-LIGAND FREE ENERGY PREDICTED BY IDOCK:   -5.66 KCAL/MOL
REMARK 924 INTRA-LIGAND FREE ENERGY PREDICTED BY IDOCK:   -0.74 KCAL/MOL
REMARK 927      BINDING AFFINITY PREDICTED BY RF-SCORE:    0.00 PKD
ROOT
HETATM    1  C   UNK     1     -12.072  12.558  69.992  1.00  0.00    -0.266 C  
HETATM    2  O   UNK     1     -12.043  13.929  69.623  1.00  0.00    -0.321 OA 
ENDROOT
BRANCH   2   3
HETATM    3  C   UNK     1     -11.031  14.186  68.648  1.00  0.00    -0.258 C  
BRANCH   3   4
HETATM    4  C   UNK     1     -11.326  15.514  67.961  1.00  0.00    -0.330 C  
BRANCH   4   5
HETATM    5  O   UNK     1     -11.002  15.413  66.576  1.00  0.00    -0.315 OA 
BRANCH   5   6
HETATM    6  C   UNK     1     -11.704  14.340  65.952  1.00  0.00    -0.372 C  
BRANCH   6   7
HETATM    7  C   UNK     1     -11.003  13.977  64.649  1.00  0.00    -0.401 C  
BRANCH   7   8
HETATM    8  C   UNK     1     -11.629  12.752  63.973  1.00  0.00    -0.488 C  
BRANCH   8   9
HETATM    9  C   UNK     1     -10.663  11.571  64.000  1.00  0.00    -0.445 C  
BRANCH   9  10
HETATM   10  C   UNK     1     -10.409  11.061  65.416  1.00  0.00    -0.330 C  
BRANCH  10  11
HETATM   11  C   UNK     1      -9.755   9.692  65.391  1.00  0.00    -0.295 C  
HETATM   12  O   UNK     1      -8.840   9.390  64.631  1.00  0.00    -0.194 OA 
HETATM   13  N   UNK     1     -10.290   8.814  66.307  1.00  0.00    -0.332 N  
HETATM   14  H   UNK     1     -11.078   9.109  66.884  1.00  0.00     0.000 HD 
BRANCH  13  15
HETATM   15  C   UNK     1      -9.752   7.477  66.464  1.00  0.00    -0.168 C  
BRANCH  15  16
HETATM   16  C   UNK     1      -9.479   7.119  67.927  1.00  0.00    -0.135 C  
BRANCH  16  17
HETATM   17  C   UNK     1      -8.470   8.077  68.559  1.00  0.00    -0.128 C  
BRANCH  17  18
HETATM   18  C   UNK     1      -8.007   7.612  69.948  1.00  0.00    -0.115 C  
BRANCH  18  19
HETATM   19  C   UNK     1      -7.908   8.753  70.972  1.00  0.00    -0.123 C  
HETATM   20  N   UNK     1      -9.075   9.677  70.866  1.00  0.00    -0.353 NA 
HETATM   21  C   UNK     1      -6.622   9.564  70.749  1.00  0.00    -0.104 C  
HETATM   22  O   UNK     1      -5.509   9.236  71.112  1.00  0.00    -0.037 OA 
HETATM   23  O   UNK     1      -6.879  10.698  70.038  1.00  0.00    -0.148 OA 
HETATM   24  H1  UNK     1      -9.009  10.433  71.547  1.00  0.00     0.000 HD 
HETATM   25  H2  UNK     1      -9.959   9.175  70.948  1.00  0.00     0.000 HD 
ENDBRANCH  18  19
ENDBRANCH  17  18
ENDBRANCH  16  17
ENDBRANCH  15  16
ENDBRANCH  13  15
ENDBRANCH  10  11
ENDBRANCH   9  10
ENDBRANCH   8   9
ENDBRANCH   7   8
ENDBRANCH   6   7
ENDBRANCH   5   6
ENDBRANCH   4   5
ENDBRANCH   3   4
ENDBRANCH   2   3
TORSDOF 14
ENDMDL
MODEL      336
REMARK 921   NORMALIZED FREE ENERGY PREDICTED BY IDOCK:   -3.00 KCAL/MOL
REMARK 922        TOTAL FREE ENERGY PREDICTED BY IDOCK:   -6.39 KCAL/MOL
REMARK 923 INTER-LIGAND FREE ENERGY PREDICTED BY IDOCK:   -5.98 KCAL/MOL
REMARK 924 INTRA-LIGAND FREE ENERGY PREDICTED BY IDOCK:   -0.42 KCAL/MOL
REMARK 927      BINDING AFFINITY PREDICTED BY RF-SCORE:    0.00 PKD
ROOT
HETATM    1  C   UNK     1      -7.939   5.774  71.225  1.00  0.00    -0.113 C  
HETATM    2  O   UNK     1      -8.687   5.771  72.433  1.00  0.00    -0.128 OA 
ENDROOT
BRANCH   2   3
HETATM    3  C   UNK     1      -9.647   6.828  72.454  1.00  0.00    -0.153 C  
BRANCH   3   4
HETATM    4  C   UNK     1     -10.751   6.519  71.451  1.00  0.00    -0.238 C  
BRANCH   4   5
HETATM    5  O   UNK     1     -12.017   6.595  72.102  1.00  0.00    -0.305 OA 
BRANCH   5   6
HETATM    6  C   UNK     1     -13.025   7.104  71.230  1.00  0.00    -0.324 C  
BRANCH   6   7
HETATM    7  C   UNK     1     -14.082   7.825  72.055  1.00  0.00    -0.379 C  
BRANCH   7   8
HETATM    8  C   UNK     1     -14.090   9.336  71.799  1.00  0.00    -0.255 C  
BRANCH   8   9
HETATM    9  C   UNK     1     -12.665   9.875  71.725  1.00  0.00    -0.523 C  
BRANCH   9  10
HETATM   10  C   UNK     1     -12.396  10.629  70.425  1.00  0.00    -0.428 C  
BRANCH  10  11
HETATM   11  C   UNK     1     -12.482  12.130  70.640  1.00  0.00    -0.242 C  
HETATM   12  O   UNK     1     -13.411  12.680  71.222  1.00  0.00    -0.134 OA 
HETATM   13  N   UNK     1     -11.413  12.818  70.112  1.00  0.00    -0.519 N  
HETATM   14  H   UNK     1     -10.691  12.309  69.601  1.00  0.00     0.000 HD 
BRANCH  13  15
HETATM   15  C   UNK     1     -11.296  14.254  70.271  1.00  0.00    -0.086 C  
BRANCH  15  16
HETATM   16  C   UNK     1     -11.026  14.975  68.948  1.00  0.00    -0.256 C  
BRANCH  16  17
HETATM   17  C   UNK     1     -10.645  16.438  69.177  1.00  0.00    -0.308 C  
BRANCH  17  18
HETATM   18  C   UNK     1      -9.180  16.727  68.819  1.00  0.00    -0.260 C  
BRANCH  18  19
HETATM   19  C   UNK     1      -8.866  18.225  68.686  1.00  0.00    -0.275 C  
HETATM   20  N   UNK     1      -9.578  18.824  67.519  1.00  0.00    -0.297 NA 
HETATM   21  C   UNK     1      -7.356  18.443  68.499  1.00  0.00    -0.287 C  
HETATM   22  O   UNK     1      -6.525  18.420  69.387  1.00  0.00    -0.264 OA 
HETATM   23  O   UNK     1      -7.049  18.620  67.184  1.00  0.00    -0.202 OA 
HETATM   24  H1  UNK     1      -9.371  19.818  67.431  1.00  0.00     0.000 HD 
HETATM   25  H2  UNK     1     -10.583  18.653  67.566  1.00  0.00     0.000 HD 
ENDBRANCH  18  19
ENDBRANCH  17  18
ENDBRANCH  16  17
ENDBRANCH  15  16
ENDBRANCH  13  15
ENDBRANCH  10  11
ENDBRANCH   9  10
ENDBRANCH   8   9
ENDBRANCH   7   8
ENDBRANCH   6   7
ENDBRANCH   5   6
ENDBRANCH   4   5
ENDBRANCH   3   4
ENDBRANCH   2   3
TORSDOF 14
ENDMDL
MODEL      337
REMARK 921   NORMALIZED FREE ENERGY PREDICTED BY IDOCK:   -3.00 KCAL/MOL
REMARK 922        TOTAL FREE ENERGY PREDICTED BY IDOCK:   -6.39 KCAL/MOL
REMARK 923 INTER-LIGAND FREE ENERGY PREDICTED BY IDOCK:   -6.10 KCAL/MOL
REMARK 924 INTRA-LIGAND FREE ENERGY PREDICTED BY IDOCK:   -0.29 KCAL/MOL
REMARK 927      BINDING AFFINITY PREDICTED BY RF-SCORE:    0.00 PKD
ROOT
HETATM    1  C   UNK     1      -7.033  15.539  69.145  1.00  0.00    -0.158 C  
HETATM    2  O   UNK     1      -6.946  16.081  67.835  1.00  0.00    -0.119 OA 
ENDROOT
BRANCH   2   3
HETATM    3  C   UNK     1      -7.895  17.130  67.640  1.00  0.00    -0.176 C  
BRANCH   3   4
HETATM    4  C   UNK     1      -8.996  17.009  68.687  1.00  0.00    -0.267 C  
BRANCH   4   5
HETATM    5  O   UNK     1     -10.256  17.291  68.083  1.00  0.00    -0.304 OA 
BRANCH   5   6
HETATM    6  C   UNK     1     -11.258  16.370  68.507  1.00  0.00    -0.334 C  
BRANCH   6   7
HETATM    7  C   UNK     1     -10.586  15.110  69.037  1.00  0.00    -0.245 C  
BRANCH   7   8
HETATM    8  C   UNK     1     -11.148  13.837  68.396  1.00  0.00    -0.287 C  
BRANCH   8   9
HETATM    9  C   UNK     1     -11.929  14.173  67.128  1.00  0.00    -0.460 C  
BRANCH   9  10
HETATM   10  C   UNK     1     -11.393  13.436  65.903  1.00  0.00    -0.327 C  
BRANCH  10  11
HETATM   11  C   UNK     1     -10.431  12.335  66.310  1.00  0.00    -0.238 C  
HETATM   12  O   UNK     1      -9.213  12.415  66.181  1.00  0.00    -0.198 OA 
HETATM   13  N   UNK     1     -11.059  11.230  66.839  1.00  0.00    -0.293 N  
HETATM   14  H   UNK     1     -12.078  11.205  66.882  1.00  0.00     0.000 HD 
BRANCH  13  15
HETATM   15  C   UNK     1     -10.296  10.101  67.335  1.00  0.00    -0.238 C  
BRANCH  15  16
HETATM   16  C   UNK     1      -9.905  10.253  68.807  1.00  0.00    -0.184 C  
BRANCH  16  17
HETATM   17  C   UNK     1     -10.971   9.665  69.731  1.00  0.00    -0.266 C  
BRANCH  17  18
HETATM   18  C   UNK     1     -11.919  10.735  70.292  1.00  0.00    -0.438 C  
BRANCH  18  19
HETATM   19  C   UNK     1     -13.025  10.163  71.191  1.00  0.00    -0.395 C  
HETATM   20  N   UNK     1     -13.166  10.957  72.446  1.00  0.00    -0.448 NA 
HETATM   21  C   UNK     1     -12.710   8.707  71.569  1.00  0.00    -0.316 C  
HETATM   22  O   UNK     1     -12.887   7.738  70.855  1.00  0.00    -0.113 OA 
HETATM   23  O   UNK     1     -12.152   8.636  72.810  1.00  0.00    -0.298 OA 
HETATM   24  H1  UNK     1     -13.901  10.578  73.043  1.00  0.00     0.000 HD 
HETATM   25  H2  UNK     1     -13.318  11.947  72.248  1.00  0.00     0.000 HD 
ENDBRANCH  18  19
ENDBRANCH  17  18
ENDBRANCH  16  17
ENDBRANCH  15  16
ENDBRANCH  13  15
ENDBRANCH  10  11
ENDBRANCH   9  10
ENDBRANCH   8   9
ENDBRANCH   7   8
ENDBRANCH   6   7
ENDBRANCH   5   6
ENDBRANCH   4   5
ENDBRANCH   3   4
ENDBRANCH   2   3
TORSDOF 14
ENDMDL
MODEL      338
REMARK 921   NORMALIZED FREE ENERGY PREDICTED BY IDOCK:   -3.00 KCAL/MOL
REMARK 922        TOTAL FREE ENERGY PREDICTED BY IDOCK:   -6.38 KCAL/MOL
REMARK 923 INTER-LIGAND FREE ENERGY PREDICTED BY IDOCK:   -5.71 KCAL/MOL
REMARK 924 INTRA-LIGAND FREE ENERGY PREDICTED BY IDOCK:   -0.67 KCAL/MOL
REMARK 927      BINDING AFFINITY PREDICTED BY RF-SCORE:    0.00 PKD
ROOT
HETATM    1  C   UNK     1      -8.785  14.538  68.284  1.00  0.00    -0.173 C  
HETATM    2  O   UNK     1      -9.993  15.185  68.657  1.00  0.00    -0.207 OA 
ENDROOT
BRANCH   2   3
HETATM    3  C   UNK     1     -10.330  16.230  67.744  1.00  0.00    -0.287 C  
BRANCH   3   4
HETATM    4  C   UNK     1     -10.434  15.649  66.338  1.00  0.00    -0.305 C  
BRANCH   4   5
HETATM    5  O   UNK     1     -11.626  14.874  66.234  1.00  0.00    -0.328 OA 
BRANCH   5   6
HETATM    6  C   UNK     1     -11.436  13.730  65.404  1.00  0.00    -0.311 C  
BRANCH   6   7
HETATM    7  C   UNK     1     -10.982  12.558  66.265  1.00  0.00    -0.311 C  
BRANCH   7   8
HETATM    8  C   UNK     1     -11.770  12.460  67.576  1.00  0.00    -0.425 C  
BRANCH   8   9
HETATM    9  C   UNK     1     -11.443  11.159  68.303  1.00  0.00    -0.373 C  
BRANCH   9  10
HETATM   10  C   UNK     1     -10.554  10.238  67.472  1.00  0.00    -0.320 C  
BRANCH  10  11
HETATM   11  C   UNK     1      -9.982   9.120  68.325  1.00  0.00    -0.175 C  
HETATM   12  O   UNK     1      -9.712   9.245  69.515  1.00  0.00    -0.162 OA 
HETATM   13  N   UNK     1      -9.792   7.946  67.631  1.00  0.00    -0.156 N  
HETATM   14  H   UNK     1      -9.996   7.916  66.632  1.00  0.00     0.000 HD 
BRANCH  13  15
HETATM   15  C   UNK     1      -9.307   6.754  68.297  1.00  0.00    -0.124 C  
BRANCH  15  16
HETATM   16  C   UNK     1     -10.439   5.853  68.796  1.00  0.00    -0.314 C  
BRANCH  16  17
HETATM   17  C   UNK     1      -9.899   4.658  69.582  1.00  0.00    -0.293 C  
BRANCH  17  18
HETATM   18  C   UNK     1      -9.805   4.940  71.088  1.00  0.00    -0.261 C  
BRANCH  18  19
HETATM   19  C   UNK     1     -10.043   6.414  71.451  1.00  0.00    -0.189 C  
HETATM   20  N   UNK     1      -8.835   7.014  72.091  1.00  0.00    -0.130 NA 
HETATM   21  C   UNK     1     -11.224   6.543  72.426  1.00  0.00    -0.275 C  
HETATM   22  O   UNK     1     -12.400   6.503  72.117  1.00  0.00    -0.297 OA 
HETATM   23  O   UNK     1     -10.786   6.662  73.710  1.00  0.00    -0.296 OA 
HETATM   24  H1  UNK     1      -8.993   7.992  72.332  1.00  0.00     0.000 HD 
HETATM   25  H2  UNK     1      -8.006   6.900  71.507  1.00  0.00     0.000 HD 
ENDBRANCH  18  19
ENDBRANCH  17  18
ENDBRANCH  16  17
ENDBRANCH  15  16
ENDBRANCH  13  15
ENDBRANCH  10  11
ENDBRANCH   9  10
ENDBRANCH   8   9
ENDBRANCH   7   8
ENDBRANCH   6   7
ENDBRANCH   5   6
ENDBRANCH   4   5
ENDBRANCH   3   4
ENDBRANCH   2   3
TORSDOF 14
ENDMDL
MODEL      339
REMARK 921   NORMALIZED FREE ENERGY PREDICTED BY IDOCK:   -2.98 KCAL/MOL
REMARK 922        TOTAL FREE ENERGY PREDICTED BY IDOCK:   -6.34 KCAL/MOL
REMARK 923 INTER-LIGAND FREE ENERGY PREDICTED BY IDOCK:   -5.45 KCAL/MOL
REMARK 924 INTRA-LIGAND FREE ENERGY PREDICTED BY IDOCK:   -0.89 KCAL/MOL
REMARK 927      BINDING AFFINITY PREDICTED BY RF-SCORE:    0.00 PKD
ROOT
HETATM    1  C   UNK     1     -10.931  14.956  68.197  1.00  0.00    -0.272 C  
HETATM    2  O   UNK     1     -11.507  15.199  66.922  1.00  0.00    -0.314 OA 
ENDROOT
BRANCH   2   3
HETATM    3  C   UNK     1     -11.943  13.988  66.305  1.00  0.00    -0.432 C  
BRANCH   3   4
HETATM    4  C   UNK     1     -11.751  12.833  67.282  1.00  0.00    -0.378 C  
BRANCH   4   5
HETATM    5  O   UNK     1     -11.668  11.609  66.556  1.00  0.00    -0.498 OA 
BRANCH   5   6
HETATM    6  C   UNK     1     -10.947  11.771  65.337  1.00  0.00    -0.297 C  
BRANCH   6   7
HETATM    7  C   UNK     1      -9.548  11.192  65.502  1.00  0.00    -0.263 C  
BRANCH   7   8
HETATM    8  C   UNK     1      -9.514   9.677  65.272  1.00  0.00    -0.342 C  
BRANCH   8   9
HETATM    9  C   UNK     1      -9.175   8.944  66.567  1.00  0.00    -0.231 C  
BRANCH   9  10
HETATM   10  C   UNK     1      -8.336   9.797  67.514  1.00  0.00    -0.114 C  
BRANCH  10  11
HETATM   11  C   UNK     1      -8.879   9.731  68.930  1.00  0.00    -0.140 C  
HETATM   12  O   UNK     1      -8.199   9.425  69.904  1.00  0.00    -0.114 OA 
HETATM   13  N   UNK     1     -10.216  10.048  69.017  1.00  0.00    -0.191 N  
HETATM   14  H   UNK     1     -10.739  10.254  68.166  1.00  0.00     0.000 HD 
BRANCH  13  15
HETATM   15  C   UNK     1     -10.892  10.092  70.298  1.00  0.00    -0.310 C  
BRANCH  15  16
HETATM   16  C   UNK     1     -11.876   8.936  70.488  1.00  0.00    -0.073 C  
BRANCH  16  17
HETATM   17  C   UNK     1     -11.200   7.727  71.134  1.00  0.00    -0.285 C  
BRANCH  17  18
HETATM   18  C   UNK     1     -11.187   6.498  70.213  1.00  0.00    -0.433 C  
BRANCH  18  19
HETATM   19  C   UNK     1      -9.823   5.794  70.152  1.00  0.00    -0.184 C  
HETATM   20  N   UNK     1      -9.984   4.316  70.016  1.00  0.00    -0.200 NA 
HETATM   21  C   UNK     1      -9.014   6.080  71.427  1.00  0.00    -0.143 C  
HETATM   22  O   UNK     1      -8.396   7.103  71.656  1.00  0.00    -0.109 OA 
HETATM   23  O   UNK     1      -9.114   5.046  72.309  1.00  0.00    -0.130 OA 
HETATM   24  H1  UNK     1      -9.079   3.849  69.975  1.00  0.00     0.000 HD 
HETATM   25  H2  UNK     1     -10.567   4.075  69.214  1.00  0.00     0.000 HD 
ENDBRANCH  18  19
ENDBRANCH  17  18
ENDBRANCH  16  17
ENDBRANCH  15  16
ENDBRANCH  13  15
ENDBRANCH  10  11
ENDBRANCH   9  10
ENDBRANCH   8   9
ENDBRANCH   7   8
ENDBRANCH   6   7
ENDBRANCH   5   6
ENDBRANCH   4   5
ENDBRANCH   3   4
ENDBRANCH   2   3
TORSDOF 14
ENDMDL
MODEL      340
REMARK 921   NORMALIZED FREE ENERGY PREDICTED BY IDOCK:   -2.98 KCAL/MOL
REMARK 922        TOTAL FREE ENERGY PREDICTED BY IDOCK:   -6.34 KCAL/MOL
REMARK 923 INTER-LIGAND FREE ENERGY PREDICTED BY IDOCK:   -5.79 KCAL/MOL
REMARK 924 INTRA-LIGAND FREE ENERGY PREDICTED BY IDOCK:   -0.55 KCAL/MOL
REMARK 927      BINDING AFFINITY PREDICTED BY RF-SCORE:    0.00 PKD
ROOT
HETATM    1  C   UNK     1      -5.861  18.827  65.959  1.00  0.00    -0.162 C  
HETATM    2  O   UNK     1      -6.877  19.595  66.588  1.00  0.00    -0.196 OA 
ENDROOT
BRANCH   2   3
HETATM    3  C   UNK     1      -8.135  18.920  66.560  1.00  0.00    -0.287 C  
BRANCH   3   4
HETATM    4  C   UNK     1      -7.910  17.434  66.813  1.00  0.00    -0.238 C  
BRANCH   4   5
HETATM    5  O   UNK     1      -8.666  16.674  65.873  1.00  0.00    -0.483 OA 
BRANCH   5   6
HETATM    6  C   UNK     1     -10.041  17.050  65.882  1.00  0.00    -0.263 C  
BRANCH   6   7
HETATM    7  C   UNK     1     -10.654  16.671  67.223  1.00  0.00    -0.281 C  
BRANCH   7   8
HETATM    8  C   UNK     1     -10.678  15.155  67.445  1.00  0.00    -0.286 C  
BRANCH   8   9
HETATM    9  C   UNK     1     -11.866  14.758  68.317  1.00  0.00    -0.316 C  
BRANCH   9  10
HETATM   10  C   UNK     1     -11.477  13.769  69.413  1.00  0.00    -0.341 C  
BRANCH  10  11
HETATM   11  C   UNK     1     -11.246  12.384  68.838  1.00  0.00    -0.280 C  
HETATM   12  O   UNK     1     -12.101  11.751  68.227  1.00  0.00    -0.525 OA 
HETATM   13  N   UNK     1      -9.977  11.901  69.070  1.00  0.00    -0.416 N  
HETATM   14  H   UNK     1      -9.322  12.457  69.621  1.00  0.00     0.000 HD 
BRANCH  13  15
HETATM   15  C   UNK     1      -9.558  10.617  68.545  1.00  0.00    -0.175 C  
BRANCH  15  16
HETATM   16  C   UNK     1      -9.263  10.660  67.044  1.00  0.00    -0.167 C  
BRANCH  16  17
HETATM   17  C   UNK     1      -9.697   9.368  66.352  1.00  0.00    -0.315 C  
BRANCH  17  18
HETATM   18  C   UNK     1      -8.960   9.135  65.025  1.00  0.00    -0.221 C  
BRANCH  18  19
HETATM   19  C   UNK     1      -8.256  10.390  64.488  1.00  0.00    -0.131 C  
HETATM   20  N   UNK     1      -9.116  11.114  63.506  1.00  0.00    -0.396 NA 
HETATM   21  C   UNK     1      -6.938  10.011  63.794  1.00  0.00    -0.124 C  
HETATM   22  O   UNK     1      -5.892   9.753  64.359  1.00  0.00    -0.079 OA 
HETATM   23  O   UNK     1      -7.099   9.951  62.443  1.00  0.00    -0.109 OA 
HETATM   24  H1  UNK     1      -8.649  11.947  63.150  1.00  0.00     0.000 HD 
HETATM   25  H2  UNK     1     -10.030  11.336  63.901  1.00  0.00     0.000 HD 
ENDBRANCH  18  19
ENDBRANCH  17  18
ENDBRANCH  16  17
ENDBRANCH  15  16
ENDBRANCH  13  15
ENDBRANCH  10  11
ENDBRANCH   9  10
ENDBRANCH   8   9
ENDBRANCH   7   8
ENDBRANCH   6   7
ENDBRANCH   5   6
ENDBRANCH   4   5
ENDBRANCH   3   4
ENDBRANCH   2   3
TORSDOF 14
ENDMDL
MODEL      341
REMARK 921   NORMALIZED FREE ENERGY PREDICTED BY IDOCK:   -2.96 KCAL/MOL
REMARK 922        TOTAL FREE ENERGY PREDICTED BY IDOCK:   -6.32 KCAL/MOL
REMARK 923 INTER-LIGAND FREE ENERGY PREDICTED BY IDOCK:   -5.61 KCAL/MOL
REMARK 924 INTRA-LIGAND FREE ENERGY PREDICTED BY IDOCK:   -0.71 KCAL/MOL
REMARK 927      BINDING AFFINITY PREDICTED BY RF-SCORE:    0.00 PKD
ROOT
HETATM    1  C   UNK     1      -6.083  13.599  69.938  1.00  0.00    -0.135 C  
HETATM    2  O   UNK     1      -6.127  12.837  68.740  1.00  0.00    -0.064 OA 
ENDROOT
BRANCH   2   3
HETATM    3  C   UNK     1      -7.178  13.276  67.879  1.00  0.00    -0.137 C  
BRANCH   3   4
HETATM    4  C   UNK     1      -7.298  12.312  66.706  1.00  0.00     0.141 C  
BRANCH   4   5
HETATM    5  O   UNK     1      -6.626  11.095  67.023  1.00  0.00    -0.088 OA 
BRANCH   5   6
HETATM    6  C   UNK     1      -6.157  10.435  65.849  1.00  0.00    -0.113 C  
BRANCH   6   7
HETATM    7  C   UNK     1      -6.198   8.929  66.072  1.00  0.00    -0.056 C  
BRANCH   7   8
HETATM    8  C   UNK     1      -7.541   8.463  66.646  1.00  0.00    -0.089 C  
BRANCH   8   9
HETATM    9  C   UNK     1      -8.687   8.857  65.718  1.00  0.00    -0.205 C  
BRANCH   9  10
HETATM   10  C   UNK     1     -10.055   8.589  66.339  1.00  0.00    -0.271 C  
BRANCH  10  11
HETATM   11  C   UNK     1     -10.264   9.437  67.581  1.00  0.00    -0.227 C  
HETATM   12  O   UNK     1     -10.312   8.976  68.717  1.00  0.00    -0.207 OA 
HETATM   13  N   UNK     1     -10.397  10.779  67.308  1.00  0.00    -0.208 N  
HETATM   14  H   UNK     1     -10.391  11.098  66.339  1.00  0.00     0.000 HD 
BRANCH  13  15
HETATM   15  C   UNK     1     -10.547  11.748  68.376  1.00  0.00    -0.216 C  
BRANCH  15  16
HETATM   16  C   UNK     1     -11.858  12.533  68.282  1.00  0.00    -0.361 C  
BRANCH  16  17
HETATM   17  C   UNK     1     -12.098  13.053  66.865  1.00  0.00    -0.349 C  
BRANCH  17  18
HETATM   18  C   UNK     1     -11.491  14.445  66.638  1.00  0.00    -0.372 C  
BRANCH  18  19
HETATM   19  C   UNK     1     -10.989  14.667  65.204  1.00  0.00    -0.386 C  
HETATM   20  N   UNK     1     -10.724  16.113  64.943  1.00  0.00    -0.681 NA 
HETATM   21  C   UNK     1     -12.029  14.172  64.188  1.00  0.00    -0.393 C  
HETATM   22  O   UNK     1     -12.207  13.011  63.870  1.00  0.00    -0.471 OA 
HETATM   23  O   UNK     1     -12.776  15.207  63.711  1.00  0.00    -0.722 OA 
HETATM   24  H1  UNK     1     -10.390  16.261  63.991  1.00  0.00     0.000 HD 
HETATM   25  H2  UNK     1     -10.082  16.506  65.631  1.00  0.00     0.000 HD 
ENDBRANCH  18  19
ENDBRANCH  17  18
ENDBRANCH  16  17
ENDBRANCH  15  16
ENDBRANCH  13  15
ENDBRANCH  10  11
ENDBRANCH   9  10
ENDBRANCH   8   9
ENDBRANCH   7   8
ENDBRANCH   6   7
ENDBRANCH   5   6
ENDBRANCH   4   5
ENDBRANCH   3   4
ENDBRANCH   2   3
TORSDOF 14
ENDMDL
MODEL      342
REMARK 921   NORMALIZED FREE ENERGY PREDICTED BY IDOCK:   -2.96 KCAL/MOL
REMARK 922        TOTAL FREE ENERGY PREDICTED BY IDOCK:   -6.32 KCAL/MOL
REMARK 923 INTER-LIGAND FREE ENERGY PREDICTED BY IDOCK:   -5.52 KCAL/MOL
REMARK 924 INTRA-LIGAND FREE ENERGY PREDICTED BY IDOCK:   -0.80 KCAL/MOL
REMARK 927      BINDING AFFINITY PREDICTED BY RF-SCORE:    0.00 PKD
ROOT
HETATM    1  C   UNK     1     -10.992   6.457  67.612  1.00  0.00    -0.349 C  
HETATM    2  O   UNK     1      -9.839   7.235  67.325  1.00  0.00    -0.148 OA 
ENDROOT
BRANCH   2   3
HETATM    3  C   UNK     1     -10.006   7.994  66.127  1.00  0.00     0.091 C  
BRANCH   3   4
HETATM    4  C   UNK     1      -8.683   8.662  65.770  1.00  0.00    -0.181 C  
BRANCH   4   5
HETATM    5  O   UNK     1      -8.940   9.930  65.171  1.00  0.00    -0.169 OA 
BRANCH   5   6
HETATM    6  C   UNK     1      -9.669  10.785  66.048  1.00  0.00    -0.217 C  
BRANCH   6   7
HETATM    7  C   UNK     1      -8.709  11.403  67.056  1.00  0.00    -0.160 C  
BRANCH   7   8
HETATM    8  C   UNK     1      -9.206  11.256  68.499  1.00  0.00    -0.181 C  
BRANCH   8   9
HETATM    9  C   UNK     1      -8.634   9.994  69.138  1.00  0.00    -0.158 C  
BRANCH   9  10
HETATM   10  C   UNK     1      -8.887   9.939  70.642  1.00  0.00     0.304 C  
BRANCH  10  11
HETATM   11  C   UNK     1     -10.244   9.328  70.943  1.00  0.00    -0.301 C  
HETATM   12  O   UNK     1     -10.426   8.126  71.104  1.00  0.00    -0.197 OA 
HETATM   13  N   UNK     1     -11.257  10.257  71.016  1.00  0.00    -0.316 N  
HETATM   14  H   UNK     1     -11.051  11.240  70.832  1.00  0.00     0.000 HD 
BRANCH  13  15
HETATM   15  C   UNK     1     -12.611   9.863  71.352  1.00  0.00    -0.398 C  
BRANCH  15  16
HETATM   16  C   UNK     1     -13.603  11.025  71.265  1.00  0.00     0.356 C  
BRANCH  16  17
HETATM   17  C   UNK     1     -12.970  12.337  71.727  1.00  0.00    -0.431 C  
BRANCH  17  18
HETATM   18  C   UNK     1     -13.971  13.252  72.446  1.00  0.00    -0.557 C  
BRANCH  18  19
HETATM   19  C   UNK     1     -13.932  14.707  71.956  1.00  0.00    -0.485 C  
HETATM   20  N   UNK     1     -13.496  14.786  70.531  1.00  0.00    -0.567 NA 
HETATM   21  C   UNK     1     -12.956  15.535  72.809  1.00  0.00    -0.457 C  
HETATM   22  O   UNK     1     -13.194  15.987  73.913  1.00  0.00    -0.591 OA 
HETATM   23  O   UNK     1     -11.752  15.662  72.185  1.00  0.00    -0.407 OA 
HETATM   24  H1  UNK     1     -13.471  15.751  70.205  1.00  0.00     0.000 HD 
HETATM   25  H2  UNK     1     -14.079  14.203  69.929  1.00  0.00     0.000 HD 
ENDBRANCH  18  19
ENDBRANCH  17  18
ENDBRANCH  16  17
ENDBRANCH  15  16
ENDBRANCH  13  15
ENDBRANCH  10  11
ENDBRANCH   9  10
ENDBRANCH   8   9
ENDBRANCH   7   8
ENDBRANCH   6   7
ENDBRANCH   5   6
ENDBRANCH   4   5
ENDBRANCH   3   4
ENDBRANCH   2   3
TORSDOF 14
ENDMDL
MODEL      343
REMARK 921   NORMALIZED FREE ENERGY PREDICTED BY IDOCK:   -2.96 KCAL/MOL
REMARK 922        TOTAL FREE ENERGY PREDICTED BY IDOCK:   -6.32 KCAL/MOL
REMARK 923 INTER-LIGAND FREE ENERGY PREDICTED BY IDOCK:   -5.14 KCAL/MOL
REMARK 924 INTRA-LIGAND FREE ENERGY PREDICTED BY IDOCK:   -1.18 KCAL/MOL
REMARK 927      BINDING AFFINITY PREDICTED BY RF-SCORE:    0.00 PKD
ROOT
HETATM    1  C   UNK     1      -5.857  10.757  69.885  1.00  0.00    -0.072 C  
HETATM    2  O   UNK     1      -5.754  11.712  68.839  1.00  0.00    -0.047 OA 
ENDROOT
BRANCH   2   3
HETATM    3  C   UNK     1      -6.838  12.640  68.870  1.00  0.00    -0.097 C  
BRANCH   3   4
HETATM    4  C   UNK     1      -8.095  11.958  68.342  1.00  0.00    -0.155 C  
BRANCH   4   5
HETATM    5  O   UNK     1      -8.182  12.152  66.932  1.00  0.00    -0.177 OA 
BRANCH   5   6
HETATM    6  C   UNK     1      -8.231  10.909  66.235  1.00  0.00    -0.165 C  
BRANCH   6   7
HETATM    7  C   UNK     1      -9.672  10.617  65.837  1.00  0.00    -0.273 C  
BRANCH   7   8
HETATM    8  C   UNK     1     -10.400  11.866  65.330  1.00  0.00    -0.316 C  
BRANCH   8   9
HETATM    9  C   UNK     1     -11.747  12.023  66.030  1.00  0.00    -0.311 C  
BRANCH   9  10
HETATM   10  C   UNK     1     -11.868  13.358  66.761  1.00  0.00    -0.452 C  
BRANCH  10  11
HETATM   11  C   UNK     1     -11.526  13.206  68.232  1.00  0.00    -0.314 C  
HETATM   12  O   UNK     1     -11.239  14.148  68.963  1.00  0.00    -0.248 OA 
HETATM   13  N   UNK     1     -11.566  11.901  68.669  1.00  0.00    -0.285 N  
HETATM   14  H   UNK     1     -11.771  11.155  68.003  1.00  0.00     0.000 HD 
BRANCH  13  15
HETATM   15  C   UNK     1     -11.323  11.570  70.059  1.00  0.00    -0.137 C  
BRANCH  15  16
HETATM   16  C   UNK     1     -11.975  10.249  70.475  1.00  0.00    -0.415 C  
BRANCH  16  17
HETATM   17  C   UNK     1     -10.934   9.145  70.659  1.00  0.00    -0.319 C  
BRANCH  17  18
HETATM   18  C   UNK     1     -10.145   8.860  69.372  1.00  0.00    -0.202 C  
BRANCH  18  19
HETATM   19  C   UNK     1     -10.490   7.508  68.730  1.00  0.00    -0.194 C  
HETATM   20  N   UNK     1     -11.689   6.894  69.375  1.00  0.00    -0.567 NA 
HETATM   21  C   UNK     1      -9.311   6.532  68.868  1.00  0.00    -0.131 C  
HETATM   22  O   UNK     1      -8.314   6.528  68.171  1.00  0.00    -0.116 OA 
HETATM   23  O   UNK     1      -9.500   5.684  69.918  1.00  0.00    -0.148 OA 
HETATM   24  H1  UNK     1     -11.918   5.997  68.948  1.00  0.00     0.000 HD 
HETATM   25  H2  UNK     1     -12.487   7.530  69.363  1.00  0.00     0.000 HD 
ENDBRANCH  18  19
ENDBRANCH  17  18
ENDBRANCH  16  17
ENDBRANCH  15  16
ENDBRANCH  13  15
ENDBRANCH  10  11
ENDBRANCH   9  10
ENDBRANCH   8   9
ENDBRANCH   7   8
ENDBRANCH   6   7
ENDBRANCH   5   6
ENDBRANCH   4   5
ENDBRANCH   3   4
ENDBRANCH   2   3
TORSDOF 14
ENDMDL
MODEL      344
REMARK 921   NORMALIZED FREE ENERGY PREDICTED BY IDOCK:   -2.96 KCAL/MOL
REMARK 922        TOTAL FREE ENERGY PREDICTED BY IDOCK:   -6.32 KCAL/MOL
REMARK 923 INTER-LIGAND FREE ENERGY PREDICTED BY IDOCK:   -4.61 KCAL/MOL
REMARK 924 INTRA-LIGAND FREE ENERGY PREDICTED BY IDOCK:   -1.71 KCAL/MOL
REMARK 927      BINDING AFFINITY PREDICTED BY RF-SCORE:    0.00 PKD
ROOT
HETATM    1  C   UNK     1     -12.571  13.537  71.237  1.00  0.00    -0.341 C  
HETATM    2  O   UNK     1     -11.686  13.875  70.180  1.00  0.00    -0.277 OA 
ENDROOT
BRANCH   2   3
HETATM    3  C   UNK     1     -11.956  15.181  69.670  1.00  0.00    -0.329 C  
BRANCH   3   4
HETATM    4  C   UNK     1     -11.695  15.195  68.168  1.00  0.00    -0.302 C  
BRANCH   4   5
HETATM    5  O   UNK     1     -11.482  13.860  67.713  1.00  0.00    -0.289 OA 
BRANCH   5   6
HETATM    6  C   UNK     1     -10.540  13.815  66.644  1.00  0.00    -0.274 C  
BRANCH   6   7
HETATM    7  C   UNK     1      -9.578  14.989  66.777  1.00  0.00    -0.260 C  
BRANCH   7   8
HETATM    8  C   UNK     1      -8.144  14.535  67.072  1.00  0.00    -0.125 C  
BRANCH   8   9
HETATM    9  C   UNK     1      -8.036  13.982  68.490  1.00  0.00    -0.141 C  
BRANCH   9  10
HETATM   10  C   UNK     1      -6.879  12.998  68.643  1.00  0.00    -0.099 C  
BRANCH  10  11
HETATM   11  C   UNK     1      -7.391  11.597  68.923  1.00  0.00    -0.107 C  
HETATM   12  O   UNK     1      -6.659  10.640  69.155  1.00  0.00    -0.051 OA 
HETATM   13  N   UNK     1      -8.764  11.501  68.888  1.00  0.00    -0.368 N  
HETATM   14  H   UNK     1      -9.319  12.323  68.648  1.00  0.00     0.000 HD 
BRANCH  13  15
HETATM   15  C   UNK     1      -9.434  10.251  69.188  1.00  0.00    -0.215 C  
BRANCH  15  16
HETATM   16  C   UNK     1     -10.613   9.973  68.252  1.00  0.00    -0.264 C  
BRANCH  16  17
HETATM   17  C   UNK     1     -10.489   8.602  67.587  1.00  0.00    -0.311 C  
BRANCH  17  18
HETATM   18  C   UNK     1      -9.048   8.283  67.163  1.00  0.00    -0.162 C  
BRANCH  18  19
HETATM   19  C   UNK     1      -8.750   8.633  65.697  1.00  0.00    -0.182 C  
HETATM   20  N   UNK     1      -7.903   7.586  65.054  1.00  0.00    -0.120 NA 
HETATM   21  C   UNK     1      -8.014   9.979  65.606  1.00  0.00    -0.140 C  
HETATM   22  O   UNK     1      -8.535  11.075  65.687  1.00  0.00    -0.170 OA 
HETATM   23  O   UNK     1      -6.671   9.791  65.467  1.00  0.00    -0.080 OA 
HETATM   24  H1  UNK     1      -7.705   7.817  64.081  1.00  0.00     0.000 HD 
HETATM   25  H2  UNK     1      -8.322   6.659  65.141  1.00  0.00     0.000 HD 
ENDBRANCH  18  19
ENDBRANCH  17  18
ENDBRANCH  16  17
ENDBRANCH  15  16
ENDBRANCH  13  15
ENDBRANCH  10  11
ENDBRANCH   9  10
ENDBRANCH   8   9
ENDBRANCH   7   8
ENDBRANCH   6   7
ENDBRANCH   5   6
ENDBRANCH   4   5
ENDBRANCH   3   4
ENDBRANCH   2   3
TORSDOF 14
ENDMDL
MODEL      345
REMARK 921   NORMALIZED FREE ENERGY PREDICTED BY IDOCK:   -2.96 KCAL/MOL
REMARK 922        TOTAL FREE ENERGY PREDICTED BY IDOCK:   -6.31 KCAL/MOL
REMARK 923 INTER-LIGAND FREE ENERGY PREDICTED BY IDOCK:   -5.30 KCAL/MOL
REMARK 924 INTRA-LIGAND FREE ENERGY PREDICTED BY IDOCK:   -1.01 KCAL/MOL
REMARK 927      BINDING AFFINITY PREDICTED BY RF-SCORE:    0.00 PKD
ROOT
HETATM    1  C   UNK     1     -12.563  12.622  63.654  1.00  0.00    -0.337 C  
HETATM    2  O   UNK     1     -12.645  12.630  65.072  1.00  0.00    -0.545 OA 
ENDROOT
BRANCH   2   3
HETATM    3  C   UNK     1     -12.549  13.956  65.593  1.00  0.00    -0.517 C  
BRANCH   3   4
HETATM    4  C   UNK     1     -11.350  14.655  64.962  1.00  0.00    -0.390 C  
BRANCH   4   5
HETATM    5  O   UNK     1     -10.278  14.696  65.901  1.00  0.00    -0.293 OA 
BRANCH   5   6
HETATM    6  C   UNK     1     -10.640  15.416  67.078  1.00  0.00    -0.309 C  
BRANCH   6   7
HETATM    7  C   UNK     1     -10.373  16.899  66.857  1.00  0.00    -0.304 C  
BRANCH   7   8
HETATM    8  C   UNK     1      -9.834  17.588  68.115  1.00  0.00    -0.306 C  
BRANCH   8   9
HETATM    9  C   UNK     1      -8.881  18.720  67.742  1.00  0.00    -0.313 C  
BRANCH   9  10
HETATM   10  C   UNK     1      -7.676  18.225  66.945  1.00  0.00    -0.242 C  
BRANCH  10  11
HETATM   11  C   UNK     1      -7.038  17.023  67.616  1.00  0.00    -0.146 C  
HETATM   12  O   UNK     1      -6.460  17.076  68.698  1.00  0.00    -0.158 OA 
HETATM   13  N   UNK     1      -7.166  15.860  66.890  1.00  0.00    -0.187 N  
HETATM   14  H   UNK     1      -7.620  15.887  65.977  1.00  0.00     0.000 HD 
BRANCH  13  15
HETATM   15  C   UNK     1      -6.666  14.599  67.403  1.00  0.00    -0.009 C  
BRANCH  15  16
HETATM   16  C   UNK     1      -7.719  13.826  68.200  1.00  0.00    -0.140 C  
BRANCH  16  17
HETATM   17  C   UNK     1      -7.629  12.324  67.935  1.00  0.00    -0.127 C  
BRANCH  17  18
HETATM   18  C   UNK     1      -8.952  11.737  67.421  1.00  0.00    -0.173 C  
BRANCH  18  19
HETATM   19  C   UNK     1      -8.859  11.180  65.992  1.00  0.00    -0.189 C  
HETATM   20  N   UNK     1     -10.193  10.723  65.503  1.00  0.00    -0.267 NA 
HETATM   21  C   UNK     1      -7.888   9.989  65.942  1.00  0.00    -0.122 C  
HETATM   22  O   UNK     1      -6.675  10.069  65.914  1.00  0.00    -0.090 OA 
HETATM   23  O   UNK     1      -8.565   8.807  65.983  1.00  0.00    -0.132 OA 
HETATM   24  H1  UNK     1     -10.132  10.353  64.555  1.00  0.00     0.000 HD 
HETATM   25  H2  UNK     1     -10.891  11.463  65.572  1.00  0.00     0.000 HD 
ENDBRANCH  18  19
ENDBRANCH  17  18
ENDBRANCH  16  17
ENDBRANCH  15  16
ENDBRANCH  13  15
ENDBRANCH  10  11
ENDBRANCH   9  10
ENDBRANCH   8   9
ENDBRANCH   7   8
ENDBRANCH   6   7
ENDBRANCH   5   6
ENDBRANCH   4   5
ENDBRANCH   3   4
ENDBRANCH   2   3
TORSDOF 14
ENDMDL
MODEL      346
REMARK 921   NORMALIZED FREE ENERGY PREDICTED BY IDOCK:   -2.96 KCAL/MOL
REMARK 922        TOTAL FREE ENERGY PREDICTED BY IDOCK:   -6.30 KCAL/MOL
REMARK 923 INTER-LIGAND FREE ENERGY PREDICTED BY IDOCK:   -6.20 KCAL/MOL
REMARK 924 INTRA-LIGAND FREE ENERGY PREDICTED BY IDOCK:   -0.10 KCAL/MOL
REMARK 927      BINDING AFFINITY PREDICTED BY RF-SCORE:    0.00 PKD
ROOT
HETATM    1  C   UNK     1     -14.411   7.963  71.477  1.00  0.00    -0.445 C  
HETATM    2  O   UNK     1     -14.071   9.136  72.202  1.00  0.00    -0.407 OA 
ENDROOT
BRANCH   2   3
HETATM    3  C   UNK     1     -12.774   9.613  71.846  1.00  0.00    -0.411 C  
BRANCH   3   4
HETATM    4  C   UNK     1     -12.888  10.491  70.605  1.00  0.00    -0.325 C  
BRANCH   4   5
HETATM    5  O   UNK     1     -12.880  11.863  70.994  1.00  0.00    -0.300 OA 
BRANCH   5   6
HETATM    6  C   UNK     1     -13.363  12.033  72.325  1.00  0.00    -0.156 C  
BRANCH   6   7
HETATM    7  C   UNK     1     -13.195  13.490  72.734  1.00  0.00    -0.361 C  
BRANCH   7   8
HETATM    8  C   UNK     1     -13.924  14.449  71.786  1.00  0.00    -0.537 C  
BRANCH   8   9
HETATM    9  C   UNK     1     -13.428  15.879  71.984  1.00  0.00    -0.307 C  
BRANCH   9  10
HETATM   10  C   UNK     1     -11.915  15.948  72.172  1.00  0.00    -0.612 C  
BRANCH  10  11
HETATM   11  C   UNK     1     -11.191  15.607  70.883  1.00  0.00    -0.369 C  
HETATM   12  O   UNK     1     -10.812  14.476  70.595  1.00  0.00     0.086 OA 
HETATM   13  N   UNK     1     -10.996  16.695  70.062  1.00  0.00    -0.407 N  
HETATM   14  H   UNK     1     -11.296  17.619  70.374  1.00  0.00     0.000 HD 
BRANCH  13  15
HETATM   15  C   UNK     1     -10.372  16.549  68.762  1.00  0.00    -0.286 C  
BRANCH  15  16
HETATM   16  C   UNK     1     -11.390  16.488  67.620  1.00  0.00     0.070 C  
BRANCH  16  17
HETATM   17  C   UNK     1     -11.589  15.055  67.126  1.00  0.00    -0.271 C  
BRANCH  17  18
HETATM   18  C   UNK     1     -10.326  14.197  67.285  1.00  0.00    -0.267 C  
BRANCH  18  19
HETATM   19  C   UNK     1      -9.373  14.282  66.084  1.00  0.00    -0.160 C  
HETATM   20  N   UNK     1      -8.641  15.583  66.067  1.00  0.00    -0.339 NA 
HETATM   21  C   UNK     1     -10.154  14.146  64.768  1.00  0.00    -0.165 C  
HETATM   22  O   UNK     1     -10.551  13.101  64.288  1.00  0.00    -0.403 OA 
HETATM   23  O   UNK     1     -10.395  15.368  64.216  1.00  0.00     0.169 OA 
HETATM   24  H1  UNK     1      -8.008  15.639  65.270  1.00  0.00     0.000 HD 
HETATM   25  H2  UNK     1      -8.152  15.749  66.946  1.00  0.00     0.000 HD 
ENDBRANCH  18  19
ENDBRANCH  17  18
ENDBRANCH  16  17
ENDBRANCH  15  16
ENDBRANCH  13  15
ENDBRANCH  10  11
ENDBRANCH   9  10
ENDBRANCH   8   9
ENDBRANCH   7   8
ENDBRANCH   6   7
ENDBRANCH   5   6
ENDBRANCH   4   5
ENDBRANCH   3   4
ENDBRANCH   2   3
TORSDOF 14
ENDMDL
MODEL      347
REMARK 921   NORMALIZED FREE ENERGY PREDICTED BY IDOCK:   -2.94 KCAL/MOL
REMARK 922        TOTAL FREE ENERGY PREDICTED BY IDOCK:   -6.28 KCAL/MOL
REMARK 923 INTER-LIGAND FREE ENERGY PREDICTED BY IDOCK:   -5.34 KCAL/MOL
REMARK 924 INTRA-LIGAND FREE ENERGY PREDICTED BY IDOCK:   -0.94 KCAL/MOL
REMARK 927      BINDING AFFINITY PREDICTED BY RF-SCORE:    0.00 PKD
ROOT
HETATM    1  C   UNK     1      -5.344  14.547  70.736  1.00  0.00    -0.136 C  
HETATM    2  O   UNK     1      -5.304  14.329  69.333  1.00  0.00    -0.086 OA 
ENDROOT
BRANCH   2   3
HETATM    3  C   UNK     1      -6.610  14.382  68.758  1.00  0.00    -0.090 C  
BRANCH   3   4
HETATM    4  C   UNK     1      -6.706  13.349  67.641  1.00  0.00    -0.167 C  
BRANCH   4   5
HETATM    5  O   UNK     1      -6.111  12.128  68.074  1.00  0.00    -0.052 OA 
BRANCH   5   6
HETATM    6  C   UNK     1      -5.410  11.482  67.013  1.00  0.00    -0.103 C  
BRANCH   6   7
HETATM    7  C   UNK     1      -5.724   9.993  67.040  1.00  0.00    -0.046 C  
BRANCH   7   8
HETATM    8  C   UNK     1      -7.229   9.717  67.130  1.00  0.00    -0.087 C  
BRANCH   8   9
HETATM    9  C   UNK     1      -7.559   8.944  68.404  1.00  0.00    -0.091 C  
BRANCH   9  10
HETATM   10  C   UNK     1      -8.248   9.815  69.450  1.00  0.00    -0.135 C  
BRANCH  10  11
HETATM   11  C   UNK     1      -9.646  10.200  69.001  1.00  0.00    -0.196 C  
HETATM   12  O   UNK     1     -10.495   9.385  68.653  1.00  0.00    -0.202 OA 
HETATM   13  N   UNK     1      -9.871  11.558  69.019  1.00  0.00    -0.411 N  
HETATM   14  H   UNK     1      -9.112  12.188  69.278  1.00  0.00     0.000 HD 
BRANCH  13  15
HETATM   15  C   UNK     1     -11.169  12.106  68.676  1.00  0.00    -0.269 C  
BRANCH  15  16
HETATM   16  C   UNK     1     -11.254  13.616  68.912  1.00  0.00    -0.309 C  
BRANCH  16  17
HETATM   17  C   UNK     1     -12.005  14.317  67.781  1.00  0.00    -0.384 C  
BRANCH  17  18
HETATM   18  C   UNK     1     -12.298  13.380  66.601  1.00  0.00    -0.324 C  
BRANCH  18  19
HETATM   19  C   UNK     1     -12.186  14.067  65.231  1.00  0.00    -0.440 C  
HETATM   20  N   UNK     1     -12.733  13.200  64.146  1.00  0.00    -0.671 NA 
HETATM   21  C   UNK     1     -10.718  14.383  64.908  1.00  0.00    -0.426 C  
HETATM   22  O   UNK     1     -10.084  15.322  65.352  1.00  0.00    -0.354 OA 
HETATM   23  O   UNK     1     -10.186  13.437  64.084  1.00  0.00    -0.363 OA 
HETATM   24  H1  UNK     1     -12.659  13.656  63.237  1.00  0.00     0.000 HD 
HETATM   25  H2  UNK     1     -13.692  12.912  64.344  1.00  0.00     0.000 HD 
ENDBRANCH  18  19
ENDBRANCH  17  18
ENDBRANCH  16  17
ENDBRANCH  15  16
ENDBRANCH  13  15
ENDBRANCH  10  11
ENDBRANCH   9  10
ENDBRANCH   8   9
ENDBRANCH   7   8
ENDBRANCH   6   7
ENDBRANCH   5   6
ENDBRANCH   4   5
ENDBRANCH   3   4
ENDBRANCH   2   3
TORSDOF 14
ENDMDL
MODEL      348
REMARK 921   NORMALIZED FREE ENERGY PREDICTED BY IDOCK:   -2.94 KCAL/MOL
REMARK 922        TOTAL FREE ENERGY PREDICTED BY IDOCK:   -6.28 KCAL/MOL
REMARK 923 INTER-LIGAND FREE ENERGY PREDICTED BY IDOCK:   -5.70 KCAL/MOL
REMARK 924 INTRA-LIGAND FREE ENERGY PREDICTED BY IDOCK:   -0.58 KCAL/MOL
REMARK 927      BINDING AFFINITY PREDICTED BY RF-SCORE:    0.00 PKD
ROOT
HETATM    1  C   UNK     1      -7.156  14.992  69.391  1.00  0.00    -0.186 C  
HETATM    2  O   UNK     1      -7.417  15.779  68.237  1.00  0.00    -0.113 OA 
ENDROOT
BRANCH   2   3
HETATM    3  C   UNK     1      -8.330  16.838  68.523  1.00  0.00    -0.243 C  
BRANCH   3   4
HETATM    4  C   UNK     1      -9.539  16.270  69.257  1.00  0.00    -0.220 C  
BRANCH   4   5
HETATM    5  O   UNK     1     -10.726  16.886  68.761  1.00  0.00    -0.330 OA 
BRANCH   5   6
HETATM    6  C   UNK     1     -11.803  15.956  68.678  1.00  0.00    -0.234 C  
BRANCH   6   7
HETATM    7  C   UNK     1     -11.370  14.633  69.296  1.00  0.00    -0.313 C  
BRANCH   7   8
HETATM    8  C   UNK     1     -11.785  13.429  68.444  1.00  0.00    -0.390 C  
BRANCH   8   9
HETATM    9  C   UNK     1     -12.123  13.868  67.022  1.00  0.00    -0.451 C  
BRANCH   9  10
HETATM   10  C   UNK     1     -10.876  14.068  66.164  1.00  0.00    -0.291 C  
BRANCH  10  11
HETATM   11  C   UNK     1      -9.865  12.964  66.411  1.00  0.00    -0.268 C  
HETATM   12  O   UNK     1      -8.740  13.162  66.858  1.00  0.00    -0.209 OA 
HETATM   13  N   UNK     1     -10.331  11.712  66.080  1.00  0.00    -0.234 N  
HETATM   14  H   UNK     1     -11.262  11.615  65.672  1.00  0.00     0.000 HD 
BRANCH  13  15
HETATM   15  C   UNK     1      -9.523  10.529  66.301  1.00  0.00    -0.177 C  
BRANCH  15  16
HETATM   16  C   UNK     1      -9.536  10.069  67.761  1.00  0.00    -0.157 C  
BRANCH  16  17
HETATM   17  C   UNK     1     -10.407   8.828  67.948  1.00  0.00    -0.281 C  
BRANCH  17  18
HETATM   18  C   UNK     1     -10.357   7.886  66.736  1.00  0.00    -0.357 C  
BRANCH  18  19
HETATM   19  C   UNK     1     -10.756   6.440  67.068  1.00  0.00    -0.363 C  
HETATM   20  N   UNK     1     -11.411   6.354  68.406  1.00  0.00    -0.525 NA 
HETATM   21  C   UNK     1      -9.518   5.529  67.072  1.00  0.00    -0.131 C  
HETATM   22  O   UNK     1      -8.972   5.077  66.084  1.00  0.00    -0.124 OA 
HETATM   23  O   UNK     1      -9.069   5.324  68.342  1.00  0.00    -0.108 OA 
HETATM   24  H1  UNK     1     -11.676   5.394  68.626  1.00  0.00     0.000 HD 
HETATM   25  H2  UNK     1     -12.207   6.988  68.475  1.00  0.00     0.000 HD 
ENDBRANCH  18  19
ENDBRANCH  17  18
ENDBRANCH  16  17
ENDBRANCH  15  16
ENDBRANCH  13  15
ENDBRANCH  10  11
ENDBRANCH   9  10
ENDBRANCH   8   9
ENDBRANCH   7   8
ENDBRANCH   6   7
ENDBRANCH   5   6
ENDBRANCH   4   5
ENDBRANCH   3   4
ENDBRANCH   2   3
TORSDOF 14
ENDMDL
MODEL      349
REMARK 921   NORMALIZED FREE ENERGY PREDICTED BY IDOCK:   -2.94 KCAL/MOL
REMARK 922        TOTAL FREE ENERGY PREDICTED BY IDOCK:   -6.28 KCAL/MOL
REMARK 923 INTER-LIGAND FREE ENERGY PREDICTED BY IDOCK:   -5.70 KCAL/MOL
REMARK 924 INTRA-LIGAND FREE ENERGY PREDICTED BY IDOCK:   -0.58 KCAL/MOL
REMARK 927      BINDING AFFINITY PREDICTED BY RF-SCORE:    0.00 PKD
ROOT
HETATM    1  C   UNK     1      -7.313   4.265  70.690  1.00  0.00    -0.048 C  
HETATM    2  O   UNK     1      -7.875   3.449  71.708  1.00  0.00    -0.056 OA 
ENDROOT
BRANCH   2   3
HETATM    3  C   UNK     1      -9.029   2.751  71.239  1.00  0.00    -0.097 C  
BRANCH   3   4
HETATM    4  C   UNK     1     -10.154   2.907  72.256  1.00  0.00    -0.152 C  
BRANCH   4   5
HETATM    5  O   UNK     1      -9.704   3.719  73.338  1.00  0.00    -0.109 OA 
BRANCH   5   6
HETATM    6  C   UNK     1     -10.497   4.896  73.474  1.00  0.00    -0.228 C  
BRANCH   6   7
HETATM    7  C   UNK     1      -9.706   6.093  72.961  1.00  0.00    -0.160 C  
BRANCH   7   8
HETATM    8  C   UNK     1     -10.469   7.411  73.132  1.00  0.00    -0.406 C  
BRANCH   8   9
HETATM    9  C   UNK     1     -11.615   7.503  72.128  1.00  0.00    -0.340 C  
BRANCH   9  10
HETATM   10  C   UNK     1     -12.570   8.651  72.441  1.00  0.00    -0.426 C  
BRANCH  10  11
HETATM   11  C   UNK     1     -12.464   9.747  71.396  1.00  0.00    -0.387 C  
HETATM   12  O   UNK     1     -13.379  10.518  71.126  1.00  0.00    -0.317 OA 
HETATM   13  N   UNK     1     -11.236   9.791  70.775  1.00  0.00    -0.320 N  
HETATM   14  H   UNK     1     -10.528   9.096  71.013  1.00  0.00     0.000 HD 
BRANCH  13  15
HETATM   15  C   UNK     1     -10.932  10.810  69.789  1.00  0.00    -0.252 C  
BRANCH  15  16
HETATM   16  C   UNK     1      -9.842  10.375  68.807  1.00  0.00    -0.190 C  
BRANCH  16  17
HETATM   17  C   UNK     1     -10.420  10.086  67.422  1.00  0.00    -0.316 C  
BRANCH  17  18
HETATM   18  C   UNK     1     -10.947  11.351  66.730  1.00  0.00    -0.347 C  
BRANCH  18  19
HETATM   19  C   UNK     1      -9.839  12.220  66.116  1.00  0.00    -0.243 C  
HETATM   20  N   UNK     1      -9.471  13.347  67.024  1.00  0.00    -0.239 NA 
HETATM   21  C   UNK     1     -10.299  12.808  64.773  1.00  0.00    -0.322 C  
HETATM   22  O   UNK     1     -10.321  12.212  63.713  1.00  0.00    -0.369 OA 
HETATM   23  O   UNK     1     -10.735  14.090  64.926  1.00  0.00    -0.371 OA 
HETATM   24  H1  UNK     1      -8.735  13.923  66.617  1.00  0.00     0.000 HD 
HETATM   25  H2  UNK     1      -9.214  13.011  67.952  1.00  0.00     0.000 HD 
ENDBRANCH  18  19
ENDBRANCH  17  18
ENDBRANCH  16  17
ENDBRANCH  15  16
ENDBRANCH  13  15
ENDBRANCH  10  11
ENDBRANCH   9  10
ENDBRANCH   8   9
ENDBRANCH   7   8
ENDBRANCH   6   7
ENDBRANCH   5   6
ENDBRANCH   4   5
ENDBRANCH   3   4
ENDBRANCH   2   3
TORSDOF 14
ENDMDL
MODEL      350
REMARK 921   NORMALIZED FREE ENERGY PREDICTED BY IDOCK:   -2.93 KCAL/MOL
REMARK 922        TOTAL FREE ENERGY PREDICTED BY IDOCK:   -6.25 KCAL/MOL
REMARK 923 INTER-LIGAND FREE ENERGY PREDICTED BY IDOCK:   -5.33 KCAL/MOL
REMARK 924 INTRA-LIGAND FREE ENERGY PREDICTED BY IDOCK:   -0.93 KCAL/MOL
REMARK 927      BINDING AFFINITY PREDICTED BY RF-SCORE:    0.00 PKD
ROOT
HETATM    1  C   UNK     1      -7.317  18.676  66.497  1.00  0.00    -0.240 C  
HETATM    2  O   UNK     1      -8.600  18.773  65.896  1.00  0.00    -0.478 OA 
ENDROOT
BRANCH   2   3
HETATM    3  C   UNK     1      -9.523  17.856  66.485  1.00  0.00    -0.299 C  
BRANCH   3   4
HETATM    4  C   UNK     1      -9.385  17.914  68.002  1.00  0.00    -0.274 C  
BRANCH   4   5
HETATM    5  O   UNK     1      -9.281  16.589  68.519  1.00  0.00    -0.214 OA 
BRANCH   5   6
HETATM    6  C   UNK     1     -10.423  15.804  68.182  1.00  0.00    -0.263 C  
BRANCH   6   7
HETATM    7  C   UNK     1     -11.309  15.660  69.412  1.00  0.00    -0.332 C  
BRANCH   7   8
HETATM    8  C   UNK     1     -11.248  14.251  70.012  1.00  0.00    -0.154 C  
BRANCH   8   9
HETATM    9  C   UNK     1     -12.653  13.726  70.295  1.00  0.00    -0.288 C  
BRANCH   9  10
HETATM   10  C   UNK     1     -12.641  12.476  71.170  1.00  0.00    -0.349 C  
BRANCH  10  11
HETATM   11  C   UNK     1     -12.278  11.247  70.356  1.00  0.00    -0.365 C  
HETATM   12  O   UNK     1     -12.419  11.172  69.140  1.00  0.00    -0.418 OA 
HETATM   13  N   UNK     1     -11.774  10.217  71.118  1.00  0.00    -0.361 N  
HETATM   14  H   UNK     1     -11.719  10.323  72.132  1.00  0.00     0.000 HD 
BRANCH  13  15
HETATM   15  C   UNK     1     -11.320   8.985  70.505  1.00  0.00    -0.243 C  
BRANCH  15  16
HETATM   16  C   UNK     1      -9.801   8.937  70.327  1.00  0.00    -0.211 C  
BRANCH  16  17
HETATM   17  C   UNK     1      -9.403   9.114  68.862  1.00  0.00    -0.146 C  
BRANCH  17  18
HETATM   18  C   UNK     1      -8.101   9.910  68.697  1.00  0.00    -0.099 C  
BRANCH  18  19
HETATM   19  C   UNK     1      -8.249  11.402  69.033  1.00  0.00     0.020 C  
HETATM   20  N   UNK     1      -9.519  11.957  68.478  1.00  0.00    -0.312 NA 
HETATM   21  C   UNK     1      -7.073  12.202  68.451  1.00  0.00    -0.089 C  
HETATM   22  O   UNK     1      -5.961  12.276  68.938  1.00  0.00    -0.062 OA 
HETATM   23  O   UNK     1      -7.421  12.793  67.274  1.00  0.00    -0.149 OA 
HETATM   24  H1  UNK     1      -9.617  12.947  68.701  1.00  0.00     0.000 HD 
HETATM   25  H2  UNK     1     -10.329  11.420  68.788  1.00  0.00     0.000 HD 
ENDBRANCH  18  19
ENDBRANCH  17  18
ENDBRANCH  16  17
ENDBRANCH  15  16
ENDBRANCH  13  15
ENDBRANCH  10  11
ENDBRANCH   9  10
ENDBRANCH   8   9
ENDBRANCH   7   8
ENDBRANCH   6   7
ENDBRANCH   5   6
ENDBRANCH   4   5
ENDBRANCH   3   4
ENDBRANCH   2   3
TORSDOF 14
ENDMDL
MODEL      351
REMARK 921   NORMALIZED FREE ENERGY PREDICTED BY IDOCK:   -2.93 KCAL/MOL
REMARK 922        TOTAL FREE ENERGY PREDICTED BY IDOCK:   -6.25 KCAL/MOL
REMARK 923 INTER-LIGAND FREE ENERGY PREDICTED BY IDOCK:   -5.24 KCAL/MOL
REMARK 924 INTRA-LIGAND FREE ENERGY PREDICTED BY IDOCK:   -1.02 KCAL/MOL
REMARK 927      BINDING AFFINITY PREDICTED BY RF-SCORE:    0.00 PKD
ROOT
HETATM    1  C   UNK     1      -5.682   9.467  64.254  1.00  0.00    -0.077 C  
HETATM    2  O   UNK     1      -6.773   9.331  65.152  1.00  0.00    -0.075 OA 
ENDROOT
BRANCH   2   3
HETATM    3  C   UNK     1      -7.040  10.554  65.839  1.00  0.00    -0.134 C  
BRANCH   3   4
HETATM    4  C   UNK     1      -7.596  10.239  67.223  1.00  0.00    -0.095 C  
BRANCH   4   5
HETATM    5  O   UNK     1      -8.734   9.391  67.093  1.00  0.00    -0.127 OA 
BRANCH   5   6
HETATM    6  C   UNK     1      -9.940  10.080  67.416  1.00  0.00    -0.197 C  
BRANCH   6   7
HETATM    7  C   UNK     1      -9.595  11.404  68.084  1.00  0.00    -0.190 C  
BRANCH   7   8
HETATM    8  C   UNK     1     -10.833  12.273  68.330  1.00  0.00    -0.254 C  
BRANCH   8   9
HETATM    9  C   UNK     1     -11.969  11.436  68.911  1.00  0.00    -0.371 C  
BRANCH   9  10
HETATM   10  C   UNK     1     -11.871  11.297  70.428  1.00  0.00    -0.443 C  
BRANCH  10  11
HETATM   11  C   UNK     1     -11.517   9.875  70.822  1.00  0.00    -0.354 C  
HETATM   12  O   UNK     1     -10.386   9.408  70.735  1.00  0.00    -0.254 OA 
HETATM   13  N   UNK     1     -12.594   9.154  71.287  1.00  0.00    -0.386 N  
HETATM   14  H   UNK     1     -13.519   9.584  71.297  1.00  0.00     0.000 HD 
BRANCH  13  15
HETATM   15  C   UNK     1     -12.434   7.794  71.763  1.00  0.00    -0.320 C  
BRANCH  15  16
HETATM   16  C   UNK     1     -12.026   6.823  70.652  1.00  0.00    -0.418 C  
BRANCH  16  17
HETATM   17  C   UNK     1     -10.778   6.029  71.034  1.00  0.00    -0.325 C  
BRANCH  17  18
HETATM   18  C   UNK     1     -10.391   4.993  69.968  1.00  0.00    -0.303 C  
BRANCH  18  19
HETATM   19  C   UNK     1      -9.413   5.534  68.915  1.00  0.00    -0.129 C  
HETATM   20  N   UNK     1      -9.052   6.956  69.193  1.00  0.00    -0.136 NA 
HETATM   21  C   UNK     1     -10.037   5.456  67.512  1.00  0.00    -0.180 C  
HETATM   22  O   UNK     1     -10.108   4.454  66.827  1.00  0.00    -0.221 OA 
HETATM   23  O   UNK     1     -10.553   6.662  67.142  1.00  0.00    -0.247 OA 
HETATM   24  H1  UNK     1      -8.402   7.315  68.494  1.00  0.00     0.000 HD 
HETATM   25  H2  UNK     1      -8.687   7.071  70.139  1.00  0.00     0.000 HD 
ENDBRANCH  18  19
ENDBRANCH  17  18
ENDBRANCH  16  17
ENDBRANCH  15  16
ENDBRANCH  13  15
ENDBRANCH  10  11
ENDBRANCH   9  10
ENDBRANCH   8   9
ENDBRANCH   7   8
ENDBRANCH   6   7
ENDBRANCH   5   6
ENDBRANCH   4   5
ENDBRANCH   3   4
ENDBRANCH   2   3
TORSDOF 14
ENDMDL
MODEL      352
REMARK 921   NORMALIZED FREE ENERGY PREDICTED BY IDOCK:   -2.92 KCAL/MOL
REMARK 922        TOTAL FREE ENERGY PREDICTED BY IDOCK:   -6.25 KCAL/MOL
REMARK 923 INTER-LIGAND FREE ENERGY PREDICTED BY IDOCK:   -5.67 KCAL/MOL
REMARK 924 INTRA-LIGAND FREE ENERGY PREDICTED BY IDOCK:   -0.57 KCAL/MOL
REMARK 927      BINDING AFFINITY PREDICTED BY RF-SCORE:    0.00 PKD
ROOT
HETATM    1  C   UNK     1      -8.681  14.369  68.445  1.00  0.00    -0.180 C  
HETATM    2  O   UNK     1      -9.747  15.257  68.746  1.00  0.00    -0.196 OA 
ENDROOT
BRANCH   2   3
HETATM    3  C   UNK     1     -10.175  15.973  67.587  1.00  0.00    -0.262 C  
BRANCH   3   4
HETATM    4  C   UNK     1     -10.700  14.983  66.555  1.00  0.00    -0.312 C  
BRANCH   4   5
HETATM    5  O   UNK     1     -11.856  14.328  67.073  1.00  0.00    -0.394 OA 
BRANCH   5   6
HETATM    6  C   UNK     1     -11.869  12.943  66.736  1.00  0.00    -0.385 C  
BRANCH   6   7
HETATM    7  C   UNK     1     -11.382  12.134  67.931  1.00  0.00    -0.361 C  
BRANCH   7   8
HETATM    8  C   UNK     1     -12.033  12.585  69.243  1.00  0.00    -0.304 C  
BRANCH   8   9
HETATM    9  C   UNK     1     -12.647  11.395  69.975  1.00  0.00    -0.125 C  
BRANCH   9  10
HETATM   10  C   UNK     1     -11.627  10.292  70.246  1.00  0.00    -0.396 C  
BRANCH  10  11
HETATM   11  C   UNK     1     -12.010   9.488  71.475  1.00  0.00    -0.399 C  
HETATM   12  O   UNK     1     -12.960   9.767  72.200  1.00  0.00    -0.407 OA 
HETATM   13  N   UNK     1     -11.184   8.410  71.703  1.00  0.00    -0.261 N  
HETATM   14  H   UNK     1     -10.384   8.254  71.089  1.00  0.00     0.000 HD 
BRANCH  13  15
HETATM   15  C   UNK     1     -11.431   7.496  72.800  1.00  0.00    -0.300 C  
BRANCH  15  16
HETATM   16  C   UNK     1     -11.514   6.036  72.345  1.00  0.00    -0.357 C  
BRANCH  16  17
HETATM   17  C   UNK     1     -10.953   5.858  70.935  1.00  0.00    -0.335 C  
BRANCH  17  18
HETATM   18  C   UNK     1      -9.616   5.102  70.925  1.00  0.00    -0.235 C  
BRANCH  18  19
HETATM   19  C   UNK     1      -9.752   3.615  71.285  1.00  0.00    -0.169 C  
HETATM   20  N   UNK     1      -9.592   3.398  72.753  1.00  0.00    -0.120 NA 
HETATM   21  C   UNK     1      -8.686   2.785  70.551  1.00  0.00    -0.069 C  
HETATM   22  O   UNK     1      -8.742   2.436  69.387  1.00  0.00    -0.066 OA 
HETATM   23  O   UNK     1      -7.626   2.525  71.366  1.00  0.00    -0.039 OA 
HETATM   24  H1  UNK     1      -9.682   2.411  72.992  1.00  0.00     0.000 HD 
HETATM   25  H2  UNK     1     -10.240   3.974  73.290  1.00  0.00     0.000 HD 
ENDBRANCH  18  19
ENDBRANCH  17  18
ENDBRANCH  16  17
ENDBRANCH  15  16
ENDBRANCH  13  15
ENDBRANCH  10  11
ENDBRANCH   9  10
ENDBRANCH   8   9
ENDBRANCH   7   8
ENDBRANCH   6   7
ENDBRANCH   5   6
ENDBRANCH   4   5
ENDBRANCH   3   4
ENDBRANCH   2   3
TORSDOF 14
ENDMDL
MODEL      353
REMARK 921   NORMALIZED FREE ENERGY PREDICTED BY IDOCK:   -2.92 KCAL/MOL
REMARK 922        TOTAL FREE ENERGY PREDICTED BY IDOCK:   -6.24 KCAL/MOL
REMARK 923 INTER-LIGAND FREE ENERGY PREDICTED BY IDOCK:   -5.01 KCAL/MOL
REMARK 924 INTRA-LIGAND FREE ENERGY PREDICTED BY IDOCK:   -1.22 KCAL/MOL
REMARK 927      BINDING AFFINITY PREDICTED BY RF-SCORE:    0.00 PKD
ROOT
HETATM    1  C   UNK     1     -10.166   6.376  73.746  1.00  0.00    -0.290 C  
HETATM    2  O   UNK     1      -9.867   6.148  72.376  1.00  0.00    -0.165 OA 
ENDROOT
BRANCH   2   3
HETATM    3  C   UNK     1      -9.455   7.350  71.725  1.00  0.00    -0.149 C  
BRANCH   3   4
HETATM    4  C   UNK     1     -10.377   8.488  72.146  1.00  0.00    -0.339 C  
BRANCH   4   5
HETATM    5  O   UNK     1     -11.308   8.754  71.099  1.00  0.00    -0.258 OA 
BRANCH   5   6
HETATM    6  C   UNK     1     -11.615  10.144  71.013  1.00  0.00    -0.376 C  
BRANCH   6   7
HETATM    7  C   UNK     1     -11.320  10.634  69.602  1.00  0.00    -0.360 C  
BRANCH   7   8
HETATM    8  C   UNK     1     -10.670   9.551  68.733  1.00  0.00    -0.218 C  
BRANCH   8   9
HETATM    9  C   UNK     1      -9.556  10.147  67.876  1.00  0.00    -0.166 C  
BRANCH   9  10
HETATM   10  C   UNK     1      -9.810   9.959  66.383  1.00  0.00    -0.288 C  
BRANCH  10  11
HETATM   11  C   UNK     1     -10.170  11.278  65.724  1.00  0.00    -0.251 C  
HETATM   12  O   UNK     1     -10.622  11.367  64.586  1.00  0.00    -0.290 OA 
HETATM   13  N   UNK     1      -9.938  12.372  66.527  1.00  0.00    -0.225 N  
HETATM   14  H   UNK     1      -9.521  12.237  67.448  1.00  0.00     0.000 HD 
BRANCH  13  15
HETATM   15  C   UNK     1     -10.276  13.710  66.085  1.00  0.00    -0.304 C  
BRANCH  15  16
HETATM   16  C   UNK     1     -10.088  14.760  67.183  1.00  0.00    -0.240 C  
BRANCH  16  17
HETATM   17  C   UNK     1      -9.087  15.835  66.763  1.00  0.00    -0.276 C  
BRANCH  17  18
HETATM   18  C   UNK     1      -7.674  15.565  67.301  1.00  0.00    -0.244 C  
BRANCH  18  19
HETATM   19  C   UNK     1      -7.655  14.663  68.545  1.00  0.00    -0.120 C  
HETATM   20  N   UNK     1      -7.092  15.383  69.725  1.00  0.00    -0.172 NA 
HETATM   21  C   UNK     1      -6.802  13.411  68.286  1.00  0.00    -0.106 C  
HETATM   22  O   UNK     1      -7.162  12.428  67.666  1.00  0.00    -0.106 OA 
HETATM   23  O   UNK     1      -5.551  13.558  68.806  1.00  0.00    -0.071 OA 
HETATM   24  H1  UNK     1      -7.080  14.785  70.550  1.00  0.00     0.000 HD 
HETATM   25  H2  UNK     1      -7.589  16.256  69.903  1.00  0.00     0.000 HD 
ENDBRANCH  18  19
ENDBRANCH  17  18
ENDBRANCH  16  17
ENDBRANCH  15  16
ENDBRANCH  13  15
ENDBRANCH  10  11
ENDBRANCH   9  10
ENDBRANCH   8   9
ENDBRANCH   7   8
ENDBRANCH   6   7
ENDBRANCH   5   6
ENDBRANCH   4   5
ENDBRANCH   3   4
ENDBRANCH   2   3
TORSDOF 14
ENDMDL
MODEL      354
REMARK 921   NORMALIZED FREE ENERGY PREDICTED BY IDOCK:   -2.92 KCAL/MOL
REMARK 922        TOTAL FREE ENERGY PREDICTED BY IDOCK:   -6.24 KCAL/MOL
REMARK 923 INTER-LIGAND FREE ENERGY PREDICTED BY IDOCK:   -5.96 KCAL/MOL
REMARK 924 INTRA-LIGAND FREE ENERGY PREDICTED BY IDOCK:   -0.28 KCAL/MOL
REMARK 927      BINDING AFFINITY PREDICTED BY RF-SCORE:    0.00 PKD
ROOT
HETATM    1  C   UNK     1      -7.770   3.647  69.785  1.00  0.00    -0.051 C  
HETATM    2  O   UNK     1      -7.673   3.344  71.169  1.00  0.00    -0.049 OA 
ENDROOT
BRANCH   2   3
HETATM    3  C   UNK     1      -8.922   2.892  71.693  1.00  0.00    -0.084 C  
BRANCH   3   4
HETATM    4  C   UNK     1      -9.990   3.944  71.418  1.00  0.00    -0.127 C  
BRANCH   4   5
HETATM    5  O   UNK     1     -10.052   4.853  72.514  1.00  0.00    -0.169 OA 
BRANCH   5   6
HETATM    6  C   UNK     1     -11.328   5.485  72.598  1.00  0.00    -0.291 C  
BRANCH   6   7
HETATM    7  C   UNK     1     -11.142   6.926  73.054  1.00  0.00    -0.267 C  
BRANCH   7   8
HETATM    8  C   UNK     1     -11.814   7.927  72.109  1.00  0.00    -0.384 C  
BRANCH   8   9
HETATM    9  C   UNK     1     -10.811   8.975  71.634  1.00  0.00    -0.437 C  
BRANCH   9  10
HETATM   10  C   UNK     1     -11.136   9.499  70.238  1.00  0.00    -0.317 C  
BRANCH  10  11
HETATM   11  C   UNK     1      -9.868   9.823  69.470  1.00  0.00    -0.214 C  
HETATM   12  O   UNK     1      -8.958   9.020  69.293  1.00  0.00    -0.139 OA 
HETATM   13  N   UNK     1      -9.834  11.114  68.991  1.00  0.00    -0.359 N  
HETATM   14  H   UNK     1     -10.603  11.749  69.207  1.00  0.00     0.000 HD 
BRANCH  13  15
HETATM   15  C   UNK     1      -8.724  11.584  68.186  1.00  0.00    -0.157 C  
BRANCH  15  16
HETATM   16  C   UNK     1      -8.873  11.222  66.706  1.00  0.00    -0.170 C  
BRANCH  16  17
HETATM   17  C   UNK     1     -10.129  11.848  66.101  1.00  0.00    -0.257 C  
BRANCH  17  18
HETATM   18  C   UNK     1     -10.030  13.376  65.992  1.00  0.00    -0.300 C  
BRANCH  18  19
HETATM   19  C   UNK     1     -11.199  14.012  65.223  1.00  0.00    -0.319 C  
HETATM   20  N   UNK     1     -12.165  14.666  66.154  1.00  0.00    -0.229 NA 
HETATM   21  C   UNK     1     -11.951  12.945  64.413  1.00  0.00    -0.395 C  
HETATM   22  O   UNK     1     -11.591  12.486  63.345  1.00  0.00    -0.476 OA 
HETATM   23  O   UNK     1     -13.070  12.531  65.072  1.00  0.00    -0.765 OA 
HETATM   24  H1  UNK     1     -12.940  15.089  65.644  1.00  0.00     0.000 HD 
HETATM   25  H2  UNK     1     -11.701  15.344  66.759  1.00  0.00     0.000 HD 
ENDBRANCH  18  19
ENDBRANCH  17  18
ENDBRANCH  16  17
ENDBRANCH  15  16
ENDBRANCH  13  15
ENDBRANCH  10  11
ENDBRANCH   9  10
ENDBRANCH   8   9
ENDBRANCH   7   8
ENDBRANCH   6   7
ENDBRANCH   5   6
ENDBRANCH   4   5
ENDBRANCH   3   4
ENDBRANCH   2   3
TORSDOF 14
ENDMDL
MODEL      355
REMARK 921   NORMALIZED FREE ENERGY PREDICTED BY IDOCK:   -2.92 KCAL/MOL
REMARK 922        TOTAL FREE ENERGY PREDICTED BY IDOCK:   -6.24 KCAL/MOL
REMARK 923 INTER-LIGAND FREE ENERGY PREDICTED BY IDOCK:   -5.53 KCAL/MOL
REMARK 924 INTRA-LIGAND FREE ENERGY PREDICTED BY IDOCK:   -0.70 KCAL/MOL
REMARK 927      BINDING AFFINITY PREDICTED BY RF-SCORE:    0.00 PKD
ROOT
HETATM    1  C   UNK     1     -13.196   6.990  71.457  1.00  0.00    -0.317 C  
HETATM    2  O   UNK     1     -11.882   6.474  71.300  1.00  0.00    -0.326 OA 
ENDROOT
BRANCH   2   3
HETATM    3  C   UNK     1     -11.358   6.764  70.004  1.00  0.00    -0.342 C  
BRANCH   3   4
HETATM    4  C   UNK     1     -10.446   7.982  70.095  1.00  0.00    -0.225 C  
BRANCH   4   5
HETATM    5  O   UNK     1     -11.023   9.060  69.362  1.00  0.00    -0.182 OA 
BRANCH   5   6
HETATM    6  C   UNK     1     -11.012   8.805  67.959  1.00  0.00     0.132 C  
BRANCH   6   7
HETATM    7  C   UNK     1     -11.023  10.132  67.210  1.00  0.00    -0.250 C  
BRANCH   7   8
HETATM    8  C   UNK     1      -9.946  11.096  67.718  1.00  0.00    -0.193 C  
BRANCH   8   9
HETATM    9  C   UNK     1      -9.903  12.355  66.856  1.00  0.00    -0.219 C  
BRANCH   9  10
HETATM   10  C   UNK     1     -10.793  13.466  67.409  1.00  0.00    -0.279 C  
BRANCH  10  11
HETATM   11  C   UNK     1     -10.228  14.833  67.070  1.00  0.00    -0.253 C  
HETATM   12  O   UNK     1     -10.893  15.864  67.082  1.00  0.00    -0.319 OA 
HETATM   13  N   UNK     1      -8.891  14.806  66.745  1.00  0.00    -0.297 N  
HETATM   14  H   UNK     1      -8.401  13.912  66.712  1.00  0.00     0.000 HD 
BRANCH  13  15
HETATM   15  C   UNK     1      -8.168  16.027  66.448  1.00  0.00    -0.274 C  
BRANCH  15  16
HETATM   16  C   UNK     1      -7.374  16.550  67.647  1.00  0.00    -0.159 C  
BRANCH  16  17
HETATM   17  C   UNK     1      -6.648  17.853  67.312  1.00  0.00    -0.188 C  
BRANCH  17  18
HETATM   18  C   UNK     1      -7.231  18.548  66.074  1.00  0.00    -0.290 C  
BRANCH  18  19
HETATM   19  C   UNK     1      -7.847  19.923  66.376  1.00  0.00    -0.316 C  
HETATM   20  N   UNK     1      -7.449  20.406  67.731  1.00  0.00    -0.289 NA 
HETATM   21  C   UNK     1      -9.381  19.848  66.317  1.00  0.00    -0.385 C  
HETATM   22  O   UNK     1     -10.049  19.852  65.301  1.00  0.00    -0.217 OA 
HETATM   23  O   UNK     1      -9.911  19.727  67.567  1.00  0.00    -0.345 OA 
HETATM   24  H1  UNK     1      -7.857  21.319  67.932  1.00  0.00     0.000 HD 
HETATM   25  H2  UNK     1      -6.434  20.417  67.842  1.00  0.00     0.000 HD 
ENDBRANCH  18  19
ENDBRANCH  17  18
ENDBRANCH  16  17
ENDBRANCH  15  16
ENDBRANCH  13  15
ENDBRANCH  10  11
ENDBRANCH   9  10
ENDBRANCH   8   9
ENDBRANCH   7   8
ENDBRANCH   6   7
ENDBRANCH   5   6
ENDBRANCH   4   5
ENDBRANCH   3   4
ENDBRANCH   2   3
TORSDOF 14
ENDMDL
MODEL      356
REMARK 921   NORMALIZED FREE ENERGY PREDICTED BY IDOCK:   -2.92 KCAL/MOL
REMARK 922        TOTAL FREE ENERGY PREDICTED BY IDOCK:   -6.23 KCAL/MOL
REMARK 923 INTER-LIGAND FREE ENERGY PREDICTED BY IDOCK:   -5.41 KCAL/MOL
REMARK 924 INTRA-LIGAND FREE ENERGY PREDICTED BY IDOCK:   -0.82 KCAL/MOL
REMARK 927      BINDING AFFINITY PREDICTED BY RF-SCORE:    0.00 PKD
ROOT
HETATM    1  C   UNK     1      -9.839   3.476  73.772  1.00  0.00    -0.110 C  
HETATM    2  O   UNK     1     -10.465   3.589  72.502  1.00  0.00    -0.151 OA 
ENDROOT
BRANCH   2   3
HETATM    3  C   UNK     1     -10.293   4.895  71.950  1.00  0.00    -0.190 C  
BRANCH   3   4
HETATM    4  C   UNK     1     -11.447   5.783  72.399  1.00  0.00    -0.288 C  
BRANCH   4   5
HETATM    5  O   UNK     1     -11.612   6.851  71.469  1.00  0.00    -0.260 OA 
BRANCH   5   6
HETATM    6  C   UNK     1     -12.967   7.290  71.411  1.00  0.00    -0.373 C  
BRANCH   6   7
HETATM    7  C   UNK     1     -13.022   8.782  71.715  1.00  0.00    -0.404 C  
BRANCH   7   8
HETATM    8  C   UNK     1     -11.659   9.461  71.544  1.00  0.00    -0.467 C  
BRANCH   8   9
HETATM    9  C   UNK     1     -11.821  10.836  70.901  1.00  0.00    -0.400 C  
BRANCH   9  10
HETATM   10  C   UNK     1     -12.022  10.750  69.390  1.00  0.00    -0.353 C  
BRANCH  10  11
HETATM   11  C   UNK     1     -10.798  10.160  68.712  1.00  0.00    -0.225 C  
HETATM   12  O   UNK     1      -9.659  10.584  68.879  1.00  0.00    -0.176 OA 
HETATM   13  N   UNK     1     -11.091   9.100  67.884  1.00  0.00    -0.489 N  
HETATM   14  H   UNK     1     -12.063   8.819  67.753  1.00  0.00     0.000 HD 
BRANCH  13  15
HETATM   15  C   UNK     1     -10.040   8.376  67.197  1.00  0.00    -0.265 C  
BRANCH  15  16
HETATM   16  C   UNK     1      -9.766   7.003  67.816  1.00  0.00    -0.156 C  
BRANCH  16  17
HETATM   17  C   UNK     1      -8.559   6.327  67.165  1.00  0.00    -0.107 C  
BRANCH  17  18
HETATM   18  C   UNK     1      -8.936   5.539  65.903  1.00  0.00    -0.158 C  
BRANCH  18  19
HETATM   19  C   UNK     1      -9.979   4.440  66.156  1.00  0.00    -0.238 C  
HETATM   20  N   UNK     1      -9.444   3.388  67.068  1.00  0.00    -0.317 NA 
HETATM   21  C   UNK     1     -10.390   3.775  64.833  1.00  0.00    -0.082 C  
HETATM   22  O   UNK     1     -11.174   4.235  64.025  1.00  0.00    -0.071 OA 
HETATM   23  O   UNK     1      -9.717   2.604  64.648  1.00  0.00    -0.133 OA 
HETATM   24  H1  UNK     1     -10.137   2.659  67.237  1.00  0.00     0.000 HD 
HETATM   25  H2  UNK     1      -9.102   3.788  67.942  1.00  0.00     0.000 HD 
ENDBRANCH  18  19
ENDBRANCH  17  18
ENDBRANCH  16  17
ENDBRANCH  15  16
ENDBRANCH  13  15
ENDBRANCH  10  11
ENDBRANCH   9  10
ENDBRANCH   8   9
ENDBRANCH   7   8
ENDBRANCH   6   7
ENDBRANCH   5   6
ENDBRANCH   4   5
ENDBRANCH   3   4
ENDBRANCH   2   3
TORSDOF 14
ENDMDL
MODEL      357
REMARK 921   NORMALIZED FREE ENERGY PREDICTED BY IDOCK:   -2.91 KCAL/MOL
REMARK 922        TOTAL FREE ENERGY PREDICTED BY IDOCK:   -6.23 KCAL/MOL
REMARK 923 INTER-LIGAND FREE ENERGY PREDICTED BY IDOCK:   -5.54 KCAL/MOL
REMARK 924 INTRA-LIGAND FREE ENERGY PREDICTED BY IDOCK:   -0.69 KCAL/MOL
REMARK 927      BINDING AFFINITY PREDICTED BY RF-SCORE:    0.00 PKD
ROOT
HETATM    1  C   UNK     1     -10.566   4.242  65.444  1.00  0.00    -0.122 C  
HETATM    2  O   UNK     1      -9.684   4.288  64.332  1.00  0.00    -0.162 OA 
ENDROOT
BRANCH   2   3
HETATM    3  C   UNK     1      -8.454   4.931  64.667  1.00  0.00    -0.143 C  
BRANCH   3   4
HETATM    4  C   UNK     1      -8.354   5.057  66.183  1.00  0.00    -0.113 C  
BRANCH   4   5
HETATM    5  O   UNK     1      -7.493   6.145  66.511  1.00  0.00    -0.083 OA 
BRANCH   5   6
HETATM    6  C   UNK     1      -8.232   7.280  66.959  1.00  0.00    -0.117 C  
BRANCH   6   7
HETATM    7  C   UNK     1      -7.809   8.501  66.153  1.00  0.00    -0.098 C  
BRANCH   7   8
HETATM    8  C   UNK     1      -8.171   9.815  66.854  1.00  0.00    -0.117 C  
BRANCH   8   9
HETATM    9  C   UNK     1      -9.537   9.707  67.525  1.00  0.00    -0.180 C  
BRANCH   9  10
HETATM   10  C   UNK     1      -9.490  10.087  69.002  1.00  0.00    -0.190 C  
BRANCH  10  11
HETATM   11  C   UNK     1     -10.831  10.626  69.468  1.00  0.00    -0.259 C  
HETATM   12  O   UNK     1     -11.819   9.922  69.650  1.00  0.00    -0.060 OA 
HETATM   13  N   UNK     1     -10.833  11.988  69.664  1.00  0.00    -0.444 N  
HETATM   14  H   UNK     1      -9.991  12.526  69.455  1.00  0.00     0.000 HD 
BRANCH  13  15
HETATM   15  C   UNK     1     -12.011  12.671  70.163  1.00  0.00    -0.299 C  
BRANCH  15  16
HETATM   16  C   UNK     1     -12.277  13.993  69.440  1.00  0.00    -0.336 C  
BRANCH  16  17
HETATM   17  C   UNK     1     -12.220  13.822  67.923  1.00  0.00    -0.194 C  
BRANCH  17  18
HETATM   18  C   UNK     1     -11.158  14.718  67.269  1.00  0.00    -0.334 C  
BRANCH  18  19
HETATM   19  C   UNK     1     -10.765  14.269  65.854  1.00  0.00    -0.303 C  
HETATM   20  N   UNK     1      -9.376  14.699  65.517  1.00  0.00    -0.433 NA 
HETATM   21  C   UNK     1     -11.726  14.868  64.815  1.00  0.00    -0.402 C  
HETATM   22  O   UNK     1     -12.840  14.451  64.561  1.00  0.00    -0.634 OA 
HETATM   23  O   UNK     1     -11.185  15.976  64.234  1.00  0.00    -0.517 OA 
HETATM   24  H1  UNK     1      -9.115  14.401  64.577  1.00  0.00     0.000 HD 
HETATM   25  H2  UNK     1      -8.704  14.375  66.213  1.00  0.00     0.000 HD 
ENDBRANCH  18  19
ENDBRANCH  17  18
ENDBRANCH  16  17
ENDBRANCH  15  16
ENDBRANCH  13  15
ENDBRANCH  10  11
ENDBRANCH   9  10
ENDBRANCH   8   9
ENDBRANCH   7   8
ENDBRANCH   6   7
ENDBRANCH   5   6
ENDBRANCH   4   5
ENDBRANCH   3   4
ENDBRANCH   2   3
TORSDOF 14
ENDMDL
MODEL      358
REMARK 921   NORMALIZED FREE ENERGY PREDICTED BY IDOCK:   -2.91 KCAL/MOL
REMARK 922        TOTAL FREE ENERGY PREDICTED BY IDOCK:   -6.21 KCAL/MOL
REMARK 923 INTER-LIGAND FREE ENERGY PREDICTED BY IDOCK:   -5.56 KCAL/MOL
REMARK 924 INTRA-LIGAND FREE ENERGY PREDICTED BY IDOCK:   -0.65 KCAL/MOL
REMARK 927      BINDING AFFINITY PREDICTED BY RF-SCORE:    0.00 PKD
ROOT
HETATM    1  C   UNK     1      -5.289  17.914  67.250  1.00  0.00    -0.131 C  
HETATM    2  O   UNK     1      -6.368  18.838  67.201  1.00  0.00    -0.185 OA 
ENDROOT
BRANCH   2   3
HETATM    3  C   UNK     1      -7.628  18.176  67.312  1.00  0.00    -0.216 C  
BRANCH   3   4
HETATM    4  C   UNK     1      -7.544  17.125  68.413  1.00  0.00    -0.231 C  
BRANCH   4   5
HETATM    5  O   UNK     1      -8.506  16.102  68.165  1.00  0.00    -0.169 OA 
BRANCH   5   6
HETATM    6  C   UNK     1      -9.790  16.651  67.875  1.00  0.00    -0.248 C  
BRANCH   6   7
HETATM    7  C   UNK     1     -10.509  16.957  69.182  1.00  0.00    -0.335 C  
BRANCH   7   8
HETATM    8  C   UNK     1     -10.562  15.744  70.116  1.00  0.00    -0.334 C  
BRANCH   8   9
HETATM    9  C   UNK     1     -11.939  15.622  70.762  1.00  0.00    -0.438 C  
BRANCH   9  10
HETATM   10  C   UNK     1     -12.389  14.171  70.902  1.00  0.00    -0.438 C  
BRANCH  10  11
HETATM   11  C   UNK     1     -12.000  13.361  69.679  1.00  0.00    -0.324 C  
HETATM   12  O   UNK     1     -12.255  13.703  68.529  1.00  0.00    -0.342 OA 
HETATM   13  N   UNK     1     -11.332  12.197  69.985  1.00  0.00    -0.512 N  
HETATM   14  H   UNK     1     -11.186  11.944  70.963  1.00  0.00     0.000 HD 
BRANCH  13  15
HETATM   15  C   UNK     1     -10.832  11.324  68.941  1.00  0.00    -0.208 C  
BRANCH  15  16
HETATM   16  C   UNK     1     -10.616   9.888  69.424  1.00  0.00    -0.250 C  
BRANCH  16  17
HETATM   17  C   UNK     1     -10.409   9.833  70.937  1.00  0.00    -0.245 C  
BRANCH  17  18
HETATM   18  C   UNK     1      -9.294   8.859  71.343  1.00  0.00    -0.338 C  
BRANCH  18  19
HETATM   19  C   UNK     1      -8.224   8.666  70.257  1.00  0.00    -0.119 C  
HETATM   20  N   UNK     1      -7.715   7.263  70.244  1.00  0.00    -0.093 NA 
HETATM   21  C   UNK     1      -7.037   9.612  70.499  1.00  0.00    -0.132 C  
HETATM   22  O   UNK     1      -7.009  10.795  70.217  1.00  0.00    -0.233 OA 
HETATM   23  O   UNK     1      -6.016   8.962  71.125  1.00  0.00    -0.039 OA 
HETATM   24  H1  UNK     1      -7.006   7.135  69.523  1.00  0.00     0.000 HD 
HETATM   25  H2  UNK     1      -8.475   6.590  70.145  1.00  0.00     0.000 HD 
ENDBRANCH  18  19
ENDBRANCH  17  18
ENDBRANCH  16  17
ENDBRANCH  15  16
ENDBRANCH  13  15
ENDBRANCH  10  11
ENDBRANCH   9  10
ENDBRANCH   8   9
ENDBRANCH   7   8
ENDBRANCH   6   7
ENDBRANCH   5   6
ENDBRANCH   4   5
ENDBRANCH   3   4
ENDBRANCH   2   3
TORSDOF 14
ENDMDL
MODEL      359
REMARK 921   NORMALIZED FREE ENERGY PREDICTED BY IDOCK:   -2.90 KCAL/MOL
REMARK 922        TOTAL FREE ENERGY PREDICTED BY IDOCK:   -6.20 KCAL/MOL
REMARK 923 INTER-LIGAND FREE ENERGY PREDICTED BY IDOCK:   -6.03 KCAL/MOL
REMARK 924 INTRA-LIGAND FREE ENERGY PREDICTED BY IDOCK:   -0.17 KCAL/MOL
REMARK 927      BINDING AFFINITY PREDICTED BY RF-SCORE:    0.00 PKD
ROOT
HETATM    1  C   UNK     1     -11.557  15.967  71.145  1.00  0.00    -0.432 C  
HETATM    2  O   UNK     1     -11.273  16.311  69.796  1.00  0.00    -0.334 OA 
ENDROOT
BRANCH   2   3
HETATM    3  C   UNK     1     -10.136  15.601  69.304  1.00  0.00    -0.258 C  
BRANCH   3   4
HETATM    4  C   UNK     1     -10.597  14.557  68.294  1.00  0.00    -0.241 C  
BRANCH   4   5
HETATM    5  O   UNK     1     -11.973  14.769  67.989  1.00  0.00    -0.316 OA 
BRANCH   5   6
HETATM    6  C   UNK     1     -12.284  14.359  66.659  1.00  0.00    -0.311 C  
BRANCH   6   7
HETATM    7  C   UNK     1     -11.002  14.319  65.837  1.00  0.00    -0.304 C  
BRANCH   7   8
HETATM    8  C   UNK     1     -11.174  13.538  64.530  1.00  0.00    -0.392 C  
BRANCH   8   9
HETATM    9  C   UNK     1     -11.586  12.096  64.815  1.00  0.00    -0.380 C  
BRANCH   9  10
HETATM   10  C   UNK     1     -10.395  11.211  65.171  1.00  0.00    -0.354 C  
BRANCH  10  11
HETATM   11  C   UNK     1     -10.207  11.132  66.675  1.00  0.00    -0.232 C  
HETATM   12  O   UNK     1      -9.112  11.188  67.227  1.00  0.00    -0.148 OA 
HETATM   13  N   UNK     1     -11.389  10.987  67.366  1.00  0.00    -0.288 N  
HETATM   14  H   UNK     1     -12.265  10.905  66.849  1.00  0.00     0.000 HD 
BRANCH  13  15
HETATM   15  C   UNK     1     -11.409  10.951  68.815  1.00  0.00    -0.292 C  
BRANCH  15  16
HETATM   16  C   UNK     1     -10.252  10.139  69.402  1.00  0.00    -0.246 C  
BRANCH  16  17
HETATM   17  C   UNK     1     -10.759   9.030  70.325  1.00  0.00    -0.262 C  
BRANCH  17  18
HETATM   18  C   UNK     1     -10.201   9.151  71.750  1.00  0.00    -0.305 C  
BRANCH  18  19
HETATM   19  C   UNK     1      -8.857   8.432  71.943  1.00  0.00    -0.203 C  
HETATM   20  N   UNK     1      -8.792   7.181  71.132  1.00  0.00    -0.143 NA 
HETATM   21  C   UNK     1      -8.653   8.065  73.422  1.00  0.00    -0.246 C  
HETATM   22  O   UNK     1      -8.289   8.829  74.295  1.00  0.00    -0.213 OA 
HETATM   23  O   UNK     1      -8.982   6.762  73.649  1.00  0.00    -0.130 OA 
HETATM   24  H1  UNK     1      -7.900   6.705  71.260  1.00  0.00     0.000 HD 
HETATM   25  H2  UNK     1      -8.981   7.364  70.146  1.00  0.00     0.000 HD 
ENDBRANCH  18  19
ENDBRANCH  17  18
ENDBRANCH  16  17
ENDBRANCH  15  16
ENDBRANCH  13  15
ENDBRANCH  10  11
ENDBRANCH   9  10
ENDBRANCH   8   9
ENDBRANCH   7   8
ENDBRANCH   6   7
ENDBRANCH   5   6
ENDBRANCH   4   5
ENDBRANCH   3   4
ENDBRANCH   2   3
TORSDOF 14
ENDMDL
MODEL      360
REMARK 921   NORMALIZED FREE ENERGY PREDICTED BY IDOCK:   -2.88 KCAL/MOL
REMARK 922        TOTAL FREE ENERGY PREDICTED BY IDOCK:   -6.16 KCAL/MOL
REMARK 923 INTER-LIGAND FREE ENERGY PREDICTED BY IDOCK:   -5.45 KCAL/MOL
REMARK 924 INTRA-LIGAND FREE ENERGY PREDICTED BY IDOCK:   -0.72 KCAL/MOL
REMARK 927      BINDING AFFINITY PREDICTED BY RF-SCORE:    0.00 PKD
ROOT
HETATM    1  C   UNK     1      -7.446   2.636  70.138  1.00  0.00    -0.043 C  
HETATM    2  O   UNK     1      -6.177   2.876  70.729  1.00  0.00    -0.018 OA 
ENDROOT
BRANCH   2   3
HETATM    3  C   UNK     1      -6.259   2.893  72.155  1.00  0.00    -0.014 C  
BRANCH   3   4
HETATM    4  C   UNK     1      -7.725   2.937  72.570  1.00  0.00    -0.054 C  
BRANCH   4   5
HETATM    5  O   UNK     1      -7.919   3.991  73.510  1.00  0.00    -0.086 OA 
BRANCH   5   6
HETATM    6  C   UNK     1      -7.516   5.250  72.975  1.00  0.00    -0.096 C  
BRANCH   6   7
HETATM    7  C   UNK     1      -8.662   5.838  72.163  1.00  0.00    -0.133 C  
BRANCH   7   8
HETATM    8  C   UNK     1      -8.597   7.367  72.087  1.00  0.00    -0.129 C  
BRANCH   8   9
HETATM    9  C   UNK     1      -9.522   7.996  73.126  1.00  0.00    -0.349 C  
BRANCH   9  10
HETATM   10  C   UNK     1     -10.985   7.620  72.904  1.00  0.00    -0.456 C  
BRANCH  10  11
HETATM   11  C   UNK     1     -11.498   8.186  71.593  1.00  0.00    -0.274 C  
HETATM   12  O   UNK     1     -11.876   7.491  70.655  1.00  0.00    -0.267 OA 
HETATM   13  N   UNK     1     -11.498   9.562  71.555  1.00  0.00    -0.391 N  
HETATM   14  H   UNK     1     -11.133  10.086  72.351  1.00  0.00     0.000 HD 
BRANCH  13  15
HETATM   15  C   UNK     1     -12.008  10.279  70.403  1.00  0.00    -0.303 C  
BRANCH  15  16
HETATM   16  C   UNK     1     -10.912  11.023  69.636  1.00  0.00    -0.286 C  
BRANCH  16  17
HETATM   17  C   UNK     1     -11.417  12.360  69.095  1.00  0.00    -0.358 C  
BRANCH  17  18
HETATM   18  C   UNK     1     -11.446  12.400  67.560  1.00  0.00    -0.410 C  
BRANCH  18  19
HETATM   19  C   UNK     1     -11.467  13.824  66.985  1.00  0.00    -0.346 C  
HETATM   20  N   UNK     1     -12.659  14.036  66.112  1.00  0.00    -0.464 NA 
HETATM   21  C   UNK     1     -10.202  14.086  66.154  1.00  0.00    -0.302 C  
HETATM   22  O   UNK     1      -9.106  14.361  66.604  1.00  0.00    -0.260 OA 
HETATM   23  O   UNK     1     -10.451  13.924  64.824  1.00  0.00    -0.408 OA 
HETATM   24  H1  UNK     1     -12.674  14.981  65.731  1.00  0.00     0.000 HD 
HETATM   25  H2  UNK     1     -13.527  13.816  66.603  1.00  0.00     0.000 HD 
ENDBRANCH  18  19
ENDBRANCH  17  18
ENDBRANCH  16  17
ENDBRANCH  15  16
ENDBRANCH  13  15
ENDBRANCH  10  11
ENDBRANCH   9  10
ENDBRANCH   8   9
ENDBRANCH   7   8
ENDBRANCH   6   7
ENDBRANCH   5   6
ENDBRANCH   4   5
ENDBRANCH   3   4
ENDBRANCH   2   3
TORSDOF 14
ENDMDL
MODEL      361
REMARK 921   NORMALIZED FREE ENERGY PREDICTED BY IDOCK:   -2.88 KCAL/MOL
REMARK 922        TOTAL FREE ENERGY PREDICTED BY IDOCK:   -6.16 KCAL/MOL
REMARK 923 INTER-LIGAND FREE ENERGY PREDICTED BY IDOCK:   -5.55 KCAL/MOL
REMARK 924 INTRA-LIGAND FREE ENERGY PREDICTED BY IDOCK:   -0.61 KCAL/MOL
REMARK 927      BINDING AFFINITY PREDICTED BY RF-SCORE:    0.00 PKD
ROOT
HETATM    1  C   UNK     1      -6.989  14.815  69.384  1.00  0.00    -0.167 C  
HETATM    2  O   UNK     1      -7.256  15.468  68.152  1.00  0.00    -0.108 OA 
ENDROOT
BRANCH   2   3
HETATM    3  C   UNK     1      -7.984  16.681  68.351  1.00  0.00    -0.205 C  
BRANCH   3   4
HETATM    4  C   UNK     1      -9.218  16.390  69.196  1.00  0.00    -0.216 C  
BRANCH   4   5
HETATM    5  O   UNK     1     -10.331  17.110  68.671  1.00  0.00    -0.315 OA 
BRANCH   5   6
HETATM    6  C   UNK     1     -11.523  16.326  68.701  1.00  0.00    -0.288 C  
BRANCH   6   7
HETATM    7  C   UNK     1     -11.231  15.000  69.390  1.00  0.00    -0.299 C  
BRANCH   7   8
HETATM    8  C   UNK     1     -11.940  13.823  68.711  1.00  0.00    -0.400 C  
BRANCH   8   9
HETATM    9  C   UNK     1     -12.042  14.053  67.206  1.00  0.00    -0.405 C  
BRANCH   9  10
HETATM   10  C   UNK     1     -10.774  13.632  66.468  1.00  0.00    -0.284 C  
BRANCH  10  11
HETATM   11  C   UNK     1     -10.186  12.371  67.074  1.00  0.00    -0.220 C  
HETATM   12  O   UNK     1      -9.067  12.317  67.576  1.00  0.00    -0.170 OA 
HETATM   13  N   UNK     1     -11.031  11.286  67.005  1.00  0.00    -0.284 N  
HETATM   14  H   UNK     1     -11.933  11.382  66.537  1.00  0.00     0.000 HD 
BRANCH  13  15
HETATM   15  C   UNK     1     -10.659  10.011  67.584  1.00  0.00    -0.270 C  
BRANCH  15  16
HETATM   16  C   UNK     1     -10.897   9.957  69.095  1.00  0.00    -0.248 C  
BRANCH  16  17
HETATM   17  C   UNK     1     -10.978   8.515  69.597  1.00  0.00    -0.093 C  
BRANCH  17  18
HETATM   18  C   UNK     1     -10.117   8.278  70.847  1.00  0.00    -0.224 C  
BRANCH  18  19
HETATM   19  C   UNK     1     -10.083   6.810  71.297  1.00  0.00    -0.187 C  
HETATM   20  N   UNK     1     -10.560   5.902  70.213  1.00  0.00    -0.261 NA 
HETATM   21  C   UNK     1     -10.975   6.606  72.531  1.00  0.00    -0.247 C  
HETATM   22  O   UNK     1     -10.672   6.889  73.675  1.00  0.00    -0.343 OA 
HETATM   23  O   UNK     1     -12.190   6.102  72.176  1.00  0.00    -0.319 OA 
HETATM   24  H1  UNK     1     -10.537   4.927  70.511  1.00  0.00     0.000 HD 
HETATM   25  H2  UNK     1     -10.036   6.042  69.349  1.00  0.00     0.000 HD 
ENDBRANCH  18  19
ENDBRANCH  17  18
ENDBRANCH  16  17
ENDBRANCH  15  16
ENDBRANCH  13  15
ENDBRANCH  10  11
ENDBRANCH   9  10
ENDBRANCH   8   9
ENDBRANCH   7   8
ENDBRANCH   6   7
ENDBRANCH   5   6
ENDBRANCH   4   5
ENDBRANCH   3   4
ENDBRANCH   2   3
TORSDOF 14
ENDMDL
MODEL      362
REMARK 921   NORMALIZED FREE ENERGY PREDICTED BY IDOCK:   -2.87 KCAL/MOL
REMARK 922        TOTAL FREE ENERGY PREDICTED BY IDOCK:   -6.15 KCAL/MOL
REMARK 923 INTER-LIGAND FREE ENERGY PREDICTED BY IDOCK:   -5.43 KCAL/MOL
REMARK 924 INTRA-LIGAND FREE ENERGY PREDICTED BY IDOCK:   -0.72 KCAL/MOL
REMARK 927      BINDING AFFINITY PREDICTED BY RF-SCORE:    0.00 PKD
ROOT
HETATM    1  C   UNK     1      -7.428   3.650  69.982  1.00  0.00    -0.045 C  
HETATM    2  O   UNK     1      -6.911   4.144  68.755  1.00  0.00    -0.045 OA 
ENDROOT
BRANCH   2   3
HETATM    3  C   UNK     1      -6.487   3.081  67.901  1.00  0.00    -0.036 C  
BRANCH   3   4
HETATM    4  C   UNK     1      -6.606   3.529  66.449  1.00  0.00    -0.041 C  
BRANCH   4   5
HETATM    5  O   UNK     1      -7.508   4.630  66.366  1.00  0.00    -0.080 OA 
BRANCH   5   6
HETATM    6  C   UNK     1      -8.706   4.275  65.679  1.00  0.00    -0.120 C  
BRANCH   6   7
HETATM    7  C   UNK     1      -9.819   4.057  66.695  1.00  0.00    -0.169 C  
BRANCH   7   8
HETATM    8  C   UNK     1     -10.418   5.377  67.194  1.00  0.00    -0.298 C  
BRANCH   8   9
HETATM    9  C   UNK     1     -10.160   5.554  68.687  1.00  0.00    -0.246 C  
BRANCH   9  10
HETATM   10  C   UNK     1     -11.145   6.523  69.336  1.00  0.00    -0.407 C  
BRANCH  10  11
HETATM   11  C   UNK     1     -10.497   7.874  69.578  1.00  0.00    -0.226 C  
HETATM   12  O   UNK     1      -9.288   8.033  69.717  1.00  0.00    -0.158 OA 
HETATM   13  N   UNK     1     -11.401   8.911  69.630  1.00  0.00    -0.431 N  
HETATM   14  H   UNK     1     -12.398   8.712  69.549  1.00  0.00     0.000 HD 
BRANCH  13  15
HETATM   15  C   UNK     1     -10.959  10.282  69.797  1.00  0.00    -0.289 C  
BRANCH  15  16
HETATM   16  C   UNK     1     -10.780  11.012  68.464  1.00  0.00    -0.236 C  
BRANCH  16  17
HETATM   17  C   UNK     1     -11.382  12.416  68.510  1.00  0.00    -0.336 C  
BRANCH  17  18
HETATM   18  C   UNK     1     -11.921  12.778  69.901  1.00  0.00    -0.368 C  
BRANCH  18  19
HETATM   19  C   UNK     1     -12.511  14.195  69.979  1.00  0.00    -0.296 C  
HETATM   20  N   UNK     1     -12.163  14.992  68.766  1.00  0.00    -0.597 NA 
HETATM   21  C   UNK     1     -11.976  14.932  71.216  1.00  0.00    -0.340 C  
HETATM   22  O   UNK     1     -12.374  14.780  72.355  1.00  0.00    -0.340 OA 
HETATM   23  O   UNK     1     -10.946  15.759  70.882  1.00  0.00    -0.327 OA 
HETATM   24  H1  UNK     1     -12.555  15.932  68.817  1.00  0.00     0.000 HD 
HETATM   25  H2  UNK     1     -12.446  14.514  67.910  1.00  0.00     0.000 HD 
ENDBRANCH  18  19
ENDBRANCH  17  18
ENDBRANCH  16  17
ENDBRANCH  15  16
ENDBRANCH  13  15
ENDBRANCH  10  11
ENDBRANCH   9  10
ENDBRANCH   8   9
ENDBRANCH   7   8
ENDBRANCH   6   7
ENDBRANCH   5   6
ENDBRANCH   4   5
ENDBRANCH   3   4
ENDBRANCH   2   3
TORSDOF 14
ENDMDL
MODEL      363
REMARK 921   NORMALIZED FREE ENERGY PREDICTED BY IDOCK:   -2.87 KCAL/MOL
REMARK 922        TOTAL FREE ENERGY PREDICTED BY IDOCK:   -6.14 KCAL/MOL
REMARK 923 INTER-LIGAND FREE ENERGY PREDICTED BY IDOCK:   -4.69 KCAL/MOL
REMARK 924 INTRA-LIGAND FREE ENERGY PREDICTED BY IDOCK:   -1.45 KCAL/MOL
REMARK 927      BINDING AFFINITY PREDICTED BY RF-SCORE:    0.00 PKD
ROOT
HETATM    1  C   UNK     1     -11.367   8.110  72.079  1.00  0.00    -0.316 C  
HETATM    2  O   UNK     1     -11.288   6.929  72.863  1.00  0.00    -0.245 OA 
ENDROOT
BRANCH   2   3
HETATM    3  C   UNK     1     -10.653   5.869  72.148  1.00  0.00    -0.219 C  
BRANCH   3   4
HETATM    4  C   UNK     1      -9.144   5.976  72.333  1.00  0.00    -0.136 C  
BRANCH   4   5
HETATM    5  O   UNK     1      -8.508   5.959  71.056  1.00  0.00    -0.121 OA 
BRANCH   5   6
HETATM    6  C   UNK     1      -7.702   7.118  70.858  1.00  0.00    -0.094 C  
BRANCH   6   7
HETATM    7  C   UNK     1      -8.437   8.087  69.940  1.00  0.00    -0.126 C  
BRANCH   7   8
HETATM    8  C   UNK     1      -9.364   7.366  68.955  1.00  0.00    -0.145 C  
BRANCH   8   9
HETATM    9  C   UNK     1     -10.302   8.359  68.276  1.00  0.00    -0.244 C  
BRANCH   9  10
HETATM   10  C   UNK     1     -10.322   8.194  66.758  1.00  0.00    -0.361 C  
BRANCH  10  11
HETATM   11  C   UNK     1      -9.663   9.377  66.074  1.00  0.00    -0.275 C  
HETATM   12  O   UNK     1     -10.253  10.134  65.308  1.00  0.00    -0.304 OA 
HETATM   13  N   UNK     1      -8.332   9.521  66.394  1.00  0.00    -0.118 N  
HETATM   14  H   UNK     1      -7.886   8.835  67.004  1.00  0.00     0.000 HD 
BRANCH  13  15
HETATM   15  C   UNK     1      -7.554  10.630  65.878  1.00  0.00    -0.138 C  
BRANCH  15  16
HETATM   16  C   UNK     1      -6.910  11.466  66.987  1.00  0.00    -0.137 C  
BRANCH  16  17
HETATM   17  C   UNK     1      -7.964  12.091  67.900  1.00  0.00    -0.147 C  
BRANCH  17  18
HETATM   18  C   UNK     1      -8.927  13.016  67.140  1.00  0.00    -0.223 C  
BRANCH  18  19
HETATM   19  C   UNK     1     -10.345  13.041  67.730  1.00  0.00    -0.226 C  
HETATM   20  N   UNK     1     -11.362  12.662  66.706  1.00  0.00    -0.301 NA 
HETATM   21  C   UNK     1     -10.683  14.445  68.255  1.00  0.00    -0.242 C  
HETATM   22  O   UNK     1     -10.310  14.910  69.315  1.00  0.00    -0.237 OA 
HETATM   23  O   UNK     1     -11.427  15.138  67.347  1.00  0.00    -0.332 OA 
HETATM   24  H1  UNK     1     -12.303  12.678  67.097  1.00  0.00     0.000 HD 
HETATM   25  H2  UNK     1     -11.148  11.758  66.282  1.00  0.00     0.000 HD 
ENDBRANCH  18  19
ENDBRANCH  17  18
ENDBRANCH  16  17
ENDBRANCH  15  16
ENDBRANCH  13  15
ENDBRANCH  10  11
ENDBRANCH   9  10
ENDBRANCH   8   9
ENDBRANCH   7   8
ENDBRANCH   6   7
ENDBRANCH   5   6
ENDBRANCH   4   5
ENDBRANCH   3   4
ENDBRANCH   2   3
TORSDOF 14
ENDMDL
MODEL      364
REMARK 921   NORMALIZED FREE ENERGY PREDICTED BY IDOCK:   -2.86 KCAL/MOL
REMARK 922        TOTAL FREE ENERGY PREDICTED BY IDOCK:   -6.14 KCAL/MOL
REMARK 923 INTER-LIGAND FREE ENERGY PREDICTED BY IDOCK:   -4.69 KCAL/MOL
REMARK 924 INTRA-LIGAND FREE ENERGY PREDICTED BY IDOCK:   -1.44 KCAL/MOL
REMARK 927      BINDING AFFINITY PREDICTED BY RF-SCORE:    0.00 PKD
ROOT
HETATM    1  C   UNK     1     -13.056  10.339  70.615  1.00  0.00    -0.226 C  
HETATM    2  O   UNK     1     -12.278  10.187  71.793  1.00  0.00    -0.374 OA 
ENDROOT
BRANCH   2   3
HETATM    3  C   UNK     1     -12.436   8.886  72.359  1.00  0.00    -0.335 C  
BRANCH   3   4
HETATM    4  C   UNK     1     -13.271   8.029  71.416  1.00  0.00    -0.227 C  
BRANCH   4   5
HETATM    5  O   UNK     1     -12.715   6.717  71.352  1.00  0.00    -0.346 OA 
BRANCH   5   6
HETATM    6  C   UNK     1     -11.303   6.737  71.545  1.00  0.00    -0.275 C  
BRANCH   6   7
HETATM    7  C   UNK     1     -10.837   5.347  71.960  1.00  0.00    -0.266 C  
BRANCH   7   8
HETATM    8  C   UNK     1     -10.797   5.178  73.483  1.00  0.00    -0.360 C  
BRANCH   8   9
HETATM    9  C   UNK     1     -10.398   6.487  74.159  1.00  0.00    -0.351 C  
BRANCH   9  10
HETATM   10  C   UNK     1      -8.909   6.540  74.488  1.00  0.00    -0.187 C  
BRANCH  10  11
HETATM   11  C   UNK     1      -8.209   7.609  73.668  1.00  0.00    -0.173 C  
HETATM   12  O   UNK     1      -8.094   8.775  74.030  1.00  0.00    -0.366 OA 
HETATM   13  N   UNK     1      -7.716   7.143  72.470  1.00  0.00    -0.088 N  
HETATM   14  H   UNK     1      -7.880   6.171  72.204  1.00  0.00     0.000 HD 
BRANCH  13  15
HETATM   15  C   UNK     1      -6.969   8.009  71.581  1.00  0.00    -0.066 C  
BRANCH  15  16
HETATM   16  C   UNK     1      -6.720   7.376  70.209  1.00  0.00    -0.047 C  
BRANCH  16  17
HETATM   17  C   UNK     1      -7.908   6.525  69.763  1.00  0.00    -0.115 C  
BRANCH  17  18
HETATM   18  C   UNK     1      -8.598   7.089  68.513  1.00  0.00    -0.123 C  
BRANCH  18  19
HETATM   19  C   UNK     1      -8.702   8.622  68.509  1.00  0.00    -0.139 C  
HETATM   20  N   UNK     1      -9.836   9.088  69.359  1.00  0.00    -0.178 NA 
HETATM   21  C   UNK     1      -8.918   9.142  67.079  1.00  0.00    -0.123 C  
HETATM   22  O   UNK     1      -8.051   9.269  66.236  1.00  0.00    -0.106 OA 
HETATM   23  O   UNK     1     -10.236   9.403  66.851  1.00  0.00    -0.224 OA 
HETATM   24  H1  UNK     1      -9.904  10.105  69.357  1.00  0.00     0.000 HD 
HETATM   25  H2  UNK     1      -9.770   8.719  70.308  1.00  0.00     0.000 HD 
ENDBRANCH  18  19
ENDBRANCH  17  18
ENDBRANCH  16  17
ENDBRANCH  15  16
ENDBRANCH  13  15
ENDBRANCH  10  11
ENDBRANCH   9  10
ENDBRANCH   8   9
ENDBRANCH   7   8
ENDBRANCH   6   7
ENDBRANCH   5   6
ENDBRANCH   4   5
ENDBRANCH   3   4
ENDBRANCH   2   3
TORSDOF 14
ENDMDL
MODEL      365
REMARK 921   NORMALIZED FREE ENERGY PREDICTED BY IDOCK:   -2.86 KCAL/MOL
REMARK 922        TOTAL FREE ENERGY PREDICTED BY IDOCK:   -6.14 KCAL/MOL
REMARK 923 INTER-LIGAND FREE ENERGY PREDICTED BY IDOCK:   -5.05 KCAL/MOL
REMARK 924 INTRA-LIGAND FREE ENERGY PREDICTED BY IDOCK:   -1.09 KCAL/MOL
REMARK 927      BINDING AFFINITY PREDICTED BY RF-SCORE:    0.00 PKD
ROOT
HETATM    1  C   UNK     1     -10.163   8.201  66.957  1.00  0.00    -0.308 C  
HETATM    2  O   UNK     1      -8.774   7.957  67.132  1.00  0.00    -0.128 OA 
ENDROOT
BRANCH   2   3
HETATM    3  C   UNK     1      -8.299   6.967  66.219  1.00  0.00    -0.129 C  
BRANCH   3   4
HETATM    4  C   UNK     1      -6.867   7.303  65.821  1.00  0.00    -0.056 C  
BRANCH   4   5
HETATM    5  O   UNK     1      -6.800   7.488  64.409  1.00  0.00    -0.052 OA 
BRANCH   5   6
HETATM    6  C   UNK     1      -7.933   8.202  63.920  1.00  0.00    -0.138 C  
BRANCH   6   7
HETATM    7  C   UNK     1      -7.558   9.667  63.737  1.00  0.00    -0.126 C  
BRANCH   7   8
HETATM    8  C   UNK     1      -8.281  10.581  64.732  1.00  0.00    -0.100 C  
BRANCH   8   9
HETATM    9  C   UNK     1      -9.453  11.289  64.058  1.00  0.00    -0.202 C  
BRANCH   9  10
HETATM   10  C   UNK     1     -10.786  10.971  64.730  1.00  0.00    -0.234 C  
BRANCH  10  11
HETATM   11  C   UNK     1     -11.266  12.144  65.566  1.00  0.00    -0.334 C  
HETATM   12  O   UNK     1     -11.953  13.058  65.122  1.00  0.00    -0.354 OA 
HETATM   13  N   UNK     1     -10.852  12.084  66.878  1.00  0.00    -0.247 N  
HETATM   14  H   UNK     1     -10.247  11.320  67.178  1.00  0.00     0.000 HD 
BRANCH  13  15
HETATM   15  C   UNK     1     -11.263  13.089  67.838  1.00  0.00    -0.271 C  
BRANCH  15  16
HETATM   16  C   UNK     1     -11.680  12.487  69.182  1.00  0.00    -0.375 C  
BRANCH  16  17
HETATM   17  C   UNK     1     -11.411  10.983  69.228  1.00  0.00    -0.370 C  
BRANCH  17  18
HETATM   18  C   UNK     1     -11.653  10.385  70.622  1.00  0.00    -0.440 C  
BRANCH  18  19
HETATM   19  C   UNK     1     -10.410   9.712  71.223  1.00  0.00    -0.084 C  
HETATM   20  N   UNK     1      -9.332   9.558  70.202  1.00  0.00    -0.232 NA 
HETATM   21  C   UNK     1     -10.765   8.321  71.770  1.00  0.00    -0.266 C  
HETATM   22  O   UNK     1     -11.311   8.099  72.834  1.00  0.00    -0.387 OA 
HETATM   23  O   UNK     1     -10.428   7.347  70.878  1.00  0.00    -0.215 OA 
HETATM   24  H1  UNK     1      -8.507   9.112  70.601  1.00  0.00     0.000 HD 
HETATM   25  H2  UNK     1      -9.101  10.450  69.763  1.00  0.00     0.000 HD 
ENDBRANCH  18  19
ENDBRANCH  17  18
ENDBRANCH  16  17
ENDBRANCH  15  16
ENDBRANCH  13  15
ENDBRANCH  10  11
ENDBRANCH   9  10
ENDBRANCH   8   9
ENDBRANCH   7   8
ENDBRANCH   6   7
ENDBRANCH   5   6
ENDBRANCH   4   5
ENDBRANCH   3   4
ENDBRANCH   2   3
TORSDOF 14
ENDMDL
MODEL      366
REMARK 921   NORMALIZED FREE ENERGY PREDICTED BY IDOCK:   -2.85 KCAL/MOL
REMARK 922        TOTAL FREE ENERGY PREDICTED BY IDOCK:   -6.12 KCAL/MOL
REMARK 923 INTER-LIGAND FREE ENERGY PREDICTED BY IDOCK:   -5.17 KCAL/MOL
REMARK 924 INTRA-LIGAND FREE ENERGY PREDICTED BY IDOCK:   -0.95 KCAL/MOL
REMARK 927      BINDING AFFINITY PREDICTED BY RF-SCORE:    0.00 PKD
ROOT
HETATM    1  C   UNK     1      -8.429   4.247  70.404  1.00  0.00    -0.073 C  
HETATM    2  O   UNK     1      -7.837   4.156  71.692  1.00  0.00    -0.067 OA 
ENDROOT
BRANCH   2   3
HETATM    3  C   UNK     1      -8.808   4.322  72.726  1.00  0.00    -0.104 C  
BRANCH   3   4
HETATM    4  C   UNK     1     -10.201   4.329  72.107  1.00  0.00    -0.164 C  
BRANCH   4   5
HETATM    5  O   UNK     1     -11.101   5.012  72.976  1.00  0.00    -0.266 OA 
BRANCH   5   6
HETATM    6  C   UNK     1     -11.545   6.242  72.407  1.00  0.00    -0.282 C  
BRANCH   6   7
HETATM    7  C   UNK     1     -10.946   7.401  73.193  1.00  0.00    -0.408 C  
BRANCH   7   8
HETATM    8  C   UNK     1     -10.424   8.516  72.280  1.00  0.00    -0.402 C  
BRANCH   8   9
HETATM    9  C   UNK     1      -9.753   7.927  71.043  1.00  0.00    -0.178 C  
BRANCH   9  10
HETATM   10  C   UNK     1      -8.236   8.096  71.070  1.00  0.00    -0.114 C  
BRANCH  10  11
HETATM   11  C   UNK     1      -7.825   9.415  70.442  1.00  0.00    -0.164 C  
HETATM   12  O   UNK     1      -6.911  10.114  70.868  1.00  0.00    -0.338 OA 
HETATM   13  N   UNK     1      -8.581   9.756  69.344  1.00  0.00    -0.151 N  
HETATM   14  H   UNK     1      -9.355   9.154  69.062  1.00  0.00     0.000 HD 
BRANCH  13  15
HETATM   15  C   UNK     1      -8.295  10.955  68.581  1.00  0.00    -0.148 C  
BRANCH  15  16
HETATM   16  C   UNK     1      -9.562  11.648  68.073  1.00  0.00    -0.184 C  
BRANCH  16  17
HETATM   17  C   UNK     1      -9.305  12.390  66.762  1.00  0.00    -0.220 C  
BRANCH  17  18
HETATM   18  C   UNK     1     -10.066  13.721  66.680  1.00  0.00    -0.277 C  
BRANCH  18  19
HETATM   19  C   UNK     1     -10.936  14.005  67.914  1.00  0.00    -0.247 C  
HETATM   20  N   UNK     1     -12.378  14.120  67.543  1.00  0.00    -0.560 NA 
HETATM   21  C   UNK     1     -10.501  15.316  68.588  1.00  0.00    -0.235 C  
HETATM   22  O   UNK     1      -9.541  15.446  69.323  1.00  0.00    -0.235 OA 
HETATM   23  O   UNK     1     -11.311  16.347  68.215  1.00  0.00    -0.350 OA 
HETATM   24  H1  UNK     1     -12.955  14.308  68.362  1.00  0.00     0.000 HD 
HETATM   25  H2  UNK     1     -12.701  13.295  67.037  1.00  0.00     0.000 HD 
ENDBRANCH  18  19
ENDBRANCH  17  18
ENDBRANCH  16  17
ENDBRANCH  15  16
ENDBRANCH  13  15
ENDBRANCH  10  11
ENDBRANCH   9  10
ENDBRANCH   8   9
ENDBRANCH   7   8
ENDBRANCH   6   7
ENDBRANCH   5   6
ENDBRANCH   4   5
ENDBRANCH   3   4
ENDBRANCH   2   3
TORSDOF 14
ENDMDL
MODEL      367
REMARK 921   NORMALIZED FREE ENERGY PREDICTED BY IDOCK:   -2.85 KCAL/MOL
REMARK 922        TOTAL FREE ENERGY PREDICTED BY IDOCK:   -6.11 KCAL/MOL
REMARK 923 INTER-LIGAND FREE ENERGY PREDICTED BY IDOCK:   -5.35 KCAL/MOL
REMARK 924 INTRA-LIGAND FREE ENERGY PREDICTED BY IDOCK:   -0.77 KCAL/MOL
REMARK 927      BINDING AFFINITY PREDICTED BY RF-SCORE:    0.00 PKD
ROOT
HETATM    1  C   UNK     1     -10.488   7.556  67.332  1.00  0.00    -0.297 C  
HETATM    2  O   UNK     1      -9.315   6.803  67.058  1.00  0.00    -0.133 OA 
ENDROOT
BRANCH   2   3
HETATM    3  C   UNK     1      -8.656   7.270  65.881  1.00  0.00    -0.149 C  
BRANCH   3   4
HETATM    4  C   UNK     1      -7.159   7.360  66.148  1.00  0.00    -0.069 C  
BRANCH   4   5
HETATM    5  O   UNK     1      -6.589   8.368  65.317  1.00  0.00    -0.055 OA 
BRANCH   5   6
HETATM    6  C   UNK     1      -7.445   9.504  65.210  1.00  0.00    -0.107 C  
BRANCH   6   7
HETATM    7  C   UNK     1      -6.909  10.619  66.097  1.00  0.00    -0.135 C  
BRANCH   7   8
HETATM    8  C   UNK     1      -7.894  11.007  67.205  1.00  0.00    -0.122 C  
BRANCH   8   9
HETATM    9  C   UNK     1      -8.708  12.231  66.796  1.00  0.00    -0.175 C  
BRANCH   9  10
HETATM   10  C   UNK     1     -10.199  11.924  66.683  1.00  0.00    -0.236 C  
BRANCH  10  11
HETATM   11  C   UNK     1     -10.950  12.420  67.905  1.00  0.00    -0.228 C  
HETATM   12  O   UNK     1     -11.196  11.720  68.882  1.00  0.00    -0.216 OA 
HETATM   13  N   UNK     1     -11.333  13.740  67.812  1.00  0.00    -0.288 N  
HETATM   14  H   UNK     1     -11.136  14.260  66.957  1.00  0.00     0.000 HD 
BRANCH  13  15
HETATM   15  C   UNK     1     -12.011  14.401  68.910  1.00  0.00    -0.302 C  
BRANCH  15  16
HETATM   16  C   UNK     1     -11.593  15.865  69.066  1.00  0.00    -0.392 C  
BRANCH  16  17
HETATM   17  C   UNK     1     -10.600  16.282  67.981  1.00  0.00    -0.308 C  
BRANCH  17  18
HETATM   18  C   UNK     1     -10.650  17.788  67.686  1.00  0.00    -0.385 C  
BRANCH  18  19
HETATM   19  C   UNK     1      -9.848  18.194  66.440  1.00  0.00    -0.353 C  
HETATM   20  N   UNK     1      -9.177  17.013  65.821  1.00  0.00    -0.521 NA 
HETATM   21  C   UNK     1      -8.771  19.227  66.809  1.00  0.00    -0.313 C  
HETATM   22  O   UNK     1      -8.965  20.415  66.984  1.00  0.00    -0.341 OA 
HETATM   23  O   UNK     1      -7.556  18.630  66.965  1.00  0.00    -0.220 OA 
HETATM   24  H1  UNK     1      -8.645  17.282  64.994  1.00  0.00     0.000 HD 
HETATM   25  H2  UNK     1      -9.844  16.270  65.612  1.00  0.00     0.000 HD 
ENDBRANCH  18  19
ENDBRANCH  17  18
ENDBRANCH  16  17
ENDBRANCH  15  16
ENDBRANCH  13  15
ENDBRANCH  10  11
ENDBRANCH   9  10
ENDBRANCH   8   9
ENDBRANCH   7   8
ENDBRANCH   6   7
ENDBRANCH   5   6
ENDBRANCH   4   5
ENDBRANCH   3   4
ENDBRANCH   2   3
TORSDOF 14
ENDMDL
MODEL      368
REMARK 921   NORMALIZED FREE ENERGY PREDICTED BY IDOCK:   -2.85 KCAL/MOL
REMARK 922        TOTAL FREE ENERGY PREDICTED BY IDOCK:   -6.11 KCAL/MOL
REMARK 923 INTER-LIGAND FREE ENERGY PREDICTED BY IDOCK:   -5.33 KCAL/MOL
REMARK 924 INTRA-LIGAND FREE ENERGY PREDICTED BY IDOCK:   -0.78 KCAL/MOL
REMARK 927      BINDING AFFINITY PREDICTED BY RF-SCORE:    0.00 PKD
ROOT
HETATM    1  C   UNK     1      -8.056  15.326  68.232  1.00  0.00    -0.137 C  
HETATM    2  O   UNK     1      -8.239  14.760  66.942  1.00  0.00    -0.203 OA 
ENDROOT
BRANCH   2   3
HETATM    3  C   UNK     1      -9.498  15.133  66.382  1.00  0.00    -0.296 C  
BRANCH   3   4
HETATM    4  C   UNK     1     -10.582  14.214  66.934  1.00  0.00    -0.280 C  
BRANCH   4   5
HETATM    5  O   UNK     1     -11.635  14.098  65.980  1.00  0.00    -0.340 OA 
BRANCH   5   6
HETATM    6  C   UNK     1     -11.964  12.734  65.727  1.00  0.00    -0.449 C  
BRANCH   6   7
HETATM    7  C   UNK     1     -10.963  11.837  66.444  1.00  0.00    -0.341 C  
BRANCH   7   8
HETATM    8  C   UNK     1     -10.367  10.772  65.517  1.00  0.00    -0.308 C  
BRANCH   8   9
HETATM    9  C   UNK     1     -10.140  11.343  64.120  1.00  0.00    -0.358 C  
BRANCH   9  10
HETATM   10  C   UNK     1      -9.723  10.272  63.116  1.00  0.00    -0.220 C  
BRANCH  10  11
HETATM   11  C   UNK     1      -8.391   9.655  63.501  1.00  0.00    -0.172 C  
HETATM   12  O   UNK     1      -7.335  10.280  63.526  1.00  0.00    -0.141 OA 
HETATM   13  N   UNK     1      -8.479   8.319  63.819  1.00  0.00    -0.397 N  
HETATM   14  H   UNK     1      -9.378   7.843  63.739  1.00  0.00     0.000 HD 
BRANCH  13  15
HETATM   15  C   UNK     1      -7.316   7.577  64.266  1.00  0.00    -0.090 C  
BRANCH  15  16
HETATM   16  C   UNK     1      -7.078   7.704  65.773  1.00  0.00    -0.061 C  
BRANCH  16  17
HETATM   17  C   UNK     1      -8.201   7.046  66.574  1.00  0.00    -0.114 C  
BRANCH  17  18
HETATM   18  C   UNK     1      -8.138   5.513  66.525  1.00  0.00    -0.105 C  
BRANCH  18  19
HETATM   19  C   UNK     1      -9.521   4.844  66.516  1.00  0.00    -0.152 C  
HETATM   20  N   UNK     1     -10.149   4.919  65.165  1.00  0.00    -0.397 NA 
HETATM   21  C   UNK     1     -10.455   5.530  67.526  1.00  0.00    -0.204 C  
HETATM   22  O   UNK     1     -10.451   5.345  68.728  1.00  0.00    -0.197 OA 
HETATM   23  O   UNK     1     -11.273   6.424  66.903  1.00  0.00    -0.368 OA 
HETATM   24  H1  UNK     1     -11.067   4.475  65.159  1.00  0.00     0.000 HD 
HETATM   25  H2  UNK     1      -9.539   4.529  64.446  1.00  0.00     0.000 HD 
ENDBRANCH  18  19
ENDBRANCH  17  18
ENDBRANCH  16  17
ENDBRANCH  15  16
ENDBRANCH  13  15
ENDBRANCH  10  11
ENDBRANCH   9  10
ENDBRANCH   8   9
ENDBRANCH   7   8
ENDBRANCH   6   7
ENDBRANCH   5   6
ENDBRANCH   4   5
ENDBRANCH   3   4
ENDBRANCH   2   3
TORSDOF 14
ENDMDL
MODEL      369
REMARK 921   NORMALIZED FREE ENERGY PREDICTED BY IDOCK:   -2.84 KCAL/MOL
REMARK 922        TOTAL FREE ENERGY PREDICTED BY IDOCK:   -6.09 KCAL/MOL
REMARK 923 INTER-LIGAND FREE ENERGY PREDICTED BY IDOCK:   -5.52 KCAL/MOL
REMARK 924 INTRA-LIGAND FREE ENERGY PREDICTED BY IDOCK:   -0.56 KCAL/MOL
REMARK 927      BINDING AFFINITY PREDICTED BY RF-SCORE:    0.00 PKD
ROOT
HETATM    1  C   UNK     1     -12.922   8.967  72.447  1.00  0.00    -0.404 C  
HETATM    2  O   UNK     1     -12.549   8.278  71.262  1.00  0.00    -0.296 OA 
ENDROOT
BRANCH   2   3
HETATM    3  C   UNK     1     -11.332   7.553  71.441  1.00  0.00    -0.258 C  
BRANCH   3   4
HETATM    4  C   UNK     1     -10.417   8.336  72.375  1.00  0.00    -0.334 C  
BRANCH   4   5
HETATM    5  O   UNK     1      -9.617   9.235  71.610  1.00  0.00    -0.277 OA 
BRANCH   5   6
HETATM    6  C   UNK     1      -8.826   8.542  70.647  1.00  0.00    -0.155 C  
BRANCH   6   7
HETATM    7  C   UNK     1      -8.906   9.275  69.314  1.00  0.00    -0.146 C  
BRANCH   7   8
HETATM    8  C   UNK     1      -8.013  10.520  69.280  1.00  0.00    -0.156 C  
BRANCH   8   9
HETATM    9  C   UNK     1      -8.700  11.653  68.524  1.00  0.00    -0.130 C  
BRANCH   9  10
HETATM   10  C   UNK     1      -7.964  12.024  67.239  1.00  0.00    -0.174 C  
BRANCH  10  11
HETATM   11  C   UNK     1      -7.021  13.191  67.470  1.00  0.00    -0.149 C  
HETATM   12  O   UNK     1      -5.884  13.067  67.913  1.00  0.00    -0.101 OA 
HETATM   13  N   UNK     1      -7.569  14.409  67.137  1.00  0.00    -0.330 N  
HETATM   14  H   UNK     1      -8.536  14.453  66.813  1.00  0.00     0.000 HD 
BRANCH  13  15
HETATM   15  C   UNK     1      -6.795  15.631  67.238  1.00  0.00    -0.162 C  
BRANCH  15  16
HETATM   16  C   UNK     1      -7.173  16.470  68.461  1.00  0.00    -0.175 C  
BRANCH  16  17
HETATM   17  C   UNK     1      -8.656  16.842  68.446  1.00  0.00    -0.240 C  
BRANCH  17  18
HETATM   18  C   UNK     1      -8.894  18.289  67.990  1.00  0.00    -0.290 C  
BRANCH  18  19
HETATM   19  C   UNK     1     -10.366  18.596  67.674  1.00  0.00    -0.412 C  
HETATM   20  N   UNK     1     -11.167  17.342  67.561  1.00  0.00     0.048 NA 
HETATM   21  C   UNK     1     -10.480  19.368  66.349  1.00  0.00    -0.488 C  
HETATM   22  O   UNK     1     -10.275  20.558  66.207  1.00  0.00    -0.287 OA 
HETATM   23  O   UNK     1     -10.800  18.529  65.324  1.00  0.00    -0.606 OA 
HETATM   24  H1  UNK     1     -12.144  17.545  67.351  1.00  0.00     0.000 HD 
HETATM   25  H2  UNK     1     -11.076  16.763  68.396  1.00  0.00     0.000 HD 
ENDBRANCH  18  19
ENDBRANCH  17  18
ENDBRANCH  16  17
ENDBRANCH  15  16
ENDBRANCH  13  15
ENDBRANCH  10  11
ENDBRANCH   9  10
ENDBRANCH   8   9
ENDBRANCH   7   8
ENDBRANCH   6   7
ENDBRANCH   5   6
ENDBRANCH   4   5
ENDBRANCH   3   4
ENDBRANCH   2   3
TORSDOF 14
ENDMDL
MODEL      370
REMARK 921   NORMALIZED FREE ENERGY PREDICTED BY IDOCK:   -2.83 KCAL/MOL
REMARK 922        TOTAL FREE ENERGY PREDICTED BY IDOCK:   -6.08 KCAL/MOL
REMARK 923 INTER-LIGAND FREE ENERGY PREDICTED BY IDOCK:   -5.56 KCAL/MOL
REMARK 924 INTRA-LIGAND FREE ENERGY PREDICTED BY IDOCK:   -0.52 KCAL/MOL
REMARK 927      BINDING AFFINITY PREDICTED BY RF-SCORE:    0.00 PKD
ROOT
HETATM    1  C   UNK     1      -7.523  16.927  68.503  1.00  0.00    -0.217 C  
HETATM    2  O   UNK     1      -8.346  16.455  67.446  1.00  0.00    -0.157 OA 
ENDROOT
BRANCH   2   3
HETATM    3  C   UNK     1      -9.464  15.720  67.942  1.00  0.00    -0.212 C  
BRANCH   3   4
HETATM    4  C   UNK     1     -10.566  15.714  66.889  1.00  0.00    -0.311 C  
BRANCH   4   5
HETATM    5  O   UNK     1     -11.537  14.726  67.225  1.00  0.00    -0.370 OA 
BRANCH   5   6
HETATM    6  C   UNK     1     -12.159  14.186  66.061  1.00  0.00    -0.432 C  
BRANCH   6   7
HETATM    7  C   UNK     1     -11.833  12.701  65.963  1.00  0.00    -0.492 C  
BRANCH   7   8
HETATM    8  C   UNK     1     -11.773  12.213  64.512  1.00  0.00    -0.410 C  
BRANCH   8   9
HETATM    9  C   UNK     1     -10.764  11.077  64.369  1.00  0.00    -0.340 C  
BRANCH   9  10
HETATM   10  C   UNK     1     -10.111  10.711  65.699  1.00  0.00    -0.335 C  
BRANCH  10  11
HETATM   11  C   UNK     1      -8.762  10.049  65.478  1.00  0.00    -0.155 C  
HETATM   12  O   UNK     1      -7.740  10.377  66.072  1.00  0.00    -0.124 OA 
HETATM   13  N   UNK     1      -8.796   9.042  64.540  1.00  0.00    -0.376 N  
HETATM   14  H   UNK     1      -9.668   8.843  64.049  1.00  0.00     0.000 HD 
BRANCH  13  15
HETATM   15  C   UNK     1      -7.613   8.260  64.239  1.00  0.00    -0.122 C  
BRANCH  15  16
HETATM   16  C   UNK     1      -7.474   7.029  65.139  1.00  0.00    -0.094 C  
BRANCH  16  17
HETATM   17  C   UNK     1      -7.838   5.747  64.391  1.00  0.00    -0.110 C  
BRANCH  17  18
HETATM   18  C   UNK     1      -8.993   4.985  65.059  1.00  0.00    -0.131 C  
BRANCH  18  19
HETATM   19  C   UNK     1      -9.862   4.199  64.066  1.00  0.00    -0.114 C  
HETATM   20  N   UNK     1     -11.243   4.001  64.597  1.00  0.00    -0.819 NA 
HETATM   21  C   UNK     1      -9.245   2.819  63.788  1.00  0.00    -0.101 C  
HETATM   22  O   UNK     1      -8.314   2.601  63.036  1.00  0.00    -0.076 OA 
HETATM   23  O   UNK     1      -9.850   1.856  64.539  1.00  0.00    -0.066 OA 
HETATM   24  H1  UNK     1     -11.820   3.480  63.938  1.00  0.00     0.000 HD 
HETATM   25  H2  UNK     1     -11.676   4.889  64.854  1.00  0.00     0.000 HD 
ENDBRANCH  18  19
ENDBRANCH  17  18
ENDBRANCH  16  17
ENDBRANCH  15  16
ENDBRANCH  13  15
ENDBRANCH  10  11
ENDBRANCH   9  10
ENDBRANCH   8   9
ENDBRANCH   7   8
ENDBRANCH   6   7
ENDBRANCH   5   6
ENDBRANCH   4   5
ENDBRANCH   3   4
ENDBRANCH   2   3
TORSDOF 14
ENDMDL
MODEL      371
REMARK 921   NORMALIZED FREE ENERGY PREDICTED BY IDOCK:   -2.83 KCAL/MOL
REMARK 922        TOTAL FREE ENERGY PREDICTED BY IDOCK:   -6.08 KCAL/MOL
REMARK 923 INTER-LIGAND FREE ENERGY PREDICTED BY IDOCK:   -5.99 KCAL/MOL
REMARK 924 INTRA-LIGAND FREE ENERGY PREDICTED BY IDOCK:   -0.08 KCAL/MOL
REMARK 927      BINDING AFFINITY PREDICTED BY RF-SCORE:    0.00 PKD
ROOT
HETATM    1  C   UNK     1      -6.933   3.928  73.792  1.00  0.00    -0.058 C  
HETATM    2  O   UNK     1      -6.830   5.267  73.328  1.00  0.00    -0.074 OA 
ENDROOT
BRANCH   2   3
HETATM    3  C   UNK     1      -7.714   6.135  74.037  1.00  0.00    -0.089 C  
BRANCH   3   4
HETATM    4  C   UNK     1      -9.099   5.502  74.092  1.00  0.00    -0.122 C  
BRANCH   4   5
HETATM    5  O   UNK     1     -10.061   6.422  73.580  1.00  0.00    -0.194 OA 
BRANCH   5   6
HETATM    6  C   UNK     1     -10.920   5.804  72.625  1.00  0.00    -0.268 C  
BRANCH   6   7
HETATM    7  C   UNK     1     -10.195   4.625  71.989  1.00  0.00    -0.258 C  
BRANCH   7   8
HETATM    8  C   UNK     1      -9.325   5.049  70.801  1.00  0.00    -0.209 C  
BRANCH   8   9
HETATM    9  C   UNK     1     -10.193   5.370  69.587  1.00  0.00    -0.345 C  
BRANCH   9  10
HETATM   10  C   UNK     1      -9.409   6.075  68.483  1.00  0.00    -0.118 C  
BRANCH  10  11
HETATM   11  C   UNK     1     -10.259   7.133  67.804  1.00  0.00    -0.184 C  
HETATM   12  O   UNK     1     -11.137   6.876  66.987  1.00  0.00    -0.389 OA 
HETATM   13  N   UNK     1      -9.947   8.416  68.193  1.00  0.00    -0.184 N  
HETATM   14  H   UNK     1      -9.178   8.570  68.845  1.00  0.00     0.000 HD 
BRANCH  13  15
HETATM   15  C   UNK     1     -10.694   9.552  67.690  1.00  0.00    -0.250 C  
BRANCH  15  16
HETATM   16  C   UNK     1     -10.014  10.225  66.495  1.00  0.00    -0.280 C  
BRANCH  16  17
HETATM   17  C   UNK     1     -10.768  11.480  66.056  1.00  0.00    -0.332 C  
BRANCH  17  18
HETATM   18  C   UNK     1     -10.709  12.599  67.106  1.00  0.00    -0.264 C  
BRANCH  18  19
HETATM   19  C   UNK     1     -11.212  13.954  66.586  1.00  0.00    -0.320 C  
HETATM   20  N   UNK     1     -12.202  14.559  67.525  1.00  0.00    -0.608 NA 
HETATM   21  C   UNK     1     -11.883  13.786  65.213  1.00  0.00    -0.352 C  
HETATM   22  O   UNK     1     -11.299  13.675  64.152  1.00  0.00    -0.374 OA 
HETATM   23  O   UNK     1     -13.238  13.727  65.338  1.00  0.00    -0.722 OA 
HETATM   24  H1  UNK     1     -12.536  15.458  67.180  1.00  0.00     0.000 HD 
HETATM   25  H2  UNK     1     -11.823  14.636  68.469  1.00  0.00     0.000 HD 
ENDBRANCH  18  19
ENDBRANCH  17  18
ENDBRANCH  16  17
ENDBRANCH  15  16
ENDBRANCH  13  15
ENDBRANCH  10  11
ENDBRANCH   9  10
ENDBRANCH   8   9
ENDBRANCH   7   8
ENDBRANCH   6   7
ENDBRANCH   5   6
ENDBRANCH   4   5
ENDBRANCH   3   4
ENDBRANCH   2   3
TORSDOF 14
ENDMDL
MODEL      372
REMARK 921   NORMALIZED FREE ENERGY PREDICTED BY IDOCK:   -2.83 KCAL/MOL
REMARK 922        TOTAL FREE ENERGY PREDICTED BY IDOCK:   -6.07 KCAL/MOL
REMARK 923 INTER-LIGAND FREE ENERGY PREDICTED BY IDOCK:   -5.31 KCAL/MOL
REMARK 924 INTRA-LIGAND FREE ENERGY PREDICTED BY IDOCK:   -0.77 KCAL/MOL
REMARK 927      BINDING AFFINITY PREDICTED BY RF-SCORE:    0.00 PKD
ROOT
HETATM    1  C   UNK     1      -7.975  17.359  68.421  1.00  0.00    -0.259 C  
HETATM    2  O   UNK     1      -8.683  16.633  67.427  1.00  0.00    -0.187 OA 
ENDROOT
BRANCH   2   3
HETATM    3  C   UNK     1      -9.828  15.979  67.975  1.00  0.00    -0.222 C  
BRANCH   3   4
HETATM    4  C   UNK     1     -10.704  15.469  66.837  1.00  0.00    -0.317 C  
BRANCH   4   5
HETATM    5  O   UNK     1     -11.670  14.557  67.355  1.00  0.00    -0.372 OA 
BRANCH   5   6
HETATM    6  C   UNK     1     -11.861  13.445  66.484  1.00  0.00    -0.396 C  
BRANCH   6   7
HETATM    7  C   UNK     1     -11.452  12.168  67.207  1.00  0.00    -0.413 C  
BRANCH   7   8
HETATM    8  C   UNK     1     -10.885  11.114  66.251  1.00  0.00    -0.266 C  
BRANCH   8   9
HETATM    9  C   UNK     1      -9.933  10.177  66.989  1.00  0.00    -0.249 C  
BRANCH   9  10
HETATM   10  C   UNK     1      -9.732  10.583  68.446  1.00  0.00    -0.166 C  
BRANCH  10  11
HETATM   11  C   UNK     1      -8.534   9.872  69.049  1.00  0.00    -0.136 C  
HETATM   12  O   UNK     1      -7.584  10.457  69.560  1.00  0.00    -0.131 OA 
HETATM   13  N   UNK     1      -8.614   8.501  68.963  1.00  0.00    -0.129 N  
HETATM   14  H   UNK     1      -9.409   8.073  68.489  1.00  0.00     0.000 HD 
BRANCH  13  15
HETATM   15  C   UNK     1      -7.586   7.654  69.537  1.00  0.00    -0.098 C  
BRANCH  15  16
HETATM   16  C   UNK     1      -7.793   7.404  71.033  1.00  0.00    -0.092 C  
BRANCH  16  17
HETATM   17  C   UNK     1      -8.558   6.104  71.281  1.00  0.00    -0.129 C  
BRANCH  17  18
HETATM   18  C   UNK     1      -9.837   6.322  72.102  1.00  0.00    -0.171 C  
BRANCH  18  19
HETATM   19  C   UNK     1     -10.742   7.430  71.542  1.00  0.00    -0.222 C  
HETATM   20  N   UNK     1     -11.457   8.148  72.638  1.00  0.00    -0.403 NA 
HETATM   21  C   UNK     1     -11.788   6.836  70.585  1.00  0.00    -0.387 C  
HETATM   22  O   UNK     1     -11.585   6.516  69.429  1.00  0.00    -0.339 OA 
HETATM   23  O   UNK     1     -12.983   6.665  71.217  1.00  0.00    -0.223 OA 
HETATM   24  H1  UNK     1     -12.057   8.884  72.267  1.00  0.00     0.000 HD 
HETATM   25  H2  UNK     1     -10.806   8.511  73.335  1.00  0.00     0.000 HD 
ENDBRANCH  18  19
ENDBRANCH  17  18
ENDBRANCH  16  17
ENDBRANCH  15  16
ENDBRANCH  13  15
ENDBRANCH  10  11
ENDBRANCH   9  10
ENDBRANCH   8   9
ENDBRANCH   7   8
ENDBRANCH   6   7
ENDBRANCH   5   6
ENDBRANCH   4   5
ENDBRANCH   3   4
ENDBRANCH   2   3
TORSDOF 14
ENDMDL
MODEL      373
REMARK 921   NORMALIZED FREE ENERGY PREDICTED BY IDOCK:   -2.83 KCAL/MOL
REMARK 922        TOTAL FREE ENERGY PREDICTED BY IDOCK:   -6.07 KCAL/MOL
REMARK 923 INTER-LIGAND FREE ENERGY PREDICTED BY IDOCK:   -5.00 KCAL/MOL
REMARK 924 INTRA-LIGAND FREE ENERGY PREDICTED BY IDOCK:   -1.07 KCAL/MOL
REMARK 927      BINDING AFFINITY PREDICTED BY RF-SCORE:    0.00 PKD
ROOT
HETATM    1  C   UNK     1      -9.672  16.691  68.526  1.00  0.00    -0.244 C  
HETATM    2  O   UNK     1      -9.754  15.587  67.636  1.00  0.00    -0.211 OA 
ENDROOT
BRANCH   2   3
HETATM    3  C   UNK     1     -10.565  15.891  66.501  1.00  0.00    -0.297 C  
BRANCH   3   4
HETATM    4  C   UNK     1     -11.238  14.614  66.012  1.00  0.00    -0.342 C  
BRANCH   4   5
HETATM    5  O   UNK     1     -10.652  14.215  64.775  1.00  0.00    -0.407 OA 
BRANCH   5   6
HETATM    6  C   UNK     1     -10.751  12.806  64.579  1.00  0.00    -0.358 C  
BRANCH   6   7
HETATM    7  C   UNK     1      -9.996  12.093  65.693  1.00  0.00    -0.271 C  
BRANCH   7   8
HETATM    8  C   UNK     1      -9.068  10.997  65.158  1.00  0.00    -0.199 C  
BRANCH   8   9
HETATM    9  C   UNK     1      -9.737   9.629  65.260  1.00  0.00    -0.330 C  
BRANCH   9  10
HETATM   10  C   UNK     1     -10.719   9.549  66.426  1.00  0.00     0.044 C  
BRANCH  10  11
HETATM   11  C   UNK     1     -10.304   8.475  67.414  1.00  0.00    -0.286 C  
HETATM   12  O   UNK     1      -9.303   8.552  68.119  1.00  0.00    -0.137 OA 
HETATM   13  N   UNK     1     -11.161   7.398  67.441  1.00  0.00    -0.561 N  
HETATM   14  H   UNK     1     -11.954   7.372  66.801  1.00  0.00     0.000 HD 
BRANCH  13  15
HETATM   15  C   UNK     1     -10.954   6.301  68.366  1.00  0.00    -0.325 C  
BRANCH  15  16
HETATM   16  C   UNK     1     -10.161   5.147  67.746  1.00  0.00    -0.190 C  
BRANCH  16  17
HETATM   17  C   UNK     1     -10.367   5.077  66.233  1.00  0.00    -0.332 C  
BRANCH  17  18
HETATM   18  C   UNK     1      -9.043   4.946  65.465  1.00  0.00    -0.153 C  
BRANCH  18  19
HETATM   19  C   UNK     1      -8.256   6.261  65.373  1.00  0.00    -0.142 C  
HETATM   20  N   UNK     1      -7.907   6.583  63.958  1.00  0.00    -0.111 NA 
HETATM   21  C   UNK     1      -6.955   6.167  66.185  1.00  0.00    -0.066 C  
HETATM   22  O   UNK     1      -6.868   6.283  67.393  1.00  0.00    -0.059 OA 
HETATM   23  O   UNK     1      -5.895   5.885  65.377  1.00  0.00    -0.023 OA 
HETATM   24  H1  UNK     1      -7.385   7.457  63.896  1.00  0.00     0.000 HD 
HETATM   25  H2  UNK     1      -8.735   6.599  63.362  1.00  0.00     0.000 HD 
ENDBRANCH  18  19
ENDBRANCH  17  18
ENDBRANCH  16  17
ENDBRANCH  15  16
ENDBRANCH  13  15
ENDBRANCH  10  11
ENDBRANCH   9  10
ENDBRANCH   8   9
ENDBRANCH   7   8
ENDBRANCH   6   7
ENDBRANCH   5   6
ENDBRANCH   4   5
ENDBRANCH   3   4
ENDBRANCH   2   3
TORSDOF 14
ENDMDL
MODEL      374
REMARK 921   NORMALIZED FREE ENERGY PREDICTED BY IDOCK:   -2.81 KCAL/MOL
REMARK 922        TOTAL FREE ENERGY PREDICTED BY IDOCK:   -6.04 KCAL/MOL
REMARK 923 INTER-LIGAND FREE ENERGY PREDICTED BY IDOCK:   -5.99 KCAL/MOL
REMARK 924 INTRA-LIGAND FREE ENERGY PREDICTED BY IDOCK:   -0.06 KCAL/MOL
REMARK 927      BINDING AFFINITY PREDICTED BY RF-SCORE:    0.00 PKD
ROOT
HETATM    1  C   UNK     1      -7.129   7.771  73.414  1.00  0.00    -0.092 C  
HETATM    2  O   UNK     1      -8.487   8.185  73.447  1.00  0.00    -0.207 OA 
ENDROOT
BRANCH   2   3
HETATM    3  C   UNK     1      -9.352   7.110  73.816  1.00  0.00    -0.232 C  
BRANCH   3   4
HETATM    4  C   UNK     1     -10.780   7.456  73.412  1.00  0.00    -0.357 C  
BRANCH   4   5
HETATM    5  O   UNK     1     -10.753   8.419  72.361  1.00  0.00    -0.318 OA 
BRANCH   5   6
HETATM    6  C   UNK     1     -11.351   7.911  71.170  1.00  0.00    -0.266 C  
BRANCH   6   7
HETATM    7  C   UNK     1     -11.998   9.060  70.408  1.00  0.00     0.054 C  
BRANCH   7   8
HETATM    8  C   UNK     1     -11.676  10.425  71.027  1.00  0.00    -0.430 C  
BRANCH   8   9
HETATM    9  C   UNK     1     -12.791  11.424  70.732  1.00  0.00    -0.255 C  
BRANCH   9  10
HETATM   10  C   UNK     1     -13.506  11.886  72.000  1.00  0.00    -0.336 C  
BRANCH  10  11
HETATM   11  C   UNK     1     -13.305  13.373  72.226  1.00  0.00    -0.544 C  
HETATM   12  O   UNK     1     -14.047  14.060  72.921  1.00  0.00    -0.564 OA 
HETATM   13  N   UNK     1     -12.207  13.882  71.570  1.00  0.00    -0.318 N  
HETATM   14  H   UNK     1     -11.651  13.269  70.972  1.00  0.00     0.000 HD 
BRANCH  13  15
HETATM   15  C   UNK     1     -11.826  15.273  71.715  1.00  0.00    -0.406 C  
BRANCH  15  16
HETATM   16  C   UNK     1     -10.735  15.693  70.728  1.00  0.00    -0.179 C  
BRANCH  16  17
HETATM   17  C   UNK     1     -11.274  15.771  69.300  1.00  0.00    -0.324 C  
BRANCH  17  18
HETATM   18  C   UNK     1     -10.297  15.183  68.270  1.00  0.00    -0.231 C  
BRANCH  18  19
HETATM   19  C   UNK     1     -10.761  13.842  67.683  1.00  0.00    -0.249 C  
HETATM   20  N   UNK     1     -12.164  13.531  68.088  1.00  0.00    -0.306 NA 
HETATM   21  C   UNK     1      -9.851  12.701  68.165  1.00  0.00    -0.226 C  
HETATM   22  O   UNK     1      -8.752  12.438  67.715  1.00  0.00    -0.158 OA 
HETATM   23  O   UNK     1     -10.416  12.038  69.213  1.00  0.00    -0.048 OA 
HETATM   24  H1  UNK     1     -12.472  12.641  67.698  1.00  0.00     0.000 HD 
HETATM   25  H2  UNK     1     -12.801  14.289  67.842  1.00  0.00     0.000 HD 
ENDBRANCH  18  19
ENDBRANCH  17  18
ENDBRANCH  16  17
ENDBRANCH  15  16
ENDBRANCH  13  15
ENDBRANCH  10  11
ENDBRANCH   9  10
ENDBRANCH   8   9
ENDBRANCH   7   8
ENDBRANCH   6   7
ENDBRANCH   5   6
ENDBRANCH   4   5
ENDBRANCH   3   4
ENDBRANCH   2   3
TORSDOF 14
ENDMDL
MODEL      375
REMARK 921   NORMALIZED FREE ENERGY PREDICTED BY IDOCK:   -2.81 KCAL/MOL
REMARK 922        TOTAL FREE ENERGY PREDICTED BY IDOCK:   -6.04 KCAL/MOL
REMARK 923 INTER-LIGAND FREE ENERGY PREDICTED BY IDOCK:   -5.26 KCAL/MOL
REMARK 924 INTRA-LIGAND FREE ENERGY PREDICTED BY IDOCK:   -0.78 KCAL/MOL
REMARK 927      BINDING AFFINITY PREDICTED BY RF-SCORE:    0.00 PKD
ROOT
HETATM    1  C   UNK     1     -11.753   8.218  72.570  1.00  0.00    -0.383 C  
HETATM    2  O   UNK     1     -10.701   7.625  73.318  1.00  0.00    -0.386 OA 
ENDROOT
BRANCH   2   3
HETATM    3  C   UNK     1     -10.337   6.350  72.789  1.00  0.00    -0.201 C  
BRANCH   3   4
HETATM    4  C   UNK     1      -8.821   6.277  72.661  1.00  0.00    -0.126 C  
BRANCH   4   5
HETATM    5  O   UNK     1      -8.427   6.794  71.392  1.00  0.00    -0.120 OA 
BRANCH   5   6
HETATM    6  C   UNK     1      -7.999   8.150  71.489  1.00  0.00    -0.117 C  
BRANCH   6   7
HETATM    7  C   UNK     1      -8.909   9.023  70.635  1.00  0.00    -0.259 C  
BRANCH   7   8
HETATM    8  C   UNK     1      -9.320   8.333  69.329  1.00  0.00    -0.155 C  
BRANCH   8   9
HETATM    9  C   UNK     1     -10.135   9.281  68.454  1.00  0.00    -0.215 C  
BRANCH   9  10
HETATM   10  C   UNK     1      -9.793   9.144  66.973  1.00  0.00    -0.267 C  
BRANCH  10  11
HETATM   11  C   UNK     1      -9.345  10.474  66.394  1.00  0.00    -0.168 C  
HETATM   12  O   UNK     1      -9.470  10.775  65.211  1.00  0.00    -0.193 OA 
HETATM   13  N   UNK     1      -8.778  11.312  67.327  1.00  0.00    -0.142 N  
HETATM   14  H   UNK     1      -8.663  10.989  68.288  1.00  0.00     0.000 HD 
BRANCH  13  15
HETATM   15  C   UNK     1      -8.343  12.647  66.966  1.00  0.00    -0.130 C  
BRANCH  15  16
HETATM   16  C   UNK     1      -8.852  13.717  67.937  1.00  0.00    -0.188 C  
BRANCH  16  17
HETATM   17  C   UNK     1     -10.372  13.857  67.867  1.00  0.00    -0.240 C  
BRANCH  17  18
HETATM   18  C   UNK     1     -10.812  15.147  67.161  1.00  0.00    -0.320 C  
BRANCH  18  19
HETATM   19  C   UNK     1     -10.063  16.397  67.648  1.00  0.00    -0.263 C  
HETATM   20  N   UNK     1     -10.864  17.148  68.658  1.00  0.00    -0.300 NA 
HETATM   21  C   UNK     1      -9.763  17.336  66.468  1.00  0.00    -0.288 C  
HETATM   22  O   UNK     1      -8.861  17.194  65.665  1.00  0.00    -0.482 OA 
HETATM   23  O   UNK     1     -10.680  18.342  66.402  1.00  0.00    -0.321 OA 
HETATM   24  H1  UNK     1     -10.367  17.977  68.982  1.00  0.00     0.000 HD 
HETATM   25  H2  UNK     1     -11.141  16.550  69.437  1.00  0.00     0.000 HD 
ENDBRANCH  18  19
ENDBRANCH  17  18
ENDBRANCH  16  17
ENDBRANCH  15  16
ENDBRANCH  13  15
ENDBRANCH  10  11
ENDBRANCH   9  10
ENDBRANCH   8   9
ENDBRANCH   7   8
ENDBRANCH   6   7
ENDBRANCH   5   6
ENDBRANCH   4   5
ENDBRANCH   3   4
ENDBRANCH   2   3
TORSDOF 14
ENDMDL
MODEL      376
REMARK 921   NORMALIZED FREE ENERGY PREDICTED BY IDOCK:   -2.81 KCAL/MOL
REMARK 922        TOTAL FREE ENERGY PREDICTED BY IDOCK:   -6.04 KCAL/MOL
REMARK 923 INTER-LIGAND FREE ENERGY PREDICTED BY IDOCK:   -5.18 KCAL/MOL
REMARK 924 INTRA-LIGAND FREE ENERGY PREDICTED BY IDOCK:   -0.86 KCAL/MOL
REMARK 927      BINDING AFFINITY PREDICTED BY RF-SCORE:    0.00 PKD
ROOT
HETATM    1  C   UNK     1     -11.156   5.390  72.699  1.00  0.00    -0.278 C  
HETATM    2  O   UNK     1     -11.782   6.148  71.674  1.00  0.00    -0.296 OA 
ENDROOT
BRANCH   2   3
HETATM    3  C   UNK     1     -12.275   7.393  72.172  1.00  0.00    -0.230 C  
BRANCH   3   4
HETATM    4  C   UNK     1     -12.038   8.477  71.127  1.00  0.00    -0.252 C  
BRANCH   4   5
HETATM    5  O   UNK     1     -11.691   9.696  71.780  1.00  0.00    -0.388 OA 
BRANCH   5   6
HETATM    6  C   UNK     1     -12.677  10.703  71.567  1.00  0.00    -0.444 C  
BRANCH   6   7
HETATM    7  C   UNK     1     -12.227  11.611  70.431  1.00  0.00    -0.434 C  
BRANCH   7   8
HETATM    8  C   UNK     1     -12.421  13.095  70.759  1.00  0.00    -0.389 C  
BRANCH   8   9
HETATM    9  C   UNK     1     -11.598  13.967  69.814  1.00  0.00    -0.335 C  
BRANCH   9  10
HETATM   10  C   UNK     1     -12.405  14.438  68.608  1.00  0.00    -0.051 C  
BRANCH  10  11
HETATM   11  C   UNK     1     -11.764  13.978  67.311  1.00  0.00    -0.389 C  
HETATM   12  O   UNK     1     -11.804  14.622  66.268  1.00  0.00    -0.364 OA 
HETATM   13  N   UNK     1     -11.131  12.760  67.418  1.00  0.00    -0.263 N  
HETATM   14  H   UNK     1     -11.167  12.252  68.302  1.00  0.00     0.000 HD 
BRANCH  13  15
HETATM   15  C   UNK     1     -10.413  12.189  66.295  1.00  0.00    -0.239 C  
BRANCH  15  16
HETATM   16  C   UNK     1      -8.902  12.412  66.384  1.00  0.00    -0.048 C  
BRANCH  16  17
HETATM   17  C   UNK     1      -8.443  12.560  67.835  1.00  0.00    -0.171 C  
BRANCH  17  18
HETATM   18  C   UNK     1      -7.409  13.681  68.013  1.00  0.00    -0.131 C  
BRANCH  18  19
HETATM   19  C   UNK     1      -7.629  14.521  69.280  1.00  0.00    -0.073 C  
HETATM   20  N   UNK     1      -7.700  15.976  68.958  1.00  0.00    -0.204 NA 
HETATM   21  C   UNK     1      -6.480  14.299  70.277  1.00  0.00    -0.102 C  
HETATM   22  O   UNK     1      -6.365  13.341  71.018  1.00  0.00     0.019 OA 
HETATM   23  O   UNK     1      -5.563  15.303  70.195  1.00  0.00    -0.119 OA 
HETATM   24  H1  UNK     1      -7.846  16.534  69.799  1.00  0.00     0.000 HD 
HETATM   25  H2  UNK     1      -8.411  16.169  68.252  1.00  0.00     0.000 HD 
ENDBRANCH  18  19
ENDBRANCH  17  18
ENDBRANCH  16  17
ENDBRANCH  15  16
ENDBRANCH  13  15
ENDBRANCH  10  11
ENDBRANCH   9  10
ENDBRANCH   8   9
ENDBRANCH   7   8
ENDBRANCH   6   7
ENDBRANCH   5   6
ENDBRANCH   4   5
ENDBRANCH   3   4
ENDBRANCH   2   3
TORSDOF 14
ENDMDL
MODEL      377
REMARK 921   NORMALIZED FREE ENERGY PREDICTED BY IDOCK:   -2.81 KCAL/MOL
REMARK 922        TOTAL FREE ENERGY PREDICTED BY IDOCK:   -6.03 KCAL/MOL
REMARK 923 INTER-LIGAND FREE ENERGY PREDICTED BY IDOCK:   -5.25 KCAL/MOL
REMARK 924 INTRA-LIGAND FREE ENERGY PREDICTED BY IDOCK:   -0.78 KCAL/MOL
REMARK 927      BINDING AFFINITY PREDICTED BY RF-SCORE:    0.00 PKD
ROOT
HETATM    1  C   UNK     1      -9.798  19.424  66.768  1.00  0.00    -0.362 C  
HETATM    2  O   UNK     1     -10.694  18.339  66.959  1.00  0.00    -0.370 OA 
ENDROOT
BRANCH   2   3
HETATM    3  C   UNK     1     -10.234  17.159  66.299  1.00  0.00    -0.334 C  
BRANCH   3   4
HETATM    4  C   UNK     1     -10.218  16.005  67.294  1.00  0.00    -0.277 C  
BRANCH   4   5
HETATM    5  O   UNK     1     -11.511  15.408  67.347  1.00  0.00    -0.303 OA 
BRANCH   5   6
HETATM    6  C   UNK     1     -11.440  13.990  67.211  1.00  0.00    -0.348 C  
BRANCH   6   7
HETATM    7  C   UNK     1     -10.204  13.480  67.941  1.00  0.00    -0.247 C  
BRANCH   7   8
HETATM    8  C   UNK     1      -9.893  12.017  67.608  1.00  0.00    -0.191 C  
BRANCH   8   9
HETATM    9  C   UNK     1      -9.863  11.172  68.878  1.00  0.00    -0.176 C  
BRANCH   9  10
HETATM   10  C   UNK     1     -11.057  10.226  68.974  1.00  0.00    -0.277 C  
BRANCH  10  11
HETATM   11  C   UNK     1     -10.613   8.829  69.369  1.00  0.00    -0.209 C  
HETATM   12  O   UNK     1      -9.744   8.604  70.205  1.00  0.00    -0.167 OA 
HETATM   13  N   UNK     1     -11.280   7.833  68.692  1.00  0.00    -0.252 N  
HETATM   14  H   UNK     1     -11.963   8.083  67.977  1.00  0.00     0.000 HD 
BRANCH  13  15
HETATM   15  C   UNK     1     -11.028   6.435  68.979  1.00  0.00    -0.348 C  
BRANCH  15  16
HETATM   16  C   UNK     1     -10.182   5.753  67.901  1.00  0.00    -0.231 C  
BRANCH  16  17
HETATM   17  C   UNK     1      -8.906   6.543  67.610  1.00  0.00    -0.112 C  
BRANCH  17  18
HETATM   18  C   UNK     1      -8.917   7.186  66.216  1.00  0.00    -0.181 C  
BRANCH  18  19
HETATM   19  C   UNK     1      -8.827   8.719  66.248  1.00  0.00    -0.157 C  
HETATM   20  N   UNK     1      -9.569   9.327  65.104  1.00  0.00    -0.458 NA 
HETATM   21  C   UNK     1      -7.360   9.172  66.173  1.00  0.00    -0.095 C  
HETATM   22  O   UNK     1      -6.575   9.177  67.102  1.00  0.00    -0.060 OA 
HETATM   23  O   UNK     1      -7.026   9.529  64.901  1.00  0.00    -0.097 OA 
HETATM   24  H1  UNK     1      -9.509  10.345  65.126  1.00  0.00     0.000 HD 
HETATM   25  H2  UNK     1     -10.538   9.009  65.075  1.00  0.00     0.000 HD 
ENDBRANCH  18  19
ENDBRANCH  17  18
ENDBRANCH  16  17
ENDBRANCH  15  16
ENDBRANCH  13  15
ENDBRANCH  10  11
ENDBRANCH   9  10
ENDBRANCH   8   9
ENDBRANCH   7   8
ENDBRANCH   6   7
ENDBRANCH   5   6
ENDBRANCH   4   5
ENDBRANCH   3   4
ENDBRANCH   2   3
TORSDOF 14
ENDMDL
MODEL      378
REMARK 921   NORMALIZED FREE ENERGY PREDICTED BY IDOCK:   -2.80 KCAL/MOL
REMARK 922        TOTAL FREE ENERGY PREDICTED BY IDOCK:   -6.03 KCAL/MOL
REMARK 923 INTER-LIGAND FREE ENERGY PREDICTED BY IDOCK:   -4.64 KCAL/MOL
REMARK 924 INTRA-LIGAND FREE ENERGY PREDICTED BY IDOCK:   -1.39 KCAL/MOL
REMARK 927      BINDING AFFINITY PREDICTED BY RF-SCORE:    0.00 PKD
ROOT
HETATM    1  C   UNK     1      -7.882   7.259  66.896  1.00  0.00    -0.111 C  
HETATM    2  O   UNK     1      -9.292   7.398  66.993  1.00  0.00    -0.137 OA 
ENDROOT
BRANCH   2   3
HETATM    3  C   UNK     1      -9.928   6.136  67.202  1.00  0.00    -0.154 C  
BRANCH   3   4
HETATM    4  C   UNK     1     -11.261   6.360  67.905  1.00  0.00    -0.154 C  
BRANCH   4   5
HETATM    5  O   UNK     1     -11.110   6.104  69.299  1.00  0.00    -0.352 OA 
BRANCH   5   6
HETATM    6  C   UNK     1     -12.130   6.744  70.063  1.00  0.00     0.007 C  
BRANCH   6   7
HETATM    7  C   UNK     1     -11.539   7.958  70.767  1.00  0.00    -0.258 C  
BRANCH   7   8
HETATM    8  C   UNK     1     -12.573   8.692  71.628  1.00  0.00    -0.381 C  
BRANCH   8   9
HETATM    9  C   UNK     1     -12.364  10.202  71.548  1.00  0.00    -0.505 C  
BRANCH   9  10
HETATM   10  C   UNK     1     -11.274  10.585  70.551  1.00  0.00    -0.348 C  
BRANCH  10  11
HETATM   11  C   UNK     1     -11.480  11.998  70.037  1.00  0.00    -0.101 C  
HETATM   12  O   UNK     1     -12.259  12.798  70.545  1.00  0.00    -0.368 OA 
HETATM   13  N   UNK     1     -10.705  12.299  68.940  1.00  0.00    -0.344 N  
HETATM   14  H   UNK     1     -10.106  11.578  68.536  1.00  0.00     0.000 HD 
BRANCH  13  15
HETATM   15  C   UNK     1     -10.727  13.622  68.348  1.00  0.00    -0.258 C  
BRANCH  15  16
HETATM   16  C   UNK     1      -9.565  14.499  68.818  1.00  0.00    -0.193 C  
BRANCH  16  17
HETATM   17  C   UNK     1      -8.377  14.415  67.861  1.00  0.00    -0.162 C  
BRANCH  17  18
HETATM   18  C   UNK     1      -7.299  13.436  68.346  1.00  0.00    -0.112 C  
BRANCH  18  19
HETATM   19  C   UNK     1      -7.128  12.212  67.434  1.00  0.00    -0.146 C  
HETATM   20  N   UNK     1      -8.063  12.269  66.272  1.00  0.00    -0.294 NA 
HETATM   21  C   UNK     1      -7.402  10.917  68.216  1.00  0.00    -0.087 C  
HETATM   22  O   UNK     1      -6.622  10.373  68.974  1.00  0.00    -0.054 OA 
HETATM   23  O   UNK     1      -8.669  10.470  67.989  1.00  0.00    -0.124 OA 
HETATM   24  H1  UNK     1      -7.949  11.457  65.666  1.00  0.00     0.000 HD 
HETATM   25  H2  UNK     1      -7.962  13.142  65.753  1.00  0.00     0.000 HD 
ENDBRANCH  18  19
ENDBRANCH  17  18
ENDBRANCH  16  17
ENDBRANCH  15  16
ENDBRANCH  13  15
ENDBRANCH  10  11
ENDBRANCH   9  10
ENDBRANCH   8   9
ENDBRANCH   7   8
ENDBRANCH   6   7
ENDBRANCH   5   6
ENDBRANCH   4   5
ENDBRANCH   3   4
ENDBRANCH   2   3
TORSDOF 14
ENDMDL
MODEL      379
REMARK 921   NORMALIZED FREE ENERGY PREDICTED BY IDOCK:   -2.80 KCAL/MOL
REMARK 922        TOTAL FREE ENERGY PREDICTED BY IDOCK:   -6.01 KCAL/MOL
REMARK 923 INTER-LIGAND FREE ENERGY PREDICTED BY IDOCK:   -5.40 KCAL/MOL
REMARK 924 INTRA-LIGAND FREE ENERGY PREDICTED BY IDOCK:   -0.62 KCAL/MOL
REMARK 927      BINDING AFFINITY PREDICTED BY RF-SCORE:    0.00 PKD
ROOT
HETATM    1  C   UNK     1     -10.984   6.519  73.107  1.00  0.00    -0.221 C  
HETATM    2  O   UNK     1     -11.998   6.934  72.203  1.00  0.00    -0.294 OA 
ENDROOT
BRANCH   2   3
HETATM    3  C   UNK     1     -12.508   8.222  72.546  1.00  0.00    -0.243 C  
BRANCH   3   4
HETATM    4  C   UNK     1     -12.380   9.147  71.342  1.00  0.00    -0.333 C  
BRANCH   4   5
HETATM    5  O   UNK     1     -11.224   9.967  71.495  1.00  0.00    -0.322 OA 
BRANCH   5   6
HETATM    6  C   UNK     1     -10.078   9.375  70.887  1.00  0.00    -0.296 C  
BRANCH   6   7
HETATM    7  C   UNK     1      -9.757  10.119  69.597  1.00  0.00    -0.250 C  
BRANCH   7   8
HETATM    8  C   UNK     1     -10.310   9.404  68.359  1.00  0.00    -0.238 C  
BRANCH   8   9
HETATM    9  C   UNK     1     -11.188  10.347  67.542  1.00  0.00    -0.254 C  
BRANCH   9  10
HETATM   10  C   UNK     1     -10.954  11.813  67.898  1.00  0.00    -0.272 C  
BRANCH  10  11
HETATM   11  C   UNK     1      -9.825  12.399  67.070  1.00  0.00    -0.211 C  
HETATM   12  O   UNK     1      -9.971  12.830  65.931  1.00  0.00    -0.267 OA 
HETATM   13  N   UNK     1      -8.613  12.399  67.723  1.00  0.00    -0.162 N  
HETATM   14  H   UNK     1      -8.545  11.988  68.655  1.00  0.00     0.000 HD 
BRANCH  13  15
HETATM   15  C   UNK     1      -7.432  12.972  67.109  1.00  0.00     0.009 C  
BRANCH  15  16
HETATM   16  C   UNK     1      -7.152  14.400  67.585  1.00  0.00    -0.202 C  
BRANCH  16  17
HETATM   17  C   UNK     1      -7.588  14.601  69.036  1.00  0.00    -0.136 C  
BRANCH  17  18
HETATM   18  C   UNK     1      -8.731  15.618  69.172  1.00  0.00    -0.251 C  
BRANCH  18  19
HETATM   19  C   UNK     1      -8.785  16.634  68.021  1.00  0.00    -0.194 C  
HETATM   20  N   UNK     1      -8.313  17.978  68.466  1.00  0.00    -0.307 NA 
HETATM   21  C   UNK     1     -10.223  16.773  67.495  1.00  0.00    -0.289 C  
HETATM   22  O   UNK     1     -10.776  15.995  66.740  1.00  0.00    -0.317 OA 
HETATM   23  O   UNK     1     -10.832  17.870  68.026  1.00  0.00    -0.347 OA 
HETATM   24  H1  UNK     1      -8.349  18.653  67.702  1.00  0.00     0.000 HD 
HETATM   25  H2  UNK     1      -7.382  17.930  68.880  1.00  0.00     0.000 HD 
ENDBRANCH  18  19
ENDBRANCH  17  18
ENDBRANCH  16  17
ENDBRANCH  15  16
ENDBRANCH  13  15
ENDBRANCH  10  11
ENDBRANCH   9  10
ENDBRANCH   8   9
ENDBRANCH   7   8
ENDBRANCH   6   7
ENDBRANCH   5   6
ENDBRANCH   4   5
ENDBRANCH   3   4
ENDBRANCH   2   3
TORSDOF 14
ENDMDL
MODEL      380
REMARK 921   NORMALIZED FREE ENERGY PREDICTED BY IDOCK:   -2.79 KCAL/MOL
REMARK 922        TOTAL FREE ENERGY PREDICTED BY IDOCK:   -6.00 KCAL/MOL
REMARK 923 INTER-LIGAND FREE ENERGY PREDICTED BY IDOCK:   -5.56 KCAL/MOL
REMARK 924 INTRA-LIGAND FREE ENERGY PREDICTED BY IDOCK:   -0.44 KCAL/MOL
REMARK 927      BINDING AFFINITY PREDICTED BY RF-SCORE:    0.00 PKD
ROOT
HETATM    1  C   UNK     1     -12.189  12.399  70.454  1.00  0.00    -0.287 C  
HETATM    2  O   UNK     1     -12.424  13.724  70.000  1.00  0.00    -0.314 OA 
ENDROOT
BRANCH   2   3
HETATM    3  C   UNK     1     -11.250  14.292  69.417  1.00  0.00    -0.273 C  
BRANCH   3   4
HETATM    4  C   UNK     1     -11.632  15.555  68.655  1.00  0.00    -0.368 C  
BRANCH   4   5
HETATM    5  O   UNK     1     -10.991  15.552  67.381  1.00  0.00    -0.310 OA 
BRANCH   5   6
HETATM    6  C   UNK     1     -11.575  14.592  66.503  1.00  0.00    -0.371 C  
BRANCH   6   7
HETATM    7  C   UNK     1     -10.476  13.944  65.671  1.00  0.00    -0.320 C  
BRANCH   7   8
HETATM    8  C   UNK     1     -10.950  12.662  64.978  1.00  0.00    -0.323 C  
BRANCH   8   9
HETATM    9  C   UNK     1      -9.810  11.653  64.876  1.00  0.00    -0.267 C  
BRANCH   9  10
HETATM   10  C   UNK     1      -9.292  11.222  66.246  1.00  0.00    -0.226 C  
BRANCH  10  11
HETATM   11  C   UNK     1      -9.416   9.720  66.425  1.00  0.00    -0.184 C  
HETATM   12  O   UNK     1      -9.691   8.948  65.513  1.00  0.00    -0.147 OA 
HETATM   13  N   UNK     1      -9.190   9.304  67.718  1.00  0.00    -0.129 N  
HETATM   14  H   UNK     1      -9.006   9.998  68.443  1.00  0.00     0.000 HD 
BRANCH  13  15
HETATM   15  C   UNK     1      -9.210   7.897  68.066  1.00  0.00    -0.131 C  
BRANCH  15  16
HETATM   16  C   UNK     1      -8.539   7.611  69.412  1.00  0.00    -0.136 C  
BRANCH  16  17
HETATM   17  C   UNK     1      -8.846   8.707  70.433  1.00  0.00    -0.170 C  
BRANCH  17  18
HETATM   18  C   UNK     1      -8.611   8.245  71.878  1.00  0.00    -0.224 C  
BRANCH  18  19
HETATM   19  C   UNK     1      -9.909   8.029  72.670  1.00  0.00    -0.279 C  
HETATM   20  N   UNK     1      -9.623   7.567  74.061  1.00  0.00    -0.404 NA 
HETATM   21  C   UNK     1     -10.789   6.975  71.979  1.00  0.00    -0.223 C  
HETATM   22  O   UNK     1     -11.497   7.173  71.010  1.00  0.00    -0.273 OA 
HETATM   23  O   UNK     1     -10.641   5.755  72.568  1.00  0.00    -0.201 OA 
HETATM   24  H1  UNK     1     -10.484   7.424  74.586  1.00  0.00     0.000 HD 
HETATM   25  H2  UNK     1      -8.991   8.205  74.544  1.00  0.00     0.000 HD 
ENDBRANCH  18  19
ENDBRANCH  17  18
ENDBRANCH  16  17
ENDBRANCH  15  16
ENDBRANCH  13  15
ENDBRANCH  10  11
ENDBRANCH   9  10
ENDBRANCH   8   9
ENDBRANCH   7   8
ENDBRANCH   6   7
ENDBRANCH   5   6
ENDBRANCH   4   5
ENDBRANCH   3   4
ENDBRANCH   2   3
TORSDOF 14
ENDMDL
MODEL      381
REMARK 921   NORMALIZED FREE ENERGY PREDICTED BY IDOCK:   -2.79 KCAL/MOL
REMARK 922        TOTAL FREE ENERGY PREDICTED BY IDOCK:   -6.00 KCAL/MOL
REMARK 923 INTER-LIGAND FREE ENERGY PREDICTED BY IDOCK:   -5.23 KCAL/MOL
REMARK 924 INTRA-LIGAND FREE ENERGY PREDICTED BY IDOCK:   -0.77 KCAL/MOL
REMARK 927      BINDING AFFINITY PREDICTED BY RF-SCORE:    0.00 PKD
ROOT
HETATM    1  C   UNK     1      -8.463   6.980  65.679  1.00  0.00    -0.138 C  
HETATM    2  O   UNK     1      -9.609   6.921  66.517  1.00  0.00    -0.177 OA 
ENDROOT
BRANCH   2   3
HETATM    3  C   UNK     1     -10.186   5.614  66.520  1.00  0.00    -0.211 C  
BRANCH   3   4
HETATM    4  C   UNK     1      -9.156   4.615  67.034  1.00  0.00    -0.121 C  
BRANCH   4   5
HETATM    5  O   UNK     1      -9.695   3.915  68.153  1.00  0.00    -0.146 OA 
BRANCH   5   6
HETATM    6  C   UNK     1      -9.896   4.782  69.267  1.00  0.00    -0.199 C  
BRANCH   6   7
HETATM    7  C   UNK     1      -8.683   4.706  70.185  1.00  0.00    -0.113 C  
BRANCH   7   8
HETATM    8  C   UNK     1      -8.921   5.414  71.523  1.00  0.00    -0.147 C  
BRANCH   8   9
HETATM    9  C   UNK     1     -10.412   5.467  71.845  1.00  0.00    -0.283 C  
BRANCH   9  10
HETATM   10  C   UNK     1     -10.720   6.396  73.016  1.00  0.00    -0.286 C  
BRANCH  10  11
HETATM   11  C   UNK     1     -10.777   7.843  72.561  1.00  0.00    -0.328 C  
HETATM   12  O   UNK     1      -9.841   8.629  72.678  1.00  0.00    -0.250 OA 
HETATM   13  N   UNK     1     -11.986   8.193  72.004  1.00  0.00    -0.319 N  
HETATM   14  H   UNK     1     -12.741   7.507  71.972  1.00  0.00     0.000 HD 
BRANCH  13  15
HETATM   15  C   UNK     1     -12.204   9.519  71.461  1.00  0.00    -0.386 C  
BRANCH  15  16
HETATM   16  C   UNK     1     -11.408   9.771  70.178  1.00  0.00    -0.305 C  
BRANCH  16  17
HETATM   17  C   UNK     1     -12.030  10.892  69.346  1.00  0.00    -0.393 C  
BRANCH  17  18
HETATM   18  C   UNK     1     -10.979  11.863  68.789  1.00  0.00    -0.280 C  
BRANCH  18  19
HETATM   19  C   UNK     1      -9.740  11.160  68.213  1.00  0.00    -0.188 C  
HETATM   20  N   UNK     1      -8.492  11.633  68.881  1.00  0.00    -0.365 NA 
HETATM   21  C   UNK     1      -9.620  11.434  66.706  1.00  0.00    -0.188 C  
HETATM   22  O   UNK     1     -10.256  10.872  65.834  1.00  0.00    -0.242 OA 
HETATM   23  O   UNK     1      -8.730  12.436  66.463  1.00  0.00    -0.164 OA 
HETATM   24  H1  UNK     1      -7.670  11.167  68.499  1.00  0.00     0.000 HD 
HETATM   25  H2  UNK     1      -8.546  11.528  69.894  1.00  0.00     0.000 HD 
ENDBRANCH  18  19
ENDBRANCH  17  18
ENDBRANCH  16  17
ENDBRANCH  15  16
ENDBRANCH  13  15
ENDBRANCH  10  11
ENDBRANCH   9  10
ENDBRANCH   8   9
ENDBRANCH   7   8
ENDBRANCH   6   7
ENDBRANCH   5   6
ENDBRANCH   4   5
ENDBRANCH   3   4
ENDBRANCH   2   3
TORSDOF 14
ENDMDL
MODEL      382
REMARK 921   NORMALIZED FREE ENERGY PREDICTED BY IDOCK:   -2.79 KCAL/MOL
REMARK 922        TOTAL FREE ENERGY PREDICTED BY IDOCK:   -5.99 KCAL/MOL
REMARK 923 INTER-LIGAND FREE ENERGY PREDICTED BY IDOCK:   -4.84 KCAL/MOL
REMARK 924 INTRA-LIGAND FREE ENERGY PREDICTED BY IDOCK:   -1.15 KCAL/MOL
REMARK 927      BINDING AFFINITY PREDICTED BY RF-SCORE:    0.00 PKD
ROOT
HETATM    1  C   UNK     1      -6.503   7.972  66.372  1.00  0.00    -0.047 C  
HETATM    2  O   UNK     1      -7.630   7.777  67.214  1.00  0.00    -0.100 OA 
ENDROOT
BRANCH   2   3
HETATM    3  C   UNK     1      -8.843   8.148  66.558  1.00  0.00    -0.149 C  
BRANCH   3   4
HETATM    4  C   UNK     1      -8.702   9.563  66.011  1.00  0.00    -0.147 C  
BRANCH   4   5
HETATM    5  O   UNK     1      -8.665  10.488  67.095  1.00  0.00    -0.130 OA 
BRANCH   5   6
HETATM    6  C   UNK     1      -7.857  11.623  66.789  1.00  0.00    -0.130 C  
BRANCH   6   7
HETATM    7  C   UNK     1      -7.834  12.558  67.990  1.00  0.00    -0.147 C  
BRANCH   7   8
HETATM    8  C   UNK     1      -6.467  13.224  68.183  1.00  0.00    -0.112 C  
BRANCH   8   9
HETATM    9  C   UNK     1      -6.441  14.598  67.518  1.00  0.00    -0.079 C  
BRANCH   9  10
HETATM   10  C   UNK     1      -6.368  15.734  68.536  1.00  0.00    -0.108 C  
BRANCH  10  11
HETATM   11  C   UNK     1      -7.750  16.085  69.057  1.00  0.00    -0.216 C  
HETATM   12  O   UNK     1      -8.263  15.549  70.035  1.00  0.00     0.011 OA 
HETATM   13  N   UNK     1      -8.378  17.065  68.323  1.00  0.00    -0.220 N  
HETATM   14  H   UNK     1      -7.918  17.443  67.494  1.00  0.00     0.000 HD 
BRANCH  13  15
HETATM   15  C   UNK     1      -9.682  17.569  68.707  1.00  0.00    -0.298 C  
BRANCH  15  16
HETATM   16  C   UNK     1     -10.824  16.900  67.938  1.00  0.00    -0.310 C  
BRANCH  16  17
HETATM   17  C   UNK     1     -11.489  15.803  68.769  1.00  0.00    -0.391 C  
BRANCH  17  18
HETATM   18  C   UNK     1     -11.191  14.395  68.231  1.00  0.00    -0.295 C  
BRANCH  18  19
HETATM   19  C   UNK     1     -12.028  13.295  68.900  1.00  0.00    -0.297 C  
HETATM   20  N   UNK     1     -11.888  13.337  70.385  1.00  0.00    -0.536 NA 
HETATM   21  C   UNK     1     -11.582  11.908  68.409  1.00  0.00    -0.317 C  
HETATM   22  O   UNK     1     -11.894  11.402  67.348  1.00  0.00    -0.609 OA 
HETATM   23  O   UNK     1     -10.739  11.322  69.304  1.00  0.00    -0.219 OA 
HETATM   24  H1  UNK     1     -12.444  12.607  70.829  1.00  0.00     0.000 HD 
HETATM   25  H2  UNK     1     -12.116  14.260  70.757  1.00  0.00     0.000 HD 
ENDBRANCH  18  19
ENDBRANCH  17  18
ENDBRANCH  16  17
ENDBRANCH  15  16
ENDBRANCH  13  15
ENDBRANCH  10  11
ENDBRANCH   9  10
ENDBRANCH   8   9
ENDBRANCH   7   8
ENDBRANCH   6   7
ENDBRANCH   5   6
ENDBRANCH   4   5
ENDBRANCH   3   4
ENDBRANCH   2   3
TORSDOF 14
ENDMDL
MODEL      383
REMARK 921   NORMALIZED FREE ENERGY PREDICTED BY IDOCK:   -2.78 KCAL/MOL
REMARK 922        TOTAL FREE ENERGY PREDICTED BY IDOCK:   -5.99 KCAL/MOL
REMARK 923 INTER-LIGAND FREE ENERGY PREDICTED BY IDOCK:   -5.39 KCAL/MOL
REMARK 924 INTRA-LIGAND FREE ENERGY PREDICTED BY IDOCK:   -0.60 KCAL/MOL
REMARK 927      BINDING AFFINITY PREDICTED BY RF-SCORE:    0.00 PKD
ROOT
HETATM    1  C   UNK     1      -6.839   3.921  70.106  1.00  0.00    -0.034 C  
HETATM    2  O   UNK     1      -6.554   4.429  68.811  1.00  0.00    -0.043 OA 
ENDROOT
BRANCH   2   3
HETATM    3  C   UNK     1      -5.545   3.658  68.159  1.00  0.00    -0.018 C  
BRANCH   3   4
HETATM    4  C   UNK     1      -5.485   4.055  66.688  1.00  0.00    -0.013 C  
BRANCH   4   5
HETATM    5  O   UNK     1      -6.797   4.381  66.233  1.00  0.00    -0.055 OA 
BRANCH   5   6
HETATM    6  C   UNK     1      -7.506   3.221  65.805  1.00  0.00    -0.073 C  
BRANCH   6   7
HETATM    7  C   UNK     1      -8.828   3.138  66.558  1.00  0.00    -0.150 C  
BRANCH   7   8
HETATM    8  C   UNK     1      -9.748   4.325  66.251  1.00  0.00    -0.225 C  
BRANCH   8   9
HETATM    9  C   UNK     1      -9.993   5.153  67.509  1.00  0.00    -0.211 C  
BRANCH   9  10
HETATM   10  C   UNK     1     -10.743   6.449  67.214  1.00  0.00    -0.426 C  
BRANCH  10  11
HETATM   11  C   UNK     1      -9.784   7.550  66.800  1.00  0.00    -0.216 C  
HETATM   12  O   UNK     1      -8.584   7.372  66.619  1.00  0.00    -0.118 OA 
HETATM   13  N   UNK     1     -10.393   8.776  66.648  1.00  0.00    -0.265 N  
HETATM   14  H   UNK     1     -11.388   8.870  66.853  1.00  0.00     0.000 HD 
BRANCH  13  15
HETATM   15  C   UNK     1      -9.643   9.933  66.201  1.00  0.00    -0.218 C  
BRANCH  15  16
HETATM   16  C   UNK     1      -9.686  10.115  64.682  1.00  0.00    -0.377 C  
BRANCH  16  17
HETATM   17  C   UNK     1     -10.585  11.285  64.284  1.00  0.00    -0.422 C  
BRANCH  17  18
HETATM   18  C   UNK     1     -11.374  11.852  65.474  1.00  0.00    -0.334 C  
BRANCH  18  19
HETATM   19  C   UNK     1     -12.644  12.610  65.061  1.00  0.00    -0.430 C  
HETATM   20  N   UNK     1     -13.240  12.030  63.821  1.00  0.00    -0.642 NA 
HETATM   21  C   UNK     1     -12.325  14.090  64.800  1.00  0.00    -0.413 C  
HETATM   22  O   UNK     1     -12.180  14.942  65.657  1.00  0.00    -0.127 OA 
HETATM   23  O   UNK     1     -12.172  14.328  63.467  1.00  0.00    -0.582 OA 
HETATM   24  H1  UNK     1     -14.083  12.532  63.547  1.00  0.00     0.000 HD 
HETATM   25  H2  UNK     1     -13.416  11.030  63.923  1.00  0.00     0.000 HD 
ENDBRANCH  18  19
ENDBRANCH  17  18
ENDBRANCH  16  17
ENDBRANCH  15  16
ENDBRANCH  13  15
ENDBRANCH  10  11
ENDBRANCH   9  10
ENDBRANCH   8   9
ENDBRANCH   7   8
ENDBRANCH   6   7
ENDBRANCH   5   6
ENDBRANCH   4   5
ENDBRANCH   3   4
ENDBRANCH   2   3
TORSDOF 14
ENDMDL
MODEL      384
REMARK 921   NORMALIZED FREE ENERGY PREDICTED BY IDOCK:   -2.78 KCAL/MOL
REMARK 922        TOTAL FREE ENERGY PREDICTED BY IDOCK:   -5.99 KCAL/MOL
REMARK 923 INTER-LIGAND FREE ENERGY PREDICTED BY IDOCK:   -5.30 KCAL/MOL
REMARK 924 INTRA-LIGAND FREE ENERGY PREDICTED BY IDOCK:   -0.69 KCAL/MOL
REMARK 927      BINDING AFFINITY PREDICTED BY RF-SCORE:    0.00 PKD
ROOT
HETATM    1  C   UNK     1      -9.898  17.102  69.076  1.00  0.00    -0.240 C  
HETATM    2  O   UNK     1     -10.182  15.810  69.593  1.00  0.00    -0.256 OA 
ENDROOT
BRANCH   2   3
HETATM    3  C   UNK     1     -11.458  15.341  69.154  1.00  0.00    -0.316 C  
BRANCH   3   4
HETATM    4  C   UNK     1     -11.531  15.442  67.635  1.00  0.00    -0.251 C  
BRANCH   4   5
HETATM    5  O   UNK     1     -11.586  14.132  67.076  1.00  0.00    -0.343 OA 
BRANCH   5   6
HETATM    6  C   UNK     1     -12.448  14.082  65.941  1.00  0.00    -0.481 C  
BRANCH   6   7
HETATM    7  C   UNK     1     -12.006  12.946  65.028  1.00  0.00    -0.445 C  
BRANCH   7   8
HETATM    8  C   UNK     1     -10.616  13.187  64.429  1.00  0.00    -0.441 C  
BRANCH   8   9
HETATM    9  C   UNK     1     -10.302  12.141  63.363  1.00  0.00    -0.438 C  
BRANCH   9  10
HETATM   10  C   UNK     1     -10.546  10.717  63.857  1.00  0.00    -0.149 C  
BRANCH  10  11
HETATM   11  C   UNK     1      -9.365  10.215  64.668  1.00  0.00    -0.277 C  
HETATM   12  O   UNK     1      -8.196  10.363  64.328  1.00  0.00    -0.164 OA 
HETATM   13  N   UNK     1      -9.734   9.571  65.828  1.00  0.00    -0.275 N  
HETATM   14  H   UNK     1     -10.725   9.441  66.036  1.00  0.00     0.000 HD 
BRANCH  13  15
HETATM   15  C   UNK     1      -8.739   9.073  66.757  1.00  0.00    -0.123 C  
BRANCH  15  16
HETATM   16  C   UNK     1      -9.176   7.785  67.458  1.00  0.00    -0.147 C  
BRANCH  16  17
HETATM   17  C   UNK     1      -9.468   6.672  66.452  1.00  0.00    -0.166 C  
BRANCH  17  18
HETATM   18  C   UNK     1      -8.357   5.613  66.409  1.00  0.00    -0.112 C  
BRANCH  18  19
HETATM   19  C   UNK     1      -8.851   4.195  66.736  1.00  0.00    -0.119 C  
HETATM   20  N   UNK     1     -10.233   3.972  66.220  1.00  0.00    -0.401 NA 
HETATM   21  C   UNK     1      -8.856   3.966  68.256  1.00  0.00    -0.110 C  
HETATM   22  O   UNK     1      -7.879   3.706  68.933  1.00  0.00    -0.052 OA 
HETATM   23  O   UNK     1     -10.105   4.140  68.770  1.00  0.00     0.007 OA 
HETATM   24  H1  UNK     1     -10.561   3.031  66.436  1.00  0.00     0.000 HD 
HETATM   25  H2  UNK     1     -10.297   4.170  65.221  1.00  0.00     0.000 HD 
ENDBRANCH  18  19
ENDBRANCH  17  18
ENDBRANCH  16  17
ENDBRANCH  15  16
ENDBRANCH  13  15
ENDBRANCH  10  11
ENDBRANCH   9  10
ENDBRANCH   8   9
ENDBRANCH   7   8
ENDBRANCH   6   7
ENDBRANCH   5   6
ENDBRANCH   4   5
ENDBRANCH   3   4
ENDBRANCH   2   3
TORSDOF 14
ENDMDL
MODEL      385
REMARK 921   NORMALIZED FREE ENERGY PREDICTED BY IDOCK:   -2.78 KCAL/MOL
REMARK 922        TOTAL FREE ENERGY PREDICTED BY IDOCK:   -5.98 KCAL/MOL
REMARK 923 INTER-LIGAND FREE ENERGY PREDICTED BY IDOCK:   -5.28 KCAL/MOL
REMARK 924 INTRA-LIGAND FREE ENERGY PREDICTED BY IDOCK:   -0.70 KCAL/MOL
REMARK 927      BINDING AFFINITY PREDICTED BY RF-SCORE:    0.00 PKD
ROOT
HETATM    1  C   UNK     1      -8.041  17.293  68.443  1.00  0.00    -0.259 C  
HETATM    2  O   UNK     1      -8.699  16.512  67.456  1.00  0.00    -0.181 OA 
ENDROOT
BRANCH   2   3
HETATM    3  C   UNK     1      -9.955  16.023  67.929  1.00  0.00    -0.233 C  
BRANCH   3   4
HETATM    4  C   UNK     1     -10.808  15.605  66.738  1.00  0.00    -0.277 C  
BRANCH   4   5
HETATM    5  O   UNK     1     -11.962  14.908  67.203  1.00  0.00    -0.304 OA 
BRANCH   5   6
HETATM    6  C   UNK     1     -12.517  14.077  66.187  1.00  0.00    -0.430 C  
BRANCH   6   7
HETATM    7  C   UNK     1     -11.844  12.712  66.234  1.00  0.00    -0.471 C  
BRANCH   7   8
HETATM    8  C   UNK     1     -11.885  11.995  64.880  1.00  0.00    -0.304 C  
BRANCH   8   9
HETATM    9  C   UNK     1     -10.729  11.007  64.760  1.00  0.00    -0.304 C  
BRANCH   9  10
HETATM   10  C   UNK     1      -9.565  11.361  65.681  1.00  0.00    -0.258 C  
BRANCH  10  11
HETATM   11  C   UNK     1      -8.472  10.310  65.605  1.00  0.00    -0.160 C  
HETATM   12  O   UNK     1      -7.307  10.561  65.315  1.00  0.00    -0.134 OA 
HETATM   13  N   UNK     1      -8.917   9.039  65.892  1.00  0.00    -0.176 N  
HETATM   14  H   UNK     1      -9.907   8.885  66.085  1.00  0.00     0.000 HD 
BRANCH  13  15
HETATM   15  C   UNK     1      -8.001   7.915  65.923  1.00  0.00    -0.106 C  
BRANCH  15  16
HETATM   16  C   UNK     1      -7.358   7.716  67.298  1.00  0.00    -0.091 C  
BRANCH  16  17
HETATM   17  C   UNK     1      -8.351   7.128  68.300  1.00  0.00    -0.124 C  
BRANCH  17  18
HETATM   18  C   UNK     1      -8.039   7.538  69.746  1.00  0.00    -0.126 C  
BRANCH  18  19
HETATM   19  C   UNK     1      -8.854   8.748  70.228  1.00  0.00    -0.160 C  
HETATM   20  N   UNK     1      -7.960   9.874  70.631  1.00  0.00    -0.408 NA 
HETATM   21  C   UNK     1      -9.725   8.363  71.434  1.00  0.00    -0.199 C  
HETATM   22  O   UNK     1     -10.783   7.764  71.377  1.00  0.00    -0.221 OA 
HETATM   23  O   UNK     1      -9.134   8.740  72.602  1.00  0.00    -0.354 OA 
HETATM   24  H1  UNK     1      -8.501  10.678  70.950  1.00  0.00     0.000 HD 
HETATM   25  H2  UNK     1      -7.317  10.129  69.881  1.00  0.00     0.000 HD 
ENDBRANCH  18  19
ENDBRANCH  17  18
ENDBRANCH  16  17
ENDBRANCH  15  16
ENDBRANCH  13  15
ENDBRANCH  10  11
ENDBRANCH   9  10
ENDBRANCH   8   9
ENDBRANCH   7   8
ENDBRANCH   6   7
ENDBRANCH   5   6
ENDBRANCH   4   5
ENDBRANCH   3   4
ENDBRANCH   2   3
TORSDOF 14
ENDMDL
MODEL      386
REMARK 921   NORMALIZED FREE ENERGY PREDICTED BY IDOCK:   -2.77 KCAL/MOL
REMARK 922        TOTAL FREE ENERGY PREDICTED BY IDOCK:   -5.97 KCAL/MOL
REMARK 923 INTER-LIGAND FREE ENERGY PREDICTED BY IDOCK:   -5.20 KCAL/MOL
REMARK 924 INTRA-LIGAND FREE ENERGY PREDICTED BY IDOCK:   -0.78 KCAL/MOL
REMARK 927      BINDING AFFINITY PREDICTED BY RF-SCORE:    0.00 PKD
ROOT
HETATM    1  C   UNK     1      -9.666  16.693  68.532  1.00  0.00    -0.244 C  
HETATM    2  O   UNK     1      -9.725  15.566  67.668  1.00  0.00    -0.211 OA 
ENDROOT
BRANCH   2   3
HETATM    3  C   UNK     1     -10.531  15.830  66.520  1.00  0.00    -0.303 C  
BRANCH   3   4
HETATM    4  C   UNK     1     -11.186  14.533  66.061  1.00  0.00    -0.337 C  
BRANCH   4   5
HETATM    5  O   UNK     1     -10.583  14.103  64.843  1.00  0.00    -0.387 OA 
BRANCH   5   6
HETATM    6  C   UNK     1     -10.652  12.686  64.696  1.00  0.00    -0.333 C  
BRANCH   6   7
HETATM    7  C   UNK     1      -9.878  12.028  65.831  1.00  0.00    -0.259 C  
BRANCH   7   8
HETATM    8  C   UNK     1      -8.943  10.920  65.334  1.00  0.00    -0.209 C  
BRANCH   8   9
HETATM    9  C   UNK     1      -9.590   9.550  65.515  1.00  0.00    -0.349 C  
BRANCH   9  10
HETATM   10  C   UNK     1     -10.520   9.503  66.724  1.00  0.00    -0.263 C  
BRANCH  10  11
HETATM   11  C   UNK     1     -10.072   8.441  67.712  1.00  0.00    -0.207 C  
HETATM   12  O   UNK     1      -9.032   8.510  68.359  1.00  0.00    -0.139 OA 
HETATM   13  N   UNK     1     -10.950   7.385  67.813  1.00  0.00    -0.504 N  
HETATM   14  H   UNK     1     -11.779   7.363  67.219  1.00  0.00     0.000 HD 
BRANCH  13  15
HETATM   15  C   UNK     1     -10.714   6.304  68.750  1.00  0.00    -0.297 C  
BRANCH  15  16
HETATM   16  C   UNK     1     -10.012   5.106  68.106  1.00  0.00    -0.203 C  
BRANCH  16  17
HETATM   17  C   UNK     1     -10.345   4.997  66.618  1.00  0.00    -0.312 C  
BRANCH  17  18
HETATM   18  C   UNK     1      -9.095   4.795  65.749  1.00  0.00    -0.142 C  
BRANCH  18  19
HETATM   19  C   UNK     1      -8.904   3.345  65.279  1.00  0.00    -0.126 C  
HETATM   20  N   UNK     1      -7.541   2.842  65.618  1.00  0.00    -0.075 NA 
HETATM   21  C   UNK     1      -9.095   3.245  63.757  1.00  0.00    -0.097 C  
HETATM   22  O   UNK     1     -10.166   3.217  63.180  1.00  0.00    -0.134 OA 
HETATM   23  O   UNK     1      -7.893   3.241  63.115  1.00  0.00    -0.066 OA 
HETATM   24  H1  UNK     1      -7.415   1.879  65.306  1.00  0.00     0.000 HD 
HETATM   25  H2  UNK     1      -7.342   2.942  66.614  1.00  0.00     0.000 HD 
ENDBRANCH  18  19
ENDBRANCH  17  18
ENDBRANCH  16  17
ENDBRANCH  15  16
ENDBRANCH  13  15
ENDBRANCH  10  11
ENDBRANCH   9  10
ENDBRANCH   8   9
ENDBRANCH   7   8
ENDBRANCH   6   7
ENDBRANCH   5   6
ENDBRANCH   4   5
ENDBRANCH   3   4
ENDBRANCH   2   3
TORSDOF 14
ENDMDL
MODEL      387
REMARK 921   NORMALIZED FREE ENERGY PREDICTED BY IDOCK:   -2.77 KCAL/MOL
REMARK 922        TOTAL FREE ENERGY PREDICTED BY IDOCK:   -5.97 KCAL/MOL
REMARK 923 INTER-LIGAND FREE ENERGY PREDICTED BY IDOCK:   -5.49 KCAL/MOL
REMARK 924 INTRA-LIGAND FREE ENERGY PREDICTED BY IDOCK:   -0.48 KCAL/MOL
REMARK 927      BINDING AFFINITY PREDICTED BY RF-SCORE:    0.00 PKD
ROOT
HETATM    1  C   UNK     1      -8.750   4.606  68.390  1.00  0.00    -0.099 C  
HETATM    2  O   UNK     1      -9.044   3.785  67.270  1.00  0.00    -0.132 OA 
ENDROOT
BRANCH   2   3
HETATM    3  C   UNK     1      -7.853   3.340  66.621  1.00  0.00    -0.080 C  
BRANCH   3   4
HETATM    4  C   UNK     1      -7.329   4.453  65.721  1.00  0.00    -0.080 C  
BRANCH   4   5
HETATM    5  O   UNK     1      -8.263   4.692  64.671  1.00  0.00    -0.103 OA 
BRANCH   5   6
HETATM    6  C   UNK     1      -7.933   5.868  63.935  1.00  0.00    -0.119 C  
BRANCH   6   7
HETATM    7  C   UNK     1      -8.139   7.087  64.823  1.00  0.00    -0.096 C  
BRANCH   7   8
HETATM    8  C   UNK     1      -7.879   8.401  64.078  1.00  0.00    -0.146 C  
BRANCH   8   9
HETATM    9  C   UNK     1      -8.802   9.502  64.594  1.00  0.00    -0.250 C  
BRANCH   9  10
HETATM   10  C   UNK     1      -9.423  10.316  63.462  1.00  0.00    -0.345 C  
BRANCH  10  11
HETATM   11  C   UNK     1     -10.331  11.402  64.009  1.00  0.00    -0.362 C  
HETATM   12  O   UNK     1     -10.870  12.253  63.309  1.00  0.00    -0.435 OA 
HETATM   13  N   UNK     1     -10.492  11.343  65.375  1.00  0.00    -0.272 N  
HETATM   14  H   UNK     1      -9.984  10.637  65.910  1.00  0.00     0.000 HD 
BRANCH  13  15
HETATM   15  C   UNK     1     -11.370  12.266  66.067  1.00  0.00    -0.350 C  
BRANCH  15  16
HETATM   16  C   UNK     1     -10.606  13.356  66.821  1.00  0.00    -0.277 C  
BRANCH  16  17
HETATM   17  C   UNK     1     -11.484  14.581  67.075  1.00  0.00    -0.383 C  
BRANCH  17  18
HETATM   18  C   UNK     1     -12.236  14.499  68.412  1.00  0.00    -0.154 C  
BRANCH  18  19
HETATM   19  C   UNK     1     -11.329  14.155  69.603  1.00  0.00    -0.236 C  
HETATM   20  N   UNK     1     -11.467  12.720  69.990  1.00  0.00    -0.524 NA 
HETATM   21  C   UNK     1     -11.689  15.023  70.819  1.00  0.00    -0.320 C  
HETATM   22  O   UNK     1     -11.350  16.179  70.986  1.00  0.00    -0.387 OA 
HETATM   23  O   UNK     1     -12.492  14.341  71.684  1.00  0.00    -0.338 OA 
HETATM   24  H1  UNK     1     -10.865  12.491  70.780  1.00  0.00     0.000 HD 
HETATM   25  H2  UNK     1     -11.296  12.101  69.197  1.00  0.00     0.000 HD 
ENDBRANCH  18  19
ENDBRANCH  17  18
ENDBRANCH  16  17
ENDBRANCH  15  16
ENDBRANCH  13  15
ENDBRANCH  10  11
ENDBRANCH   9  10
ENDBRANCH   8   9
ENDBRANCH   7   8
ENDBRANCH   6   7
ENDBRANCH   5   6
ENDBRANCH   4   5
ENDBRANCH   3   4
ENDBRANCH   2   3
TORSDOF 14
ENDMDL
MODEL      388
REMARK 921   NORMALIZED FREE ENERGY PREDICTED BY IDOCK:   -2.77 KCAL/MOL
REMARK 922        TOTAL FREE ENERGY PREDICTED BY IDOCK:   -5.96 KCAL/MOL
REMARK 923 INTER-LIGAND FREE ENERGY PREDICTED BY IDOCK:   -5.46 KCAL/MOL
REMARK 924 INTRA-LIGAND FREE ENERGY PREDICTED BY IDOCK:   -0.50 KCAL/MOL
REMARK 927      BINDING AFFINITY PREDICTED BY RF-SCORE:    0.00 PKD
ROOT
HETATM    1  C   UNK     1      -5.825  18.443  67.046  1.00  0.00    -0.149 C  
HETATM    2  O   UNK     1      -7.106  19.022  66.848  1.00  0.00    -0.203 OA 
ENDROOT
BRANCH   2   3
HETATM    3  C   UNK     1      -8.076  18.036  66.495  1.00  0.00    -0.269 C  
BRANCH   3   4
HETATM    4  C   UNK     1      -8.043  16.912  67.524  1.00  0.00    -0.173 C  
BRANCH   4   5
HETATM    5  O   UNK     1      -8.245  15.663  66.867  1.00  0.00    -0.210 OA 
BRANCH   5   6
HETATM    6  C   UNK     1      -9.451  15.660  66.106  1.00  0.00    -0.341 C  
BRANCH   6   7
HETATM    7  C   UNK     1     -10.641  15.632  67.057  1.00  0.00    -0.311 C  
BRANCH   7   8
HETATM    8  C   UNK     1     -10.706  14.335  67.870  1.00  0.00    -0.244 C  
BRANCH   8   9
HETATM    9  C   UNK     1     -12.005  14.265  68.667  1.00  0.00    -0.348 C  
BRANCH   9  10
HETATM   10  C   UNK     1     -11.927  13.266  69.818  1.00  0.00    -0.391 C  
BRANCH  10  11
HETATM   11  C   UNK     1     -11.719  11.855  69.299  1.00  0.00    -0.328 C  
HETATM   12  O   UNK     1     -12.277  11.409  68.301  1.00  0.00    -0.588 OA 
HETATM   13  N   UNK     1     -10.841  11.117  70.060  1.00  0.00    -0.456 N  
HETATM   14  H   UNK     1     -10.440  11.528  70.904  1.00  0.00     0.000 HD 
BRANCH  13  15
HETATM   15  C   UNK     1     -10.477   9.765  69.684  1.00  0.00    -0.242 C  
BRANCH  15  16
HETATM   16  C   UNK     1      -9.638   9.714  68.404  1.00  0.00    -0.154 C  
BRANCH  16  17
HETATM   17  C   UNK     1     -10.242   8.755  67.378  1.00  0.00    -0.318 C  
BRANCH  17  18
HETATM   18  C   UNK     1      -9.420   8.685  66.083  1.00  0.00    -0.308 C  
BRANCH  18  19
HETATM   19  C   UNK     1      -7.916   8.912  66.300  1.00  0.00    -0.103 C  
HETATM   20  N   UNK     1      -7.274   9.477  65.078  1.00  0.00    -0.105 NA 
HETATM   21  C   UNK     1      -7.218   7.588  66.649  1.00  0.00    -0.083 C  
HETATM   22  O   UNK     1      -7.223   7.054  67.742  1.00  0.00    -0.086 OA 
HETATM   23  O   UNK     1      -6.621   7.048  65.550  1.00  0.00    -0.049 OA 
HETATM   24  H1  UNK     1      -6.276   9.629  65.222  1.00  0.00     0.000 HD 
HETATM   25  H2  UNK     1      -7.741  10.330  64.769  1.00  0.00     0.000 HD 
ENDBRANCH  18  19
ENDBRANCH  17  18
ENDBRANCH  16  17
ENDBRANCH  15  16
ENDBRANCH  13  15
ENDBRANCH  10  11
ENDBRANCH   9  10
ENDBRANCH   8   9
ENDBRANCH   7   8
ENDBRANCH   6   7
ENDBRANCH   5   6
ENDBRANCH   4   5
ENDBRANCH   3   4
ENDBRANCH   2   3
TORSDOF 14
ENDMDL
MODEL      389
REMARK 921   NORMALIZED FREE ENERGY PREDICTED BY IDOCK:   -2.75 KCAL/MOL
REMARK 922        TOTAL FREE ENERGY PREDICTED BY IDOCK:   -5.94 KCAL/MOL
REMARK 923 INTER-LIGAND FREE ENERGY PREDICTED BY IDOCK:   -4.70 KCAL/MOL
REMARK 924 INTRA-LIGAND FREE ENERGY PREDICTED BY IDOCK:   -1.23 KCAL/MOL
REMARK 927      BINDING AFFINITY PREDICTED BY RF-SCORE:    0.00 PKD
ROOT
HETATM    1  C   UNK     1      -6.197  15.750  68.730  1.00  0.00    -0.105 C  
HETATM    2  O   UNK     1      -7.536  15.600  68.282  1.00  0.00    -0.116 OA 
ENDROOT
BRANCH   2   3
HETATM    3  C   UNK     1      -8.451  15.549  69.377  1.00  0.00    -0.256 C  
BRANCH   3   4
HETATM    4  C   UNK     1      -9.651  16.436  69.067  1.00  0.00    -0.264 C  
BRANCH   4   5
HETATM    5  O   UNK     1     -10.787  15.966  69.788  1.00  0.00    -0.271 OA 
BRANCH   5   6
HETATM    6  C   UNK     1     -11.871  15.658  68.915  1.00  0.00    -0.352 C  
BRANCH   6   7
HETATM    7  C   UNK     1     -11.905  14.155  68.671  1.00  0.00    -0.383 C  
BRANCH   7   8
HETATM    8  C   UNK     1     -11.893  13.807  67.179  1.00  0.00    -0.441 C  
BRANCH   8   9
HETATM    9  C   UNK     1     -10.616  13.054  66.813  1.00  0.00    -0.269 C  
BRANCH   9  10
HETATM   10  C   UNK     1      -9.949  12.418  68.030  1.00  0.00    -0.207 C  
BRANCH  10  11
HETATM   11  C   UNK     1      -8.532  11.982  67.706  1.00  0.00    -0.157 C  
HETATM   12  O   UNK     1      -7.566  12.231  68.421  1.00  0.00    -0.116 OA 
HETATM   13  N   UNK     1      -8.432  11.280  66.526  1.00  0.00    -0.168 N  
HETATM   14  H   UNK     1      -9.265  11.141  65.954  1.00  0.00     0.000 HD 
BRANCH  13  15
HETATM   15  C   UNK     1      -7.164  10.735  66.085  1.00  0.00    -0.126 C  
BRANCH  15  16
HETATM   16  C   UNK     1      -7.014   9.247  66.410  1.00  0.00    -0.084 C  
BRANCH  16  17
HETATM   17  C   UNK     1      -7.797   8.378  65.426  1.00  0.00    -0.108 C  
BRANCH  17  18
HETATM   18  C   UNK     1      -8.185   7.018  66.023  1.00  0.00    -0.129 C  
BRANCH  18  19
HETATM   19  C   UNK     1      -8.970   7.128  67.339  1.00  0.00    -0.122 C  
HETATM   20  N   UNK     1      -9.143   5.791  67.978  1.00  0.00    -0.111 NA 
HETATM   21  C   UNK     1     -10.362   7.730  67.085  1.00  0.00    -0.319 C  
HETATM   22  O   UNK     1     -10.600   8.912  66.925  1.00  0.00    -0.263 OA 
HETATM   23  O   UNK     1     -11.308   6.753  67.011  1.00  0.00    -0.337 OA 
HETATM   24  H1  UNK     1      -9.664   5.864  68.852  1.00  0.00     0.000 HD 
HETATM   25  H2  UNK     1      -8.248   5.322  68.114  1.00  0.00     0.000 HD 
ENDBRANCH  18  19
ENDBRANCH  17  18
ENDBRANCH  16  17
ENDBRANCH  15  16
ENDBRANCH  13  15
ENDBRANCH  10  11
ENDBRANCH   9  10
ENDBRANCH   8   9
ENDBRANCH   7   8
ENDBRANCH   6   7
ENDBRANCH   5   6
ENDBRANCH   4   5
ENDBRANCH   3   4
ENDBRANCH   2   3
TORSDOF 14
ENDMDL
MODEL      390
REMARK 921   NORMALIZED FREE ENERGY PREDICTED BY IDOCK:   -2.75 KCAL/MOL
REMARK 922        TOTAL FREE ENERGY PREDICTED BY IDOCK:   -5.93 KCAL/MOL
REMARK 923 INTER-LIGAND FREE ENERGY PREDICTED BY IDOCK:   -4.97 KCAL/MOL
REMARK 924 INTRA-LIGAND FREE ENERGY PREDICTED BY IDOCK:   -0.97 KCAL/MOL
REMARK 927      BINDING AFFINITY PREDICTED BY RF-SCORE:    0.00 PKD
ROOT
HETATM    1  C   UNK     1      -8.208   7.888  65.343  1.00  0.00    -0.138 C  
HETATM    2  O   UNK     1      -7.931   7.231  66.571  1.00  0.00    -0.109 OA 
ENDROOT
BRANCH   2   3
HETATM    3  C   UNK     1      -8.987   6.343  66.938  1.00  0.00    -0.124 C  
BRANCH   3   4
HETATM    4  C   UNK     1     -10.143   7.153  67.514  1.00  0.00    -0.188 C  
BRANCH   4   5
HETATM    5  O   UNK     1      -9.721   7.791  68.717  1.00  0.00    -0.153 OA 
BRANCH   5   6
HETATM    6  C   UNK     1      -9.834   9.209  68.626  1.00  0.00    -0.164 C  
BRANCH   6   7
HETATM    7  C   UNK     1      -9.209   9.841  69.863  1.00  0.00    -0.263 C  
BRANCH   7   8
HETATM    8  C   UNK     1      -7.872  10.526  69.554  1.00  0.00    -0.134 C  
BRANCH   8   9
HETATM    9  C   UNK     1      -7.887  11.124  68.150  1.00  0.00    -0.118 C  
BRANCH   9  10
HETATM   10  C   UNK     1      -8.105  12.635  68.166  1.00  0.00    -0.164 C  
BRANCH  10  11
HETATM   11  C   UNK     1      -9.537  12.981  67.798  1.00  0.00    -0.208 C  
HETATM   12  O   UNK     1      -9.905  13.217  66.652  1.00  0.00    -0.247 OA 
HETATM   13  N   UNK     1     -10.387  13.007  68.881  1.00  0.00    -0.431 N  
HETATM   14  H   UNK     1     -10.014  12.843  69.816  1.00  0.00     0.000 HD 
BRANCH  13  15
HETATM   15  C   UNK     1     -11.804  13.264  68.713  1.00  0.00    -0.334 C  
BRANCH  15  16
HETATM   16  C   UNK     1     -12.289  14.462  69.533  1.00  0.00    -0.263 C  
BRANCH  16  17
HETATM   17  C   UNK     1     -11.891  15.785  68.879  1.00  0.00    -0.354 C  
BRANCH  17  18
HETATM   18  C   UNK     1     -10.803  16.527  69.669  1.00  0.00    -0.322 C  
BRANCH  18  19
HETATM   19  C   UNK     1     -10.114  17.639  68.864  1.00  0.00    -0.351 C  
HETATM   20  N   UNK     1     -10.823  17.891  67.575  1.00  0.00    -0.313 NA 
HETATM   21  C   UNK     1      -8.659  17.254  68.551  1.00  0.00    -0.270 C  
HETATM   22  O   UNK     1      -7.726  17.335  69.327  1.00  0.00    -0.132 OA 
HETATM   23  O   UNK     1      -8.548  16.754  67.289  1.00  0.00    -0.186 OA 
HETATM   24  H1  UNK     1     -10.366  18.630  67.040  1.00  0.00     0.000 HD 
HETATM   25  H2  UNK     1     -11.812  18.093  67.724  1.00  0.00     0.000 HD 
ENDBRANCH  18  19
ENDBRANCH  17  18
ENDBRANCH  16  17
ENDBRANCH  15  16
ENDBRANCH  13  15
ENDBRANCH  10  11
ENDBRANCH   9  10
ENDBRANCH   8   9
ENDBRANCH   7   8
ENDBRANCH   6   7
ENDBRANCH   5   6
ENDBRANCH   4   5
ENDBRANCH   3   4
ENDBRANCH   2   3
TORSDOF 14
ENDMDL
MODEL      391
REMARK 921   NORMALIZED FREE ENERGY PREDICTED BY IDOCK:   -2.75 KCAL/MOL
REMARK 922        TOTAL FREE ENERGY PREDICTED BY IDOCK:   -5.93 KCAL/MOL
REMARK 923 INTER-LIGAND FREE ENERGY PREDICTED BY IDOCK:   -4.97 KCAL/MOL
REMARK 924 INTRA-LIGAND FREE ENERGY PREDICTED BY IDOCK:   -0.96 KCAL/MOL
REMARK 927      BINDING AFFINITY PREDICTED BY RF-SCORE:    0.00 PKD
ROOT
HETATM    1  C   UNK     1     -10.784   6.068  67.208  1.00  0.00    -0.318 C  
HETATM    2  O   UNK     1      -9.414   6.427  67.310  1.00  0.00    -0.120 OA 
ENDROOT
BRANCH   2   3
HETATM    3  C   UNK     1      -8.888   6.847  66.051  1.00  0.00    -0.136 C  
BRANCH   3   4
HETATM    4  C   UNK     1      -7.564   7.567  66.278  1.00  0.00    -0.088 C  
BRANCH   4   5
HETATM    5  O   UNK     1      -7.335   8.483  65.210  1.00  0.00    -0.081 OA 
BRANCH   5   6
HETATM    6  C   UNK     1      -7.729   9.808  65.562  1.00  0.00    -0.121 C  
BRANCH   6   7
HETATM    7  C   UNK     1      -7.321  10.083  67.003  1.00  0.00    -0.091 C  
BRANCH   7   8
HETATM    8  C   UNK     1      -8.389  10.872  67.770  1.00  0.00    -0.117 C  
BRANCH   8   9
HETATM    9  C   UNK     1      -9.562   9.968  68.139  1.00  0.00    -0.152 C  
BRANCH   9  10
HETATM   10  C   UNK     1     -10.277  10.433  69.405  1.00  0.00    -0.257 C  
BRANCH  10  11
HETATM   11  C   UNK     1     -11.331  11.476  69.082  1.00  0.00    -0.286 C  
HETATM   12  O   UNK     1     -12.317  11.252  68.388  1.00  0.00    -0.545 OA 
HETATM   13  N   UNK     1     -11.072  12.706  69.644  1.00  0.00    -0.467 N  
HETATM   14  H   UNK     1     -10.213  12.843  70.177  1.00  0.00     0.000 HD 
BRANCH  13  15
HETATM   15  C   UNK     1     -12.000  13.809  69.489  1.00  0.00    -0.345 C  
BRANCH  15  16
HETATM   16  C   UNK     1     -11.562  14.803  68.411  1.00  0.00    -0.350 C  
BRANCH  16  17
HETATM   17  C   UNK     1     -10.067  14.686  68.117  1.00  0.00    -0.224 C  
BRANCH  17  18
HETATM   18  C   UNK     1      -9.578  15.749  67.122  1.00  0.00    -0.224 C  
BRANCH  18  19
HETATM   19  C   UNK     1      -8.051  15.776  66.957  1.00  0.00    -0.236 C  
HETATM   20  N   UNK     1      -7.472  14.404  67.062  1.00  0.00    -0.309 NA 
HETATM   21  C   UNK     1      -7.409  16.659  68.039  1.00  0.00    -0.156 C  
HETATM   22  O   UNK     1      -7.362  17.874  68.021  1.00  0.00    -0.218 OA 
HETATM   23  O   UNK     1      -6.933  15.902  69.066  1.00  0.00    -0.134 OA 
HETATM   24  H1  UNK     1      -6.458  14.422  66.952  1.00  0.00     0.000 HD 
HETATM   25  H2  UNK     1      -7.909  13.761  66.402  1.00  0.00     0.000 HD 
ENDBRANCH  18  19
ENDBRANCH  17  18
ENDBRANCH  16  17
ENDBRANCH  15  16
ENDBRANCH  13  15
ENDBRANCH  10  11
ENDBRANCH   9  10
ENDBRANCH   8   9
ENDBRANCH   7   8
ENDBRANCH   6   7
ENDBRANCH   5   6
ENDBRANCH   4   5
ENDBRANCH   3   4
ENDBRANCH   2   3
TORSDOF 14
ENDMDL
MODEL      392
REMARK 921   NORMALIZED FREE ENERGY PREDICTED BY IDOCK:   -2.75 KCAL/MOL
REMARK 922        TOTAL FREE ENERGY PREDICTED BY IDOCK:   -5.93 KCAL/MOL
REMARK 923 INTER-LIGAND FREE ENERGY PREDICTED BY IDOCK:   -4.99 KCAL/MOL
REMARK 924 INTRA-LIGAND FREE ENERGY PREDICTED BY IDOCK:   -0.94 KCAL/MOL
REMARK 927      BINDING AFFINITY PREDICTED BY RF-SCORE:    0.00 PKD
ROOT
HETATM    1  C   UNK     1      -8.657  14.328  68.483  1.00  0.00    -0.175 C  
HETATM    2  O   UNK     1      -9.749  15.185  68.787  1.00  0.00    -0.205 OA 
ENDROOT
BRANCH   2   3
HETATM    3  C   UNK     1     -10.145  15.950  67.648  1.00  0.00    -0.242 C  
BRANCH   3   4
HETATM    4  C   UNK     1     -10.719  15.012  66.592  1.00  0.00    -0.312 C  
BRANCH   4   5
HETATM    5  O   UNK     1     -11.963  14.487  67.051  1.00  0.00    -0.404 OA 
BRANCH   5   6
HETATM    6  C   UNK     1     -12.156  13.143  66.615  1.00  0.00    -0.346 C  
BRANCH   6   7
HETATM    7  C   UNK     1     -11.763  12.193  67.738  1.00  0.00    -0.390 C  
BRANCH   7   8
HETATM    8  C   UNK     1     -12.277  12.662  69.104  1.00  0.00    -0.056 C  
BRANCH   8   9
HETATM    9  C   UNK     1     -12.216  11.524  70.120  1.00  0.00    -0.387 C  
BRANCH   9  10
HETATM   10  C   UNK     1     -10.912  10.735  70.030  1.00  0.00    -0.280 C  
BRANCH  10  11
HETATM   11  C   UNK     1     -11.151   9.259  70.293  1.00  0.00    -0.251 C  
HETATM   12  O   UNK     1     -12.087   8.832  70.961  1.00  0.00    -0.289 OA 
HETATM   13  N   UNK     1     -10.210   8.442  69.709  1.00  0.00    -0.202 N  
HETATM   14  H   UNK     1      -9.430   8.859  69.200  1.00  0.00     0.000 HD 
BRANCH  13  15
HETATM   15  C   UNK     1     -10.309   6.999  69.805  1.00  0.00    -0.212 C  
BRANCH  15  16
HETATM   16  C   UNK     1     -10.485   6.326  68.442  1.00  0.00    -0.273 C  
BRANCH  16  17
HETATM   17  C   UNK     1     -10.459   7.349  67.306  1.00  0.00    -0.385 C  
BRANCH  17  18
HETATM   18  C   UNK     1      -9.279   7.135  66.348  1.00  0.00    -0.196 C  
BRANCH  18  19
HETATM   19  C   UNK     1      -8.142   6.298  66.955  1.00  0.00    -0.109 C  
HETATM   20  N   UNK     1      -7.240   7.141  67.794  1.00  0.00    -0.088 NA 
HETATM   21  C   UNK     1      -7.304   5.646  65.844  1.00  0.00    -0.073 C  
HETATM   22  O   UNK     1      -7.612   4.647  65.223  1.00  0.00    -0.079 OA 
HETATM   23  O   UNK     1      -6.172   6.366  65.602  1.00  0.00    -0.035 OA 
HETATM   24  H1  UNK     1      -6.486   6.587  68.197  1.00  0.00     0.000 HD 
HETATM   25  H2  UNK     1      -7.761   7.645  68.513  1.00  0.00     0.000 HD 
ENDBRANCH  18  19
ENDBRANCH  17  18
ENDBRANCH  16  17
ENDBRANCH  15  16
ENDBRANCH  13  15
ENDBRANCH  10  11
ENDBRANCH   9  10
ENDBRANCH   8   9
ENDBRANCH   7   8
ENDBRANCH   6   7
ENDBRANCH   5   6
ENDBRANCH   4   5
ENDBRANCH   3   4
ENDBRANCH   2   3
TORSDOF 14
ENDMDL
MODEL      393
REMARK 921   NORMALIZED FREE ENERGY PREDICTED BY IDOCK:   -2.75 KCAL/MOL
REMARK 922        TOTAL FREE ENERGY PREDICTED BY IDOCK:   -5.93 KCAL/MOL
REMARK 923 INTER-LIGAND FREE ENERGY PREDICTED BY IDOCK:   -4.79 KCAL/MOL
REMARK 924 INTRA-LIGAND FREE ENERGY PREDICTED BY IDOCK:   -1.13 KCAL/MOL
REMARK 927      BINDING AFFINITY PREDICTED BY RF-SCORE:    0.00 PKD
ROOT
HETATM    1  C   UNK     1     -11.081   6.510  69.881  1.00  0.00    -0.371 C  
HETATM    2  O   UNK     1     -11.100   7.314  71.052  1.00  0.00    -0.248 OA 
ENDROOT
BRANCH   2   3
HETATM    3  C   UNK     1     -10.411   8.548  70.850  1.00  0.00    -0.203 C  
BRANCH   3   4
HETATM    4  C   UNK     1     -11.271   9.692  71.373  1.00  0.00    -0.356 C  
BRANCH   4   5
HETATM    5  O   UNK     1     -12.230  10.055  70.383  1.00  0.00    -0.246 OA 
BRANCH   5   6
HETATM    6  C   UNK     1     -12.035  11.393  69.931  1.00  0.00    -0.359 C  
BRANCH   6   7
HETATM    7  C   UNK     1     -11.292  11.369  68.602  1.00  0.00    -0.327 C  
BRANCH   7   8
HETATM    8  C   UNK     1     -11.700  12.529  67.686  1.00  0.00    -0.423 C  
BRANCH   8   9
HETATM    9  C   UNK     1     -10.665  12.730  66.583  1.00  0.00    -0.279 C  
BRANCH   9  10
HETATM   10  C   UNK     1      -9.784  13.952  66.829  1.00  0.00    -0.282 C  
BRANCH  10  11
HETATM   11  C   UNK     1      -8.323  13.556  66.941  1.00  0.00     0.008 C  
HETATM   12  O   UNK     1      -7.446  14.306  67.358  1.00  0.00    -0.182 OA 
HETATM   13  N   UNK     1      -8.074  12.267  66.525  1.00  0.00    -0.397 N  
HETATM   14  H   UNK     1      -8.838  11.706  66.148  1.00  0.00     0.000 HD 
BRANCH  13  15
HETATM   15  C   UNK     1      -6.745  11.697  66.613  1.00  0.00    -0.028 C  
BRANCH  15  16
HETATM   16  C   UNK     1      -6.709  10.405  67.433  1.00  0.00    -0.072 C  
BRANCH  16  17
HETATM   17  C   UNK     1      -6.535   9.179  66.538  1.00  0.00    -0.067 C  
BRANCH  17  18
HETATM   18  C   UNK     1      -7.685   8.172  66.690  1.00  0.00    -0.094 C  
BRANCH  18  19
HETATM   19  C   UNK     1      -8.606   8.105  65.462  1.00  0.00    -0.149 C  
HETATM   20  N   UNK     1      -7.817   8.027  64.198  1.00  0.00    -0.136 NA 
HETATM   21  C   UNK     1      -9.506   9.350  65.398  1.00  0.00    -0.253 C  
HETATM   22  O   UNK     1     -10.513   9.527  66.056  1.00  0.00    -0.146 OA 
HETATM   23  O   UNK     1      -9.000  10.271  64.531  1.00  0.00    -0.184 OA 
HETATM   24  H1  UNK     1      -8.428   7.982  63.384  1.00  0.00     0.000 HD 
HETATM   25  H2  UNK     1      -7.158   7.248  64.216  1.00  0.00     0.000 HD 
ENDBRANCH  18  19
ENDBRANCH  17  18
ENDBRANCH  16  17
ENDBRANCH  15  16
ENDBRANCH  13  15
ENDBRANCH  10  11
ENDBRANCH   9  10
ENDBRANCH   8   9
ENDBRANCH   7   8
ENDBRANCH   6   7
ENDBRANCH   5   6
ENDBRANCH   4   5
ENDBRANCH   3   4
ENDBRANCH   2   3
TORSDOF 14
ENDMDL
MODEL      394
REMARK 921   NORMALIZED FREE ENERGY PREDICTED BY IDOCK:   -2.74 KCAL/MOL
REMARK 922        TOTAL FREE ENERGY PREDICTED BY IDOCK:   -5.92 KCAL/MOL
REMARK 923 INTER-LIGAND FREE ENERGY PREDICTED BY IDOCK:   -5.32 KCAL/MOL
REMARK 924 INTRA-LIGAND FREE ENERGY PREDICTED BY IDOCK:   -0.59 KCAL/MOL
REMARK 927      BINDING AFFINITY PREDICTED BY RF-SCORE:    0.00 PKD
ROOT
HETATM    1  C   UNK     1     -11.512  10.472  68.661  1.00  0.00    -0.223 C  
HETATM    2  O   UNK     1     -12.200  11.705  68.819  1.00  0.00    -0.416 OA 
ENDROOT
BRANCH   2   3
HETATM    3  C   UNK     1     -11.361  12.816  68.503  1.00  0.00    -0.291 C  
BRANCH   3   4
HETATM    4  C   UNK     1     -12.231  14.002  68.106  1.00  0.00    -0.156 C  
BRANCH   4   5
HETATM    5  O   UNK     1     -12.001  14.320  66.735  1.00  0.00    -0.414 OA 
BRANCH   5   6
HETATM    6  C   UNK     1     -11.945  13.146  65.928  1.00  0.00    -0.427 C  
BRANCH   6   7
HETATM    7  C   UNK     1     -11.713  13.548  64.477  1.00  0.00    -0.431 C  
BRANCH   7   8
HETATM    8  C   UNK     1     -11.668  12.338  63.537  1.00  0.00    -0.584 C  
BRANCH   8   9
HETATM    9  C   UNK     1     -10.251  11.780  63.448  1.00  0.00    -0.482 C  
BRANCH   9  10
HETATM   10  C   UNK     1     -10.080  10.497  64.257  1.00  0.00    -0.380 C  
BRANCH  10  11
HETATM   11  C   UNK     1      -9.012   9.608  63.646  1.00  0.00    -0.216 C  
HETATM   12  O   UNK     1      -8.797   9.536  62.441  1.00  0.00    -0.213 OA 
HETATM   13  N   UNK     1      -8.306   8.883  64.580  1.00  0.00    -0.164 N  
HETATM   14  H   UNK     1      -8.560   8.953  65.566  1.00  0.00     0.000 HD 
BRANCH  13  15
HETATM   15  C   UNK     1      -7.209   8.022  64.185  1.00  0.00    -0.086 C  
BRANCH  15  16
HETATM   16  C   UNK     1      -6.596   7.266  65.367  1.00  0.00    -0.047 C  
BRANCH  16  17
HETATM   17  C   UNK     1      -7.494   6.116  65.821  1.00  0.00    -0.082 C  
BRANCH  17  18
HETATM   18  C   UNK     1      -7.228   5.702  67.276  1.00  0.00    -0.075 C  
BRANCH  18  19
HETATM   19  C   UNK     1      -8.482   5.745  68.162  1.00  0.00    -0.109 C  
HETATM   20  N   UNK     1      -9.711   5.430  67.376  1.00  0.00    -0.132 NA 
HETATM   21  C   UNK     1      -8.649   7.139  68.788  1.00  0.00    -0.125 C  
HETATM   22  O   UNK     1      -8.039   7.556  69.754  1.00  0.00    -0.121 OA 
HETATM   23  O   UNK     1      -9.549   7.883  68.086  1.00  0.00    -0.148 OA 
HETATM   24  H1  UNK     1     -10.543   5.458  67.964  1.00  0.00     0.000 HD 
HETATM   25  H2  UNK     1      -9.626   4.537  66.890  1.00  0.00     0.000 HD 
ENDBRANCH  18  19
ENDBRANCH  17  18
ENDBRANCH  16  17
ENDBRANCH  15  16
ENDBRANCH  13  15
ENDBRANCH  10  11
ENDBRANCH   9  10
ENDBRANCH   8   9
ENDBRANCH   7   8
ENDBRANCH   6   7
ENDBRANCH   5   6
ENDBRANCH   4   5
ENDBRANCH   3   4
ENDBRANCH   2   3
TORSDOF 14
ENDMDL
MODEL      395
REMARK 921   NORMALIZED FREE ENERGY PREDICTED BY IDOCK:   -2.74 KCAL/MOL
REMARK 922        TOTAL FREE ENERGY PREDICTED BY IDOCK:   -5.91 KCAL/MOL
REMARK 923 INTER-LIGAND FREE ENERGY PREDICTED BY IDOCK:   -5.07 KCAL/MOL
REMARK 924 INTRA-LIGAND FREE ENERGY PREDICTED BY IDOCK:   -0.84 KCAL/MOL
REMARK 927      BINDING AFFINITY PREDICTED BY RF-SCORE:    0.00 PKD
ROOT
HETATM    1  C   UNK     1      -6.308   7.879  63.040  1.00  0.00    -0.072 C  
HETATM    2  O   UNK     1      -7.639   7.835  63.533  1.00  0.00    -0.111 OA 
ENDROOT
BRANCH   2   3
HETATM    3  C   UNK     1      -8.361   9.020  63.194  1.00  0.00    -0.195 C  
BRANCH   3   4
HETATM    4  C   UNK     1      -8.356   9.966  64.389  1.00  0.00    -0.168 C  
BRANCH   4   5
HETATM    5  O   UNK     1      -9.550   9.780  65.145  1.00  0.00    -0.273 OA 
BRANCH   5   6
HETATM    6  C   UNK     1     -10.624  10.563  64.628  1.00  0.00     0.029 C  
BRANCH   6   7
HETATM    7  C   UNK     1     -10.083  11.908  64.164  1.00  0.00    -0.338 C  
BRANCH   7   8
HETATM    8  C   UNK     1     -11.199  12.876  63.758  1.00  0.00    -0.452 C  
BRANCH   8   9
HETATM    9  C   UNK     1     -12.032  13.277  64.973  1.00  0.00    -0.407 C  
BRANCH   9  10
HETATM   10  C   UNK     1     -12.534  14.716  64.884  1.00  0.00    -0.266 C  
BRANCH  10  11
HETATM   11  C   UNK     1     -11.410  15.700  65.152  1.00  0.00    -0.198 C  
HETATM   12  O   UNK     1     -10.989  16.493  64.316  1.00  0.00    -0.848 OA 
HETATM   13  N   UNK     1     -10.905  15.617  66.430  1.00  0.00    -0.289 N  
HETATM   14  H   UNK     1     -11.268  14.908  67.068  1.00  0.00     0.000 HD 
BRANCH  13  15
HETATM   15  C   UNK     1      -9.865  16.519  66.884  1.00  0.00    -0.257 C  
BRANCH  15  16
HETATM   16  C   UNK     1      -8.886  15.853  67.853  1.00  0.00    -0.179 C  
BRANCH  16  17
HETATM   17  C   UNK     1      -7.481  15.765  67.257  1.00  0.00    -0.252 C  
BRANCH  17  18
HETATM   18  C   UNK     1      -6.872  14.362  67.390  1.00  0.00    -0.052 C  
BRANCH  18  19
HETATM   19  C   UNK     1      -7.446  13.555  68.565  1.00  0.00    -0.122 C  
HETATM   20  N   UNK     1      -6.577  13.668  69.773  1.00  0.00    -0.307 NA 
HETATM   21  C   UNK     1      -7.565  12.070  68.188  1.00  0.00    -0.120 C  
HETATM   22  O   UNK     1      -8.452  11.582  67.513  1.00  0.00    -0.135 OA 
HETATM   23  O   UNK     1      -6.509  11.358  68.673  1.00  0.00    -0.054 OA 
HETATM   24  H1  UNK     1      -6.957  13.133  70.553  1.00  0.00     0.000 HD 
HETATM   25  H2  UNK     1      -6.417  14.642  70.030  1.00  0.00     0.000 HD 
ENDBRANCH  18  19
ENDBRANCH  17  18
ENDBRANCH  16  17
ENDBRANCH  15  16
ENDBRANCH  13  15
ENDBRANCH  10  11
ENDBRANCH   9  10
ENDBRANCH   8   9
ENDBRANCH   7   8
ENDBRANCH   6   7
ENDBRANCH   5   6
ENDBRANCH   4   5
ENDBRANCH   3   4
ENDBRANCH   2   3
TORSDOF 14
ENDMDL
MODEL      396
REMARK 921   NORMALIZED FREE ENERGY PREDICTED BY IDOCK:   -2.74 KCAL/MOL
REMARK 922        TOTAL FREE ENERGY PREDICTED BY IDOCK:   -5.91 KCAL/MOL
REMARK 923 INTER-LIGAND FREE ENERGY PREDICTED BY IDOCK:   -4.89 KCAL/MOL
REMARK 924 INTRA-LIGAND FREE ENERGY PREDICTED BY IDOCK:   -1.02 KCAL/MOL
REMARK 927      BINDING AFFINITY PREDICTED BY RF-SCORE:    0.00 PKD
ROOT
HETATM    1  C   UNK     1     -10.426  15.533  65.699  1.00  0.00    -0.374 C  
HETATM    2  O   UNK     1     -11.599  14.763  65.922  1.00  0.00    -0.348 OA 
ENDROOT
BRANCH   2   3
HETATM    3  C   UNK     1     -12.046  14.132  64.722  1.00  0.00    -0.441 C  
BRANCH   3   4
HETATM    4  C   UNK     1     -12.025  12.621  64.915  1.00  0.00    -0.406 C  
BRANCH   4   5
HETATM    5  O   UNK     1     -11.971  12.323  66.308  1.00  0.00    -0.588 OA 
BRANCH   5   6
HETATM    6  C   UNK     1     -11.140  11.194  66.570  1.00  0.00    -0.167 C  
BRANCH   6   7
HETATM    7  C   UNK     1      -9.800  11.675  67.110  1.00  0.00    -0.205 C  
BRANCH   7   8
HETATM    8  C   UNK     1      -9.203  10.704  68.134  1.00  0.00    -0.148 C  
BRANCH   8   9
HETATM    9  C   UNK     1      -7.795  10.284  67.719  1.00  0.00    -0.101 C  
BRANCH   9  10
HETATM   10  C   UNK     1      -7.149   9.341  68.730  1.00  0.00    -0.073 C  
BRANCH  10  11
HETATM   11  C   UNK     1      -6.691  10.097  69.963  1.00  0.00    -0.127 C  
HETATM   12  O   UNK     1      -7.017   9.793  71.106  1.00  0.00    -0.327 OA 
HETATM   13  N   UNK     1      -5.872  11.166  69.676  1.00  0.00    -0.063 N  
HETATM   14  H   UNK     1      -5.670  11.395  68.702  1.00  0.00     0.000 HD 
BRANCH  13  15
HETATM   15  C   UNK     1      -5.292  11.970  70.733  1.00  0.00    -0.152 C  
BRANCH  15  16
HETATM   16  C   UNK     1      -5.555  13.467  70.549  1.00  0.00    -0.163 C  
BRANCH  16  17
HETATM   17  C   UNK     1      -6.015  13.782  69.126  1.00  0.00    -0.087 C  
BRANCH  17  18
HETATM   18  C   UNK     1      -5.732  15.238  68.726  1.00  0.00    -0.089 C  
BRANCH  18  19
HETATM   19  C   UNK     1      -6.774  16.233  69.259  1.00  0.00    -0.203 C  
HETATM   20  N   UNK     1      -7.751  16.611  68.196  1.00  0.00    -0.168 NA 
HETATM   21  C   UNK     1      -6.086  17.510  69.765  1.00  0.00    -0.222 C  
HETATM   22  O   UNK     1      -5.526  17.632  70.838  1.00  0.00    -0.229 OA 
HETATM   23  O   UNK     1      -6.139  18.497  68.827  1.00  0.00    -0.205 OA 
HETATM   24  H1  UNK     1      -8.443  17.272  68.549  1.00  0.00     0.000 HD 
HETATM   25  H2  UNK     1      -8.193  15.790  67.784  1.00  0.00     0.000 HD 
ENDBRANCH  18  19
ENDBRANCH  17  18
ENDBRANCH  16  17
ENDBRANCH  15  16
ENDBRANCH  13  15
ENDBRANCH  10  11
ENDBRANCH   9  10
ENDBRANCH   8   9
ENDBRANCH   7   8
ENDBRANCH   6   7
ENDBRANCH   5   6
ENDBRANCH   4   5
ENDBRANCH   3   4
ENDBRANCH   2   3
TORSDOF 14
ENDMDL
MODEL      397
REMARK 921   NORMALIZED FREE ENERGY PREDICTED BY IDOCK:   -2.72 KCAL/MOL
REMARK 922        TOTAL FREE ENERGY PREDICTED BY IDOCK:   -5.87 KCAL/MOL
REMARK 923 INTER-LIGAND FREE ENERGY PREDICTED BY IDOCK:   -5.38 KCAL/MOL
REMARK 924 INTRA-LIGAND FREE ENERGY PREDICTED BY IDOCK:   -0.49 KCAL/MOL
REMARK 927      BINDING AFFINITY PREDICTED BY RF-SCORE:    0.00 PKD
ROOT
HETATM    1  C   UNK     1      -6.268   8.328  73.855  1.00  0.00    -0.113 C  
HETATM    2  O   UNK     1      -6.723   8.138  72.523  1.00  0.00    -0.073 OA 
ENDROOT
BRANCH   2   3
HETATM    3  C   UNK     1      -7.466   6.925  72.393  1.00  0.00    -0.087 C  
BRANCH   3   4
HETATM    4  C   UNK     1      -8.193   6.926  71.054  1.00  0.00    -0.118 C  
BRANCH   4   5
HETATM    5  O   UNK     1      -7.685   7.981  70.241  1.00  0.00    -0.083 OA 
BRANCH   5   6
HETATM    6  C   UNK     1      -6.985   7.478  69.106  1.00  0.00    -0.072 C  
BRANCH   6   7
HETATM    7  C   UNK     1      -7.592   8.070  67.841  1.00  0.00    -0.112 C  
BRANCH   7   8
HETATM    8  C   UNK     1      -8.681   9.104  68.147  1.00  0.00    -0.129 C  
BRANCH   8   9
HETATM    9  C   UNK     1      -8.301  10.469  67.580  1.00  0.00    -0.118 C  
BRANCH   9  10
HETATM   10  C   UNK     1      -7.860  10.389  66.121  1.00  0.00    -0.135 C  
BRANCH  10  11
HETATM   11  C   UNK     1      -9.060  10.370  65.191  1.00  0.00    -0.198 C  
HETATM   12  O   UNK     1      -9.930   9.505  65.223  1.00  0.00    -0.247 OA 
HETATM   13  N   UNK     1      -9.078  11.421  64.302  1.00  0.00    -0.401 N  
HETATM   14  H   UNK     1      -8.304  12.085  64.295  1.00  0.00     0.000 HD 
BRANCH  13  15
HETATM   15  C   UNK     1     -10.178  11.597  63.375  1.00  0.00    -0.433 C  
BRANCH  15  16
HETATM   16  C   UNK     1     -11.089  12.767  63.755  1.00  0.00    -0.475 C  
BRANCH  16  17
HETATM   17  C   UNK     1     -11.991  12.412  64.937  1.00  0.00    -0.458 C  
BRANCH  17  18
HETATM   18  C   UNK     1     -12.739  13.632  65.493  1.00  0.00    -0.514 C  
BRANCH  18  19
HETATM   19  C   UNK     1     -12.108  14.208  66.769  1.00  0.00    -0.442 C  
HETATM   20  N   UNK     1     -11.111  15.271  66.446  1.00  0.00    -0.310 NA 
HETATM   21  C   UNK     1     -11.398  13.101  67.564  1.00  0.00    -0.298 C  
HETATM   22  O   UNK     1     -11.945  12.289  68.286  1.00  0.00    -0.336 OA 
HETATM   23  O   UNK     1     -10.058  13.108  67.319  1.00  0.00    -0.229 OA 
HETATM   24  H1  UNK     1     -10.693  15.654  67.293  1.00  0.00     0.000 HD 
HETATM   25  H2  UNK     1     -11.520  16.004  65.866  1.00  0.00     0.000 HD 
ENDBRANCH  18  19
ENDBRANCH  17  18
ENDBRANCH  16  17
ENDBRANCH  15  16
ENDBRANCH  13  15
ENDBRANCH  10  11
ENDBRANCH   9  10
ENDBRANCH   8   9
ENDBRANCH   7   8
ENDBRANCH   6   7
ENDBRANCH   5   6
ENDBRANCH   4   5
ENDBRANCH   3   4
ENDBRANCH   2   3
TORSDOF 14
ENDMDL
MODEL      398
REMARK 921   NORMALIZED FREE ENERGY PREDICTED BY IDOCK:   -2.71 KCAL/MOL
REMARK 922        TOTAL FREE ENERGY PREDICTED BY IDOCK:   -5.86 KCAL/MOL
REMARK 923 INTER-LIGAND FREE ENERGY PREDICTED BY IDOCK:   -4.95 KCAL/MOL
REMARK 924 INTRA-LIGAND FREE ENERGY PREDICTED BY IDOCK:   -0.91 KCAL/MOL
REMARK 927      BINDING AFFINITY PREDICTED BY RF-SCORE:    0.00 PKD
ROOT
HETATM    1  C   UNK     1      -8.261   7.700  65.199  1.00  0.00    -0.128 C  
HETATM    2  O   UNK     1      -7.921   7.200  66.484  1.00  0.00    -0.106 OA 
ENDROOT
BRANCH   2   3
HETATM    3  C   UNK     1      -8.554   5.946  66.741  1.00  0.00    -0.113 C  
BRANCH   3   4
HETATM    4  C   UNK     1     -10.009   6.191  67.124  1.00  0.00    -0.154 C  
BRANCH   4   5
HETATM    5  O   UNK     1     -10.075   6.621  68.482  1.00  0.00    -0.148 OA 
BRANCH   5   6
HETATM    6  C   UNK     1     -10.412   8.003  68.577  1.00  0.00    -0.164 C  
BRANCH   6   7
HETATM    7  C   UNK     1     -10.375   8.426  70.040  1.00  0.00    -0.211 C  
BRANCH   7   8
HETATM    8  C   UNK     1      -9.121   9.240  70.379  1.00  0.00    -0.288 C  
BRANCH   8   9
HETATM    9  C   UNK     1      -8.200   9.338  69.165  1.00  0.00    -0.111 C  
BRANCH   9  10
HETATM   10  C   UNK     1      -7.978  10.781  68.720  1.00  0.00    -0.136 C  
BRANCH  10  11
HETATM   11  C   UNK     1      -8.539  11.013  67.329  1.00  0.00    -0.130 C  
HETATM   12  O   UNK     1      -7.853  11.013  66.312  1.00  0.00    -0.158 OA 
HETATM   13  N   UNK     1      -9.899  11.228  67.317  1.00  0.00    -0.181 N  
HETATM   14  H   UNK     1     -10.409  11.258  68.200  1.00  0.00     0.000 HD 
BRANCH  13  15
HETATM   15  C   UNK     1     -10.617  11.412  66.071  1.00  0.00    -0.266 C  
BRANCH  15  16
HETATM   16  C   UNK     1     -11.792  12.383  66.204  1.00  0.00    -0.442 C  
BRANCH  16  17
HETATM   17  C   UNK     1     -11.318  13.783  66.594  1.00  0.00    -0.340 C  
BRANCH  17  18
HETATM   18  C   UNK     1     -12.044  14.326  67.833  1.00  0.00    -0.296 C  
BRANCH  18  19
HETATM   19  C   UNK     1     -11.584  15.732  68.246  1.00  0.00    -0.298 C  
HETATM   20  N   UNK     1     -10.374  16.151  67.479  1.00  0.00    -0.280 NA 
HETATM   21  C   UNK     1     -11.246  15.768  69.745  1.00  0.00    -0.330 C  
HETATM   22  O   UNK     1     -12.056  15.846  70.649  1.00  0.00    -0.382 OA 
HETATM   23  O   UNK     1      -9.903  15.652  69.944  1.00  0.00    -0.290 OA 
HETATM   24  H1  UNK     1     -10.068  17.084  67.752  1.00  0.00     0.000 HD 
HETATM   25  H2  UNK     1     -10.528  16.087  66.472  1.00  0.00     0.000 HD 
ENDBRANCH  18  19
ENDBRANCH  17  18
ENDBRANCH  16  17
ENDBRANCH  15  16
ENDBRANCH  13  15
ENDBRANCH  10  11
ENDBRANCH   9  10
ENDBRANCH   8   9
ENDBRANCH   7   8
ENDBRANCH   6   7
ENDBRANCH   5   6
ENDBRANCH   4   5
ENDBRANCH   3   4
ENDBRANCH   2   3
TORSDOF 14
ENDMDL
MODEL      399
REMARK 921   NORMALIZED FREE ENERGY PREDICTED BY IDOCK:   -2.71 KCAL/MOL
REMARK 922        TOTAL FREE ENERGY PREDICTED BY IDOCK:   -5.86 KCAL/MOL
REMARK 923 INTER-LIGAND FREE ENERGY PREDICTED BY IDOCK:   -4.51 KCAL/MOL
REMARK 924 INTRA-LIGAND FREE ENERGY PREDICTED BY IDOCK:   -1.35 KCAL/MOL
REMARK 927      BINDING AFFINITY PREDICTED BY RF-SCORE:    0.00 PKD
ROOT
HETATM    1  C   UNK     1     -11.005   6.500  72.950  1.00  0.00    -0.250 C  
HETATM    2  O   UNK     1     -10.632   5.174  73.293  1.00  0.00    -0.196 OA 
ENDROOT
BRANCH   2   3
HETATM    3  C   UNK     1     -10.133   4.462  72.160  1.00  0.00    -0.195 C  
BRANCH   3   4
HETATM    4  C   UNK     1      -8.614   4.584  72.123  1.00  0.00    -0.114 C  
BRANCH   4   5
HETATM    5  O   UNK     1      -8.166   4.509  70.772  1.00  0.00    -0.077 OA 
BRANCH   5   6
HETATM    6  C   UNK     1      -7.072   5.392  70.533  1.00  0.00    -0.061 C  
BRANCH   6   7
HETATM    7  C   UNK     1      -7.537   6.532  69.636  1.00  0.00    -0.098 C  
BRANCH   7   8
HETATM    8  C   UNK     1      -8.184   6.027  68.342  1.00  0.00    -0.110 C  
BRANCH   8   9
HETATM    9  C   UNK     1      -9.369   6.908  67.955  1.00  0.00    -0.123 C  
BRANCH   9  10
HETATM   10  C   UNK     1      -9.395   7.224  66.462  1.00  0.00    -0.216 C  
BRANCH  10  11
HETATM   11  C   UNK     1      -9.271   8.717  66.221  1.00  0.00    -0.207 C  
HETATM   12  O   UNK     1     -10.182   9.412  65.781  1.00  0.00    -0.231 OA 
HETATM   13  N   UNK     1      -8.030   9.221  66.542  1.00  0.00    -0.103 N  
HETATM   14  H   UNK     1      -7.299   8.586  66.864  1.00  0.00     0.000 HD 
BRANCH  13  15
HETATM   15  C   UNK     1      -7.746  10.638  66.430  1.00  0.00    -0.141 C  
BRANCH  15  16
HETATM   16  C   UNK     1      -7.423  11.284  67.780  1.00  0.00    -0.095 C  
BRANCH  16  17
HETATM   17  C   UNK     1      -8.354  10.776  68.880  1.00  0.00    -0.147 C  
BRANCH  17  18
HETATM   18  C   UNK     1      -9.735  11.445  68.837  1.00  0.00    -0.105 C  
BRANCH  18  19
HETATM   19  C   UNK     1     -10.901  10.449  68.929  1.00  0.00    -0.236 C  
HETATM   20  N   UNK     1     -12.051  10.884  68.084  1.00  0.00    -0.790 NA 
HETATM   21  C   UNK     1     -11.385  10.323  70.382  1.00  0.00    -0.332 C  
HETATM   22  O   UNK     1     -10.846   9.664  71.251  1.00  0.00    -0.350 OA 
HETATM   23  O   UNK     1     -12.489  11.094  70.597  1.00  0.00    -0.335 OA 
HETATM   24  H1  UNK     1     -12.825  10.223  68.145  1.00  0.00     0.000 HD 
HETATM   25  H2  UNK     1     -11.767  11.040  67.116  1.00  0.00     0.000 HD 
ENDBRANCH  18  19
ENDBRANCH  17  18
ENDBRANCH  16  17
ENDBRANCH  15  16
ENDBRANCH  13  15
ENDBRANCH  10  11
ENDBRANCH   9  10
ENDBRANCH   8   9
ENDBRANCH   7   8
ENDBRANCH   6   7
ENDBRANCH   5   6
ENDBRANCH   4   5
ENDBRANCH   3   4
ENDBRANCH   2   3
TORSDOF 14
ENDMDL
MODEL      400
REMARK 921   NORMALIZED FREE ENERGY PREDICTED BY IDOCK:   -2.71 KCAL/MOL
REMARK 922        TOTAL FREE ENERGY PREDICTED BY IDOCK:   -5.86 KCAL/MOL
REMARK 923 INTER-LIGAND FREE ENERGY PREDICTED BY IDOCK:   -4.99 KCAL/MOL
REMARK 924 INTRA-LIGAND FREE ENERGY PREDICTED BY IDOCK:   -0.87 KCAL/MOL
REMARK 927      BINDING AFFINITY PREDICTED BY RF-SCORE:    0.00 PKD
ROOT
HETATM    1  C   UNK     1     -10.269  15.589  65.784  1.00  0.00    -0.366 C  
HETATM    2  O   UNK     1     -11.582  15.049  65.833  1.00  0.00    -0.291 OA 
ENDROOT
BRANCH   2   3
HETATM    3  C   UNK     1     -12.039  14.670  64.534  1.00  0.00    -0.475 C  
BRANCH   3   4
HETATM    4  C   UNK     1     -11.964  13.153  64.402  1.00  0.00    -0.397 C  
BRANCH   4   5
HETATM    5  O   UNK     1     -12.161  12.557  65.682  1.00  0.00    -0.480 OA 
BRANCH   5   6
HETATM    6  C   UNK     1     -11.331  11.411  65.858  1.00  0.00    -0.020 C  
BRANCH   6   7
HETATM    7  C   UNK     1     -10.281  11.713  66.920  1.00  0.00    -0.244 C  
BRANCH   7   8
HETATM    8  C   UNK     1     -10.151  10.583  67.947  1.00  0.00    -0.204 C  
BRANCH   8   9
HETATM    9  C   UNK     1      -8.686  10.199  68.140  1.00  0.00    -0.122 C  
BRANCH   9  10
HETATM   10  C   UNK     1      -8.154   9.345  66.992  1.00  0.00    -0.105 C  
BRANCH  10  11
HETATM   11  C   UNK     1      -8.563   7.893  67.161  1.00  0.00    -0.128 C  
HETATM   12  O   UNK     1      -9.466   7.363  66.520  1.00  0.00    -0.180 OA 
HETATM   13  N   UNK     1      -7.823   7.224  68.109  1.00  0.00    -0.116 N  
HETATM   14  H   UNK     1      -7.113   7.729  68.639  1.00  0.00     0.000 HD 
BRANCH  13  15
HETATM   15  C   UNK     1      -8.035   5.813  68.365  1.00  0.00    -0.104 C  
BRANCH  15  16
HETATM   16  C   UNK     1      -8.717   5.553  69.710  1.00  0.00    -0.118 C  
BRANCH  16  17
HETATM   17  C   UNK     1      -9.038   6.859  70.436  1.00  0.00    -0.156 C  
BRANCH  17  18
HETATM   18  C   UNK     1      -9.541   6.628  71.868  1.00  0.00    -0.152 C  
BRANCH  18  19
HETATM   19  C   UNK     1     -10.916   5.946  71.932  1.00  0.00    -0.266 C  
HETATM   20  N   UNK     1     -11.913   6.807  72.634  1.00  0.00    -0.497 NA 
HETATM   21  C   UNK     1     -10.818   4.607  72.678  1.00  0.00    -0.148 C  
HETATM   22  O   UNK     1     -10.403   3.565  72.207  1.00  0.00    -0.147 OA 
HETATM   23  O   UNK     1     -11.216   4.742  73.974  1.00  0.00    -0.273 OA 
HETATM   24  H1  UNK     1     -12.826   6.355  72.676  1.00  0.00     0.000 HD 
HETATM   25  H2  UNK     1     -11.973   7.733  72.211  1.00  0.00     0.000 HD 
ENDBRANCH  18  19
ENDBRANCH  17  18
ENDBRANCH  16  17
ENDBRANCH  15  16
ENDBRANCH  13  15
ENDBRANCH  10  11
ENDBRANCH   9  10
ENDBRANCH   8   9
ENDBRANCH   7   8
ENDBRANCH   6   7
ENDBRANCH   5   6
ENDBRANCH   4   5
ENDBRANCH   3   4
ENDBRANCH   2   3
TORSDOF 14
ENDMDL
MODEL      401
REMARK 921   NORMALIZED FREE ENERGY PREDICTED BY IDOCK:   -2.70 KCAL/MOL
REMARK 922        TOTAL FREE ENERGY PREDICTED BY IDOCK:   -5.84 KCAL/MOL
REMARK 923 INTER-LIGAND FREE ENERGY PREDICTED BY IDOCK:   -5.63 KCAL/MOL
REMARK 924 INTRA-LIGAND FREE ENERGY PREDICTED BY IDOCK:   -0.22 KCAL/MOL
REMARK 927      BINDING AFFINITY PREDICTED BY RF-SCORE:    0.00 PKD
ROOT
HETATM    1  C   UNK     1      -5.596  18.511  67.116  1.00  0.00    -0.133 C  
HETATM    2  O   UNK     1      -6.821  19.227  67.049  1.00  0.00    -0.198 OA 
ENDROOT
BRANCH   2   3
HETATM    3  C   UNK     1      -7.935  18.388  67.357  1.00  0.00    -0.238 C  
BRANCH   3   4
HETATM    4  C   UNK     1      -7.735  17.783  68.742  1.00  0.00    -0.252 C  
BRANCH   4   5
HETATM    5  O   UNK     1      -8.328  16.487  68.781  1.00  0.00    -0.227 OA 
BRANCH   5   6
HETATM    6  C   UNK     1      -9.642  16.495  68.227  1.00  0.00    -0.223 C  
BRANCH   6   7
HETATM    7  C   UNK     1     -10.636  16.906  69.306  1.00  0.00    -0.325 C  
BRANCH   7   8
HETATM    8  C   UNK     1     -10.860  15.800  70.343  1.00  0.00    -0.345 C  
BRANCH   8   9
HETATM    9  C   UNK     1     -12.348  15.628  70.633  1.00  0.00    -0.457 C  
BRANCH   9  10
HETATM   10  C   UNK     1     -12.714  14.181  70.951  1.00  0.00    -0.432 C  
BRANCH  10  11
HETATM   11  C   UNK     1     -12.238  13.246  69.854  1.00  0.00    -0.246 C  
HETATM   12  O   UNK     1     -12.331  13.502  68.657  1.00  0.00    -0.232 OA 
HETATM   13  N   UNK     1     -11.692  12.077  70.332  1.00  0.00    -0.525 N  
HETATM   14  H   UNK     1     -11.681  11.903  71.337  1.00  0.00     0.000 HD 
BRANCH  13  15
HETATM   15  C   UNK     1     -11.132  11.089  69.430  1.00  0.00    -0.262 C  
BRANCH  15  16
HETATM   16  C   UNK     1     -10.105  11.685  68.465  1.00  0.00    -0.210 C  
BRANCH  16  17
HETATM   17  C   UNK     1     -10.481  11.410  67.009  1.00  0.00    -0.271 C  
BRANCH  17  18
HETATM   18  C   UNK     1      -9.271  11.476  66.066  1.00  0.00    -0.229 C  
BRANCH  18  19
HETATM   19  C   UNK     1      -7.977  10.935  66.693  1.00  0.00    -0.148 C  
HETATM   20  N   UNK     1      -6.859  11.914  66.554  1.00  0.00    -0.373 NA 
HETATM   21  C   UNK     1      -7.560   9.621  66.013  1.00  0.00    -0.102 C  
HETATM   22  O   UNK     1      -8.042   8.527  66.237  1.00  0.00    -0.102 OA 
HETATM   23  O   UNK     1      -6.597   9.843  65.074  1.00  0.00    -0.096 OA 
HETATM   24  H1  UNK     1      -6.000  11.555  66.970  1.00  0.00     0.000 HD 
HETATM   25  H2  UNK     1      -7.109  12.826  66.939  1.00  0.00     0.000 HD 
ENDBRANCH  18  19
ENDBRANCH  17  18
ENDBRANCH  16  17
ENDBRANCH  15  16
ENDBRANCH  13  15
ENDBRANCH  10  11
ENDBRANCH   9  10
ENDBRANCH   8   9
ENDBRANCH   7   8
ENDBRANCH   6   7
ENDBRANCH   5   6
ENDBRANCH   4   5
ENDBRANCH   3   4
ENDBRANCH   2   3
TORSDOF 14
ENDMDL
MODEL      402
REMARK 921   NORMALIZED FREE ENERGY PREDICTED BY IDOCK:   -2.70 KCAL/MOL
REMARK 922        TOTAL FREE ENERGY PREDICTED BY IDOCK:   -5.83 KCAL/MOL
REMARK 923 INTER-LIGAND FREE ENERGY PREDICTED BY IDOCK:   -4.91 KCAL/MOL
REMARK 924 INTRA-LIGAND FREE ENERGY PREDICTED BY IDOCK:   -0.93 KCAL/MOL
REMARK 927      BINDING AFFINITY PREDICTED BY RF-SCORE:    0.00 PKD
ROOT
HETATM    1  C   UNK     1     -10.794   5.835  73.545  1.00  0.00    -0.237 C  
HETATM    2  O   UNK     1     -11.419   6.575  72.506  1.00  0.00    -0.268 OA 
ENDROOT
BRANCH   2   3
HETATM    3  C   UNK     1     -11.158   7.973  72.630  1.00  0.00    -0.387 C  
BRANCH   3   4
HETATM    4  C   UNK     1     -11.070   8.590  71.240  1.00  0.00    -0.262 C  
BRANCH   4   5
HETATM    5  O   UNK     1     -10.983  10.009  71.356  1.00  0.00    -0.203 OA 
BRANCH   5   6
HETATM    6  C   UNK     1     -11.914  10.663  70.497  1.00  0.00    -0.352 C  
BRANCH   6   7
HETATM    7  C   UNK     1     -11.391  10.617  69.067  1.00  0.00    -0.340 C  
BRANCH   7   8
HETATM    8  C   UNK     1     -12.217  11.490  68.117  1.00  0.00     0.221 C  
BRANCH   8   9
HETATM    9  C   UNK     1     -11.304  12.365  67.262  1.00  0.00    -0.384 C  
BRANCH   9  10
HETATM   10  C   UNK     1     -11.783  12.463  65.816  1.00  0.00    -0.470 C  
BRANCH  10  11
HETATM   11  C   UNK     1     -10.719  11.962  64.856  1.00  0.00    -0.301 C  
HETATM   12  O   UNK     1     -10.428  12.530  63.809  1.00  0.00    -0.416 OA 
HETATM   13  N   UNK     1     -10.110  10.800  65.275  1.00  0.00    -0.273 N  
HETATM   14  H   UNK     1     -10.425  10.351  66.136  1.00  0.00     0.000 HD 
BRANCH  13  15
HETATM   15  C   UNK     1      -9.030  10.205  64.514  1.00  0.00    -0.221 C  
BRANCH  15  16
HETATM   16  C   UNK     1      -7.652  10.509  65.106  1.00  0.00    -0.046 C  
BRANCH  16  17
HETATM   17  C   UNK     1      -7.121   9.330  65.922  1.00  0.00    -0.090 C  
BRANCH  17  18
HETATM   18  C   UNK     1      -8.044   8.963  67.093  1.00  0.00    -0.103 C  
BRANCH  18  19
HETATM   19  C   UNK     1      -8.845   7.673  66.861  1.00  0.00    -0.131 C  
HETATM   20  N   UNK     1     -10.310   7.913  67.009  1.00  0.00    -0.316 NA 
HETATM   21  C   UNK     1      -8.424   6.592  67.869  1.00  0.00    -0.118 C  
HETATM   22  O   UNK     1      -7.425   5.902  67.788  1.00  0.00    -0.076 OA 
HETATM   23  O   UNK     1      -9.300   6.530  68.911  1.00  0.00    -0.132 OA 
HETATM   24  H1  UNK     1     -10.842   7.056  66.854  1.00  0.00     0.000 HD 
HETATM   25  H2  UNK     1     -10.630   8.667  66.401  1.00  0.00     0.000 HD 
ENDBRANCH  18  19
ENDBRANCH  17  18
ENDBRANCH  16  17
ENDBRANCH  15  16
ENDBRANCH  13  15
ENDBRANCH  10  11
ENDBRANCH   9  10
ENDBRANCH   8   9
ENDBRANCH   7   8
ENDBRANCH   6   7
ENDBRANCH   5   6
ENDBRANCH   4   5
ENDBRANCH   3   4
ENDBRANCH   2   3
TORSDOF 14
ENDMDL
MODEL      403
REMARK 921   NORMALIZED FREE ENERGY PREDICTED BY IDOCK:   -2.69 KCAL/MOL
REMARK 922        TOTAL FREE ENERGY PREDICTED BY IDOCK:   -5.83 KCAL/MOL
REMARK 923 INTER-LIGAND FREE ENERGY PREDICTED BY IDOCK:   -5.25 KCAL/MOL
REMARK 924 INTRA-LIGAND FREE ENERGY PREDICTED BY IDOCK:   -0.57 KCAL/MOL
REMARK 927      BINDING AFFINITY PREDICTED BY RF-SCORE:    0.00 PKD
ROOT
HETATM    1  C   UNK     1      -7.281  16.125  67.595  1.00  0.00    -0.146 C  
HETATM    2  O   UNK     1      -8.239  15.692  66.640  1.00  0.00    -0.257 OA 
ENDROOT
BRANCH   2   3
HETATM    3  C   UNK     1      -9.473  15.333  67.263  1.00  0.00    -0.208 C  
BRANCH   3   4
HETATM    4  C   UNK     1     -10.572  15.296  66.208  1.00  0.00    -0.309 C  
BRANCH   4   5
HETATM    5  O   UNK     1     -11.760  14.754  66.781  1.00  0.00    -0.366 OA 
BRANCH   5   6
HETATM    6  C   UNK     1     -12.659  14.287  65.778  1.00  0.00    -0.384 C  
BRANCH   6   7
HETATM    7  C   UNK     1     -12.384  12.814  65.507  1.00  0.00    -0.495 C  
BRANCH   7   8
HETATM    8  C   UNK     1     -12.173  12.526  64.017  1.00  0.00    -0.566 C  
BRANCH   8   9
HETATM    9  C   UNK     1     -11.005  11.564  63.815  1.00  0.00    -0.485 C  
BRANCH   9  10
HETATM   10  C   UNK     1     -10.006  11.615  64.968  1.00  0.00    -0.297 C  
BRANCH  10  11
HETATM   11  C   UNK     1      -9.514  10.224  65.322  1.00  0.00    -0.240 C  
HETATM   12  O   UNK     1      -8.468   9.745  64.896  1.00  0.00    -0.137 OA 
HETATM   13  N   UNK     1     -10.360   9.545  66.170  1.00  0.00    -0.187 N  
HETATM   14  H   UNK     1     -11.237   9.980  66.458  1.00  0.00     0.000 HD 
BRANCH  13  15
HETATM   15  C   UNK     1     -10.025   8.223  66.661  1.00  0.00    -0.278 C  
BRANCH  15  16
HETATM   16  C   UNK     1      -8.947   8.252  67.748  1.00  0.00    -0.139 C  
BRANCH  16  17
HETATM   17  C   UNK     1      -9.357   7.424  68.965  1.00  0.00    -0.145 C  
BRANCH  17  18
HETATM   18  C   UNK     1      -8.692   6.040  68.986  1.00  0.00    -0.122 C  
BRANCH  18  19
HETATM   19  C   UNK     1      -8.002   5.713  70.318  1.00  0.00    -0.103 C  
HETATM   20  N   UNK     1      -6.712   4.996  70.096  1.00  0.00    -0.036 NA 
HETATM   21  C   UNK     1      -8.907   4.827  71.189  1.00  0.00    -0.119 C  
HETATM   22  O   UNK     1      -9.848   5.218  71.853  1.00  0.00    -0.167 OA 
HETATM   23  O   UNK     1      -8.550   3.516  71.085  1.00  0.00    -0.070 OA 
HETATM   24  H1  UNK     1      -6.253   4.779  70.981  1.00  0.00     0.000 HD 
HETATM   25  H2  UNK     1      -6.095   5.518  69.473  1.00  0.00     0.000 HD 
ENDBRANCH  18  19
ENDBRANCH  17  18
ENDBRANCH  16  17
ENDBRANCH  15  16
ENDBRANCH  13  15
ENDBRANCH  10  11
ENDBRANCH   9  10
ENDBRANCH   8   9
ENDBRANCH   7   8
ENDBRANCH   6   7
ENDBRANCH   5   6
ENDBRANCH   4   5
ENDBRANCH   3   4
ENDBRANCH   2   3
TORSDOF 14
ENDMDL
MODEL      404
REMARK 921   NORMALIZED FREE ENERGY PREDICTED BY IDOCK:   -2.69 KCAL/MOL
REMARK 922        TOTAL FREE ENERGY PREDICTED BY IDOCK:   -5.83 KCAL/MOL
REMARK 923 INTER-LIGAND FREE ENERGY PREDICTED BY IDOCK:   -5.34 KCAL/MOL
REMARK 924 INTRA-LIGAND FREE ENERGY PREDICTED BY IDOCK:   -0.48 KCAL/MOL
REMARK 927      BINDING AFFINITY PREDICTED BY RF-SCORE:    0.00 PKD
ROOT
HETATM    1  C   UNK     1     -12.229   6.846  70.991  1.00  0.00    -0.377 C  
HETATM    2  O   UNK     1     -11.277   6.122  70.225  1.00  0.00    -0.343 OA 
ENDROOT
BRANCH   2   3
HETATM    3  C   UNK     1     -11.098   6.701  68.932  1.00  0.00    -0.246 C  
BRANCH   3   4
HETATM    4  C   UNK     1     -10.023   7.779  69.012  1.00  0.00    -0.182 C  
BRANCH   4   5
HETATM    5  O   UNK     1     -10.636   9.064  68.934  1.00  0.00    -0.222 OA 
BRANCH   5   6
HETATM    6  C   UNK     1     -10.649   9.557  67.596  1.00  0.00    -0.269 C  
BRANCH   6   7
HETATM    7  C   UNK     1      -9.980  10.925  67.562  1.00  0.00    -0.201 C  
BRANCH   7   8
HETATM    8  C   UNK     1      -8.530  10.852  67.070  1.00  0.00    -0.134 C  
BRANCH   8   9
HETATM    9  C   UNK     1      -7.776  12.128  67.433  1.00  0.00    -0.165 C  
BRANCH   9  10
HETATM   10  C   UNK     1      -7.224  12.092  68.855  1.00  0.00    -0.089 C  
BRANCH  10  11
HETATM   11  C   UNK     1      -6.756  13.468  69.292  1.00  0.00    -0.080 C  
HETATM   12  O   UNK     1      -5.761  13.659  69.983  1.00  0.00    -0.109 OA 
HETATM   13  N   UNK     1      -7.562  14.488  68.838  1.00  0.00    -0.134 N  
HETATM   14  H   UNK     1      -8.401  14.263  68.302  1.00  0.00     0.000 HD 
BRANCH  13  15
HETATM   15  C   UNK     1      -7.238  15.874  69.110  1.00  0.00    -0.196 C  
BRANCH  15  16
HETATM   16  C   UNK     1      -6.135  16.414  68.197  1.00  0.00    -0.125 C  
BRANCH  16  17
HETATM   17  C   UNK     1      -6.588  17.671  67.455  1.00  0.00    -0.177 C  
BRANCH  17  18
HETATM   18  C   UNK     1      -8.095  17.670  67.162  1.00  0.00    -0.233 C  
BRANCH  18  19
HETATM   19  C   UNK     1      -8.582  18.943  66.454  1.00  0.00    -0.294 C  
HETATM   20  N   UNK     1      -8.359  20.151  67.303  1.00  0.00    -0.331 NA 
HETATM   21  C   UNK     1     -10.082  18.841  66.138  1.00  0.00    -0.384 C  
HETATM   22  O   UNK     1     -10.567  18.225  65.208  1.00  0.00    -0.562 OA 
HETATM   23  O   UNK     1     -10.823  19.500  67.073  1.00  0.00    -0.487 OA 
HETATM   24  H1  UNK     1      -8.681  20.996  66.833  1.00  0.00     0.000 HD 
HETATM   25  H2  UNK     1      -7.383  20.231  67.591  1.00  0.00     0.000 HD 
ENDBRANCH  18  19
ENDBRANCH  17  18
ENDBRANCH  16  17
ENDBRANCH  15  16
ENDBRANCH  13  15
ENDBRANCH  10  11
ENDBRANCH   9  10
ENDBRANCH   8   9
ENDBRANCH   7   8
ENDBRANCH   6   7
ENDBRANCH   5   6
ENDBRANCH   4   5
ENDBRANCH   3   4
ENDBRANCH   2   3
TORSDOF 14
ENDMDL
MODEL      405
REMARK 921   NORMALIZED FREE ENERGY PREDICTED BY IDOCK:   -2.68 KCAL/MOL
REMARK 922        TOTAL FREE ENERGY PREDICTED BY IDOCK:   -5.81 KCAL/MOL
REMARK 923 INTER-LIGAND FREE ENERGY PREDICTED BY IDOCK:   -5.19 KCAL/MOL
REMARK 924 INTRA-LIGAND FREE ENERGY PREDICTED BY IDOCK:   -0.63 KCAL/MOL
REMARK 927      BINDING AFFINITY PREDICTED BY RF-SCORE:    0.00 PKD
ROOT
HETATM    1  C   UNK     1     -12.004  15.821  71.266  1.00  0.00    -0.434 C  
HETATM    2  O   UNK     1     -11.591  16.033  69.924  1.00  0.00    -0.324 OA 
ENDROOT
BRANCH   2   3
HETATM    3  C   UNK     1     -10.368  15.353  69.640  1.00  0.00    -0.277 C  
BRANCH   3   4
HETATM    4  C   UNK     1     -10.626  14.278  68.591  1.00  0.00    -0.250 C  
BRANCH   4   5
HETATM    5  O   UNK     1     -11.872  14.535  67.947  1.00  0.00    -0.348 OA 
BRANCH   5   6
HETATM    6  C   UNK     1     -11.914  13.965  66.641  1.00  0.00    -0.442 C  
BRANCH   6   7
HETATM    7  C   UNK     1     -10.533  14.067  66.007  1.00  0.00    -0.307 C  
BRANCH   7   8
HETATM    8  C   UNK     1     -10.482  13.426  64.616  1.00  0.00    -0.428 C  
BRANCH   8   9
HETATM    9  C   UNK     1     -10.928  11.968  64.680  1.00  0.00    -0.367 C  
BRANCH   9  10
HETATM   10  C   UNK     1      -9.767  11.017  64.958  1.00  0.00    -0.303 C  
BRANCH  10  11
HETATM   11  C   UNK     1      -9.822  10.494  66.382  1.00  0.00    -0.210 C  
HETATM   12  O   UNK     1      -9.346  11.090  67.343  1.00  0.00    -0.155 OA 
HETATM   13  N   UNK     1     -10.459   9.278  66.493  1.00  0.00    -0.190 N  
HETATM   14  H   UNK     1     -10.798   8.811  65.651  1.00  0.00     0.000 HD 
BRANCH  13  15
HETATM   15  C   UNK     1     -10.656   8.652  67.785  1.00  0.00    -0.183 C  
BRANCH  15  16
HETATM   16  C   UNK     1      -9.414   7.904  68.275  1.00  0.00    -0.149 C  
BRANCH  16  17
HETATM   17  C   UNK     1      -9.752   6.947  69.418  1.00  0.00    -0.157 C  
BRANCH  17  18
HETATM   18  C   UNK     1      -8.539   6.645  70.310  1.00  0.00    -0.140 C  
BRANCH  18  19
HETATM   19  C   UNK     1      -8.433   5.168  70.718  1.00  0.00    -0.117 C  
HETATM   20  N   UNK     1      -9.781   4.575  70.956  1.00  0.00    -0.177 NA 
HETATM   21  C   UNK     1      -7.604   5.025  72.004  1.00  0.00    -0.096 C  
HETATM   22  O   UNK     1      -6.390   5.056  72.068  1.00  0.00    -0.031 OA 
HETATM   23  O   UNK     1      -8.413   4.903  73.094  1.00  0.00    -0.104 OA 
HETATM   24  H1  UNK     1      -9.711   3.594  71.227  1.00  0.00     0.000 HD 
HETATM   25  H2  UNK     1     -10.393   4.698  70.149  1.00  0.00     0.000 HD 
ENDBRANCH  18  19
ENDBRANCH  17  18
ENDBRANCH  16  17
ENDBRANCH  15  16
ENDBRANCH  13  15
ENDBRANCH  10  11
ENDBRANCH   9  10
ENDBRANCH   8   9
ENDBRANCH   7   8
ENDBRANCH   6   7
ENDBRANCH   5   6
ENDBRANCH   4   5
ENDBRANCH   3   4
ENDBRANCH   2   3
TORSDOF 14
ENDMDL
MODEL      406
REMARK 921   NORMALIZED FREE ENERGY PREDICTED BY IDOCK:   -2.68 KCAL/MOL
REMARK 922        TOTAL FREE ENERGY PREDICTED BY IDOCK:   -5.81 KCAL/MOL
REMARK 923 INTER-LIGAND FREE ENERGY PREDICTED BY IDOCK:   -5.66 KCAL/MOL
REMARK 924 INTRA-LIGAND FREE ENERGY PREDICTED BY IDOCK:   -0.15 KCAL/MOL
REMARK 927      BINDING AFFINITY PREDICTED BY RF-SCORE:    0.00 PKD
ROOT
HETATM    1  C   UNK     1      -7.986  19.530  66.517  1.00  0.00    -0.301 C  
HETATM    2  O   UNK     1      -9.190  20.045  65.969  1.00  0.00    -0.375 OA 
ENDROOT
BRANCH   2   3
HETATM    3  C   UNK     1     -10.334  19.370  66.493  1.00  0.00    -0.469 C  
BRANCH   3   4
HETATM    4  C   UNK     1     -10.429  19.638  67.991  1.00  0.00    -0.407 C  
BRANCH   4   5
HETATM    5  O   UNK     1     -10.370  18.401  68.697  1.00  0.00    -0.363 OA 
BRANCH   5   6
HETATM    6  C   UNK     1     -10.696  17.300  67.853  1.00  0.00    -0.351 C  
BRANCH   6   7
HETATM    7  C   UNK     1     -11.433  16.246  68.670  1.00  0.00    -0.288 C  
BRANCH   7   8
HETATM    8  C   UNK     1     -10.692  14.905  68.695  1.00  0.00    -0.250 C  
BRANCH   8   9
HETATM    9  C   UNK     1     -11.150  14.016  67.543  1.00  0.00    -0.313 C  
BRANCH   9  10
HETATM   10  C   UNK     1     -11.851  12.751  68.029  1.00  0.00    -0.386 C  
BRANCH  10  11
HETATM   11  C   UNK     1     -11.197  11.510  67.448  1.00  0.00    -0.304 C  
HETATM   12  O   UNK     1     -10.642  11.485  66.354  1.00  0.00    -0.241 OA 
HETATM   13  N   UNK     1     -11.289  10.409  68.269  1.00  0.00    -0.472 N  
HETATM   14  H   UNK     1     -11.800  10.481  69.149  1.00  0.00     0.000 HD 
BRANCH  13  15
HETATM   15  C   UNK     1     -10.672   9.149  67.903  1.00  0.00    -0.162 C  
BRANCH  15  16
HETATM   16  C   UNK     1      -9.527   8.758  68.840  1.00  0.00    -0.145 C  
BRANCH  16  17
HETATM   17  C   UNK     1      -8.973   7.375  68.498  1.00  0.00    -0.128 C  
BRANCH  17  18
HETATM   18  C   UNK     1      -8.018   7.405  67.297  1.00  0.00    -0.115 C  
BRANCH  18  19
HETATM   19  C   UNK     1      -7.805   6.028  66.650  1.00  0.00    -0.101 C  
HETATM   20  N   UNK     1      -8.240   6.029  65.222  1.00  0.00    -0.134 NA 
HETATM   21  C   UNK     1      -8.605   4.952  67.401  1.00  0.00    -0.104 C  
HETATM   22  O   UNK     1      -8.274   4.432  68.450  1.00  0.00    -0.085 OA 
HETATM   23  O   UNK     1      -9.777   4.681  66.762  1.00  0.00    -0.165 OA 
HETATM   24  H1  UNK     1      -8.099   5.116  64.792  1.00  0.00     0.000 HD 
HETATM   25  H2  UNK     1      -7.780   6.769  64.691  1.00  0.00     0.000 HD 
ENDBRANCH  18  19
ENDBRANCH  17  18
ENDBRANCH  16  17
ENDBRANCH  15  16
ENDBRANCH  13  15
ENDBRANCH  10  11
ENDBRANCH   9  10
ENDBRANCH   8   9
ENDBRANCH   7   8
ENDBRANCH   6   7
ENDBRANCH   5   6
ENDBRANCH   4   5
ENDBRANCH   3   4
ENDBRANCH   2   3
TORSDOF 14
ENDMDL
MODEL      407
REMARK 921   NORMALIZED FREE ENERGY PREDICTED BY IDOCK:   -2.68 KCAL/MOL
REMARK 922        TOTAL FREE ENERGY PREDICTED BY IDOCK:   -5.80 KCAL/MOL
REMARK 923 INTER-LIGAND FREE ENERGY PREDICTED BY IDOCK:   -4.79 KCAL/MOL
REMARK 924 INTRA-LIGAND FREE ENERGY PREDICTED BY IDOCK:   -1.01 KCAL/MOL
REMARK 927      BINDING AFFINITY PREDICTED BY RF-SCORE:    0.00 PKD
ROOT
HETATM    1  C   UNK     1      -8.324   6.717  65.504  1.00  0.00    -0.144 C  
HETATM    2  O   UNK     1      -9.277   7.185  66.446  1.00  0.00    -0.165 OA 
ENDROOT
BRANCH   2   3
HETATM    3  C   UNK     1     -10.269   6.196  66.722  1.00  0.00    -0.206 C  
BRANCH   3   4
HETATM    4  C   UNK     1      -9.850   4.877  66.082  1.00  0.00    -0.207 C  
BRANCH   4   5
HETATM    5  O   UNK     1      -9.813   3.859  67.079  1.00  0.00    -0.201 OA 
BRANCH   5   6
HETATM    6  C   UNK     1      -9.495   4.393  68.362  1.00  0.00    -0.154 C  
BRANCH   6   7
HETATM    7  C   UNK     1      -8.058   4.030  68.712  1.00  0.00    -0.075 C  
BRANCH   7   8
HETATM    8  C   UNK     1      -7.958   3.244  70.024  1.00  0.00    -0.054 C  
BRANCH   8   9
HETATM    9  C   UNK     1      -9.217   2.409  70.245  1.00  0.00    -0.196 C  
BRANCH   9  10
HETATM   10  C   UNK     1      -9.087   1.471  71.443  1.00  0.00    -0.127 C  
BRANCH  10  11
HETATM   11  C   UNK     1      -9.469   2.178  72.730  1.00  0.00    -0.084 C  
HETATM   12  O   UNK     1      -8.908   1.983  73.804  1.00  0.00    -0.061 OA 
HETATM   13  N   UNK     1     -10.513   3.062  72.579  1.00  0.00    -0.109 N  
HETATM   14  H   UNK     1     -10.968   3.150  71.669  1.00  0.00     0.000 HD 
BRANCH  13  15
HETATM   15  C   UNK     1     -10.978   3.870  73.689  1.00  0.00    -0.250 C  
BRANCH  15  16
HETATM   16  C   UNK     1     -10.301   5.241  73.746  1.00  0.00    -0.278 C  
BRANCH  16  17
HETATM   17  C   UNK     1     -10.686   6.105  72.546  1.00  0.00    -0.257 C  
BRANCH  17  18
HETATM   18  C   UNK     1     -12.201   6.124  72.297  1.00  0.00    -0.175 C  
BRANCH  18  19
HETATM   19  C   UNK     1     -12.633   7.144  71.232  1.00  0.00    -0.380 C  
HETATM   20  N   UNK     1     -11.835   6.988  69.981  1.00  0.00    -0.600 NA 
HETATM   21  C   UNK     1     -12.446   8.577  71.754  1.00  0.00    -0.342 C  
HETATM   22  O   UNK     1     -13.201   9.156  72.512  1.00  0.00    -0.444 OA 
HETATM   23  O   UNK     1     -11.283   9.115  71.292  1.00  0.00    -0.280 OA 
HETATM   24  H1  UNK     1     -12.122   7.664  69.273  1.00  0.00     0.000 HD 
HETATM   25  H2  UNK     1     -11.878   6.033  69.625  1.00  0.00     0.000 HD 
ENDBRANCH  18  19
ENDBRANCH  17  18
ENDBRANCH  16  17
ENDBRANCH  15  16
ENDBRANCH  13  15
ENDBRANCH  10  11
ENDBRANCH   9  10
ENDBRANCH   8   9
ENDBRANCH   7   8
ENDBRANCH   6   7
ENDBRANCH   5   6
ENDBRANCH   4   5
ENDBRANCH   3   4
ENDBRANCH   2   3
TORSDOF 14
ENDMDL
MODEL      408
REMARK 921   NORMALIZED FREE ENERGY PREDICTED BY IDOCK:   -2.66 KCAL/MOL
REMARK 922        TOTAL FREE ENERGY PREDICTED BY IDOCK:   -5.76 KCAL/MOL
REMARK 923 INTER-LIGAND FREE ENERGY PREDICTED BY IDOCK:   -4.91 KCAL/MOL
REMARK 924 INTRA-LIGAND FREE ENERGY PREDICTED BY IDOCK:   -0.85 KCAL/MOL
REMARK 927      BINDING AFFINITY PREDICTED BY RF-SCORE:    0.00 PKD
ROOT
HETATM    1  C   UNK     1      -7.760   7.488  64.705  1.00  0.00    -0.122 C  
HETATM    2  O   UNK     1      -8.424   6.250  64.908  1.00  0.00    -0.112 OA 
ENDROOT
BRANCH   2   3
HETATM    3  C   UNK     1      -8.201   5.352  63.821  1.00  0.00    -0.122 C  
BRANCH   3   4
HETATM    4  C   UNK     1      -9.062   4.110  64.014  1.00  0.00    -0.144 C  
BRANCH   4   5
HETATM    5  O   UNK     1      -8.266   3.062  64.564  1.00  0.00    -0.085 OA 
BRANCH   5   6
HETATM    6  C   UNK     1      -8.875   2.494  65.721  1.00  0.00    -0.131 C  
BRANCH   6   7
HETATM    7  C   UNK     1      -8.535   3.349  66.935  1.00  0.00    -0.108 C  
BRANCH   7   8
HETATM    8  C   UNK     1      -7.727   2.576  67.983  1.00  0.00    -0.055 C  
BRANCH   8   9
HETATM    9  C   UNK     1      -8.400   2.661  69.350  1.00  0.00    -0.084 C  
BRANCH   9  10
HETATM   10  C   UNK     1      -9.568   3.644  69.361  1.00  0.00    -0.196 C  
BRANCH  10  11
HETATM   11  C   UNK     1      -9.418   4.654  70.484  1.00  0.00    -0.177 C  
HETATM   12  O   UNK     1      -8.831   5.723  70.361  1.00  0.00    -0.138 OA 
HETATM   13  N   UNK     1     -10.005   4.251  71.663  1.00  0.00    -0.188 N  
HETATM   14  H   UNK     1     -10.443   3.331  71.716  1.00  0.00     0.000 HD 
BRANCH  13  15
HETATM   15  C   UNK     1     -10.011   5.113  72.828  1.00  0.00    -0.161 C  
BRANCH  15  16
HETATM   16  C   UNK     1     -11.148   6.137  72.801  1.00  0.00    -0.294 C  
BRANCH  16  17
HETATM   17  C   UNK     1     -10.675   7.510  73.275  1.00  0.00    -0.437 C  
BRANCH  17  18
HETATM   18  C   UNK     1     -10.641   8.544  72.140  1.00  0.00    -0.419 C  
BRANCH  18  19
HETATM   19  C   UNK     1     -11.821   8.421  71.164  1.00  0.00    -0.282 C  
HETATM   20  N   UNK     1     -11.404   8.743  69.768  1.00  0.00    -0.444 NA 
HETATM   21  C   UNK     1     -12.953   9.379  71.567  1.00  0.00    -0.371 C  
HETATM   22  O   UNK     1     -13.760   9.183  72.457  1.00  0.00    -0.474 OA 
HETATM   23  O   UNK     1     -12.914  10.520  70.823  1.00  0.00    -0.370 OA 
HETATM   24  H1  UNK     1     -12.187   8.661  69.120  1.00  0.00     0.000 HD 
HETATM   25  H2  UNK     1     -10.612   8.172  69.473  1.00  0.00     0.000 HD 
ENDBRANCH  18  19
ENDBRANCH  17  18
ENDBRANCH  16  17
ENDBRANCH  15  16
ENDBRANCH  13  15
ENDBRANCH  10  11
ENDBRANCH   9  10
ENDBRANCH   8   9
ENDBRANCH   7   8
ENDBRANCH   6   7
ENDBRANCH   5   6
ENDBRANCH   4   5
ENDBRANCH   3   4
ENDBRANCH   2   3
TORSDOF 14
ENDMDL
MODEL      409
REMARK 921   NORMALIZED FREE ENERGY PREDICTED BY IDOCK:   -2.65 KCAL/MOL
REMARK 922        TOTAL FREE ENERGY PREDICTED BY IDOCK:   -5.75 KCAL/MOL
REMARK 923 INTER-LIGAND FREE ENERGY PREDICTED BY IDOCK:   -4.85 KCAL/MOL
REMARK 924 INTRA-LIGAND FREE ENERGY PREDICTED BY IDOCK:   -0.90 KCAL/MOL
REMARK 927      BINDING AFFINITY PREDICTED BY RF-SCORE:    0.00 PKD
ROOT
HETATM    1  C   UNK     1      -7.389   7.969  65.253  1.00  0.00    -0.070 C  
HETATM    2  O   UNK     1      -8.056   7.591  66.448  1.00  0.00    -0.106 OA 
ENDROOT
BRANCH   2   3
HETATM    3  C   UNK     1      -9.475   7.667  66.300  1.00  0.00    -0.110 C  
BRANCH   3   4
HETATM    4  C   UNK     1      -9.890   9.131  66.211  1.00  0.00    -0.289 C  
BRANCH   4   5
HETATM    5  O   UNK     1      -9.538   9.797  67.421  1.00  0.00    -0.149 OA 
BRANCH   5   6
HETATM    6  C   UNK     1      -8.730  10.945  67.171  1.00  0.00    -0.132 C  
BRANCH   6   7
HETATM    7  C   UNK     1      -8.184  11.468  68.493  1.00  0.00    -0.148 C  
BRANCH   7   8
HETATM    8  C   UNK     1      -6.659  11.624  68.472  1.00  0.00    -0.061 C  
BRANCH   8   9
HETATM    9  C   UNK     1      -6.235  12.607  67.384  1.00  0.00    -0.149 C  
BRANCH   9  10
HETATM   10  C   UNK     1      -5.701  13.915  67.961  1.00  0.00    -0.131 C  
BRANCH  10  11
HETATM   11  C   UNK     1      -6.825  14.912  68.179  1.00  0.00    -0.130 C  
HETATM   12  O   UNK     1      -7.340  15.126  69.272  1.00  0.00    -0.157 OA 
HETATM   13  N   UNK     1      -7.216  15.554  67.026  1.00  0.00    -0.160 N  
HETATM   14  H   UNK     1      -6.779  15.303  66.139  1.00  0.00     0.000 HD 
BRANCH  13  15
HETATM   15  C   UNK     1      -8.239  16.581  67.052  1.00  0.00    -0.196 C  
BRANCH  15  16
HETATM   16  C   UNK     1      -9.176  16.512  65.843  1.00  0.00    -0.209 C  
BRANCH  16  17
HETATM   17  C   UNK     1     -10.476  15.785  66.185  1.00  0.00    -0.326 C  
BRANCH  17  18
HETATM   18  C   UNK     1     -10.700  14.541  65.313  1.00  0.00    -0.390 C  
BRANCH  18  19
HETATM   19  C   UNK     1     -12.078  13.892  65.515  1.00  0.00    -0.407 C  
HETATM   20  N   UNK     1     -12.227  13.360  66.901  1.00  0.00    -0.336 NA 
HETATM   21  C   UNK     1     -12.276  12.733  64.525  1.00  0.00    -0.433 C  
HETATM   22  O   UNK     1     -12.581  12.850  63.353  1.00  0.00    -0.709 OA 
HETATM   23  O   UNK     1     -12.015  11.535  65.120  1.00  0.00    -0.056 OA 
HETATM   24  H1  UNK     1     -13.141  12.930  67.035  1.00  0.00     0.000 HD 
HETATM   25  H2  UNK     1     -12.045  14.081  67.600  1.00  0.00     0.000 HD 
ENDBRANCH  18  19
ENDBRANCH  17  18
ENDBRANCH  16  17
ENDBRANCH  15  16
ENDBRANCH  13  15
ENDBRANCH  10  11
ENDBRANCH   9  10
ENDBRANCH   8   9
ENDBRANCH   7   8
ENDBRANCH   6   7
ENDBRANCH   5   6
ENDBRANCH   4   5
ENDBRANCH   3   4
ENDBRANCH   2   3
TORSDOF 14
ENDMDL
MODEL      410
REMARK 921   NORMALIZED FREE ENERGY PREDICTED BY IDOCK:   -2.61 KCAL/MOL
REMARK 922        TOTAL FREE ENERGY PREDICTED BY IDOCK:   -5.68 KCAL/MOL
REMARK 923 INTER-LIGAND FREE ENERGY PREDICTED BY IDOCK:   -4.98 KCAL/MOL
REMARK 924 INTRA-LIGAND FREE ENERGY PREDICTED BY IDOCK:   -0.70 KCAL/MOL
REMARK 927      BINDING AFFINITY PREDICTED BY RF-SCORE:    0.00 PKD
ROOT
HETATM    1  C   UNK     1      -8.635   4.553  68.403  1.00  0.00    -0.094 C  
HETATM    2  O   UNK     1      -8.907   3.712  67.291  1.00  0.00    -0.109 OA 
ENDROOT
BRANCH   2   3
HETATM    3  C   UNK     1      -7.703   3.236  66.689  1.00  0.00    -0.077 C  
BRANCH   3   4
HETATM    4  C   UNK     1      -7.149   4.312  65.763  1.00  0.00    -0.067 C  
BRANCH   4   5
HETATM    5  O   UNK     1      -8.036   4.491  64.661  1.00  0.00    -0.095 OA 
BRANCH   5   6
HETATM    6  C   UNK     1      -7.659   5.609  63.861  1.00  0.00    -0.074 C  
BRANCH   6   7
HETATM    7  C   UNK     1      -7.705   6.871  64.713  1.00  0.00    -0.115 C  
BRANCH   7   8
HETATM    8  C   UNK     1      -7.361   8.129  63.909  1.00  0.00    -0.101 C  
BRANCH   8   9
HETATM    9  C   UNK     1      -8.145   9.330  64.429  1.00  0.00    -0.142 C  
BRANCH   9  10
HETATM   10  C   UNK     1      -8.698  10.196  63.300  1.00  0.00    -0.214 C  
BRANCH  10  11
HETATM   11  C   UNK     1      -9.837  11.070  63.793  1.00  0.00    -0.330 C  
HETATM   12  O   UNK     1     -10.316  11.992  63.140  1.00  0.00    -0.404 OA 
HETATM   13  N   UNK     1     -10.281  10.730  65.050  1.00  0.00    -0.302 N  
HETATM   14  H   UNK     1      -9.814   9.980  65.561  1.00  0.00     0.000 HD 
BRANCH  13  15
HETATM   15  C   UNK     1     -11.401  11.419  65.660  1.00  0.00     0.001 C  
BRANCH  15  16
HETATM   16  C   UNK     1     -10.977  12.326  66.818  1.00  0.00    -0.321 C  
BRANCH  16  17
HETATM   17  C   UNK     1     -12.009  13.423  67.076  1.00  0.00    -0.429 C  
BRANCH  17  18
HETATM   18  C   UNK     1     -11.360  14.785  67.362  1.00  0.00    -0.361 C  
BRANCH  18  19
HETATM   19  C   UNK     1     -10.260  15.162  66.359  1.00  0.00    -0.281 C  
HETATM   20  N   UNK     1      -9.388  16.247  66.897  1.00  0.00    -0.216 NA 
HETATM   21  C   UNK     1     -10.881  15.647  65.039  1.00  0.00    -0.450 C  
HETATM   22  O   UNK     1     -11.332  14.929  64.167  1.00  0.00    -0.124 OA 
HETATM   23  O   UNK     1     -10.909  17.008  64.985  1.00  0.00    -0.678 OA 
HETATM   24  H1  UNK     1      -8.657  16.497  66.231  1.00  0.00     0.000 HD 
HETATM   25  H2  UNK     1      -8.997  15.997  67.805  1.00  0.00     0.000 HD 
ENDBRANCH  18  19
ENDBRANCH  17  18
ENDBRANCH  16  17
ENDBRANCH  15  16
ENDBRANCH  13  15
ENDBRANCH  10  11
ENDBRANCH   9  10
ENDBRANCH   8   9
ENDBRANCH   7   8
ENDBRANCH   6   7
ENDBRANCH   5   6
ENDBRANCH   4   5
ENDBRANCH   3   4
ENDBRANCH   2   3
TORSDOF 14
ENDMDL
MODEL      411
REMARK 921   NORMALIZED FREE ENERGY PREDICTED BY IDOCK:   -2.60 KCAL/MOL
REMARK 922        TOTAL FREE ENERGY PREDICTED BY IDOCK:   -5.66 KCAL/MOL
REMARK 923 INTER-LIGAND FREE ENERGY PREDICTED BY IDOCK:   -4.75 KCAL/MOL
REMARK 924 INTRA-LIGAND FREE ENERGY PREDICTED BY IDOCK:   -0.91 KCAL/MOL
REMARK 927      BINDING AFFINITY PREDICTED BY RF-SCORE:    0.00 PKD
ROOT
HETATM    1  C   UNK     1      -5.403   8.231  63.605  1.00  0.00    -0.053 C  
HETATM    2  O   UNK     1      -6.757   8.548  63.895  1.00  0.00    -0.075 OA 
ENDROOT
BRANCH   2   3
HETATM    3  C   UNK     1      -6.980   9.958  63.868  1.00  0.00    -0.124 C  
BRANCH   3   4
HETATM    4  C   UNK     1      -7.987  10.325  64.952  1.00  0.00    -0.146 C  
BRANCH   4   5
HETATM    5  O   UNK     1      -9.271   9.816  64.596  1.00  0.00    -0.236 OA 
BRANCH   5   6
HETATM    6  C   UNK     1     -10.286  10.807  64.740  1.00  0.00    -0.334 C  
BRANCH   6   7
HETATM    7  C   UNK     1      -9.640  12.130  65.131  1.00  0.00    -0.051 C  
BRANCH   7   8
HETATM    8  C   UNK     1     -10.627  13.300  65.069  1.00  0.00    -0.360 C  
BRANCH   8   9
HETATM    9  C   UNK     1     -11.997  12.875  65.589  1.00  0.00    -0.490 C  
BRANCH   9  10
HETATM   10  C   UNK     1     -12.376  13.595  66.881  1.00  0.00    -0.309 C  
BRANCH  10  11
HETATM   11  C   UNK     1     -11.585  13.051  68.057  1.00  0.00    -0.343 C  
HETATM   12  O   UNK     1     -10.907  13.753  68.801  1.00  0.00    -0.250 OA 
HETATM   13  N   UNK     1     -11.699  11.688  68.209  1.00  0.00    -0.313 N  
HETATM   14  H   UNK     1     -12.245  11.152  67.533  1.00  0.00     0.000 HD 
BRANCH  13  15
HETATM   15  C   UNK     1     -11.058  11.002  69.313  1.00  0.00    -0.254 C  
BRANCH  15  16
HETATM   16  C   UNK     1     -10.013   9.984  68.849  1.00  0.00    -0.198 C  
BRANCH  16  17
HETATM   17  C   UNK     1     -10.554   8.556  68.918  1.00  0.00    -0.166 C  
BRANCH  17  18
HETATM   18  C   UNK     1      -9.488   7.544  69.361  1.00  0.00    -0.155 C  
BRANCH  18  19
HETATM   19  C   UNK     1      -9.470   7.298  70.877  1.00  0.00    -0.159 C  
HETATM   20  N   UNK     1     -10.512   8.113  71.568  1.00  0.00    -0.213 NA 
HETATM   21  C   UNK     1      -8.098   7.665  71.464  1.00  0.00    -0.098 C  
HETATM   22  O   UNK     1      -7.100   6.970  71.411  1.00  0.00    -0.068 OA 
HETATM   23  O   UNK     1      -8.122   8.908  72.020  1.00  0.00    -0.355 OA 
HETATM   24  H1  UNK     1     -10.501   7.950  72.575  1.00  0.00     0.000 HD 
HETATM   25  H2  UNK     1     -11.438   7.950  71.173  1.00  0.00     0.000 HD 
ENDBRANCH  18  19
ENDBRANCH  17  18
ENDBRANCH  16  17
ENDBRANCH  15  16
ENDBRANCH  13  15
ENDBRANCH  10  11
ENDBRANCH   9  10
ENDBRANCH   8   9
ENDBRANCH   7   8
ENDBRANCH   6   7
ENDBRANCH   5   6
ENDBRANCH   4   5
ENDBRANCH   3   4
ENDBRANCH   2   3
TORSDOF 14
ENDMDL
MODEL      412
REMARK 921   NORMALIZED FREE ENERGY PREDICTED BY IDOCK:   -2.60 KCAL/MOL
REMARK 922        TOTAL FREE ENERGY PREDICTED BY IDOCK:   -5.66 KCAL/MOL
REMARK 923 INTER-LIGAND FREE ENERGY PREDICTED BY IDOCK:   -5.53 KCAL/MOL
REMARK 924 INTRA-LIGAND FREE ENERGY PREDICTED BY IDOCK:   -0.13 KCAL/MOL
REMARK 927      BINDING AFFINITY PREDICTED BY RF-SCORE:    0.00 PKD
ROOT
HETATM    1  C   UNK     1     -11.036   5.816  73.031  1.00  0.00    -0.265 C  
HETATM    2  O   UNK     1     -11.797   6.449  72.012  1.00  0.00    -0.317 OA 
ENDROOT
BRANCH   2   3
HETATM    3  C   UNK     1     -12.083   7.809  72.342  1.00  0.00    -0.250 C  
BRANCH   3   4
HETATM    4  C   UNK     1     -11.724   8.697  71.157  1.00  0.00    -0.288 C  
BRANCH   4   5
HETATM    5  O   UNK     1     -11.743  10.063  71.565  1.00  0.00    -0.365 OA 
BRANCH   5   6
HETATM    6  C   UNK     1     -12.569  10.852  70.712  1.00  0.00    -0.377 C  
BRANCH   6   7
HETATM    7  C   UNK     1     -11.864  11.047  69.376  1.00  0.00    -0.407 C  
BRANCH   7   8
HETATM    8  C   UNK     1     -12.281  12.348  68.682  1.00  0.00     0.045 C  
BRANCH   8   9
HETATM    9  C   UNK     1     -11.147  12.878  67.809  1.00  0.00    -0.291 C  
BRANCH   9  10
HETATM   10  C   UNK     1     -11.658  13.703  66.630  1.00  0.00    -0.391 C  
BRANCH  10  11
HETATM   11  C   UNK     1     -11.204  13.105  65.311  1.00  0.00    -0.291 C  
HETATM   12  O   UNK     1     -10.756  13.771  64.383  1.00  0.00    -0.407 OA 
HETATM   13  N   UNK     1     -11.345  11.737  65.254  1.00  0.00    -0.267 N  
HETATM   14  H   UNK     1     -11.763  11.243  66.043  1.00  0.00     0.000 HD 
BRANCH  13  15
HETATM   15  C   UNK     1     -10.909  10.988  64.092  1.00  0.00    -0.180 C  
BRANCH  15  16
HETATM   16  C   UNK     1      -9.631  10.186  64.351  1.00  0.00    -0.366 C  
BRANCH  16  17
HETATM   17  C   UNK     1      -9.469   9.856  65.834  1.00  0.00    -0.272 C  
BRANCH  17  18
HETATM   18  C   UNK     1      -8.268  10.573  66.469  1.00  0.00    -0.133 C  
BRANCH  18  19
HETATM   19  C   UNK     1      -8.651  11.483  67.645  1.00  0.00    -0.135 C  
HETATM   20  N   UNK     1      -8.254  12.898  67.384  1.00  0.00    -0.179 NA 
HETATM   21  C   UNK     1      -7.958  11.014  68.934  1.00  0.00    -0.138 C  
HETATM   22  O   UNK     1      -8.318  10.084  69.630  1.00  0.00    -0.156 OA 
HETATM   23  O   UNK     1      -6.840  11.753  69.183  1.00  0.00    -0.100 OA 
HETATM   24  H1  UNK     1      -8.509  13.503  68.164  1.00  0.00     0.000 HD 
HETATM   25  H2  UNK     1      -8.642  13.239  66.504  1.00  0.00     0.000 HD 
ENDBRANCH  18  19
ENDBRANCH  17  18
ENDBRANCH  16  17
ENDBRANCH  15  16
ENDBRANCH  13  15
ENDBRANCH  10  11
ENDBRANCH   9  10
ENDBRANCH   8   9
ENDBRANCH   7   8
ENDBRANCH   6   7
ENDBRANCH   5   6
ENDBRANCH   4   5
ENDBRANCH   3   4
ENDBRANCH   2   3
TORSDOF 14
ENDMDL
MODEL      413
REMARK 921   NORMALIZED FREE ENERGY PREDICTED BY IDOCK:   -2.59 KCAL/MOL
REMARK 922        TOTAL FREE ENERGY PREDICTED BY IDOCK:   -5.65 KCAL/MOL
REMARK 923 INTER-LIGAND FREE ENERGY PREDICTED BY IDOCK:   -4.68 KCAL/MOL
REMARK 924 INTRA-LIGAND FREE ENERGY PREDICTED BY IDOCK:   -0.97 KCAL/MOL
REMARK 927      BINDING AFFINITY PREDICTED BY RF-SCORE:    0.00 PKD
ROOT
HETATM    1  C   UNK     1     -10.559   5.919  67.453  1.00  0.00    -0.282 C  
HETATM    2  O   UNK     1      -9.270   6.395  67.094  1.00  0.00    -0.120 OA 
ENDROOT
BRANCH   2   3
HETATM    3  C   UNK     1      -9.219   6.783  65.721  1.00  0.00     0.114 C  
BRANCH   3   4
HETATM    4  C   UNK     1      -7.768   6.785  65.256  1.00  0.00    -0.106 C  
BRANCH   4   5
HETATM    5  O   UNK     1      -7.602   7.756  64.226  1.00  0.00    -0.096 OA 
BRANCH   5   6
HETATM    6  C   UNK     1      -7.993   9.056  64.664  1.00  0.00    -0.128 C  
BRANCH   6   7
HETATM    7  C   UNK     1      -6.846   9.687  65.441  1.00  0.00    -0.094 C  
BRANCH   7   8
HETATM    8  C   UNK     1      -7.331  10.451  66.678  1.00  0.00    -0.114 C  
BRANCH   8   9
HETATM    9  C   UNK     1      -7.389   9.527  67.891  1.00  0.00    -0.083 C  
BRANCH   9  10
HETATM   10  C   UNK     1      -7.618  10.291  69.193  1.00  0.00    -0.111 C  
BRANCH  10  11
HETATM   11  C   UNK     1      -9.070  10.204  69.626  1.00  0.00    -0.174 C  
HETATM   12  O   UNK     1      -9.531   9.266  70.269  1.00  0.00    -0.201 OA 
HETATM   13  N   UNK     1      -9.826  11.282  69.224  1.00  0.00    -0.422 N  
HETATM   14  H   UNK     1      -9.396  12.011  68.655  1.00  0.00     0.000 HD 
BRANCH  13  15
HETATM   15  C   UNK     1     -11.222  11.397  69.595  1.00  0.00    -0.230 C  
BRANCH  15  16
HETATM   16  C   UNK     1     -11.999  12.353  68.687  1.00  0.00    -0.272 C  
BRANCH  16  17
HETATM   17  C   UNK     1     -11.097  13.458  68.138  1.00  0.00    -0.284 C  
BRANCH  17  18
HETATM   18  C   UNK     1     -11.606  14.025  66.804  1.00  0.00    -0.406 C  
BRANCH  18  19
HETATM   19  C   UNK     1     -10.480  14.431  65.842  1.00  0.00    -0.308 C  
HETATM   20  N   UNK     1      -9.297  13.532  65.985  1.00  0.00    -0.493 NA 
HETATM   21  C   UNK     1     -10.031  15.874  66.120  1.00  0.00    -0.314 C  
HETATM   22  O   UNK     1     -10.612  16.877  65.750  1.00  0.00    -0.352 OA 
HETATM   23  O   UNK     1      -8.905  15.895  66.887  1.00  0.00    -0.201 OA 
HETATM   24  H1  UNK     1      -8.550  13.801  65.346  1.00  0.00     0.000 HD 
HETATM   25  H2  UNK     1      -9.555  12.552  65.868  1.00  0.00     0.000 HD 
ENDBRANCH  18  19
ENDBRANCH  17  18
ENDBRANCH  16  17
ENDBRANCH  15  16
ENDBRANCH  13  15
ENDBRANCH  10  11
ENDBRANCH   9  10
ENDBRANCH   8   9
ENDBRANCH   7   8
ENDBRANCH   6   7
ENDBRANCH   5   6
ENDBRANCH   4   5
ENDBRANCH   3   4
ENDBRANCH   2   3
TORSDOF 14
ENDMDL
MODEL      414
REMARK 921   NORMALIZED FREE ENERGY PREDICTED BY IDOCK:   -2.59 KCAL/MOL
REMARK 922        TOTAL FREE ENERGY PREDICTED BY IDOCK:   -5.65 KCAL/MOL
REMARK 923 INTER-LIGAND FREE ENERGY PREDICTED BY IDOCK:   -4.22 KCAL/MOL
REMARK 924 INTRA-LIGAND FREE ENERGY PREDICTED BY IDOCK:   -1.42 KCAL/MOL
REMARK 927      BINDING AFFINITY PREDICTED BY RF-SCORE:    0.00 PKD
ROOT
HETATM    1  C   UNK     1      -9.411  10.978  68.693  1.00  0.00    -0.194 C  
HETATM    2  O   UNK     1      -9.884   9.703  68.281  1.00  0.00    -0.145 OA 
ENDROOT
BRANCH   2   3
HETATM    3  C   UNK     1     -10.645   9.071  69.311  1.00  0.00    -0.213 C  
BRANCH   3   4
HETATM    4  C   UNK     1     -11.565  10.102  69.956  1.00  0.00    -0.253 C  
BRANCH   4   5
HETATM    5  O   UNK     1     -11.438  10.028  71.374  1.00  0.00    -0.360 OA 
BRANCH   5   6
HETATM    6  C   UNK     1     -10.703   8.873  71.774  1.00  0.00    -0.362 C  
BRANCH   6   7
HETATM    7  C   UNK     1     -11.602   7.977  72.617  1.00  0.00    -0.448 C  
BRANCH   7   8
HETATM    8  C   UNK     1     -11.579   6.520  72.144  1.00  0.00    -0.349 C  
BRANCH   8   9
HETATM    9  C   UNK     1     -10.186   6.137  71.652  1.00  0.00    -0.235 C  
BRANCH   9  10
HETATM   10  C   UNK     1     -10.222   4.993  70.641  1.00  0.00    -0.306 C  
BRANCH  10  11
HETATM   11  C   UNK     1      -9.120   5.145  69.609  1.00  0.00    -0.115 C  
HETATM   12  O   UNK     1      -9.196   4.709  68.465  1.00  0.00    -0.114 OA 
HETATM   13  N   UNK     1      -8.018   5.821  70.083  1.00  0.00    -0.098 N  
HETATM   14  H   UNK     1      -7.996   6.123  71.057  1.00  0.00     0.000 HD 
BRANCH  13  15
HETATM   15  C   UNK     1      -6.890   6.110  69.220  1.00  0.00    -0.062 C  
BRANCH  15  16
HETATM   16  C   UNK     1      -6.835   7.578  68.791  1.00  0.00    -0.065 C  
BRANCH  16  17
HETATM   17  C   UNK     1      -6.545   7.713  67.296  1.00  0.00    -0.063 C  
BRANCH  17  18
HETATM   18  C   UNK     1      -7.080   6.525  66.484  1.00  0.00    -0.068 C  
BRANCH  18  19
HETATM   19  C   UNK     1      -8.298   6.875  65.616  1.00  0.00    -0.146 C  
HETATM   20  N   UNK     1      -9.550   6.288  66.180  1.00  0.00    -0.357 NA 
HETATM   21  C   UNK     1      -8.111   6.342  64.187  1.00  0.00    -0.067 C  
HETATM   22  O   UNK     1      -7.433   6.864  63.323  1.00  0.00    -0.073 OA 
HETATM   23  O   UNK     1      -8.771   5.162  64.018  1.00  0.00    -0.129 OA 
HETATM   24  H1  UNK     1     -10.358   6.522  65.604  1.00  0.00     0.000 HD 
HETATM   25  H2  UNK     1      -9.689   6.566  67.151  1.00  0.00     0.000 HD 
ENDBRANCH  18  19
ENDBRANCH  17  18
ENDBRANCH  16  17
ENDBRANCH  15  16
ENDBRANCH  13  15
ENDBRANCH  10  11
ENDBRANCH   9  10
ENDBRANCH   8   9
ENDBRANCH   7   8
ENDBRANCH   6   7
ENDBRANCH   5   6
ENDBRANCH   4   5
ENDBRANCH   3   4
ENDBRANCH   2   3
TORSDOF 14
ENDMDL
MODEL      415
REMARK 921   NORMALIZED FREE ENERGY PREDICTED BY IDOCK:   -2.58 KCAL/MOL
REMARK 922        TOTAL FREE ENERGY PREDICTED BY IDOCK:   -5.63 KCAL/MOL
REMARK 923 INTER-LIGAND FREE ENERGY PREDICTED BY IDOCK:   -4.74 KCAL/MOL
REMARK 924 INTRA-LIGAND FREE ENERGY PREDICTED BY IDOCK:   -0.89 KCAL/MOL
REMARK 927      BINDING AFFINITY PREDICTED BY RF-SCORE:    0.00 PKD
ROOT
HETATM    1  C   UNK     1     -11.533  12.135  66.552  1.00  0.00    -0.369 C  
HETATM    2  O   UNK     1     -10.713  13.220  66.142  1.00  0.00    -0.276 OA 
ENDROOT
BRANCH   2   3
HETATM    3  C   UNK     1      -9.662  12.784  65.279  1.00  0.00    -0.007 C  
BRANCH   3   4
HETATM    4  C   UNK     1     -10.062  11.463  64.633  1.00  0.00    -0.280 C  
BRANCH   4   5
HETATM    5  O   UNK     1      -9.104  10.462  64.969  1.00  0.00    -0.176 OA 
BRANCH   5   6
HETATM    6  C   UNK     1      -8.254  10.887  66.032  1.00  0.00    -0.155 C  
BRANCH   6   7
HETATM    7  C   UNK     1      -7.245   9.787  66.334  1.00  0.00    -0.095 C  
BRANCH   7   8
HETATM    8  C   UNK     1      -7.240   9.393  67.815  1.00  0.00    -0.083 C  
BRANCH   8   9
HETATM    9  C   UNK     1      -8.644   9.005  68.272  1.00  0.00    -0.130 C  
BRANCH   9  10
HETATM   10  C   UNK     1      -9.103   7.678  67.673  1.00  0.00    -0.133 C  
BRANCH  10  11
HETATM   11  C   UNK     1      -8.668   6.511  68.540  1.00  0.00    -0.122 C  
HETATM   12  O   UNK     1      -8.321   5.424  68.089  1.00  0.00    -0.099 OA 
HETATM   13  N   UNK     1      -8.702   6.789  69.888  1.00  0.00    -0.141 N  
HETATM   14  H   UNK     1      -9.040   7.698  70.204  1.00  0.00     0.000 HD 
BRANCH  13  15
HETATM   15  C   UNK     1      -8.266   5.811  70.865  1.00  0.00    -0.121 C  
BRANCH  15  16
HETATM   16  C   UNK     1      -9.403   5.333  71.771  1.00  0.00    -0.175 C  
BRANCH  16  17
HETATM   17  C   UNK     1     -10.770   5.646  71.164  1.00  0.00    -0.310 C  
BRANCH  17  18
HETATM   18  C   UNK     1     -11.485   6.797  71.886  1.00  0.00    -0.318 C  
BRANCH  18  19
HETATM   19  C   UNK     1     -12.276   7.715  70.942  1.00  0.00    -0.168 C  
HETATM   20  N   UNK     1     -11.367   8.628  70.189  1.00  0.00    -0.435 NA 
HETATM   21  C   UNK     1     -13.275   8.570  71.738  1.00  0.00    -0.364 C  
HETATM   22  O   UNK     1     -14.352   8.190  72.156  1.00  0.00    -0.397 OA 
HETATM   23  O   UNK     1     -12.777   9.818  71.963  1.00  0.00    -0.388 OA 
HETATM   24  H1  UNK     1     -11.892   9.237  69.562  1.00  0.00     0.000 HD 
HETATM   25  H2  UNK     1     -10.645   8.109  69.690  1.00  0.00     0.000 HD 
ENDBRANCH  18  19
ENDBRANCH  17  18
ENDBRANCH  16  17
ENDBRANCH  15  16
ENDBRANCH  13  15
ENDBRANCH  10  11
ENDBRANCH   9  10
ENDBRANCH   8   9
ENDBRANCH   7   8
ENDBRANCH   6   7
ENDBRANCH   5   6
ENDBRANCH   4   5
ENDBRANCH   3   4
ENDBRANCH   2   3
TORSDOF 14
ENDMDL
MODEL      416
REMARK 921   NORMALIZED FREE ENERGY PREDICTED BY IDOCK:   -2.58 KCAL/MOL
REMARK 922        TOTAL FREE ENERGY PREDICTED BY IDOCK:   -5.62 KCAL/MOL
REMARK 923 INTER-LIGAND FREE ENERGY PREDICTED BY IDOCK:   -4.82 KCAL/MOL
REMARK 924 INTRA-LIGAND FREE ENERGY PREDICTED BY IDOCK:   -0.80 KCAL/MOL
REMARK 927      BINDING AFFINITY PREDICTED BY RF-SCORE:    0.00 PKD
ROOT
HETATM    1  C   UNK     1      -8.400   4.944  64.654  1.00  0.00    -0.134 C  
HETATM    2  O   UNK     1      -7.591   4.955  65.821  1.00  0.00    -0.084 OA 
ENDROOT
BRANCH   2   3
HETATM    3  C   UNK     1      -7.924   3.877  66.697  1.00  0.00    -0.096 C  
BRANCH   3   4
HETATM    4  C   UNK     1      -9.386   4.001  67.108  1.00  0.00    -0.184 C  
BRANCH   4   5
HETATM    5  O   UNK     1      -9.464   4.555  68.419  1.00  0.00    -0.134 OA 
BRANCH   5   6
HETATM    6  C   UNK     1     -10.229   5.758  68.434  1.00  0.00    -0.191 C  
BRANCH   6   7
HETATM    7  C   UNK     1     -11.143   5.753  69.653  1.00  0.00    -0.306 C  
BRANCH   7   8
HETATM    8  C   UNK     1     -10.582   6.594  70.805  1.00  0.00    -0.265 C  
BRANCH   8   9
HETATM    9  C   UNK     1      -9.460   7.503  70.309  1.00  0.00    -0.165 C  
BRANCH   9  10
HETATM   10  C   UNK     1      -9.866   8.974  70.301  1.00  0.00    -0.227 C  
BRANCH  10  11
HETATM   11  C   UNK     1      -9.254   9.700  69.117  1.00  0.00    -0.168 C  
HETATM   12  O   UNK     1      -8.535  10.688  69.225  1.00  0.00    -0.150 OA 
HETATM   13  N   UNK     1      -9.586   9.142  67.903  1.00  0.00    -0.144 N  
HETATM   14  H   UNK     1     -10.223   8.345  67.876  1.00  0.00     0.000 HD 
BRANCH  13  15
HETATM   15  C   UNK     1      -9.047   9.668  66.665  1.00  0.00    -0.148 C  
BRANCH  15  16
HETATM   16  C   UNK     1     -10.137  10.140  65.699  1.00  0.00    -0.324 C  
BRANCH  16  17
HETATM   17  C   UNK     1     -10.784  11.440  66.177  1.00  0.00    -0.320 C  
BRANCH  17  18
HETATM   18  C   UNK     1      -9.977  12.682  65.771  1.00  0.00    -0.266 C  
BRANCH  18  19
HETATM   19  C   UNK     1     -10.147  13.864  66.736  1.00  0.00    -0.265 C  
HETATM   20  N   UNK     1      -9.267  13.715  67.933  1.00  0.00    -0.194 NA 
HETATM   21  C   UNK     1     -11.605  13.963  67.213  1.00  0.00    -0.365 C  
HETATM   22  O   UNK     1     -12.524  14.442  66.577  1.00  0.00    -0.376 OA 
HETATM   23  O   UNK     1     -11.754  13.393  68.442  1.00  0.00    -0.313 OA 
HETATM   24  H1  UNK     1      -9.380  14.500  68.573  1.00  0.00     0.000 HD 
HETATM   25  H2  UNK     1      -8.291  13.586  67.666  1.00  0.00     0.000 HD 
ENDBRANCH  18  19
ENDBRANCH  17  18
ENDBRANCH  16  17
ENDBRANCH  15  16
ENDBRANCH  13  15
ENDBRANCH  10  11
ENDBRANCH   9  10
ENDBRANCH   8   9
ENDBRANCH   7   8
ENDBRANCH   6   7
ENDBRANCH   5   6
ENDBRANCH   4   5
ENDBRANCH   3   4
ENDBRANCH   2   3
TORSDOF 14
ENDMDL
MODEL      417
REMARK 921   NORMALIZED FREE ENERGY PREDICTED BY IDOCK:   -2.57 KCAL/MOL
REMARK 922        TOTAL FREE ENERGY PREDICTED BY IDOCK:   -5.61 KCAL/MOL
REMARK 923 INTER-LIGAND FREE ENERGY PREDICTED BY IDOCK:   -4.85 KCAL/MOL
REMARK 924 INTRA-LIGAND FREE ENERGY PREDICTED BY IDOCK:   -0.76 KCAL/MOL
REMARK 927      BINDING AFFINITY PREDICTED BY RF-SCORE:    0.00 PKD
ROOT
HETATM    1  C   UNK     1      -7.966  15.306  68.435  1.00  0.00    -0.131 C  
HETATM    2  O   UNK     1      -7.952  14.772  67.119  1.00  0.00    -0.198 OA 
ENDROOT
BRANCH   2   3
HETATM    3  C   UNK     1      -9.157  15.080  66.418  1.00  0.00    -0.277 C  
BRANCH   3   4
HETATM    4  C   UNK     1     -10.195  14.003  66.712  1.00  0.00    -0.264 C  
BRANCH   4   5
HETATM    5  O   UNK     1     -11.068  13.869  65.593  1.00  0.00    -0.294 OA 
BRANCH   5   6
HETATM    6  C   UNK     1     -11.511  12.523  65.433  1.00  0.00    -0.344 C  
BRANCH   6   7
HETATM    7  C   UNK     1     -10.982  11.682  66.588  1.00  0.00    -0.349 C  
BRANCH   7   8
HETATM    8  C   UNK     1     -10.478  10.310  66.126  1.00  0.00    -0.200 C  
BRANCH   8   9
HETATM    9  C   UNK     1     -10.017  10.369  64.673  1.00  0.00    -0.408 C  
BRANCH   9  10
HETATM   10  C   UNK     1      -8.792   9.495  64.417  1.00  0.00    -0.251 C  
BRANCH  10  11
HETATM   11  C   UNK     1      -7.784   9.631  65.543  1.00  0.00    -0.112 C  
HETATM   12  O   UNK     1      -7.232  10.686  65.837  1.00  0.00    -0.137 OA 
HETATM   13  N   UNK     1      -7.544   8.448  66.206  1.00  0.00    -0.085 N  
HETATM   14  H   UNK     1      -8.002   7.593  65.889  1.00  0.00     0.000 HD 
BRANCH  13  15
HETATM   15  C   UNK     1      -6.651   8.398  67.347  1.00  0.00    -0.059 C  
BRANCH  15  16
HETATM   16  C   UNK     1      -7.357   8.728  68.665  1.00  0.00    -0.080 C  
BRANCH  16  17
HETATM   17  C   UNK     1      -8.632   7.902  68.838  1.00  0.00    -0.132 C  
BRANCH  17  18
HETATM   18  C   UNK     1      -9.728   8.664  69.596  1.00  0.00    -0.179 C  
BRANCH  18  19
HETATM   19  C   UNK     1     -10.891   7.770  70.053  1.00  0.00    -0.241 C  
HETATM   20  N   UNK     1     -10.824   7.504  71.520  1.00  0.00    -0.226 NA 
HETATM   21  C   UNK     1     -10.856   6.424  69.312  1.00  0.00    -0.327 C  
HETATM   22  O   UNK     1     -11.248   6.233  68.177  1.00  0.00    -0.327 OA 
HETATM   23  O   UNK     1     -10.275   5.460  70.081  1.00  0.00    -0.226 OA 
HETATM   24  H1  UNK     1     -11.596   6.911  71.823  1.00  0.00     0.000 HD 
HETATM   25  H2  UNK     1     -10.784   8.371  72.056  1.00  0.00     0.000 HD 
ENDBRANCH  18  19
ENDBRANCH  17  18
ENDBRANCH  16  17
ENDBRANCH  15  16
ENDBRANCH  13  15
ENDBRANCH  10  11
ENDBRANCH   9  10
ENDBRANCH   8   9
ENDBRANCH   7   8
ENDBRANCH   6   7
ENDBRANCH   5   6
ENDBRANCH   4   5
ENDBRANCH   3   4
ENDBRANCH   2   3
TORSDOF 14
ENDMDL
MODEL      418
REMARK 921   NORMALIZED FREE ENERGY PREDICTED BY IDOCK:   -2.56 KCAL/MOL
REMARK 922        TOTAL FREE ENERGY PREDICTED BY IDOCK:   -5.58 KCAL/MOL
REMARK 923 INTER-LIGAND FREE ENERGY PREDICTED BY IDOCK:   -4.82 KCAL/MOL
REMARK 924 INTRA-LIGAND FREE ENERGY PREDICTED BY IDOCK:   -0.76 KCAL/MOL
REMARK 927      BINDING AFFINITY PREDICTED BY RF-SCORE:    0.00 PKD
ROOT
HETATM    1  C   UNK     1      -7.986  16.163  67.002  1.00  0.00    -0.219 C  
HETATM    2  O   UNK     1      -9.090  15.286  67.172  1.00  0.00    -0.192 OA 
ENDROOT
BRANCH   2   3
HETATM    3  C   UNK     1      -9.662  14.918  65.916  1.00  0.00    -0.333 C  
BRANCH   3   4
HETATM    4  C   UNK     1     -10.483  13.646  66.096  1.00  0.00    -0.297 C  
BRANCH   4   5
HETATM    5  O   UNK     1     -11.419  13.833  67.155  1.00  0.00    -0.310 OA 
BRANCH   5   6
HETATM    6  C   UNK     1     -11.839  12.588  67.708  1.00  0.00    -0.313 C  
BRANCH   6   7
HETATM    7  C   UNK     1     -11.087  12.341  69.009  1.00  0.00    -0.289 C  
BRANCH   7   8
HETATM    8  C   UNK     1     -12.032  12.081  70.187  1.00  0.00    -0.401 C  
BRANCH   8   9
HETATM    9  C   UNK     1     -12.408  10.604  70.258  1.00  0.00    -0.406 C  
BRANCH   9  10
HETATM   10  C   UNK     1     -11.441   9.799  71.123  1.00  0.00    -0.472 C  
BRANCH  10  11
HETATM   11  C   UNK     1     -10.817   8.666  70.329  1.00  0.00    -0.235 C  
HETATM   12  O   UNK     1     -10.173   7.754  70.839  1.00  0.00    -0.198 OA 
HETATM   13  N   UNK     1     -11.040   8.761  68.974  1.00  0.00    -0.429 N  
HETATM   14  H   UNK     1     -11.548   9.565  68.605  1.00  0.00     0.000 HD 
BRANCH  13  15
HETATM   15  C   UNK     1     -10.567   7.736  68.064  1.00  0.00    -0.139 C  
BRANCH  15  16
HETATM   16  C   UNK     1      -9.318   8.164  67.290  1.00  0.00    -0.174 C  
BRANCH  16  17
HETATM   17  C   UNK     1      -8.158   7.196  67.522  1.00  0.00    -0.113 C  
BRANCH  17  18
HETATM   18  C   UNK     1      -7.771   7.086  69.004  1.00  0.00    -0.109 C  
BRANCH  18  19
HETATM   19  C   UNK     1      -6.293   7.403  69.276  1.00  0.00    -0.036 C  
HETATM   20  N   UNK     1      -5.857   6.854  70.594  1.00  0.00    -0.027 NA 
HETATM   21  C   UNK     1      -6.061   8.922  69.281  1.00  0.00    -0.041 C  
HETATM   22  O   UNK     1      -5.956   9.622  68.292  1.00  0.00    -0.046 OA 
HETATM   23  O   UNK     1      -6.036   9.407  70.554  1.00  0.00    -0.044 OA 
HETATM   24  H1  UNK     1      -4.875   7.064  70.774  1.00  0.00     0.000 HD 
HETATM   25  H2  UNK     1      -6.045   5.854  70.664  1.00  0.00     0.000 HD 
ENDBRANCH  18  19
ENDBRANCH  17  18
ENDBRANCH  16  17
ENDBRANCH  15  16
ENDBRANCH  13  15
ENDBRANCH  10  11
ENDBRANCH   9  10
ENDBRANCH   8   9
ENDBRANCH   7   8
ENDBRANCH   6   7
ENDBRANCH   5   6
ENDBRANCH   4   5
ENDBRANCH   3   4
ENDBRANCH   2   3
TORSDOF 14
ENDMDL
MODEL      419
REMARK 921   NORMALIZED FREE ENERGY PREDICTED BY IDOCK:   -2.55 KCAL/MOL
REMARK 922        TOTAL FREE ENERGY PREDICTED BY IDOCK:   -5.57 KCAL/MOL
REMARK 923 INTER-LIGAND FREE ENERGY PREDICTED BY IDOCK:   -4.52 KCAL/MOL
REMARK 924 INTRA-LIGAND FREE ENERGY PREDICTED BY IDOCK:   -1.05 KCAL/MOL
REMARK 927      BINDING AFFINITY PREDICTED BY RF-SCORE:    0.00 PKD
ROOT
HETATM    1  C   UNK     1     -10.594   7.312  67.208  1.00  0.00    -0.325 C  
HETATM    2  O   UNK     1      -9.242   7.731  67.087  1.00  0.00    -0.138 OA 
ENDROOT
BRANCH   2   3
HETATM    3  C   UNK     1      -8.888   7.964  65.724  1.00  0.00    -0.119 C  
BRANCH   3   4
HETATM    4  C   UNK     1      -7.369   7.960  65.595  1.00  0.00    -0.079 C  
BRANCH   4   5
HETATM    5  O   UNK     1      -6.960   9.065  64.793  1.00  0.00    -0.083 OA 
BRANCH   5   6
HETATM    6  C   UNK     1      -7.336  10.308  65.382  1.00  0.00    -0.144 C  
BRANCH   6   7
HETATM    7  C   UNK     1      -6.365  10.642  66.507  1.00  0.00    -0.102 C  
BRANCH   7   8
HETATM    8  C   UNK     1      -7.082  10.894  67.839  1.00  0.00    -0.081 C  
BRANCH   8   9
HETATM    9  C   UNK     1      -6.815   9.753  68.816  1.00  0.00    -0.051 C  
BRANCH   9  10
HETATM   10  C   UNK     1      -7.471   9.987  70.175  1.00  0.00    -0.176 C  
BRANCH  10  11
HETATM   11  C   UNK     1      -8.869   9.397  70.211  1.00  0.00    -0.236 C  
HETATM   12  O   UNK     1      -9.103   8.220  70.468  1.00  0.00    -0.143 OA 
HETATM   13  N   UNK     1      -9.856  10.313  69.925  1.00  0.00    -0.409 N  
HETATM   14  H   UNK     1      -9.597  11.269  69.678  1.00  0.00     0.000 HD 
BRANCH  13  15
HETATM   15  C   UNK     1     -11.257   9.943  69.969  1.00  0.00    -0.276 C  
BRANCH  15  16
HETATM   16  C   UNK     1     -12.191  11.144  69.805  1.00  0.00    -0.369 C  
BRANCH  16  17
HETATM   17  C   UNK     1     -11.497  12.449  70.192  1.00  0.00    -0.018 C  
BRANCH  17  18
HETATM   18  C   UNK     1     -12.493  13.560  70.555  1.00  0.00    -0.373 C  
BRANCH  18  19
HETATM   19  C   UNK     1     -12.244  14.875  69.800  1.00  0.00    -0.287 C  
HETATM   20  N   UNK     1     -12.052  14.632  68.340  1.00  0.00    -0.581 NA 
HETATM   21  C   UNK     1     -10.991  15.578  70.346  1.00  0.00    -0.339 C  
HETATM   22  O   UNK     1     -10.941  16.237  71.367  1.00  0.00     0.040 OA 
HETATM   23  O   UNK     1      -9.910  15.329  69.555  1.00  0.00    -0.234 OA 
HETATM   24  H1  UNK     1     -11.887  15.504  67.839  1.00  0.00     0.000 HD 
HETATM   25  H2  UNK     1     -12.834  14.112  67.941  1.00  0.00     0.000 HD 
ENDBRANCH  18  19
ENDBRANCH  17  18
ENDBRANCH  16  17
ENDBRANCH  15  16
ENDBRANCH  13  15
ENDBRANCH  10  11
ENDBRANCH   9  10
ENDBRANCH   8   9
ENDBRANCH   7   8
ENDBRANCH   6   7
ENDBRANCH   5   6
ENDBRANCH   4   5
ENDBRANCH   3   4
ENDBRANCH   2   3
TORSDOF 14
ENDMDL
MODEL      420
REMARK 921   NORMALIZED FREE ENERGY PREDICTED BY IDOCK:   -2.55 KCAL/MOL
REMARK 922        TOTAL FREE ENERGY PREDICTED BY IDOCK:   -5.57 KCAL/MOL
REMARK 923 INTER-LIGAND FREE ENERGY PREDICTED BY IDOCK:   -4.98 KCAL/MOL
REMARK 924 INTRA-LIGAND FREE ENERGY PREDICTED BY IDOCK:   -0.59 KCAL/MOL
REMARK 927      BINDING AFFINITY PREDICTED BY RF-SCORE:    0.00 PKD
ROOT
HETATM    1  C   UNK     1      -6.478   3.113  72.720  1.00  0.00    -0.017 C  
HETATM    2  O   UNK     1      -6.275   4.509  72.878  1.00  0.00    -0.022 OA 
ENDROOT
BRANCH   2   3
HETATM    3  C   UNK     1      -6.923   5.002  74.051  1.00  0.00    -0.081 C  
BRANCH   3   4
HETATM    4  C   UNK     1      -8.345   4.456  74.103  1.00  0.00    -0.095 C  
BRANCH   4   5
HETATM    5  O   UNK     1      -9.268   5.542  74.136  1.00  0.00    -0.124 OA 
BRANCH   5   6
HETATM    6  C   UNK     1     -10.474   5.225  73.444  1.00  0.00    -0.232 C  
BRANCH   6   7
HETATM    7  C   UNK     1     -10.138   4.408  72.204  1.00  0.00    -0.262 C  
BRANCH   7   8
HETATM    8  C   UNK     1      -9.805   5.292  70.997  1.00  0.00    -0.254 C  
BRANCH   8   9
HETATM    9  C   UNK     1     -11.025   6.104  70.572  1.00  0.00    -0.384 C  
BRANCH   9  10
HETATM   10  C   UNK     1     -10.713   7.065  69.428  1.00  0.00    -0.259 C  
BRANCH  10  11
HETATM   11  C   UNK     1     -10.480   8.471  69.949  1.00  0.00    -0.219 C  
HETATM   12  O   UNK     1     -10.363   8.744  71.139  1.00  0.00    -0.209 OA 
HETATM   13  N   UNK     1     -10.413   9.418  68.952  1.00  0.00    -0.213 N  
HETATM   14  H   UNK     1     -10.560   9.137  67.982  1.00  0.00     0.000 HD 
BRANCH  13  15
HETATM   15  C   UNK     1     -10.139  10.809  69.258  1.00  0.00    -0.177 C  
BRANCH  15  16
HETATM   16  C   UNK     1     -11.413  11.627  69.483  1.00  0.00    -0.371 C  
BRANCH  16  17
HETATM   17  C   UNK     1     -11.705  12.544  68.296  1.00  0.00    -0.390 C  
BRANCH  17  18
HETATM   18  C   UNK     1     -12.053  13.975  68.730  1.00  0.00    -0.338 C  
BRANCH  18  19
HETATM   19  C   UNK     1     -11.893  15.011  67.607  1.00  0.00    -0.182 C  
HETATM   20  N   UNK     1     -12.126  14.395  66.267  1.00  0.00    -0.397 NA 
HETATM   21  C   UNK     1     -10.477  15.610  67.627  1.00  0.00    -0.283 C  
HETATM   22  O   UNK     1     -10.090  16.478  68.386  1.00  0.00    -0.236 OA 
HETATM   23  O   UNK     1      -9.679  15.004  66.703  1.00  0.00    -0.237 OA 
HETATM   24  H1  UNK     1     -12.020  15.083  65.522  1.00  0.00     0.000 HD 
HETATM   25  H2  UNK     1     -13.033  13.930  66.222  1.00  0.00     0.000 HD 
ENDBRANCH  18  19
ENDBRANCH  17  18
ENDBRANCH  16  17
ENDBRANCH  15  16
ENDBRANCH  13  15
ENDBRANCH  10  11
ENDBRANCH   9  10
ENDBRANCH   8   9
ENDBRANCH   7   8
ENDBRANCH   6   7
ENDBRANCH   5   6
ENDBRANCH   4   5
ENDBRANCH   3   4
ENDBRANCH   2   3
TORSDOF 14
ENDMDL
MODEL      421
REMARK 921   NORMALIZED FREE ENERGY PREDICTED BY IDOCK:   -2.55 KCAL/MOL
REMARK 922        TOTAL FREE ENERGY PREDICTED BY IDOCK:   -5.56 KCAL/MOL
REMARK 923 INTER-LIGAND FREE ENERGY PREDICTED BY IDOCK:   -5.60 KCAL/MOL
REMARK 924 INTRA-LIGAND FREE ENERGY PREDICTED BY IDOCK:    0.04 KCAL/MOL
REMARK 927      BINDING AFFINITY PREDICTED BY RF-SCORE:    0.00 PKD
ROOT
HETATM    1  C   UNK     1      -8.999  19.504  68.794  1.00  0.00    -0.315 C  
HETATM    2  O   UNK     1      -7.883  19.891  68.005  1.00  0.00    -0.295 OA 
ENDROOT
BRANCH   2   3
HETATM    3  C   UNK     1      -6.681  19.914  68.775  1.00  0.00    -0.323 C  
BRANCH   3   4
HETATM    4  C   UNK     1      -6.344  18.495  69.217  1.00  0.00    -0.259 C  
BRANCH   4   5
HETATM    5  O   UNK     1      -6.895  17.566  68.286  1.00  0.00    -0.187 OA 
BRANCH   5   6
HETATM    6  C   UNK     1      -6.895  16.239  68.808  1.00  0.00    -0.151 C  
BRANCH   6   7
HETATM    7  C   UNK     1      -7.013  15.250  67.656  1.00  0.00    -0.209 C  
BRANCH   7   8
HETATM    8  C   UNK     1      -8.236  15.526  66.775  1.00  0.00    -0.277 C  
BRANCH   8   9
HETATM    9  C   UNK     1      -9.510  15.035  67.455  1.00  0.00    -0.203 C  
BRANCH   9  10
HETATM   10  C   UNK     1     -10.664  14.861  66.471  1.00  0.00    -0.309 C  
BRANCH  10  11
HETATM   11  C   UNK     1     -11.355  13.525  66.675  1.00  0.00    -0.322 C  
HETATM   12  O   UNK     1     -12.093  13.009  65.842  1.00  0.00    -0.412 OA 
HETATM   13  N   UNK     1     -11.076  12.946  67.892  1.00  0.00    -0.241 N  
HETATM   14  H   UNK     1     -10.488  13.444  68.561  1.00  0.00     0.000 HD 
BRANCH  13  15
HETATM   15  C   UNK     1     -11.603  11.641  68.238  1.00  0.00    -0.310 C  
BRANCH  15  16
HETATM   16  C   UNK     1     -10.646  10.831  69.117  1.00  0.00    -0.254 C  
BRANCH  16  17
HETATM   17  C   UNK     1     -10.673   9.347  68.751  1.00  0.00    -0.200 C  
BRANCH  17  18
HETATM   18  C   UNK     1      -9.268   8.728  68.707  1.00  0.00    -0.141 C  
BRANCH  18  19
HETATM   19  C   UNK     1      -9.234   7.336  68.058  1.00  0.00    -0.131 C  
HETATM   20  N   UNK     1      -8.863   7.423  66.614  1.00  0.00    -0.136 NA 
HETATM   21  C   UNK     1     -10.609   6.658  68.167  1.00  0.00    -0.241 C  
HETATM   22  O   UNK     1     -11.046   6.106  69.159  1.00  0.00    -0.350 OA 
HETATM   23  O   UNK     1     -11.312   6.795  67.008  1.00  0.00    -0.337 OA 
HETATM   24  H1  UNK     1      -8.839   6.500  66.183  1.00  0.00     0.000 HD 
HETATM   25  H2  UNK     1      -7.982   7.921  66.483  1.00  0.00     0.000 HD 
ENDBRANCH  18  19
ENDBRANCH  17  18
ENDBRANCH  16  17
ENDBRANCH  15  16
ENDBRANCH  13  15
ENDBRANCH  10  11
ENDBRANCH   9  10
ENDBRANCH   8   9
ENDBRANCH   7   8
ENDBRANCH   6   7
ENDBRANCH   5   6
ENDBRANCH   4   5
ENDBRANCH   3   4
ENDBRANCH   2   3
TORSDOF 14
ENDMDL
MODEL      422
REMARK 921   NORMALIZED FREE ENERGY PREDICTED BY IDOCK:   -2.55 KCAL/MOL
REMARK 922        TOTAL FREE ENERGY PREDICTED BY IDOCK:   -5.56 KCAL/MOL
REMARK 923 INTER-LIGAND FREE ENERGY PREDICTED BY IDOCK:   -5.07 KCAL/MOL
REMARK 924 INTRA-LIGAND FREE ENERGY PREDICTED BY IDOCK:   -0.50 KCAL/MOL
REMARK 927      BINDING AFFINITY PREDICTED BY RF-SCORE:    0.00 PKD
ROOT
HETATM    1  C   UNK     1      -8.157  19.110  66.567  1.00  0.00    -0.298 C  
HETATM    2  O   UNK     1      -9.058  19.395  65.507  1.00  0.00    -0.181 OA 
ENDROOT
BRANCH   2   3
HETATM    3  C   UNK     1     -10.392  19.003  65.835  1.00  0.00    -0.371 C  
BRANCH   3   4
HETATM    4  C   UNK     1     -10.438  17.490  66.011  1.00  0.00    -0.274 C  
BRANCH   4   5
HETATM    5  O   UNK     1     -10.676  16.874  64.747  1.00  0.00    -0.758 OA 
BRANCH   5   6
HETATM    6  C   UNK     1     -11.164  15.542  64.897  1.00  0.00    -0.389 C  
BRANCH   6   7
HETATM    7  C   UNK     1     -10.097  14.693  65.576  1.00  0.00    -0.405 C  
BRANCH   7   8
HETATM    8  C   UNK     1     -10.178  13.219  65.165  1.00  0.00    -0.301 C  
BRANCH   8   9
HETATM    9  C   UNK     1     -10.454  12.338  66.379  1.00  0.00    -0.263 C  
BRANCH   9  10
HETATM   10  C   UNK     1     -11.177  11.045  66.006  1.00  0.00     0.050 C  
BRANCH  10  11
HETATM   11  C   UNK     1     -10.348   9.831  66.384  1.00  0.00    -0.177 C  
HETATM   12  O   UNK     1      -9.660   9.203  65.585  1.00  0.00    -0.262 OA 
HETATM   13  N   UNK     1     -10.443   9.498  67.716  1.00  0.00    -0.240 N  
HETATM   14  H   UNK     1     -11.065  10.034  68.324  1.00  0.00     0.000 HD 
BRANCH  13  15
HETATM   15  C   UNK     1      -9.676   8.400  68.270  1.00  0.00    -0.155 C  
BRANCH  15  16
HETATM   16  C   UNK     1     -10.561   7.297  68.855  1.00  0.00    -0.207 C  
BRANCH  16  17
HETATM   17  C   UNK     1     -10.407   5.988  68.081  1.00  0.00    -0.251 C  
BRANCH  17  18
HETATM   18  C   UNK     1      -9.058   5.303  68.346  1.00  0.00    -0.125 C  
BRANCH  18  19
HETATM   19  C   UNK     1      -8.593   5.412  69.806  1.00  0.00    -0.100 C  
HETATM   20  N   UNK     1      -7.136   5.726  69.887  1.00  0.00    -0.065 NA 
HETATM   21  C   UNK     1      -8.849   4.091  70.550  1.00  0.00    -0.083 C  
HETATM   22  O   UNK     1      -9.922   3.727  70.993  1.00  0.00    -0.167 OA 
HETATM   23  O   UNK     1      -7.714   3.340  70.613  1.00  0.00    -0.043 OA 
HETATM   24  H1  UNK     1      -6.828   5.798  70.856  1.00  0.00     0.000 HD 
HETATM   25  H2  UNK     1      -6.904   6.565  69.356  1.00  0.00     0.000 HD 
ENDBRANCH  18  19
ENDBRANCH  17  18
ENDBRANCH  16  17
ENDBRANCH  15  16
ENDBRANCH  13  15
ENDBRANCH  10  11
ENDBRANCH   9  10
ENDBRANCH   8   9
ENDBRANCH   7   8
ENDBRANCH   6   7
ENDBRANCH   5   6
ENDBRANCH   4   5
ENDBRANCH   3   4
ENDBRANCH   2   3
TORSDOF 14
ENDMDL
MODEL      423
REMARK 921   NORMALIZED FREE ENERGY PREDICTED BY IDOCK:   -2.54 KCAL/MOL
REMARK 922        TOTAL FREE ENERGY PREDICTED BY IDOCK:   -5.55 KCAL/MOL
REMARK 923 INTER-LIGAND FREE ENERGY PREDICTED BY IDOCK:   -4.99 KCAL/MOL
REMARK 924 INTRA-LIGAND FREE ENERGY PREDICTED BY IDOCK:   -0.56 KCAL/MOL
REMARK 927      BINDING AFFINITY PREDICTED BY RF-SCORE:    0.00 PKD
ROOT
HETATM    1  C   UNK     1      -9.142   2.927  65.792  1.00  0.00    -0.137 C  
HETATM    2  O   UNK     1      -7.855   3.426  65.456  1.00  0.00    -0.084 OA 
ENDROOT
BRANCH   2   3
HETATM    3  C   UNK     1      -7.885   4.835  65.226  1.00  0.00    -0.091 C  
BRANCH   3   4
HETATM    4  C   UNK     1      -6.716   5.484  65.956  1.00  0.00    -0.056 C  
BRANCH   4   5
HETATM    5  O   UNK     1      -7.208   6.497  66.831  1.00  0.00    -0.074 OA 
BRANCH   5   6
HETATM    6  C   UNK     1      -8.494   6.960  66.425  1.00  0.00    -0.130 C  
BRANCH   6   7
HETATM    7  C   UNK     1      -9.067   7.860  67.512  1.00  0.00    -0.141 C  
BRANCH   7   8
HETATM    8  C   UNK     1     -10.445   8.417  67.139  1.00  0.00    -0.380 C  
BRANCH   8   9
HETATM    9  C   UNK     1     -10.397   9.939  67.029  1.00  0.00    -0.303 C  
BRANCH   9  10
HETATM   10  C   UNK     1      -9.255  10.544  67.841  1.00  0.00    -0.143 C  
BRANCH  10  11
HETATM   11  C   UNK     1      -8.964  11.965  67.395  1.00  0.00    -0.173 C  
HETATM   12  O   UNK     1      -8.768  12.283  66.226  1.00  0.00    -0.089 OA 
HETATM   13  N   UNK     1      -8.940  12.869  68.433  1.00  0.00    -0.320 N  
HETATM   14  H   UNK     1      -9.070  12.538  69.389  1.00  0.00     0.000 HD 
BRANCH  13  15
HETATM   15  C   UNK     1      -8.734  14.283  68.189  1.00  0.00    -0.174 C  
BRANCH  15  16
HETATM   16  C   UNK     1      -9.188  15.157  69.361  1.00  0.00    -0.175 C  
BRANCH  16  17
HETATM   17  C   UNK     1      -9.458  16.593  68.915  1.00  0.00    -0.251 C  
BRANCH  17  18
HETATM   18  C   UNK     1      -9.954  16.675  67.464  1.00  0.00    -0.264 C  
BRANCH  18  19
HETATM   19  C   UNK     1      -9.354  17.850  66.677  1.00  0.00    -0.286 C  
HETATM   20  N   UNK     1      -8.534  18.729  67.561  1.00  0.00    -0.268 NA 
HETATM   21  C   UNK     1     -10.470  18.699  66.047  1.00  0.00    -0.414 C  
HETATM   22  O   UNK     1     -11.078  18.422  65.031  1.00  0.00    -0.565 OA 
HETATM   23  O   UNK     1     -10.732  19.799  66.806  1.00  0.00    -0.473 OA 
HETATM   24  H1  UNK     1      -8.135  19.509  67.039  1.00  0.00     0.000 HD 
HETATM   25  H2  UNK     1      -7.813  18.199  68.052  1.00  0.00     0.000 HD 
ENDBRANCH  18  19
ENDBRANCH  17  18
ENDBRANCH  16  17
ENDBRANCH  15  16
ENDBRANCH  13  15
ENDBRANCH  10  11
ENDBRANCH   9  10
ENDBRANCH   8   9
ENDBRANCH   7   8
ENDBRANCH   6   7
ENDBRANCH   5   6
ENDBRANCH   4   5
ENDBRANCH   3   4
ENDBRANCH   2   3
TORSDOF 14
ENDMDL
MODEL      424
REMARK 921   NORMALIZED FREE ENERGY PREDICTED BY IDOCK:   -2.53 KCAL/MOL
REMARK 922        TOTAL FREE ENERGY PREDICTED BY IDOCK:   -5.53 KCAL/MOL
REMARK 923 INTER-LIGAND FREE ENERGY PREDICTED BY IDOCK:   -4.34 KCAL/MOL
REMARK 924 INTRA-LIGAND FREE ENERGY PREDICTED BY IDOCK:   -1.19 KCAL/MOL
REMARK 927      BINDING AFFINITY PREDICTED BY RF-SCORE:    0.00 PKD
ROOT
HETATM    1  C   UNK     1      -5.154   8.124  63.197  1.00  0.00    -0.050 C  
HETATM    2  O   UNK     1      -6.513   8.001  63.594  1.00  0.00    -0.069 OA 
ENDROOT
BRANCH   2   3
HETATM    3  C   UNK     1      -7.177   9.265  63.580  1.00  0.00    -0.094 C  
BRANCH   3   4
HETATM    4  C   UNK     1      -7.591   9.627  65.002  1.00  0.00    -0.116 C  
BRANCH   4   5
HETATM    5  O   UNK     1      -8.692   8.812  65.396  1.00  0.00    -0.171 OA 
BRANCH   5   6
HETATM    6  C   UNK     1      -9.348   9.339  66.548  1.00  0.00    -0.178 C  
BRANCH   6   7
HETATM    7  C   UNK     1      -8.316   9.584  67.641  1.00  0.00    -0.125 C  
BRANCH   7   8
HETATM    8  C   UNK     1      -8.820  10.559  68.710  1.00  0.00    -0.158 C  
BRANCH   8   9
HETATM    9  C   UNK     1     -10.328  10.417  68.898  1.00  0.00    -0.227 C  
BRANCH   9  10
HETATM   10  C   UNK     1     -10.734  10.446  70.369  1.00  0.00    -0.186 C  
BRANCH  10  11
HETATM   11  C   UNK     1     -10.824   9.040  70.935  1.00  0.00    -0.258 C  
HETATM   12  O   UNK     1     -10.380   8.721  72.033  1.00  0.00    -0.324 OA 
HETATM   13  N   UNK     1     -11.452   8.151  70.092  1.00  0.00    -0.466 N  
HETATM   14  H   UNK     1     -11.763   8.466  69.173  1.00  0.00     0.000 HD 
BRANCH  13  15
HETATM   15  C   UNK     1     -11.679   6.776  70.490  1.00  0.00    -0.375 C  
BRANCH  15  16
HETATM   16  C   UNK     1     -10.592   5.826  69.980  1.00  0.00    -0.380 C  
BRANCH  16  17
HETATM   17  C   UNK     1     -10.094   6.240  68.595  1.00  0.00    -0.185 C  
BRANCH  17  18
HETATM   18  C   UNK     1     -10.677   5.366  67.475  1.00  0.00    -0.143 C  
BRANCH  18  19
HETATM   19  C   UNK     1      -9.688   4.321  66.936  1.00  0.00    -0.214 C  
HETATM   20  N   UNK     1      -8.347   4.467  67.575  1.00  0.00    -0.100 NA 
HETATM   21  C   UNK     1      -9.522   4.474  65.416  1.00  0.00    -0.172 C  
HETATM   22  O   UNK     1     -10.301   4.065  64.577  1.00  0.00    -0.226 OA 
HETATM   23  O   UNK     1      -8.395   5.180  65.118  1.00  0.00    -0.128 OA 
HETATM   24  H1  UNK     1      -7.690   3.774  67.218  1.00  0.00     0.000 HD 
HETATM   25  H2  UNK     1      -8.411   4.433  68.593  1.00  0.00     0.000 HD 
ENDBRANCH  18  19
ENDBRANCH  17  18
ENDBRANCH  16  17
ENDBRANCH  15  16
ENDBRANCH  13  15
ENDBRANCH  10  11
ENDBRANCH   9  10
ENDBRANCH   8   9
ENDBRANCH   7   8
ENDBRANCH   6   7
ENDBRANCH   5   6
ENDBRANCH   4   5
ENDBRANCH   3   4
ENDBRANCH   2   3
TORSDOF 14
ENDMDL
MODEL      425
REMARK 921   NORMALIZED FREE ENERGY PREDICTED BY IDOCK:   -2.53 KCAL/MOL
REMARK 922        TOTAL FREE ENERGY PREDICTED BY IDOCK:   -5.53 KCAL/MOL
REMARK 923 INTER-LIGAND FREE ENERGY PREDICTED BY IDOCK:   -5.13 KCAL/MOL
REMARK 924 INTRA-LIGAND FREE ENERGY PREDICTED BY IDOCK:   -0.40 KCAL/MOL
REMARK 927      BINDING AFFINITY PREDICTED BY RF-SCORE:    0.00 PKD
ROOT
HETATM    1  C   UNK     1     -10.212  19.734  68.682  1.00  0.00    -0.405 C  
HETATM    2  O   UNK     1     -10.811  19.583  67.403  1.00  0.00    -0.486 OA 
ENDROOT
BRANCH   2   3
HETATM    3  C   UNK     1      -9.920  19.979  66.360  1.00  0.00    -0.481 C  
BRANCH   3   4
HETATM    4  C   UNK     1      -8.867  18.895  66.164  1.00  0.00    -0.154 C  
BRANCH   4   5
HETATM    5  O   UNK     1      -9.506  17.677  65.789  1.00  0.00    -0.516 OA 
BRANCH   5   6
HETATM    6  C   UNK     1      -9.135  16.604  66.651  1.00  0.00    -0.250 C  
BRANCH   6   7
HETATM    7  C   UNK     1      -9.858  15.337  66.211  1.00  0.00    -0.316 C  
BRANCH   7   8
HETATM    8  C   UNK     1     -10.501  14.595  67.388  1.00  0.00    -0.255 C  
BRANCH   8   9
HETATM    9  C   UNK     1      -9.835  13.238  67.596  1.00  0.00    -0.230 C  
BRANCH   9  10
HETATM   10  C   UNK     1      -8.314  13.315  67.483  1.00  0.00    -0.186 C  
BRANCH  10  11
HETATM   11  C   UNK     1      -7.660  12.111  68.136  1.00  0.00    -0.125 C  
HETATM   12  O   UNK     1      -6.543  12.137  68.643  1.00  0.00    -0.066 OA 
HETATM   13  N   UNK     1      -8.443  10.979  68.103  1.00  0.00    -0.129 N  
HETATM   14  H   UNK     1      -9.346  11.008  67.630  1.00  0.00     0.000 HD 
BRANCH  13  15
HETATM   15  C   UNK     1      -8.005   9.747  68.729  1.00  0.00    -0.087 C  
BRANCH  15  16
HETATM   16  C   UNK     1      -7.385   8.765  67.732  1.00  0.00    -0.088 C  
BRANCH  16  17
HETATM   17  C   UNK     1      -7.541   7.319  68.201  1.00  0.00    -0.115 C  
BRANCH  17  18
HETATM   18  C   UNK     1      -8.127   6.408  67.112  1.00  0.00    -0.113 C  
BRANCH  18  19
HETATM   19  C   UNK     1      -9.577   5.983  67.386  1.00  0.00    -0.112 C  
HETATM   20  N   UNK     1     -10.539   6.795  66.582  1.00  0.00    -0.505 NA 
HETATM   21  C   UNK     1      -9.917   6.159  68.874  1.00  0.00    -0.152 C  
HETATM   22  O   UNK     1      -9.599   5.395  69.765  1.00  0.00    -0.148 OA 
HETATM   23  O   UNK     1     -10.589   7.325  69.085  1.00  0.00    -0.212 OA 
HETATM   24  H1  UNK     1     -11.501   6.512  66.763  1.00  0.00     0.000 HD 
HETATM   25  H2  UNK     1     -10.319   6.759  65.587  1.00  0.00     0.000 HD 
ENDBRANCH  18  19
ENDBRANCH  17  18
ENDBRANCH  16  17
ENDBRANCH  15  16
ENDBRANCH  13  15
ENDBRANCH  10  11
ENDBRANCH   9  10
ENDBRANCH   8   9
ENDBRANCH   7   8
ENDBRANCH   6   7
ENDBRANCH   5   6
ENDBRANCH   4   5
ENDBRANCH   3   4
ENDBRANCH   2   3
TORSDOF 14
ENDMDL
MODEL      426
REMARK 921   NORMALIZED FREE ENERGY PREDICTED BY IDOCK:   -2.53 KCAL/MOL
REMARK 922        TOTAL FREE ENERGY PREDICTED BY IDOCK:   -5.53 KCAL/MOL
REMARK 923 INTER-LIGAND FREE ENERGY PREDICTED BY IDOCK:   -4.95 KCAL/MOL
REMARK 924 INTRA-LIGAND FREE ENERGY PREDICTED BY IDOCK:   -0.58 KCAL/MOL
REMARK 927      BINDING AFFINITY PREDICTED BY RF-SCORE:    0.00 PKD
ROOT
HETATM    1  C   UNK     1      -9.805   3.595  73.706  1.00  0.00    -0.110 C  
HETATM    2  O   UNK     1     -10.340   3.796  72.406  1.00  0.00    -0.172 OA 
ENDROOT
BRANCH   2   3
HETATM    3  C   UNK     1     -10.243   5.164  72.007  1.00  0.00    -0.202 C  
BRANCH   3   4
HETATM    4  C   UNK     1     -11.516   5.895  72.416  1.00  0.00    -0.306 C  
BRANCH   4   5
HETATM    5  O   UNK     1     -11.712   7.018  71.560  1.00  0.00    -0.268 OA 
BRANCH   5   6
HETATM    6  C   UNK     1     -13.097   7.320  71.401  1.00  0.00    -0.361 C  
BRANCH   6   7
HETATM    7  C   UNK     1     -13.345   8.762  71.826  1.00  0.00    -0.421 C  
BRANCH   7   8
HETATM    8  C   UNK     1     -12.049   9.575  71.910  1.00  0.00    -0.409 C  
BRANCH   8   9
HETATM    9  C   UNK     1     -12.233  10.946  71.264  1.00  0.00    -0.395 C  
BRANCH   9  10
HETATM   10  C   UNK     1     -12.216  10.876  69.739  1.00  0.00    -0.381 C  
BRANCH  10  11
HETATM   11  C   UNK     1     -10.896  10.323  69.235  1.00  0.00    -0.238 C  
HETATM   12  O   UNK     1      -9.818  10.887  69.397  1.00  0.00    -0.154 OA 
HETATM   13  N   UNK     1     -11.024   9.123  68.573  1.00  0.00    -0.456 N  
HETATM   14  H   UNK     1     -11.952   8.724  68.433  1.00  0.00     0.000 HD 
BRANCH  13  15
HETATM   15  C   UNK     1      -9.861   8.418  68.071  1.00  0.00    -0.169 C  
BRANCH  15  16
HETATM   16  C   UNK     1      -9.641   7.071  68.765  1.00  0.00    -0.139 C  
BRANCH  16  17
HETATM   17  C   UNK     1      -8.227   6.543  68.526  1.00  0.00    -0.121 C  
BRANCH  17  18
HETATM   18  C   UNK     1      -7.626   7.050  67.207  1.00  0.00    -0.108 C  
BRANCH  18  19
HETATM   19  C   UNK     1      -8.437   6.643  65.968  1.00  0.00    -0.142 C  
HETATM   20  N   UNK     1      -8.530   5.158  65.848  1.00  0.00    -0.117 NA 
HETATM   21  C   UNK     1      -7.781   7.194  64.692  1.00  0.00    -0.112 C  
HETATM   22  O   UNK     1      -7.874   8.338  64.289  1.00  0.00    -0.129 OA 
HETATM   23  O   UNK     1      -7.028   6.237  64.080  1.00  0.00    -0.037 OA 
HETATM   24  H1  UNK     1      -9.069   4.887  65.026  1.00  0.00     0.000 HD 
HETATM   25  H2  UNK     1      -8.906   4.736  66.698  1.00  0.00     0.000 HD 
ENDBRANCH  18  19
ENDBRANCH  17  18
ENDBRANCH  16  17
ENDBRANCH  15  16
ENDBRANCH  13  15
ENDBRANCH  10  11
ENDBRANCH   9  10
ENDBRANCH   8   9
ENDBRANCH   7   8
ENDBRANCH   6   7
ENDBRANCH   5   6
ENDBRANCH   4   5
ENDBRANCH   3   4
ENDBRANCH   2   3
TORSDOF 14
ENDMDL
MODEL      427
REMARK 921   NORMALIZED FREE ENERGY PREDICTED BY IDOCK:   -2.52 KCAL/MOL
REMARK 922        TOTAL FREE ENERGY PREDICTED BY IDOCK:   -5.52 KCAL/MOL
REMARK 923 INTER-LIGAND FREE ENERGY PREDICTED BY IDOCK:   -5.07 KCAL/MOL
REMARK 924 INTRA-LIGAND FREE ENERGY PREDICTED BY IDOCK:   -0.45 KCAL/MOL
REMARK 927      BINDING AFFINITY PREDICTED BY RF-SCORE:    0.00 PKD
ROOT
HETATM    1  C   UNK     1     -12.035  15.433  71.141  1.00  0.00    -0.362 C  
HETATM    2  O   UNK     1     -12.165  15.869  69.796  1.00  0.00    -0.308 OA 
ENDROOT
BRANCH   2   3
HETATM    3  C   UNK     1     -10.894  15.965  69.153  1.00  0.00    -0.268 C  
BRANCH   3   4
HETATM    4  C   UNK     1     -10.815  14.919  68.047  1.00  0.00    -0.263 C  
BRANCH   4   5
HETATM    5  O   UNK     1     -12.112  14.371  67.820  1.00  0.00    -0.356 OA 
BRANCH   5   6
HETATM    6  C   UNK     1     -12.145  13.576  66.636  1.00  0.00    -0.396 C  
BRANCH   6   7
HETATM    7  C   UNK     1     -11.314  14.256  65.555  1.00  0.00    -0.325 C  
BRANCH   7   8
HETATM    8  C   UNK     1     -11.685  13.776  64.148  1.00  0.00    -0.397 C  
BRANCH   8   9
HETATM    9  C   UNK     1     -11.473  12.270  64.022  1.00  0.00    -0.483 C  
BRANCH   9  10
HETATM   10  C   UNK     1     -10.108  11.923  63.434  1.00  0.00    -0.464 C  
BRANCH  10  11
HETATM   11  C   UNK     1      -9.657  10.545  63.884  1.00  0.00    -0.309 C  
HETATM   12  O   UNK     1     -10.159   9.941  64.826  1.00  0.00    -0.232 OA 
HETATM   13  N   UNK     1      -8.622  10.037  63.131  1.00  0.00    -0.177 N  
HETATM   14  H   UNK     1      -8.218  10.605  62.386  1.00  0.00     0.000 HD 
BRANCH  13  15
HETATM   15  C   UNK     1      -8.099   8.708  63.380  1.00  0.00    -0.168 C  
BRANCH  15  16
HETATM   16  C   UNK     1      -7.146   8.663  64.577  1.00  0.00    -0.081 C  
BRANCH  16  17
HETATM   17  C   UNK     1      -7.083   7.263  65.188  1.00  0.00    -0.064 C  
BRANCH  17  18
HETATM   18  C   UNK     1      -6.865   7.295  66.708  1.00  0.00    -0.065 C  
BRANCH  18  19
HETATM   19  C   UNK     1      -6.575   5.913  67.313  1.00  0.00    -0.056 C  
HETATM   20  N   UNK     1      -7.150   4.823  66.471  1.00  0.00    -0.073 NA 
HETATM   21  C   UNK     1      -7.177   5.807  68.723  1.00  0.00    -0.082 C  
HETATM   22  O   UNK     1      -6.689   6.274  69.735  1.00  0.00    -0.052 OA 
HETATM   23  O   UNK     1      -8.372   5.154  68.695  1.00  0.00    -0.089 OA 
HETATM   24  H1  UNK     1      -6.956   3.906  66.872  1.00  0.00     0.000 HD 
HETATM   25  H2  UNK     1      -6.826   4.885  65.506  1.00  0.00     0.000 HD 
ENDBRANCH  18  19
ENDBRANCH  17  18
ENDBRANCH  16  17
ENDBRANCH  15  16
ENDBRANCH  13  15
ENDBRANCH  10  11
ENDBRANCH   9  10
ENDBRANCH   8   9
ENDBRANCH   7   8
ENDBRANCH   6   7
ENDBRANCH   5   6
ENDBRANCH   4   5
ENDBRANCH   3   4
ENDBRANCH   2   3
TORSDOF 14
ENDMDL
MODEL      428
REMARK 921   NORMALIZED FREE ENERGY PREDICTED BY IDOCK:   -2.52 KCAL/MOL
REMARK 922        TOTAL FREE ENERGY PREDICTED BY IDOCK:   -5.50 KCAL/MOL
REMARK 923 INTER-LIGAND FREE ENERGY PREDICTED BY IDOCK:   -4.56 KCAL/MOL
REMARK 924 INTRA-LIGAND FREE ENERGY PREDICTED BY IDOCK:   -0.95 KCAL/MOL
REMARK 927      BINDING AFFINITY PREDICTED BY RF-SCORE:    0.00 PKD
ROOT
HETATM    1  C   UNK     1     -12.802  13.417  71.256  1.00  0.00    -0.323 C  
HETATM    2  O   UNK     1     -11.696  14.156  70.760  1.00  0.00    -0.269 OA 
ENDROOT
BRANCH   2   3
HETATM    3  C   UNK     1     -11.849  15.554  71.005  1.00  0.00    -0.382 C  
BRANCH   3   4
HETATM    4  C   UNK     1     -11.126  16.334  69.913  1.00  0.00    -0.347 C  
BRANCH   4   5
HETATM    5  O   UNK     1     -10.851  15.468  68.815  1.00  0.00    -0.235 OA 
BRANCH   5   6
HETATM    6  C   UNK     1     -10.413  16.196  67.670  1.00  0.00    -0.292 C  
BRANCH   6   7
HETATM    7  C   UNK     1      -9.587  17.392  68.125  1.00  0.00    -0.287 C  
BRANCH   7   8
HETATM    8  C   UNK     1      -8.081  17.153  67.970  1.00  0.00    -0.210 C  
BRANCH   8   9
HETATM    9  C   UNK     1      -7.520  16.448  69.202  1.00  0.00    -0.228 C  
BRANCH   9  10
HETATM   10  C   UNK     1      -6.180  15.773  68.924  1.00  0.00    -0.114 C  
BRANCH  10  11
HETATM   11  C   UNK     1      -6.379  14.412  68.282  1.00  0.00    -0.118 C  
HETATM   12  O   UNK     1      -6.646  14.254  67.095  1.00  0.00    -0.191 OA 
HETATM   13  N   UNK     1      -6.234  13.366  69.165  1.00  0.00    -0.092 N  
HETATM   14  H   UNK     1      -6.054  13.563  70.150  1.00  0.00     0.000 HD 
BRANCH  13  15
HETATM   15  C   UNK     1      -6.334  11.991  68.718  1.00  0.00    -0.071 C  
BRANCH  15  16
HETATM   16  C   UNK     1      -7.006  11.082  69.750  1.00  0.00    -0.092 C  
BRANCH  16  17
HETATM   17  C   UNK     1      -7.629   9.852  69.090  1.00  0.00    -0.090 C  
BRANCH  17  18
HETATM   18  C   UNK     1      -8.233  10.166  67.714  1.00  0.00    -0.110 C  
BRANCH  18  19
HETATM   19  C   UNK     1      -9.769  10.212  67.715  1.00  0.00    -0.153 C  
HETATM   20  N   UNK     1     -10.346   8.971  67.120  1.00  0.00    -0.264 NA 
HETATM   21  C   UNK     1     -10.271  11.419  66.907  1.00  0.00    -0.219 C  
HETATM   22  O   UNK     1     -10.307  12.568  67.304  1.00  0.00    -0.218 OA 
HETATM   23  O   UNK     1     -10.633  11.045  65.648  1.00  0.00    -0.252 OA 
HETATM   24  H1  UNK     1     -11.365   9.001  67.121  1.00  0.00     0.000 HD 
HETATM   25  H2  UNK     1      -9.995   8.134  67.585  1.00  0.00     0.000 HD 
ENDBRANCH  18  19
ENDBRANCH  17  18
ENDBRANCH  16  17
ENDBRANCH  15  16
ENDBRANCH  13  15
ENDBRANCH  10  11
ENDBRANCH   9  10
ENDBRANCH   8   9
ENDBRANCH   7   8
ENDBRANCH   6   7
ENDBRANCH   5   6
ENDBRANCH   4   5
ENDBRANCH   3   4
ENDBRANCH   2   3
TORSDOF 14
ENDMDL
MODEL      429
REMARK 921   NORMALIZED FREE ENERGY PREDICTED BY IDOCK:   -2.49 KCAL/MOL
REMARK 922        TOTAL FREE ENERGY PREDICTED BY IDOCK:   -5.46 KCAL/MOL
REMARK 923 INTER-LIGAND FREE ENERGY PREDICTED BY IDOCK:   -4.66 KCAL/MOL
REMARK 924 INTRA-LIGAND FREE ENERGY PREDICTED BY IDOCK:   -0.80 KCAL/MOL
REMARK 927      BINDING AFFINITY PREDICTED BY RF-SCORE:    0.00 PKD
ROOT
HETATM    1  C   UNK     1     -11.535  11.851  65.798  1.00  0.00    -0.265 C  
HETATM    2  O   UNK     1     -12.165  12.784  66.664  1.00  0.00    -0.481 OA 
ENDROOT
BRANCH   2   3
HETATM    3  C   UNK     1     -12.475  14.001  65.984  1.00  0.00    -0.455 C  
BRANCH   3   4
HETATM    4  C   UNK     1     -11.815  13.988  64.611  1.00  0.00    -0.417 C  
BRANCH   4   5
HETATM    5  O   UNK     1     -10.862  15.046  64.534  1.00  0.00    -0.313 OA 
BRANCH   5   6
HETATM    6  C   UNK     1     -11.199  16.119  65.411  1.00  0.00    -0.006 C  
BRANCH   6   7
HETATM    7  C   UNK     1     -10.287  17.304  65.124  1.00  0.00     0.347 C  
BRANCH   7   8
HETATM    8  C   UNK     1     -10.689  18.554  65.915  1.00  0.00    -0.237 C  
BRANCH   8   9
HETATM    9  C   UNK     1      -9.565  19.586  65.897  1.00  0.00    -0.215 C  
BRANCH   9  10
HETATM   10  C   UNK     1      -8.776  19.607  67.203  1.00  0.00    -0.367 C  
BRANCH  10  11
HETATM   11  C   UNK     1      -9.654  19.207  68.375  1.00  0.00    -0.378 C  
HETATM   12  O   UNK     1     -10.384  19.990  68.974  1.00  0.00    -0.382 OA 
HETATM   13  N   UNK     1      -9.549  17.875  68.706  1.00  0.00    -0.307 N  
HETATM   14  H   UNK     1      -8.892  17.282  68.198  1.00  0.00     0.000 HD 
BRANCH  13  15
HETATM   15  C   UNK     1     -10.357  17.301  69.764  1.00  0.00     0.167 C  
BRANCH  15  16
HETATM   16  C   UNK     1     -11.210  16.124  69.284  1.00  0.00    -0.337 C  
BRANCH  16  17
HETATM   17  C   UNK     1     -10.342  14.927  68.895  1.00  0.00    -0.244 C  
BRANCH  17  18
HETATM   18  C   UNK     1      -8.987  14.924  69.618  1.00  0.00     0.104 C  
BRANCH  18  19
HETATM   19  C   UNK     1      -7.787  14.787  68.669  1.00  0.00    -0.140 C  
HETATM   20  N   UNK     1      -6.816  15.904  68.861  1.00  0.00    -0.130 NA 
HETATM   21  C   UNK     1      -8.257  14.797  67.205  1.00  0.00    -0.213 C  
HETATM   22  O   UNK     1      -8.743  13.851  66.614  1.00  0.00    -0.149 OA 
HETATM   23  O   UNK     1      -8.104  16.034  66.654  1.00  0.00    -0.241 OA 
HETATM   24  H1  UNK     1      -6.020  15.813  68.231  1.00  0.00     0.000 HD 
HETATM   25  H2  UNK     1      -6.518  15.977  69.834  1.00  0.00     0.000 HD 
ENDBRANCH  18  19
ENDBRANCH  17  18
ENDBRANCH  16  17
ENDBRANCH  15  16
ENDBRANCH  13  15
ENDBRANCH  10  11
ENDBRANCH   9  10
ENDBRANCH   8   9
ENDBRANCH   7   8
ENDBRANCH   6   7
ENDBRANCH   5   6
ENDBRANCH   4   5
ENDBRANCH   3   4
ENDBRANCH   2   3
TORSDOF 14
ENDMDL
MODEL      430
REMARK 921   NORMALIZED FREE ENERGY PREDICTED BY IDOCK:   -2.47 KCAL/MOL
REMARK 922        TOTAL FREE ENERGY PREDICTED BY IDOCK:   -5.43 KCAL/MOL
REMARK 923 INTER-LIGAND FREE ENERGY PREDICTED BY IDOCK:   -5.06 KCAL/MOL
REMARK 924 INTRA-LIGAND FREE ENERGY PREDICTED BY IDOCK:   -0.37 KCAL/MOL
REMARK 927      BINDING AFFINITY PREDICTED BY RF-SCORE:    0.00 PKD
ROOT
HETATM    1  C   UNK     1     -10.384   4.429  65.629  1.00  0.00    -0.225 C  
HETATM    2  O   UNK     1      -9.239   4.266  64.803  1.00  0.00    -0.144 OA 
ENDROOT
BRANCH   2   3
HETATM    3  C   UNK     1      -8.137   5.037  65.280  1.00  0.00    -0.117 C  
BRANCH   3   4
HETATM    4  C   UNK     1      -8.146   5.032  66.804  1.00  0.00    -0.108 C  
BRANCH   4   5
HETATM    5  O   UNK     1      -7.322   6.091  67.286  1.00  0.00    -0.074 OA 
BRANCH   5   6
HETATM    6  C   UNK     1      -8.094   7.113  67.912  1.00  0.00    -0.119 C  
BRANCH   6   7
HETATM    7  C   UNK     1      -7.248   7.797  68.978  1.00  0.00    -0.080 C  
BRANCH   7   8
HETATM    8  C   UNK     1      -8.088   8.667  69.919  1.00  0.00    -0.111 C  
BRANCH   8   9
HETATM    9  C   UNK     1      -9.185   9.392  69.144  1.00  0.00    -0.155 C  
BRANCH   9  10
HETATM   10  C   UNK     1     -10.152  10.133  70.064  1.00  0.00    -0.241 C  
BRANCH  10  11
HETATM   11  C   UNK     1     -11.130  10.971  69.261  1.00  0.00    -0.254 C  
HETATM   12  O   UNK     1     -11.704  10.568  68.254  1.00  0.00    -0.401 OA 
HETATM   13  N   UNK     1     -11.312  12.237  69.772  1.00  0.00    -0.494 N  
HETATM   14  H   UNK     1     -10.775  12.530  70.589  1.00  0.00     0.000 HD 
BRANCH  13  15
HETATM   15  C   UNK     1     -12.254  13.159  69.168  1.00  0.00    -0.092 C  
BRANCH  15  16
HETATM   16  C   UNK     1     -12.095  14.590  69.689  1.00  0.00    -0.369 C  
BRANCH  16  17
HETATM   17  C   UNK     1     -11.503  15.511  68.623  1.00  0.00    -0.367 C  
BRANCH  17  18
HETATM   18  C   UNK     1     -10.128  16.065  69.022  1.00  0.00    -0.239 C  
BRANCH  18  19
HETATM   19  C   UNK     1      -9.428  16.837  67.894  1.00  0.00    -0.230 C  
HETATM   20  N   UNK     1     -10.059  18.173  67.681  1.00  0.00    -0.341 NA 
HETATM   21  C   UNK     1      -9.503  16.048  66.577  1.00  0.00    -0.271 C  
HETATM   22  O   UNK     1      -8.794  15.106  66.277  1.00  0.00    -0.278 OA 
HETATM   23  O   UNK     1     -10.515  16.510  65.789  1.00  0.00    -0.350 OA 
HETATM   24  H1  UNK     1      -9.594  18.685  66.932  1.00  0.00     0.000 HD 
HETATM   25  H2  UNK     1     -10.087  18.715  68.545  1.00  0.00     0.000 HD 
ENDBRANCH  18  19
ENDBRANCH  17  18
ENDBRANCH  16  17
ENDBRANCH  15  16
ENDBRANCH  13  15
ENDBRANCH  10  11
ENDBRANCH   9  10
ENDBRANCH   8   9
ENDBRANCH   7   8
ENDBRANCH   6   7
ENDBRANCH   5   6
ENDBRANCH   4   5
ENDBRANCH   3   4
ENDBRANCH   2   3
TORSDOF 14
ENDMDL
MODEL      431
REMARK 921   NORMALIZED FREE ENERGY PREDICTED BY IDOCK:   -2.46 KCAL/MOL
REMARK 922        TOTAL FREE ENERGY PREDICTED BY IDOCK:   -5.40 KCAL/MOL
REMARK 923 INTER-LIGAND FREE ENERGY PREDICTED BY IDOCK:   -6.19 KCAL/MOL
REMARK 924 INTRA-LIGAND FREE ENERGY PREDICTED BY IDOCK:    0.79 KCAL/MOL
REMARK 927      BINDING AFFINITY PREDICTED BY RF-SCORE:    0.00 PKD
ROOT
HETATM    1  C   UNK     1     -10.519   7.558  69.411  1.00  0.00    -0.222 C  
HETATM    2  O   UNK     1      -9.808   6.407  69.845  1.00  0.00    -0.164 OA 
ENDROOT
BRANCH   2   3
HETATM    3  C   UNK     1      -8.444   6.715  70.136  1.00  0.00    -0.136 C  
BRANCH   3   4
HETATM    4  C   UNK     1      -7.830   7.439  68.944  1.00  0.00    -0.117 C  
BRANCH   4   5
HETATM    5  O   UNK     1      -7.393   6.481  67.983  1.00  0.00    -0.085 OA 
BRANCH   5   6
HETATM    6  C   UNK     1      -8.036   6.670  66.725  1.00  0.00    -0.108 C  
BRANCH   6   7
HETATM    7  C   UNK     1      -7.945   8.139  66.333  1.00  0.00    -0.104 C  
BRANCH   7   8
HETATM    8  C   UNK     1      -8.926   8.505  65.215  1.00  0.00    -0.102 C  
BRANCH   8   9
HETATM    9  C   UNK     1      -8.231   9.337  64.141  1.00  0.00    -0.159 C  
BRANCH   9  10
HETATM   10  C   UNK     1      -9.222  10.002  63.189  1.00  0.00    -0.313 C  
BRANCH  10  11
HETATM   11  C   UNK     1     -10.110  10.985  63.928  1.00  0.00    -0.356 C  
HETATM   12  O   UNK     1      -9.962  11.277  65.111  1.00  0.00    -0.236 OA 
HETATM   13  N   UNK     1     -11.106  11.519  63.142  1.00  0.00    -0.811 N  
HETATM   14  H   UNK     1     -11.205  11.206  62.176  1.00  0.00     0.000 HD 
BRANCH  13  15
HETATM   15  C   UNK     1     -12.016  12.519  63.664  1.00  0.00    -0.537 C  
BRANCH  15  16
HETATM   16  C   UNK     1     -11.356  13.439  64.694  1.00  0.00    -0.372 C  
BRANCH  16  17
HETATM   17  C   UNK     1     -12.155  14.727  64.887  1.00  0.00    -0.335 C  
BRANCH  17  18
HETATM   18  C   UNK     1     -11.300  15.986  64.681  1.00  0.00    -0.312 C  
BRANCH  18  19
HETATM   19  C   UNK     1     -10.243  16.194  65.775  1.00  0.00    -0.374 C  
HETATM   20  N   UNK     1     -10.546  15.370  66.982  1.00  0.00    -0.303 NA 
HETATM   21  C   UNK     1     -10.189  17.671  66.196  1.00  0.00    -0.343 C  
HETATM   22  O   UNK     1      -9.626  18.559  65.583  1.00  0.00    -0.365 OA 
HETATM   23  O   UNK     1     -10.903  17.879  67.338  1.00  0.00    -0.339 OA 
HETATM   24  H1  UNK     1      -9.843  15.507  67.709  1.00  0.00     0.000 HD 
HETATM   25  H2  UNK     1     -10.651  14.383  66.745  1.00  0.00     0.000 HD 
ENDBRANCH  18  19
ENDBRANCH  17  18
ENDBRANCH  16  17
ENDBRANCH  15  16
ENDBRANCH  13  15
ENDBRANCH  10  11
ENDBRANCH   9  10
ENDBRANCH   8   9
ENDBRANCH   7   8
ENDBRANCH   6   7
ENDBRANCH   5   6
ENDBRANCH   4   5
ENDBRANCH   3   4
ENDBRANCH   2   3
TORSDOF 14
ENDMDL
MODEL      432
REMARK 921   NORMALIZED FREE ENERGY PREDICTED BY IDOCK:   -2.45 KCAL/MOL
REMARK 922        TOTAL FREE ENERGY PREDICTED BY IDOCK:   -5.39 KCAL/MOL
REMARK 923 INTER-LIGAND FREE ENERGY PREDICTED BY IDOCK:   -4.73 KCAL/MOL
REMARK 924 INTRA-LIGAND FREE ENERGY PREDICTED BY IDOCK:   -0.67 KCAL/MOL
REMARK 927      BINDING AFFINITY PREDICTED BY RF-SCORE:    0.00 PKD
ROOT
HETATM    1  C   UNK     1     -11.851   6.443  70.112  1.00  0.00    -0.184 C  
HETATM    2  O   UNK     1     -11.213   7.016  71.244  1.00  0.00    -0.250 OA 
ENDROOT
BRANCH   2   3
HETATM    3  C   UNK     1     -10.415   8.142  70.878  1.00  0.00    -0.202 C  
BRANCH   3   4
HETATM    4  C   UNK     1     -10.867   9.356  71.681  1.00  0.00    -0.277 C  
BRANCH   4   5
HETATM    5  O   UNK     1     -12.129   9.805  71.190  1.00  0.00    -0.319 OA 
BRANCH   5   6
HETATM    6  C   UNK     1     -12.043  11.123  70.653  1.00  0.00    -0.379 C  
BRANCH   6   7
HETATM    7  C   UNK     1     -11.979  11.040  69.133  1.00  0.00    -0.394 C  
BRANCH   7   8
HETATM    8  C   UNK     1     -11.950  12.424  68.476  1.00  0.00    -0.273 C  
BRANCH   8   9
HETATM    9  C   UNK     1     -11.412  12.330  67.051  1.00  0.00    -0.419 C  
BRANCH   9  10
HETATM   10  C   UNK     1      -9.897  12.502  66.990  1.00  0.00    -0.217 C  
BRANCH  10  11
HETATM   11  C   UNK     1      -9.241  11.307  66.323  1.00  0.00    -0.200 C  
HETATM   12  O   UNK     1      -8.055  11.271  66.010  1.00  0.00    -0.119 OA 
HETATM   13  N   UNK     1     -10.109  10.263  66.098  1.00  0.00    -0.241 N  
HETATM   14  H   UNK     1     -11.094  10.368  66.342  1.00  0.00     0.000 HD 
BRANCH  13  15
HETATM   15  C   UNK     1      -9.646   9.016  65.521  1.00  0.00    -0.096 C  
BRANCH  15  16
HETATM   16  C   UNK     1      -9.268   7.979  66.581  1.00  0.00    -0.225 C  
BRANCH  16  17
HETATM   17  C   UNK     1      -9.019   6.606  65.956  1.00  0.00    -0.131 C  
BRANCH  17  18
HETATM   18  C   UNK     1      -9.970   5.531  66.499  1.00  0.00    -0.214 C  
BRANCH  18  19
HETATM   19  C   UNK     1      -9.429   4.101  66.347  1.00  0.00    -0.189 C  
HETATM   20  N   UNK     1      -8.561   3.727  67.502  1.00  0.00    -0.099 NA 
HETATM   21  C   UNK     1      -8.603   3.974  65.057  1.00  0.00    -0.115 C  
HETATM   22  O   UNK     1      -9.060   3.844  63.937  1.00  0.00    -0.118 OA 
HETATM   23  O   UNK     1      -7.270   4.075  65.320  1.00  0.00    -0.065 OA 
HETATM   24  H1  UNK     1      -8.202   2.778  67.402  1.00  0.00     0.000 HD 
HETATM   25  H2  UNK     1      -9.046   3.852  68.391  1.00  0.00     0.000 HD 
ENDBRANCH  18  19
ENDBRANCH  17  18
ENDBRANCH  16  17
ENDBRANCH  15  16
ENDBRANCH  13  15
ENDBRANCH  10  11
ENDBRANCH   9  10
ENDBRANCH   8   9
ENDBRANCH   7   8
ENDBRANCH   6   7
ENDBRANCH   5   6
ENDBRANCH   4   5
ENDBRANCH   3   4
ENDBRANCH   2   3
TORSDOF 14
ENDMDL
MODEL      433
REMARK 921   NORMALIZED FREE ENERGY PREDICTED BY IDOCK:   -2.45 KCAL/MOL
REMARK 922        TOTAL FREE ENERGY PREDICTED BY IDOCK:   -5.39 KCAL/MOL
REMARK 923 INTER-LIGAND FREE ENERGY PREDICTED BY IDOCK:   -4.71 KCAL/MOL
REMARK 924 INTRA-LIGAND FREE ENERGY PREDICTED BY IDOCK:   -0.68 KCAL/MOL
REMARK 927      BINDING AFFINITY PREDICTED BY RF-SCORE:    0.00 PKD
ROOT
HETATM    1  C   UNK     1      -8.597   3.628  68.574  1.00  0.00    -0.091 C  
HETATM    2  O   UNK     1      -8.783   2.679  67.534  1.00  0.00    -0.095 OA 
ENDROOT
BRANCH   2   3
HETATM    3  C   UNK     1      -7.560   2.414  66.845  1.00  0.00    -0.070 C  
BRANCH   3   4
HETATM    4  C   UNK     1      -7.668   2.937  65.417  1.00  0.00    -0.081 C  
BRANCH   4   5
HETATM    5  O   UNK     1      -9.042   3.013  65.044  1.00  0.00    -0.136 OA 
BRANCH   5   6
HETATM    6  C   UNK     1      -9.284   4.106  64.161  1.00  0.00    -0.149 C  
BRANCH   6   7
HETATM    7  C   UNK     1      -8.425   5.290  64.584  1.00  0.00    -0.142 C  
BRANCH   7   8
HETATM    8  C   UNK     1      -8.071   6.203  63.405  1.00  0.00    -0.068 C  
BRANCH   8   9
HETATM    9  C   UNK     1      -7.908   7.646  63.874  1.00  0.00    -0.122 C  
BRANCH   9  10
HETATM   10  C   UNK     1      -7.998   8.644  62.723  1.00  0.00    -0.154 C  
BRANCH  10  11
HETATM   11  C   UNK     1      -8.622   9.949  63.183  1.00  0.00    -0.199 C  
HETATM   12  O   UNK     1      -9.071  10.795  62.415  1.00  0.00    -0.267 OA 
HETATM   13  N   UNK     1      -8.633  10.097  64.552  1.00  0.00    -0.177 N  
HETATM   14  H   UNK     1      -8.206   9.378  65.137  1.00  0.00     0.000 HD 
BRANCH  13  15
HETATM   15  C   UNK     1      -9.240  11.256  65.174  1.00  0.00    -0.149 C  
BRANCH  15  16
HETATM   16  C   UNK     1     -10.504  10.908  65.965  1.00  0.00    -0.287 C  
BRANCH  16  17
HETATM   17  C   UNK     1     -11.533  12.036  65.899  1.00  0.00    -0.392 C  
BRANCH  17  18
HETATM   18  C   UNK     1     -11.786  12.682  67.268  1.00  0.00    -0.435 C  
BRANCH  18  19
HETATM   19  C   UNK     1     -10.684  13.664  67.695  1.00  0.00    -0.245 C  
HETATM   20  N   UNK     1     -10.455  13.612  69.168  1.00  0.00    -0.429 NA 
HETATM   21  C   UNK     1     -11.068  15.102  67.312  1.00  0.00    -0.332 C  
HETATM   22  O   UNK     1     -10.971  15.586  66.200  1.00  0.00    -0.316 OA 
HETATM   23  O   UNK     1     -11.587  15.768  68.382  1.00  0.00    -0.373 OA 
HETATM   24  H1  UNK     1      -9.723  14.263  69.451  1.00  0.00     0.000 HD 
HETATM   25  H2  UNK     1     -10.254  12.662  69.483  1.00  0.00     0.000 HD 
ENDBRANCH  18  19
ENDBRANCH  17  18
ENDBRANCH  16  17
ENDBRANCH  15  16
ENDBRANCH  13  15
ENDBRANCH  10  11
ENDBRANCH   9  10
ENDBRANCH   8   9
ENDBRANCH   7   8
ENDBRANCH   6   7
ENDBRANCH   5   6
ENDBRANCH   4   5
ENDBRANCH   3   4
ENDBRANCH   2   3
TORSDOF 14
ENDMDL
MODEL      434
REMARK 921   NORMALIZED FREE ENERGY PREDICTED BY IDOCK:   -2.44 KCAL/MOL
REMARK 922        TOTAL FREE ENERGY PREDICTED BY IDOCK:   -5.37 KCAL/MOL
REMARK 923 INTER-LIGAND FREE ENERGY PREDICTED BY IDOCK:   -5.01 KCAL/MOL
REMARK 924 INTRA-LIGAND FREE ENERGY PREDICTED BY IDOCK:   -0.37 KCAL/MOL
REMARK 927      BINDING AFFINITY PREDICTED BY RF-SCORE:    0.00 PKD
ROOT
HETATM    1  C   UNK     1     -10.161  19.457  68.666  1.00  0.00    -0.371 C  
HETATM    2  O   UNK     1     -10.205  19.624  67.256  1.00  0.00    -0.376 OA 
ENDROOT
BRANCH   2   3
HETATM    3  C   UNK     1      -8.893  19.690  66.697  1.00  0.00    -0.353 C  
BRANCH   3   4
HETATM    4  C   UNK     1      -8.432  18.283  66.337  1.00  0.00    -0.244 C  
BRANCH   4   5
HETATM    5  O   UNK     1      -9.503  17.580  65.711  1.00  0.00    -0.519 OA 
BRANCH   5   6
HETATM    6  C   UNK     1      -9.432  16.179  65.970  1.00  0.00    -0.339 C  
BRANCH   6   7
HETATM    7  C   UNK     1     -10.175  15.873  67.264  1.00  0.00    -0.278 C  
BRANCH   7   8
HETATM    8  C   UNK     1      -9.222  15.521  68.412  1.00  0.00    -0.191 C  
BRANCH   8   9
HETATM    9  C   UNK     1      -9.251  14.022  68.693  1.00  0.00    -0.119 C  
BRANCH   9  10
HETATM   10  C   UNK     1      -9.271  13.191  67.413  1.00  0.00    -0.213 C  
BRANCH  10  11
HETATM   11  C   UNK     1      -8.798  11.773  67.677  1.00  0.00    -0.162 C  
HETATM   12  O   UNK     1      -8.171  11.104  66.862  1.00  0.00    -0.136 OA 
HETATM   13  N   UNK     1      -9.145  11.306  68.925  1.00  0.00    -0.361 N  
HETATM   14  H   UNK     1      -9.703  11.895  69.544  1.00  0.00     0.000 HD 
BRANCH  13  15
HETATM   15  C   UNK     1      -8.728   9.992  69.374  1.00  0.00    -0.186 C  
BRANCH  15  16
HETATM   16  C   UNK     1      -9.897   9.011  69.495  1.00  0.00    -0.181 C  
BRANCH  16  17
HETATM   17  C   UNK     1      -9.424   7.562  69.385  1.00  0.00    -0.155 C  
BRANCH  17  18
HETATM   18  C   UNK     1     -10.365   6.581  70.099  1.00  0.00    -0.241 C  
BRANCH  18  19
HETATM   19  C   UNK     1      -9.714   5.869  71.294  1.00  0.00    -0.173 C  
HETATM   20  N   UNK     1      -9.183   6.852  72.284  1.00  0.00    -0.135 NA 
HETATM   21  C   UNK     1      -8.553   4.979  70.821  1.00  0.00    -0.123 C  
HETATM   22  O   UNK     1      -8.668   3.878  70.319  1.00  0.00    -0.070 OA 
HETATM   23  O   UNK     1      -7.356   5.608  70.994  1.00  0.00    -0.079 OA 
HETATM   24  H1  UNK     1      -8.751   6.379  73.078  1.00  0.00     0.000 HD 
HETATM   25  H2  UNK     1      -9.905   7.507  72.586  1.00  0.00     0.000 HD 
ENDBRANCH  18  19
ENDBRANCH  17  18
ENDBRANCH  16  17
ENDBRANCH  15  16
ENDBRANCH  13  15
ENDBRANCH  10  11
ENDBRANCH   9  10
ENDBRANCH   8   9
ENDBRANCH   7   8
ENDBRANCH   6   7
ENDBRANCH   5   6
ENDBRANCH   4   5
ENDBRANCH   3   4
ENDBRANCH   2   3
TORSDOF 14
ENDMDL
MODEL      435
REMARK 921   NORMALIZED FREE ENERGY PREDICTED BY IDOCK:   -2.42 KCAL/MOL
REMARK 922        TOTAL FREE ENERGY PREDICTED BY IDOCK:   -5.33 KCAL/MOL
REMARK 923 INTER-LIGAND FREE ENERGY PREDICTED BY IDOCK:   -4.56 KCAL/MOL
REMARK 924 INTRA-LIGAND FREE ENERGY PREDICTED BY IDOCK:   -0.77 KCAL/MOL
REMARK 927      BINDING AFFINITY PREDICTED BY RF-SCORE:    0.00 PKD
ROOT
HETATM    1  C   UNK     1      -9.262   3.239  73.854  1.00  0.00    -0.088 C  
HETATM    2  O   UNK     1      -9.424   4.125  72.756  1.00  0.00    -0.121 OA 
ENDROOT
BRANCH   2   3
HETATM    3  C   UNK     1      -9.614   5.471  73.195  1.00  0.00    -0.149 C  
BRANCH   3   4
HETATM    4  C   UNK     1     -11.103   5.796  73.179  1.00  0.00    -0.247 C  
BRANCH   4   5
HETATM    5  O   UNK     1     -11.299   7.091  72.617  1.00  0.00    -0.276 OA 
BRANCH   5   6
HETATM    6  C   UNK     1     -12.190   7.050  71.505  1.00  0.00    -0.368 C  
BRANCH   6   7
HETATM    7  C   UNK     1     -12.998   8.340  71.463  1.00  0.00    -0.310 C  
BRANCH   7   8
HETATM    8  C   UNK     1     -12.164   9.562  71.866  1.00  0.00    -0.432 C  
BRANCH   8   9
HETATM    9  C   UNK     1     -12.769  10.838  71.288  1.00  0.00    -0.546 C  
BRANCH   9  10
HETATM   10  C   UNK     1     -12.767  10.842  69.761  1.00  0.00    -0.004 C  
BRANCH  10  11
HETATM   11  C   UNK     1     -11.598  11.645  69.222  1.00  0.00    -0.320 C  
HETATM   12  O   UNK     1     -11.511  12.865  69.316  1.00  0.00    -0.268 OA 
HETATM   13  N   UNK     1     -10.639  10.869  68.610  1.00  0.00    -0.183 N  
HETATM   14  H   UNK     1     -10.786   9.863  68.525  1.00  0.00     0.000 HD 
BRANCH  13  15
HETATM   15  C   UNK     1      -9.423  11.459  68.085  1.00  0.00    -0.181 C  
BRANCH  15  16
HETATM   16  C   UNK     1      -8.160  10.746  68.577  1.00  0.00    -0.133 C  
BRANCH  16  17
HETATM   17  C   UNK     1      -6.943  11.119  67.733  1.00  0.00    -0.078 C  
BRANCH  17  18
HETATM   18  C   UNK     1      -7.190  10.933  66.229  1.00  0.00    -0.126 C  
BRANCH  18  19
HETATM   19  C   UNK     1      -7.126   9.466  65.775  1.00  0.00    -0.091 C  
HETATM   20  N   UNK     1      -6.108   9.278  64.700  1.00  0.00    -0.069 NA 
HETATM   21  C   UNK     1      -8.491   9.010  65.238  1.00  0.00    -0.166 C  
HETATM   22  O   UNK     1      -9.444   8.683  65.920  1.00  0.00    -0.223 OA 
HETATM   23  O   UNK     1      -8.521   9.063  63.877  1.00  0.00    -0.182 OA 
HETATM   24  H1  UNK     1      -6.064   8.305  64.399  1.00  0.00     0.000 HD 
HETATM   25  H2  UNK     1      -5.191   9.623  64.987  1.00  0.00     0.000 HD 
ENDBRANCH  18  19
ENDBRANCH  17  18
ENDBRANCH  16  17
ENDBRANCH  15  16
ENDBRANCH  13  15
ENDBRANCH  10  11
ENDBRANCH   9  10
ENDBRANCH   8   9
ENDBRANCH   7   8
ENDBRANCH   6   7
ENDBRANCH   5   6
ENDBRANCH   4   5
ENDBRANCH   3   4
ENDBRANCH   2   3
TORSDOF 14
ENDMDL
MODEL      436
REMARK 921   NORMALIZED FREE ENERGY PREDICTED BY IDOCK:   -2.42 KCAL/MOL
REMARK 922        TOTAL FREE ENERGY PREDICTED BY IDOCK:   -5.33 KCAL/MOL
REMARK 923 INTER-LIGAND FREE ENERGY PREDICTED BY IDOCK:   -4.77 KCAL/MOL
REMARK 924 INTRA-LIGAND FREE ENERGY PREDICTED BY IDOCK:   -0.56 KCAL/MOL
REMARK 927      BINDING AFFINITY PREDICTED BY RF-SCORE:    0.00 PKD
ROOT
HETATM    1  C   UNK     1      -5.479   7.775  64.797  1.00  0.00    -0.033 C  
HETATM    2  O   UNK     1      -6.718   7.486  65.430  1.00  0.00    -0.044 OA 
ENDROOT
BRANCH   2   3
HETATM    3  C   UNK     1      -6.887   6.083  65.632  1.00  0.00    -0.056 C  
BRANCH   3   4
HETATM    4  C   UNK     1      -7.945   5.857  66.705  1.00  0.00    -0.102 C  
BRANCH   4   5
HETATM    5  O   UNK     1      -7.319   5.381  67.894  1.00  0.00    -0.071 OA 
BRANCH   5   6
HETATM    6  C   UNK     1      -8.279   4.931  68.848  1.00  0.00    -0.083 C  
BRANCH   6   7
HETATM    7  C   UNK     1      -8.524   6.035  69.868  1.00  0.00    -0.130 C  
BRANCH   7   8
HETATM    8  C   UNK     1      -9.273   5.529  71.105  1.00  0.00    -0.173 C  
BRANCH   8   9
HETATM    9  C   UNK     1     -10.618   6.237  71.246  1.00  0.00    -0.285 C  
BRANCH   9  10
HETATM   10  C   UNK     1     -10.822   7.312  70.182  1.00  0.00    -0.274 C  
BRANCH  10  11
HETATM   11  C   UNK     1     -11.127   8.656  70.818  1.00  0.00    -0.255 C  
HETATM   12  O   UNK     1     -10.838   8.940  71.976  1.00  0.00    -0.349 OA 
HETATM   13  N   UNK     1     -11.766   9.530  69.968  1.00  0.00    -0.456 N  
HETATM   14  H   UNK     1     -12.018   9.221  69.028  1.00  0.00     0.000 HD 
BRANCH  13  15
HETATM   15  C   UNK     1     -12.086  10.880  70.385  1.00  0.00    -0.363 C  
BRANCH  15  16
HETATM   16  C   UNK     1     -11.057  11.907  69.905  1.00  0.00     0.081 C  
BRANCH  16  17
HETATM   17  C   UNK     1     -11.565  12.680  68.688  1.00  0.00    -0.356 C  
BRANCH  17  18
HETATM   18  C   UNK     1     -11.872  14.149  69.011  1.00  0.00    -0.384 C  
BRANCH  18  19
HETATM   19  C   UNK     1     -10.614  15.013  69.188  1.00  0.00    -0.251 C  
HETATM   20  N   UNK     1     -10.716  15.873  70.404  1.00  0.00    -0.298 NA 
HETATM   21  C   UNK     1     -10.411  15.922  67.965  1.00  0.00    -0.274 C  
HETATM   22  O   UNK     1      -9.937  15.575  66.900  1.00  0.00    -0.239 OA 
HETATM   23  O   UNK     1     -10.881  17.178  68.209  1.00  0.00    -0.369 OA 
HETATM   24  H1  UNK     1      -9.881  16.446  70.522  1.00  0.00     0.000 HD 
HETATM   25  H2  UNK     1     -10.912  15.320  71.239  1.00  0.00     0.000 HD 
ENDBRANCH  18  19
ENDBRANCH  17  18
ENDBRANCH  16  17
ENDBRANCH  15  16
ENDBRANCH  13  15
ENDBRANCH  10  11
ENDBRANCH   9  10
ENDBRANCH   8   9
ENDBRANCH   7   8
ENDBRANCH   6   7
ENDBRANCH   5   6
ENDBRANCH   4   5
ENDBRANCH   3   4
ENDBRANCH   2   3
TORSDOF 14
ENDMDL
MODEL      437
REMARK 921   NORMALIZED FREE ENERGY PREDICTED BY IDOCK:   -2.41 KCAL/MOL
REMARK 922        TOTAL FREE ENERGY PREDICTED BY IDOCK:   -5.31 KCAL/MOL
REMARK 923 INTER-LIGAND FREE ENERGY PREDICTED BY IDOCK:   -3.93 KCAL/MOL
REMARK 924 INTRA-LIGAND FREE ENERGY PREDICTED BY IDOCK:   -1.38 KCAL/MOL
REMARK 927      BINDING AFFINITY PREDICTED BY RF-SCORE:    0.00 PKD
ROOT
HETATM    1  C   UNK     1      -8.629   6.822  65.786  1.00  0.00    -0.137 C  
HETATM    2  O   UNK     1      -9.820   6.586  66.525  1.00  0.00    -0.167 OA 
ENDROOT
BRANCH   2   3
HETATM    3  C   UNK     1     -10.117   5.192  66.604  1.00  0.00    -0.237 C  
BRANCH   3   4
HETATM    4  C   UNK     1      -8.826   4.396  66.451  1.00  0.00    -0.114 C  
BRANCH   4   5
HETATM    5  O   UNK     1      -8.674   3.522  67.567  1.00  0.00    -0.100 OA 
BRANCH   5   6
HETATM    6  C   UNK     1      -8.732   4.234  68.801  1.00  0.00    -0.095 C  
BRANCH   6   7
HETATM    7  C   UNK     1      -7.375   4.870  69.075  1.00  0.00    -0.054 C  
BRANCH   7   8
HETATM    8  C   UNK     1      -7.091   5.012  70.574  1.00  0.00    -0.053 C  
BRANCH   8   9
HETATM    9  C   UNK     1      -8.000   4.091  71.383  1.00  0.00    -0.072 C  
BRANCH   9  10
HETATM   10  C   UNK     1      -7.655   4.094  72.870  1.00  0.00    -0.079 C  
BRANCH  10  11
HETATM   11  C   UNK     1      -8.376   5.217  73.592  1.00  0.00    -0.112 C  
HETATM   12  O   UNK     1      -7.913   5.807  74.563  1.00  0.00    -0.103 OA 
HETATM   13  N   UNK     1      -9.608   5.511  73.052  1.00  0.00    -0.150 N  
HETATM   14  H   UNK     1      -9.958   4.957  72.270  1.00  0.00     0.000 HD 
BRANCH  13  15
HETATM   15  C   UNK     1     -10.416   6.594  73.577  1.00  0.00    -0.313 C  
BRANCH  15  16
HETATM   16  C   UNK     1     -10.112   7.936  72.907  1.00  0.00    -0.376 C  
BRANCH  16  17
HETATM   17  C   UNK     1     -10.722   8.012  71.507  1.00  0.00    -0.274 C  
BRANCH  17  18
HETATM   18  C   UNK     1     -10.744   9.444  70.953  1.00  0.00    -0.393 C  
BRANCH  18  19
HETATM   19  C   UNK     1     -10.738   9.506  69.418  1.00  0.00    -0.225 C  
HETATM   20  N   UNK     1     -11.002   8.163  68.822  1.00  0.00    -0.419 NA 
HETATM   21  C   UNK     1      -9.377  10.006  68.907  1.00  0.00    -0.172 C  
HETATM   22  O   UNK     1      -9.015  11.167  68.885  1.00  0.00    -0.156 OA 
HETATM   23  O   UNK     1      -8.590   8.964  68.518  1.00  0.00    -0.131 OA 
HETATM   24  H1  UNK     1     -10.998   8.204  67.804  1.00  0.00     0.000 HD 
HETATM   25  H2  UNK     1     -11.869   7.760  69.178  1.00  0.00     0.000 HD 
ENDBRANCH  18  19
ENDBRANCH  17  18
ENDBRANCH  16  17
ENDBRANCH  15  16
ENDBRANCH  13  15
ENDBRANCH  10  11
ENDBRANCH   9  10
ENDBRANCH   8   9
ENDBRANCH   7   8
ENDBRANCH   6   7
ENDBRANCH   5   6
ENDBRANCH   4   5
ENDBRANCH   3   4
ENDBRANCH   2   3
TORSDOF 14
ENDMDL
MODEL      438
REMARK 921   NORMALIZED FREE ENERGY PREDICTED BY IDOCK:   -2.40 KCAL/MOL
REMARK 922        TOTAL FREE ENERGY PREDICTED BY IDOCK:   -5.29 KCAL/MOL
REMARK 923 INTER-LIGAND FREE ENERGY PREDICTED BY IDOCK:   -4.83 KCAL/MOL
REMARK 924 INTRA-LIGAND FREE ENERGY PREDICTED BY IDOCK:   -0.46 KCAL/MOL
REMARK 927      BINDING AFFINITY PREDICTED BY RF-SCORE:    0.00 PKD
ROOT
HETATM    1  C   UNK     1     -11.800  14.744  73.756  1.00  0.00    -0.042 C  
HETATM    2  O   UNK     1     -12.041  15.759  72.792  1.00  0.00    -0.402 OA 
ENDROOT
BRANCH   2   3
HETATM    3  C   UNK     1     -13.324  15.607  72.184  1.00  0.00    -0.460 C  
BRANCH   3   4
HETATM    4  C   UNK     1     -13.143  15.347  70.694  1.00  0.00    -0.354 C  
BRANCH   4   5
HETATM    5  O   UNK     1     -11.783  15.582  70.334  1.00  0.00    -0.281 OA 
BRANCH   5   6
HETATM    6  C   UNK     1     -11.650  15.860  68.942  1.00  0.00    -0.388 C  
BRANCH   6   7
HETATM    7  C   UNK     1     -10.194  16.188  68.636  1.00  0.00    -0.244 C  
BRANCH   7   8
HETATM    8  C   UNK     1      -9.434  14.986  68.067  1.00  0.00    -0.193 C  
BRANCH   8   9
HETATM    9  C   UNK     1      -9.506  14.978  66.542  1.00  0.00    -0.306 C  
BRANCH   9  10
HETATM   10  C   UNK     1     -10.838  14.438  66.027  1.00  0.00    -0.309 C  
BRANCH  10  11
HETATM   11  C   UNK     1     -10.697  13.001  65.560  1.00  0.00    -0.281 C  
HETATM   12  O   UNK     1     -10.364  12.687  64.422  1.00  0.00    -0.340 OA 
HETATM   13  N   UNK     1     -10.984  12.077  66.540  1.00  0.00    -0.281 N  
HETATM   14  H   UNK     1     -11.297  12.399  67.456  1.00  0.00     0.000 HD 
BRANCH  13  15
HETATM   15  C   UNK     1     -10.848  10.656  66.291  1.00  0.00    -0.027 C  
BRANCH  15  16
HETATM   16  C   UNK     1     -10.675   9.844  67.577  1.00  0.00    -0.333 C  
BRANCH  16  17
HETATM   17  C   UNK     1      -9.283  10.039  68.178  1.00  0.00    -0.130 C  
BRANCH  17  18
HETATM   18  C   UNK     1      -8.893   8.906  69.139  1.00  0.00    -0.136 C  
BRANCH  18  19
HETATM   19  C   UNK     1      -7.557   8.237  68.785  1.00  0.00    -0.101 C  
HETATM   20  N   UNK     1      -7.693   6.752  68.736  1.00  0.00    -0.108 NA 
HETATM   21  C   UNK     1      -6.486   8.593  69.829  1.00  0.00    -0.038 C  
HETATM   22  O   UNK     1      -5.868   9.639  69.877  1.00  0.00    -0.038 OA 
HETATM   23  O   UNK     1      -6.344   7.591  70.742  1.00  0.00    -0.038 OA 
HETATM   24  H1  UNK     1      -6.806   6.307  68.500  1.00  0.00     0.000 HD 
HETATM   25  H2  UNK     1      -8.436   6.465  68.098  1.00  0.00     0.000 HD 
ENDBRANCH  18  19
ENDBRANCH  17  18
ENDBRANCH  16  17
ENDBRANCH  15  16
ENDBRANCH  13  15
ENDBRANCH  10  11
ENDBRANCH   9  10
ENDBRANCH   8   9
ENDBRANCH   7   8
ENDBRANCH   6   7
ENDBRANCH   5   6
ENDBRANCH   4   5
ENDBRANCH   3   4
ENDBRANCH   2   3
TORSDOF 14
ENDMDL
MODEL      439
REMARK 921   NORMALIZED FREE ENERGY PREDICTED BY IDOCK:   -2.40 KCAL/MOL
REMARK 922        TOTAL FREE ENERGY PREDICTED BY IDOCK:   -5.29 KCAL/MOL
REMARK 923 INTER-LIGAND FREE ENERGY PREDICTED BY IDOCK:   -4.52 KCAL/MOL
REMARK 924 INTRA-LIGAND FREE ENERGY PREDICTED BY IDOCK:   -0.77 KCAL/MOL
REMARK 927      BINDING AFFINITY PREDICTED BY RF-SCORE:    0.00 PKD
ROOT
HETATM    1  C   UNK     1     -11.477   6.352  69.926  1.00  0.00    -0.415 C  
HETATM    2  O   UNK     1     -10.667   7.049  70.861  1.00  0.00    -0.229 OA 
ENDROOT
BRANCH   2   3
HETATM    3  C   UNK     1      -9.962   8.125  70.242  1.00  0.00    -0.189 C  
BRANCH   3   4
HETATM    4  C   UNK     1     -10.294   9.424  70.967  1.00  0.00    -0.312 C  
BRANCH   4   5
HETATM    5  O   UNK     1     -11.601   9.854  70.591  1.00  0.00    -0.288 OA 
BRANCH   5   6
HETATM    6  C   UNK     1     -11.574  11.146  69.990  1.00  0.00    -0.338 C  
BRANCH   6   7
HETATM    7  C   UNK     1     -11.620  10.993  68.475  1.00  0.00    -0.380 C  
BRANCH   7   8
HETATM    8  C   UNK     1     -11.831  12.333  67.761  1.00  0.00    -0.341 C  
BRANCH   8   9
HETATM    9  C   UNK     1     -10.736  12.567  66.725  1.00  0.00    -0.261 C  
BRANCH   9  10
HETATM   10  C   UNK     1      -9.542  13.323  67.303  1.00  0.00    -0.234 C  
BRANCH  10  11
HETATM   11  C   UNK     1      -8.276  12.492  67.208  1.00  0.00    -0.184 C  
HETATM   12  O   UNK     1      -7.151  12.944  67.396  1.00  0.00    -0.153 OA 
HETATM   13  N   UNK     1      -8.510  11.174  66.885  1.00  0.00    -0.142 N  
HETATM   14  H   UNK     1      -9.465  10.866  66.699  1.00  0.00     0.000 HD 
BRANCH  13  15
HETATM   15  C   UNK     1      -7.424  10.218  66.807  1.00  0.00    -0.107 C  
BRANCH  15  16
HETATM   16  C   UNK     1      -7.234   9.430  68.105  1.00  0.00    -0.078 C  
BRANCH  16  17
HETATM   17  C   UNK     1      -7.043   7.938  67.831  1.00  0.00    -0.086 C  
BRANCH  17  18
HETATM   18  C   UNK     1      -6.937   7.625  66.331  1.00  0.00    -0.066 C  
BRANCH  18  19
HETATM   19  C   UNK     1      -7.582   6.288  65.938  1.00  0.00    -0.084 C  
HETATM   20  N   UNK     1      -8.829   6.502  65.145  1.00  0.00    -0.361 NA 
HETATM   21  C   UNK     1      -7.938   5.474  67.193  1.00  0.00    -0.102 C  
HETATM   22  O   UNK     1      -7.154   4.821  67.855  1.00  0.00    -0.060 OA 
HETATM   23  O   UNK     1      -9.256   5.616  67.507  1.00  0.00    -0.111 OA 
HETATM   24  H1  UNK     1      -9.257   5.615  64.883  1.00  0.00     0.000 HD 
HETATM   25  H2  UNK     1      -8.657   7.090  64.329  1.00  0.00     0.000 HD 
ENDBRANCH  18  19
ENDBRANCH  17  18
ENDBRANCH  16  17
ENDBRANCH  15  16
ENDBRANCH  13  15
ENDBRANCH  10  11
ENDBRANCH   9  10
ENDBRANCH   8   9
ENDBRANCH   7   8
ENDBRANCH   6   7
ENDBRANCH   5   6
ENDBRANCH   4   5
ENDBRANCH   3   4
ENDBRANCH   2   3
TORSDOF 14
ENDMDL
MODEL      440
REMARK 921   NORMALIZED FREE ENERGY PREDICTED BY IDOCK:   -2.39 KCAL/MOL
REMARK 922        TOTAL FREE ENERGY PREDICTED BY IDOCK:   -5.28 KCAL/MOL
REMARK 923 INTER-LIGAND FREE ENERGY PREDICTED BY IDOCK:   -5.33 KCAL/MOL
REMARK 924 INTRA-LIGAND FREE ENERGY PREDICTED BY IDOCK:    0.05 KCAL/MOL
REMARK 927      BINDING AFFINITY PREDICTED BY RF-SCORE:    0.00 PKD
ROOT
HETATM    1  C   UNK     1      -8.419   5.305  70.760  1.00  0.00    -0.122 C  
HETATM    2  O   UNK     1      -8.746   5.209  72.139  1.00  0.00    -0.127 OA 
ENDROOT
BRANCH   2   3
HETATM    3  C   UNK     1      -9.833   6.070  72.479  1.00  0.00    -0.164 C  
BRANCH   3   4
HETATM    4  C   UNK     1     -10.867   6.035  71.361  1.00  0.00    -0.270 C  
BRANCH   4   5
HETATM    5  O   UNK     1     -12.110   6.535  71.849  1.00  0.00    -0.334 OA 
BRANCH   5   6
HETATM    6  C   UNK     1     -12.832   7.226  70.833  1.00  0.00    -0.109 C  
BRANCH   6   7
HETATM    7  C   UNK     1     -13.958   8.026  71.476  1.00  0.00    -0.433 C  
BRANCH   7   8
HETATM    8  C   UNK     1     -13.821   9.531  71.224  1.00  0.00    -0.159 C  
BRANCH   8   9
HETATM    9  C   UNK     1     -12.447  10.027  71.668  1.00  0.00    -0.513 C  
BRANCH   9  10
HETATM   10  C   UNK     1     -12.166  11.453  71.203  1.00  0.00    -0.330 C  
BRANCH  10  11
HETATM   11  C   UNK     1     -13.034  12.449  71.951  1.00  0.00    -0.302 C  
HETATM   12  O   UNK     1     -14.240  12.304  72.122  1.00  0.00     0.198 OA 
HETATM   13  N   UNK     1     -12.334  13.539  72.418  1.00  0.00     0.256 N  
HETATM   14  H   UNK     1     -11.340  13.625  72.207  1.00  0.00     0.000 HD 
BRANCH  13  15
HETATM   15  C   UNK     1     -12.988  14.566  73.205  1.00  0.00    -0.472 C  
BRANCH  15  16
HETATM   16  C   UNK     1     -12.584  15.981  72.782  1.00  0.00    -0.565 C  
BRANCH  16  17
HETATM   17  C   UNK     1     -11.542  15.954  71.664  1.00  0.00    -0.541 C  
BRANCH  17  18
HETATM   18  C   UNK     1     -12.148  15.579  70.304  1.00  0.00    -0.415 C  
BRANCH  18  19
HETATM   19  C   UNK     1     -11.141  14.931  69.342  1.00  0.00    -0.280 C  
HETATM   20  N   UNK     1      -9.840  14.663  70.024  1.00  0.00    -0.228 NA 
HETATM   21  C   UNK     1     -10.879  15.851  68.139  1.00  0.00    -0.317 C  
HETATM   22  O   UNK     1     -11.610  15.976  67.175  1.00  0.00     0.121 OA 
HETATM   23  O   UNK     1      -9.728  16.559  68.309  1.00  0.00    -0.221 OA 
HETATM   24  H1  UNK     1      -9.171  14.232  69.386  1.00  0.00     0.000 HD 
HETATM   25  H2  UNK     1      -9.968  14.103  70.867  1.00  0.00     0.000 HD 
ENDBRANCH  18  19
ENDBRANCH  17  18
ENDBRANCH  16  17
ENDBRANCH  15  16
ENDBRANCH  13  15
ENDBRANCH  10  11
ENDBRANCH   9  10
ENDBRANCH   8   9
ENDBRANCH   7   8
ENDBRANCH   6   7
ENDBRANCH   5   6
ENDBRANCH   4   5
ENDBRANCH   3   4
ENDBRANCH   2   3
TORSDOF 14
ENDMDL
MODEL      441
REMARK 921   NORMALIZED FREE ENERGY PREDICTED BY IDOCK:   -2.38 KCAL/MOL
REMARK 922        TOTAL FREE ENERGY PREDICTED BY IDOCK:   -5.25 KCAL/MOL
REMARK 923 INTER-LIGAND FREE ENERGY PREDICTED BY IDOCK:   -4.66 KCAL/MOL
REMARK 924 INTRA-LIGAND FREE ENERGY PREDICTED BY IDOCK:   -0.60 KCAL/MOL
REMARK 927      BINDING AFFINITY PREDICTED BY RF-SCORE:    0.00 PKD
ROOT
HETATM    1  C   UNK     1      -8.420  20.813  66.932  1.00  0.00    -0.012 C  
HETATM    2  O   UNK     1      -8.884  19.704  67.689  1.00  0.00    -0.305 OA 
ENDROOT
BRANCH   2   3
HETATM    3  C   UNK     1      -8.362  18.474  67.186  1.00  0.00    -0.249 C  
BRANCH   3   4
HETATM    4  C   UNK     1      -7.759  17.679  68.338  1.00  0.00    -0.269 C  
BRANCH   4   5
HETATM    5  O   UNK     1      -8.721  16.744  68.821  1.00  0.00    -0.252 OA 
BRANCH   5   6
HETATM    6  C   UNK     1      -8.186  15.423  68.873  1.00  0.00    -0.192 C  
BRANCH   6   7
HETATM    7  C   UNK     1      -6.862  15.450  69.626  1.00  0.00    -0.185 C  
BRANCH   7   8
HETATM    8  C   UNK     1      -5.783  14.608  68.936  1.00  0.00    -0.086 C  
BRANCH   8   9
HETATM    9  C   UNK     1      -5.352  13.450  69.831  1.00  0.00    -0.092 C  
BRANCH   9  10
HETATM   10  C   UNK     1      -6.447  12.397  69.986  1.00  0.00     0.083 C  
BRANCH  10  11
HETATM   11  C   UNK     1      -6.686  11.666  68.677  1.00  0.00    -0.074 C  
HETATM   12  O   UNK     1      -6.008  10.717  68.296  1.00  0.00    -0.046 OA 
HETATM   13  N   UNK     1      -7.741  12.173  67.953  1.00  0.00    -0.122 N  
HETATM   14  H   UNK     1      -8.242  12.991  68.303  1.00  0.00     0.000 HD 
BRANCH  13  15
HETATM   15  C   UNK     1      -8.152  11.565  66.704  1.00  0.00    -0.139 C  
BRANCH  15  16
HETATM   16  C   UNK     1      -9.480  10.812  66.821  1.00  0.00    -0.198 C  
BRANCH  16  17
HETATM   17  C   UNK     1     -10.578  11.703  67.403  1.00  0.00    -0.257 C  
BRANCH  17  18
HETATM   18  C   UNK     1     -11.837  11.734  66.525  1.00  0.00    -0.011 C  
BRANCH  18  19
HETATM   19  C   UNK     1     -11.807  12.831  65.451  1.00  0.00    -0.415 C  
HETATM   20  N   UNK     1     -13.168  13.397  65.219  1.00  0.00    -0.582 NA 
HETATM   21  C   UNK     1     -11.281  12.266  64.121  1.00  0.00    -0.369 C  
HETATM   22  O   UNK     1     -10.112  12.069  63.852  1.00  0.00    -0.338 OA 
HETATM   23  O   UNK     1     -12.310  11.962  63.281  1.00  0.00    -0.545 OA 
HETATM   24  H1  UNK     1     -13.148  14.126  64.506  1.00  0.00     0.000 HD 
HETATM   25  H2  UNK     1     -13.587  13.733  66.086  1.00  0.00     0.000 HD 
ENDBRANCH  18  19
ENDBRANCH  17  18
ENDBRANCH  16  17
ENDBRANCH  15  16
ENDBRANCH  13  15
ENDBRANCH  10  11
ENDBRANCH   9  10
ENDBRANCH   8   9
ENDBRANCH   7   8
ENDBRANCH   6   7
ENDBRANCH   5   6
ENDBRANCH   4   5
ENDBRANCH   3   4
ENDBRANCH   2   3
TORSDOF 14
ENDMDL
MODEL      442
REMARK 921   NORMALIZED FREE ENERGY PREDICTED BY IDOCK:   -2.36 KCAL/MOL
REMARK 922        TOTAL FREE ENERGY PREDICTED BY IDOCK:   -5.21 KCAL/MOL
REMARK 923 INTER-LIGAND FREE ENERGY PREDICTED BY IDOCK:   -4.69 KCAL/MOL
REMARK 924 INTRA-LIGAND FREE ENERGY PREDICTED BY IDOCK:   -0.52 KCAL/MOL
REMARK 927      BINDING AFFINITY PREDICTED BY RF-SCORE:    0.00 PKD
ROOT
HETATM    1  C   UNK     1      -8.374  19.181  67.350  1.00  0.00    -0.281 C  
HETATM    2  O   UNK     1      -9.451  18.856  66.484  1.00  0.00    -0.319 OA 
ENDROOT
BRANCH   2   3
HETATM    3  C   UNK     1     -10.330  17.901  67.079  1.00  0.00    -0.362 C  
BRANCH   3   4
HETATM    4  C   UNK     1      -9.544  16.639  67.415  1.00  0.00    -0.242 C  
BRANCH   4   5
HETATM    5  O   UNK     1      -9.145  15.996  66.207  1.00  0.00    -0.284 OA 
BRANCH   5   6
HETATM    6  C   UNK     1      -9.419  14.597  66.243  1.00  0.00    -0.293 C  
BRANCH   6   7
HETATM    7  C   UNK     1      -8.503  13.935  67.264  1.00  0.00    -0.212 C  
BRANCH   7   8
HETATM    8  C   UNK     1      -8.331  12.434  67.005  1.00  0.00    -0.157 C  
BRANCH   8   9
HETATM    9  C   UNK     1      -9.154  11.620  68.000  1.00  0.00    -0.177 C  
BRANCH   9  10
HETATM   10  C   UNK     1     -10.329  10.907  67.335  1.00  0.00    -0.248 C  
BRANCH  10  11
HETATM   11  C   UNK     1     -10.347   9.434  67.700  1.00  0.00    -0.246 C  
HETATM   12  O   UNK     1     -10.074   8.536  66.910  1.00  0.00    -0.239 OA 
HETATM   13  N   UNK     1     -10.704   9.200  69.009  1.00  0.00    -0.349 N  
HETATM   14  H   UNK     1     -10.961   9.986  69.607  1.00  0.00     0.000 HD 
BRANCH  13  15
HETATM   15  C   UNK     1     -10.721   7.856  69.551  1.00  0.00    -0.192 C  
BRANCH  15  16
HETATM   16  C   UNK     1      -9.451   7.519  70.336  1.00  0.00    -0.161 C  
BRANCH  16  17
HETATM   17  C   UNK     1      -9.734   7.406  71.834  1.00  0.00    -0.179 C  
BRANCH  17  18
HETATM   18  C   UNK     1      -8.778   6.434  72.541  1.00  0.00    -0.123 C  
BRANCH  18  19
HETATM   19  C   UNK     1      -9.488   5.223  73.165  1.00  0.00    -0.142 C  
HETATM   20  N   UNK     1      -8.922   4.898  74.507  1.00  0.00    -0.110 NA 
HETATM   21  C   UNK     1      -9.339   3.989  72.262  1.00  0.00    -0.125 C  
HETATM   22  O   UNK     1      -9.991   3.765  71.260  1.00  0.00    -0.175 OA 
HETATM   23  O   UNK     1      -8.333   3.182  72.702  1.00  0.00    -0.074 OA 
HETATM   24  H1  UNK     1      -9.393   4.095  74.922  1.00  0.00     0.000 HD 
HETATM   25  H2  UNK     1      -8.943   5.707  75.129  1.00  0.00     0.000 HD 
ENDBRANCH  18  19
ENDBRANCH  17  18
ENDBRANCH  16  17
ENDBRANCH  15  16
ENDBRANCH  13  15
ENDBRANCH  10  11
ENDBRANCH   9  10
ENDBRANCH   8   9
ENDBRANCH   7   8
ENDBRANCH   6   7
ENDBRANCH   5   6
ENDBRANCH   4   5
ENDBRANCH   3   4
ENDBRANCH   2   3
TORSDOF 14
ENDMDL
MODEL      443
REMARK 921   NORMALIZED FREE ENERGY PREDICTED BY IDOCK:   -2.35 KCAL/MOL
REMARK 922        TOTAL FREE ENERGY PREDICTED BY IDOCK:   -5.20 KCAL/MOL
REMARK 923 INTER-LIGAND FREE ENERGY PREDICTED BY IDOCK:   -4.38 KCAL/MOL
REMARK 924 INTRA-LIGAND FREE ENERGY PREDICTED BY IDOCK:   -0.82 KCAL/MOL
REMARK 927      BINDING AFFINITY PREDICTED BY RF-SCORE:    0.00 PKD
ROOT
HETATM    1  C   UNK     1      -8.436   2.212  66.323  1.00  0.00    -0.102 C  
HETATM    2  O   UNK     1      -7.821   2.529  65.082  1.00  0.00    -0.076 OA 
ENDROOT
BRANCH   2   3
HETATM    3  C   UNK     1      -8.144   3.856  64.664  1.00  0.00    -0.090 C  
BRANCH   3   4
HETATM    4  C   UNK     1      -7.158   4.831  65.295  1.00  0.00    -0.063 C  
BRANCH   4   5
HETATM    5  O   UNK     1      -7.786   5.500  66.385  1.00  0.00    -0.098 OA 
BRANCH   5   6
HETATM    6  C   UNK     1      -9.066   6.012  66.019  1.00  0.00    -0.129 C  
BRANCH   6   7
HETATM    7  C   UNK     1     -10.070   5.676  67.113  1.00  0.00    -0.215 C  
BRANCH   7   8
HETATM    8  C   UNK     1     -11.032   6.835  67.397  1.00  0.00    -0.407 C  
BRANCH   8   9
HETATM    9  C   UNK     1     -10.277   8.030  67.972  1.00  0.00    -0.260 C  
BRANCH   9  10
HETATM   10  C   UNK     1      -9.409   7.648  69.168  1.00  0.00    -0.147 C  
BRANCH  10  11
HETATM   11  C   UNK     1      -8.223   8.586  69.301  1.00  0.00    -0.115 C  
HETATM   12  O   UNK     1      -7.079   8.206  69.531  1.00  0.00    -0.049 OA 
HETATM   13  N   UNK     1      -8.556   9.912  69.142  1.00  0.00    -0.145 N  
HETATM   14  H   UNK     1      -9.532  10.170  68.994  1.00  0.00     0.000 HD 
BRANCH  13  15
HETATM   15  C   UNK     1      -7.542  10.947  69.180  1.00  0.00    -0.133 C  
BRANCH  15  16
HETATM   16  C   UNK     1      -7.496  11.777  67.894  1.00  0.00    -0.108 C  
BRANCH  16  17
HETATM   17  C   UNK     1      -8.824  11.712  67.140  1.00  0.00    -0.172 C  
BRANCH  17  18
HETATM   18  C   UNK     1      -9.720  12.927  67.421  1.00  0.00    -0.201 C  
BRANCH  18  19
HETATM   19  C   UNK     1     -11.091  12.849  66.731  1.00  0.00    -0.281 C  
HETATM   20  N   UNK     1     -11.896  11.709  67.259  1.00  0.00    -0.626 NA 
HETATM   21  C   UNK     1     -10.919  12.663  65.215  1.00  0.00    -0.286 C  
HETATM   22  O   UNK     1     -10.650  13.546  64.423  1.00  0.00    -0.419 OA 
HETATM   23  O   UNK     1     -11.061  11.354  64.866  1.00  0.00    -0.257 OA 
HETATM   24  H1  UNK     1     -12.806  11.657  66.802  1.00  0.00     0.000 HD 
HETATM   25  H2  UNK     1     -11.989  11.754  68.274  1.00  0.00     0.000 HD 
ENDBRANCH  18  19
ENDBRANCH  17  18
ENDBRANCH  16  17
ENDBRANCH  15  16
ENDBRANCH  13  15
ENDBRANCH  10  11
ENDBRANCH   9  10
ENDBRANCH   8   9
ENDBRANCH   7   8
ENDBRANCH   6   7
ENDBRANCH   5   6
ENDBRANCH   4   5
ENDBRANCH   3   4
ENDBRANCH   2   3
TORSDOF 14
ENDMDL
MODEL      444
REMARK 921   NORMALIZED FREE ENERGY PREDICTED BY IDOCK:   -2.33 KCAL/MOL
REMARK 922        TOTAL FREE ENERGY PREDICTED BY IDOCK:   -5.16 KCAL/MOL
REMARK 923 INTER-LIGAND FREE ENERGY PREDICTED BY IDOCK:   -4.35 KCAL/MOL
REMARK 924 INTRA-LIGAND FREE ENERGY PREDICTED BY IDOCK:   -0.80 KCAL/MOL
REMARK 927      BINDING AFFINITY PREDICTED BY RF-SCORE:    0.00 PKD
ROOT
HETATM    1  C   UNK     1      -7.242   7.771  63.728  1.00  0.00    -0.089 C  
HETATM    2  O   UNK     1      -8.067   6.733  64.237  1.00  0.00    -0.113 OA 
ENDROOT
BRANCH   2   3
HETATM    3  C   UNK     1      -7.942   5.539  63.463  1.00  0.00    -0.104 C  
BRANCH   3   4
HETATM    4  C   UNK     1      -8.783   4.440  64.101  1.00  0.00    -0.139 C  
BRANCH   4   5
HETATM    5  O   UNK     1      -7.996   3.737  65.059  1.00  0.00    -0.088 OA 
BRANCH   5   6
HETATM    6  C   UNK     1      -8.737   3.462  66.246  1.00  0.00    -0.126 C  
BRANCH   6   7
HETATM    7  C   UNK     1      -8.820   4.729  67.087  1.00  0.00    -0.107 C  
BRANCH   7   8
HETATM    8  C   UNK     1      -8.497   4.470  68.563  1.00  0.00    -0.096 C  
BRANCH   8   9
HETATM    9  C   UNK     1      -9.488   5.201  69.465  1.00  0.00    -0.205 C  
BRANCH   9  10
HETATM   10  C   UNK     1     -10.345   6.203  68.695  1.00  0.00    -0.250 C  
BRANCH  10  11
HETATM   11  C   UNK     1      -9.983   7.628  69.071  1.00  0.00    -0.181 C  
HETATM   12  O   UNK     1      -8.872   7.965  69.466  1.00  0.00    -0.140 OA 
HETATM   13  N   UNK     1     -11.029   8.512  68.927  1.00  0.00    -0.429 N  
HETATM   14  H   UNK     1     -11.943   8.165  68.634  1.00  0.00     0.000 HD 
BRANCH  13  15
HETATM   15  C   UNK     1     -10.853   9.927  69.186  1.00  0.00    -0.221 C  
BRANCH  15  16
HETATM   16  C   UNK     1     -10.298  10.685  67.977  1.00  0.00    -0.208 C  
BRANCH  16  17
HETATM   17  C   UNK     1      -8.903  11.241  68.257  1.00  0.00    -0.158 C  
BRANCH  17  18
HETATM   18  C   UNK     1      -8.679  12.619  67.616  1.00  0.00    -0.179 C  
BRANCH  18  19
HETATM   19  C   UNK     1      -9.942  13.203  66.965  1.00  0.00    -0.244 C  
HETATM   20  N   UNK     1      -9.613  13.924  65.701  1.00  0.00    -0.525 NA 
HETATM   21  C   UNK     1     -10.632  14.188  67.922  1.00  0.00    -0.243 C  
HETATM   22  O   UNK     1     -11.344  13.880  68.859  1.00  0.00    -0.250 OA 
HETATM   23  O   UNK     1     -10.305  15.475  67.615  1.00  0.00    -0.258 OA 
HETATM   24  H1  UNK     1     -10.451  14.311  65.268  1.00  0.00     0.000 HD 
HETATM   25  H2  UNK     1      -9.099  13.327  65.052  1.00  0.00     0.000 HD 
ENDBRANCH  18  19
ENDBRANCH  17  18
ENDBRANCH  16  17
ENDBRANCH  15  16
ENDBRANCH  13  15
ENDBRANCH  10  11
ENDBRANCH   9  10
ENDBRANCH   8   9
ENDBRANCH   7   8
ENDBRANCH   6   7
ENDBRANCH   5   6
ENDBRANCH   4   5
ENDBRANCH   3   4
ENDBRANCH   2   3
TORSDOF 14
ENDMDL
MODEL      445
REMARK 921   NORMALIZED FREE ENERGY PREDICTED BY IDOCK:   -2.30 KCAL/MOL
REMARK 922        TOTAL FREE ENERGY PREDICTED BY IDOCK:   -5.12 KCAL/MOL
REMARK 923 INTER-LIGAND FREE ENERGY PREDICTED BY IDOCK:   -4.64 KCAL/MOL
REMARK 924 INTRA-LIGAND FREE ENERGY PREDICTED BY IDOCK:   -0.48 KCAL/MOL
REMARK 927      BINDING AFFINITY PREDICTED BY RF-SCORE:    0.00 PKD
ROOT
HETATM    1  C   UNK     1      -5.537  16.558  67.317  1.00  0.00    -0.139 C  
HETATM    2  O   UNK     1      -6.858  16.052  67.194  1.00  0.00    -0.188 OA 
ENDROOT
BRANCH   2   3
HETATM    3  C   UNK     1      -7.630  16.317  68.366  1.00  0.00    -0.166 C  
BRANCH   3   4
HETATM    4  C   UNK     1      -8.076  14.995  68.979  1.00  0.00    -0.178 C  
BRANCH   4   5
HETATM    5  O   UNK     1      -6.973  14.387  69.647  1.00  0.00    -0.138 OA 
BRANCH   5   6
HETATM    6  C   UNK     1      -6.934  12.980  69.420  1.00  0.00     0.104 C  
BRANCH   6   7
HETATM    7  C   UNK     1      -7.349  12.694  67.983  1.00  0.00    -0.114 C  
BRANCH   7   8
HETATM    8  C   UNK     1      -8.389  11.573  67.889  1.00  0.00    -0.136 C  
BRANCH   8   9
HETATM    9  C   UNK     1      -7.885  10.447  66.991  1.00  0.00    -0.112 C  
BRANCH   9  10
HETATM   10  C   UNK     1      -8.060  10.765  65.508  1.00  0.00    -0.084 C  
BRANCH  10  11
HETATM   11  C   UNK     1      -9.530  10.870  65.145  1.00  0.00    -0.227 C  
HETATM   12  O   UNK     1     -10.388  10.095  65.555  1.00  0.00    -0.248 OA 
HETATM   13  N   UNK     1      -9.810  11.923  64.304  1.00  0.00    -0.422 N  
HETATM   14  H   UNK     1      -9.048  12.509  63.963  1.00  0.00     0.000 HD 
BRANCH  13  15
HETATM   15  C   UNK     1     -11.171  12.214  63.896  1.00  0.00    -0.415 C  
BRANCH  15  16
HETATM   16  C   UNK     1     -11.690  13.535  64.468  1.00  0.00    -0.431 C  
BRANCH  16  17
HETATM   17  C   UNK     1     -11.118  13.805  65.860  1.00  0.00    -0.286 C  
BRANCH  17  18
HETATM   18  C   UNK     1     -11.964  13.175  66.976  1.00  0.00    -0.412 C  
BRANCH  18  19
HETATM   19  C   UNK     1     -12.140  14.087  68.199  1.00  0.00    -0.272 C  
HETATM   20  N   UNK     1     -11.476  15.407  67.988  1.00  0.00    -0.342 NA 
HETATM   21  C   UNK     1     -11.534  13.431  69.449  1.00  0.00    -0.274 C  
HETATM   22  O   UNK     1     -12.060  12.558  70.113  1.00  0.00    -0.340 OA 
HETATM   23  O   UNK     1     -10.288  13.923  69.701  1.00  0.00     0.185 OA 
HETATM   24  H1  UNK     1     -11.593  16.013  68.800  1.00  0.00     0.000 HD 
HETATM   25  H2  UNK     1     -11.802  15.859  67.134  1.00  0.00     0.000 HD 
ENDBRANCH  18  19
ENDBRANCH  17  18
ENDBRANCH  16  17
ENDBRANCH  15  16
ENDBRANCH  13  15
ENDBRANCH  10  11
ENDBRANCH   9  10
ENDBRANCH   8   9
ENDBRANCH   7   8
ENDBRANCH   6   7
ENDBRANCH   5   6
ENDBRANCH   4   5
ENDBRANCH   3   4
ENDBRANCH   2   3
TORSDOF 14
ENDMDL
MODEL      446
REMARK 921   NORMALIZED FREE ENERGY PREDICTED BY IDOCK:   -2.30 KCAL/MOL
REMARK 922        TOTAL FREE ENERGY PREDICTED BY IDOCK:   -5.11 KCAL/MOL
REMARK 923 INTER-LIGAND FREE ENERGY PREDICTED BY IDOCK:   -4.84 KCAL/MOL
REMARK 924 INTRA-LIGAND FREE ENERGY PREDICTED BY IDOCK:   -0.27 KCAL/MOL
REMARK 927      BINDING AFFINITY PREDICTED BY RF-SCORE:    0.00 PKD
ROOT
HETATM    1  C   UNK     1     -12.568  13.934  65.646  1.00  0.00    -0.517 C  
HETATM    2  O   UNK     1     -11.865  14.027  64.416  1.00  0.00    -0.408 OA 
ENDROOT
BRANCH   2   3
HETATM    3  C   UNK     1     -10.843  13.033  64.321  1.00  0.00    -0.405 C  
BRANCH   3   4
HETATM    4  C   UNK     1     -11.398  11.699  64.804  1.00  0.00    -0.201 C  
BRANCH   4   5
HETATM    5  O   UNK     1     -10.381  10.990  65.508  1.00  0.00    -0.255 OA 
BRANCH   5   6
HETATM    6  C   UNK     1      -9.455  11.881  66.127  1.00  0.00    -0.231 C  
BRANCH   6   7
HETATM    7  C   UNK     1      -8.800  11.178  67.309  1.00  0.00    -0.144 C  
BRANCH   7   8
HETATM    8  C   UNK     1      -9.785  10.930  68.457  1.00  0.00    -0.183 C  
BRANCH   8   9
HETATM    9  C   UNK     1      -9.339   9.738  69.298  1.00  0.00    -0.198 C  
BRANCH   9  10
HETATM   10  C   UNK     1      -8.152  10.074  70.198  1.00  0.00    -0.099 C  
BRANCH  10  11
HETATM   11  C   UNK     1      -7.661   8.840  70.933  1.00  0.00    -0.102 C  
HETATM   12  O   UNK     1      -7.441   8.811  72.140  1.00  0.00    -0.291 OA 
HETATM   13  N   UNK     1      -7.482   7.750  70.111  1.00  0.00    -0.081 N  
HETATM   14  H   UNK     1      -7.641   7.847  69.108  1.00  0.00     0.000 HD 
BRANCH  13  15
HETATM   15  C   UNK     1      -7.071   6.468  70.647  1.00  0.00    -0.069 C  
BRANCH  15  16
HETATM   16  C   UNK     1      -7.957   6.000  71.804  1.00  0.00    -0.107 C  
BRANCH  16  17
HETATM   17  C   UNK     1      -9.329   5.544  71.308  1.00  0.00    -0.176 C  
BRANCH  17  18
HETATM   18  C   UNK     1     -10.377   6.665  71.367  1.00  0.00    -0.225 C  
BRANCH  18  19
HETATM   19  C   UNK     1     -11.032   6.818  72.748  1.00  0.00    -0.270 C  
HETATM   20  N   UNK     1     -10.193   7.658  73.653  1.00  0.00    -0.340 NA 
HETATM   21  C   UNK     1     -11.228   5.443  73.405  1.00  0.00    -0.211 C  
HETATM   22  O   UNK     1     -12.122   4.659  73.147  1.00  0.00    -0.111 OA 
HETATM   23  O   UNK     1     -10.231   5.182  74.296  1.00  0.00    -0.214 OA 
HETATM   24  H1  UNK     1     -10.628   7.761  74.569  1.00  0.00     0.000 HD 
HETATM   25  H2  UNK     1      -9.984   8.565  73.234  1.00  0.00     0.000 HD 
ENDBRANCH  18  19
ENDBRANCH  17  18
ENDBRANCH  16  17
ENDBRANCH  15  16
ENDBRANCH  13  15
ENDBRANCH  10  11
ENDBRANCH   9  10
ENDBRANCH   8   9
ENDBRANCH   7   8
ENDBRANCH   6   7
ENDBRANCH   5   6
ENDBRANCH   4   5
ENDBRANCH   3   4
ENDBRANCH   2   3
TORSDOF 14
ENDMDL
MODEL      447
REMARK 921   NORMALIZED FREE ENERGY PREDICTED BY IDOCK:   -2.27 KCAL/MOL
REMARK 922        TOTAL FREE ENERGY PREDICTED BY IDOCK:   -5.05 KCAL/MOL
REMARK 923 INTER-LIGAND FREE ENERGY PREDICTED BY IDOCK:   -3.61 KCAL/MOL
REMARK 924 INTRA-LIGAND FREE ENERGY PREDICTED BY IDOCK:   -1.44 KCAL/MOL
REMARK 927      BINDING AFFINITY PREDICTED BY RF-SCORE:    0.00 PKD
ROOT
HETATM    1  C   UNK     1      -7.137   7.654  63.845  1.00  0.00    -0.066 C  
HETATM    2  O   UNK     1      -8.052   6.592  64.080  1.00  0.00    -0.104 OA 
ENDROOT
BRANCH   2   3
HETATM    3  C   UNK     1      -8.012   5.627  63.029  1.00  0.00    -0.104 C  
BRANCH   3   4
HETATM    4  C   UNK     1      -9.017   4.521  63.328  1.00  0.00    -0.132 C  
BRANCH   4   5
HETATM    5  O   UNK     1      -8.345   3.424  63.942  1.00  0.00    -0.089 OA 
BRANCH   5   6
HETATM    6  C   UNK     1      -9.040   2.964  65.098  1.00  0.00    -0.148 C  
BRANCH   6   7
HETATM    7  C   UNK     1      -8.703   3.870  66.276  1.00  0.00    -0.115 C  
BRANCH   7   8
HETATM    8  C   UNK     1      -8.069   3.099  67.439  1.00  0.00    -0.081 C  
BRANCH   8   9
HETATM    9  C   UNK     1      -8.873   3.305  68.721  1.00  0.00    -0.165 C  
BRANCH   9  10
HETATM   10  C   UNK     1      -9.951   4.374  68.564  1.00  0.00    -0.070 C  
BRANCH  10  11
HETATM   11  C   UNK     1      -9.822   5.438  69.639  1.00  0.00    -0.193 C  
HETATM   12  O   UNK     1      -8.746   5.882  70.028  1.00  0.00    -0.130 OA 
HETATM   13  N   UNK     1     -11.033   5.858  70.140  1.00  0.00    -0.344 N  
HETATM   14  H   UNK     1     -11.893   5.421  69.806  1.00  0.00     0.000 HD 
BRANCH  13  15
HETATM   15  C   UNK     1     -11.107   6.910  71.135  1.00  0.00    -0.260 C  
BRANCH  15  16
HETATM   16  C   UNK     1     -11.216   8.304  70.513  1.00  0.00    -0.247 C  
BRANCH  16  17
HETATM   17  C   UNK     1     -10.036   9.189  70.914  1.00  0.00    -0.356 C  
BRANCH  17  18
HETATM   18  C   UNK     1      -9.015   9.356  69.780  1.00  0.00    -0.199 C  
BRANCH  18  19
HETATM   19  C   UNK     1      -9.549   8.922  68.406  1.00  0.00    -0.146 C  
HETATM   20  N   UNK     1      -8.571   8.042  67.700  1.00  0.00    -0.130 NA 
HETATM   21  C   UNK     1      -9.823  10.150  67.524  1.00  0.00    -0.177 C  
HETATM   22  O   UNK     1     -10.802  10.868  67.599  1.00  0.00    -0.225 OA 
HETATM   23  O   UNK     1      -8.791  10.371  66.662  1.00  0.00    -0.133 OA 
HETATM   24  H1  UNK     1      -8.925   7.753  66.789  1.00  0.00     0.000 HD 
HETATM   25  H2  UNK     1      -8.309   7.239  68.272  1.00  0.00     0.000 HD 
ENDBRANCH  18  19
ENDBRANCH  17  18
ENDBRANCH  16  17
ENDBRANCH  15  16
ENDBRANCH  13  15
ENDBRANCH  10  11
ENDBRANCH   9  10
ENDBRANCH   8   9
ENDBRANCH   7   8
ENDBRANCH   6   7
ENDBRANCH   5   6
ENDBRANCH   4   5
ENDBRANCH   3   4
ENDBRANCH   2   3
TORSDOF 14
ENDMDL
MODEL      448
REMARK 921   NORMALIZED FREE ENERGY PREDICTED BY IDOCK:   -2.26 KCAL/MOL
REMARK 922        TOTAL FREE ENERGY PREDICTED BY IDOCK:   -5.04 KCAL/MOL
REMARK 923 INTER-LIGAND FREE ENERGY PREDICTED BY IDOCK:   -4.89 KCAL/MOL
REMARK 924 INTRA-LIGAND FREE ENERGY PREDICTED BY IDOCK:   -0.15 KCAL/MOL
REMARK 927      BINDING AFFINITY PREDICTED BY RF-SCORE:    0.00 PKD
ROOT
HETATM    1  C   UNK     1      -9.131   3.320  66.275  1.00  0.00    -0.155 C  
HETATM    2  O   UNK     1      -8.243   3.499  65.181  1.00  0.00    -0.096 OA 
ENDROOT
BRANCH   2   3
HETATM    3  C   UNK     1      -8.187   4.866  64.773  1.00  0.00    -0.126 C  
BRANCH   3   4
HETATM    4  C   UNK     1      -7.052   5.563  65.514  1.00  0.00    -0.066 C  
BRANCH   4   5
HETATM    5  O   UNK     1      -7.596   6.516  66.424  1.00  0.00    -0.087 OA 
BRANCH   5   6
HETATM    6  C   UNK     1      -8.571   7.344  65.795  1.00  0.00    -0.136 C  
BRANCH   6   7
HETATM    7  C   UNK     1      -9.665   7.681  66.800  1.00  0.00    -0.290 C  
BRANCH   7   8
HETATM    8  C   UNK     1     -10.383   8.991  66.461  1.00  0.00    -0.263 C  
BRANCH   8   9
HETATM    9  C   UNK     1      -9.507  10.191  66.812  1.00  0.00    -0.205 C  
BRANCH   9  10
HETATM   10  C   UNK     1      -9.220  10.282  68.308  1.00  0.00    -0.139 C  
BRANCH  10  11
HETATM   11  C   UNK     1      -8.095  11.262  68.587  1.00  0.00    -0.145 C  
HETATM   12  O   UNK     1      -6.958  10.920  68.896  1.00  0.00    -0.070 OA 
HETATM   13  N   UNK     1      -8.474  12.579  68.461  1.00  0.00    -0.327 N  
HETATM   14  H   UNK     1      -9.446  12.802  68.243  1.00  0.00     0.000 HD 
BRANCH  13  15
HETATM   15  C   UNK     1      -7.517  13.653  68.635  1.00  0.00    -0.113 C  
BRANCH  15  16
HETATM   16  C   UNK     1      -7.534  14.653  67.475  1.00  0.00    -0.217 C  
BRANCH  16  17
HETATM   17  C   UNK     1      -8.946  14.843  66.922  1.00  0.00    -0.277 C  
BRANCH  17  18
HETATM   18  C   UNK     1      -9.961  15.208  68.015  1.00  0.00    -0.221 C  
BRANCH  18  19
HETATM   19  C   UNK     1     -11.419  15.167  67.534  1.00  0.00    -0.298 C  
HETATM   20  N   UNK     1     -12.349  14.841  68.655  1.00  0.00    -0.591 NA 
HETATM   21  C   UNK     1     -11.592  14.107  66.435  1.00  0.00    -0.369 C  
HETATM   22  O   UNK     1     -11.285  14.246  65.266  1.00  0.00    -0.313 OA 
HETATM   23  O   UNK     1     -12.098  12.951  66.949  1.00  0.00    -0.388 OA 
HETATM   24  H1  UNK     1     -13.317  14.815  68.336  1.00  0.00     0.000 HD 
HETATM   25  H2  UNK     1     -12.230  15.484  69.439  1.00  0.00     0.000 HD 
ENDBRANCH  18  19
ENDBRANCH  17  18
ENDBRANCH  16  17
ENDBRANCH  15  16
ENDBRANCH  13  15
ENDBRANCH  10  11
ENDBRANCH   9  10
ENDBRANCH   8   9
ENDBRANCH   7   8
ENDBRANCH   6   7
ENDBRANCH   5   6
ENDBRANCH   4   5
ENDBRANCH   3   4
ENDBRANCH   2   3
TORSDOF 14
ENDMDL
MODEL      449
REMARK 921   NORMALIZED FREE ENERGY PREDICTED BY IDOCK:   -2.25 KCAL/MOL
REMARK 922        TOTAL FREE ENERGY PREDICTED BY IDOCK:   -5.03 KCAL/MOL
REMARK 923 INTER-LIGAND FREE ENERGY PREDICTED BY IDOCK:   -4.01 KCAL/MOL
REMARK 924 INTRA-LIGAND FREE ENERGY PREDICTED BY IDOCK:   -1.02 KCAL/MOL
REMARK 927      BINDING AFFINITY PREDICTED BY RF-SCORE:    0.00 PKD
ROOT
HETATM    1  C   UNK     1     -10.046  10.007  69.050  1.00  0.00    -0.200 C  
HETATM    2  O   UNK     1     -10.762   8.788  68.906  1.00  0.00    -0.187 OA 
ENDROOT
BRANCH   2   3
HETATM    3  C   UNK     1     -11.101   8.228  70.175  1.00  0.00    -0.189 C  
BRANCH   3   4
HETATM    4  C   UNK     1     -11.305   9.356  71.180  1.00  0.00    -0.351 C  
BRANCH   4   5
HETATM    5  O   UNK     1     -10.597   9.053  72.380  1.00  0.00    -0.182 OA 
BRANCH   5   6
HETATM    6  C   UNK     1     -10.039   7.742  72.342  1.00  0.00    -0.226 C  
BRANCH   6   7
HETATM    7  C   UNK     1     -10.720   6.878  73.395  1.00  0.00    -0.352 C  
BRANCH   7   8
HETATM    8  C   UNK     1     -10.806   5.407  72.974  1.00  0.00    -0.323 C  
BRANCH   8   9
HETATM    9  C   UNK     1      -9.548   4.991  72.216  1.00  0.00    -0.184 C  
BRANCH   9  10
HETATM   10  C   UNK     1      -9.752   3.711  71.410  1.00  0.00    -0.241 C  
BRANCH  10  11
HETATM   11  C   UNK     1      -9.710   3.995  69.920  1.00  0.00    -0.193 C  
HETATM   12  O   UNK     1      -9.968   5.089  69.430  1.00  0.00    -0.188 OA 
HETATM   13  N   UNK     1      -9.356   2.899  69.166  1.00  0.00    -0.152 N  
HETATM   14  H   UNK     1      -9.194   2.003  69.627  1.00  0.00     0.000 HD 
BRANCH  13  15
HETATM   15  C   UNK     1      -9.209   2.997  67.727  1.00  0.00    -0.199 C  
BRANCH  15  16
HETATM   16  C   UNK     1      -7.816   3.471  67.306  1.00  0.00    -0.079 C  
BRANCH  16  17
HETATM   17  C   UNK     1      -7.713   3.628  65.789  1.00  0.00    -0.085 C  
BRANCH  17  18
HETATM   18  C   UNK     1      -8.669   4.699  65.243  1.00  0.00    -0.137 C  
BRANCH  18  19
HETATM   19  C   UNK     1      -7.992   6.056  64.997  1.00  0.00    -0.125 C  
HETATM   20  N   UNK     1      -6.511   5.908  64.886  1.00  0.00    -0.037 NA 
HETATM   21  C   UNK     1      -8.299   7.026  66.149  1.00  0.00    -0.130 C  
HETATM   22  O   UNK     1      -9.334   7.648  66.290  1.00  0.00    -0.176 OA 
HETATM   23  O   UNK     1      -7.267   7.068  67.038  1.00  0.00    -0.076 OA 
HETATM   24  H1  UNK     1      -6.061   6.808  64.722  1.00  0.00     0.000 HD 
HETATM   25  H2  UNK     1      -6.255   5.226  64.171  1.00  0.00     0.000 HD 
ENDBRANCH  18  19
ENDBRANCH  17  18
ENDBRANCH  16  17
ENDBRANCH  15  16
ENDBRANCH  13  15
ENDBRANCH  10  11
ENDBRANCH   9  10
ENDBRANCH   8   9
ENDBRANCH   7   8
ENDBRANCH   6   7
ENDBRANCH   5   6
ENDBRANCH   4   5
ENDBRANCH   3   4
ENDBRANCH   2   3
TORSDOF 14
ENDMDL
MODEL      450
REMARK 921   NORMALIZED FREE ENERGY PREDICTED BY IDOCK:   -2.25 KCAL/MOL
REMARK 922        TOTAL FREE ENERGY PREDICTED BY IDOCK:   -5.03 KCAL/MOL
REMARK 923 INTER-LIGAND FREE ENERGY PREDICTED BY IDOCK:   -5.24 KCAL/MOL
REMARK 924 INTRA-LIGAND FREE ENERGY PREDICTED BY IDOCK:    0.22 KCAL/MOL
REMARK 927      BINDING AFFINITY PREDICTED BY RF-SCORE:    0.00 PKD
ROOT
HETATM    1  C   UNK     1      -9.492  10.395  65.912  1.00  0.00    -0.189 C  
HETATM    2  O   UNK     1     -10.161   9.165  66.151  1.00  0.00    -0.290 OA 
ENDROOT
BRANCH   2   3
HETATM    3  C   UNK     1      -9.234   8.093  66.330  1.00  0.00    -0.191 C  
BRANCH   3   4
HETATM    4  C   UNK     1      -9.461   7.460  67.697  1.00  0.00    -0.136 C  
BRANCH   4   5
HETATM    5  O   UNK     1      -8.235   7.454  68.425  1.00  0.00    -0.123 OA 
BRANCH   5   6
HETATM    6  C   UNK     1      -8.424   7.872  69.775  1.00  0.00    -0.132 C  
BRANCH   6   7
HETATM    7  C   UNK     1      -9.898   8.186  69.998  1.00  0.00    -0.182 C  
BRANCH   7   8
HETATM    8  C   UNK     1     -10.103   9.425  70.877  1.00  0.00    -0.366 C  
BRANCH   8   9
HETATM    9  C   UNK     1     -11.375  10.166  70.472  1.00  0.00    -0.416 C  
BRANCH   9  10
HETATM   10  C   UNK     1     -11.291  10.732  69.057  1.00  0.00    -0.349 C  
BRANCH  10  11
HETATM   11  C   UNK     1     -10.173  11.752  68.946  1.00  0.00    -0.100 C  
HETATM   12  O   UNK     1      -8.992  11.452  68.803  1.00  0.00    -0.159 OA 
HETATM   13  N   UNK     1     -10.612  13.055  69.023  1.00  0.00    -0.423 N  
HETATM   14  H   UNK     1     -11.602  13.241  69.184  1.00  0.00     0.000 HD 
BRANCH  13  15
HETATM   15  C   UNK     1      -9.691  14.165  68.879  1.00  0.00    -0.080 C  
BRANCH  15  16
HETATM   16  C   UNK     1     -10.194  15.441  69.559  1.00  0.00    -0.273 C  
BRANCH  16  17
HETATM   17  C   UNK     1     -11.617  15.785  69.120  1.00  0.00    -0.399 C  
BRANCH  17  18
HETATM   18  C   UNK     1     -11.686  16.242  67.655  1.00  0.00     0.362 C  
BRANCH  18  19
HETATM   19  C   UNK     1     -10.313  16.314  66.971  1.00  0.00    -0.292 C  
HETATM   20  N   UNK     1     -10.002  17.706  66.529  1.00  0.00    -0.317 NA 
HETATM   21  C   UNK     1     -10.276  15.394  65.741  1.00  0.00    -0.354 C  
HETATM   22  O   UNK     1     -10.121  14.188  65.767  1.00  0.00    -0.310 OA 
HETATM   23  O   UNK     1     -10.492  16.101  64.597  1.00  0.00    -0.526 OA 
HETATM   24  H1  UNK     1      -9.090  17.754  66.076  1.00  0.00     0.000 HD 
HETATM   25  H2  UNK     1     -10.072  18.368  67.302  1.00  0.00     0.000 HD 
ENDBRANCH  18  19
ENDBRANCH  17  18
ENDBRANCH  16  17
ENDBRANCH  15  16
ENDBRANCH  13  15
ENDBRANCH  10  11
ENDBRANCH   9  10
ENDBRANCH   8   9
ENDBRANCH   7   8
ENDBRANCH   6   7
ENDBRANCH   5   6
ENDBRANCH   4   5
ENDBRANCH   3   4
ENDBRANCH   2   3
TORSDOF 14
ENDMDL
MODEL      451
REMARK 921   NORMALIZED FREE ENERGY PREDICTED BY IDOCK:   -2.25 KCAL/MOL
REMARK 922        TOTAL FREE ENERGY PREDICTED BY IDOCK:   -5.02 KCAL/MOL
REMARK 923 INTER-LIGAND FREE ENERGY PREDICTED BY IDOCK:   -3.18 KCAL/MOL
REMARK 924 INTRA-LIGAND FREE ENERGY PREDICTED BY IDOCK:   -1.84 KCAL/MOL
REMARK 927      BINDING AFFINITY PREDICTED BY RF-SCORE:    0.00 PKD
ROOT
HETATM    1  C   UNK     1     -10.475   8.638  67.326  1.00  0.00    -0.289 C  
HETATM    2  O   UNK     1     -10.142   7.357  66.812  1.00  0.00    -0.234 OA 
ENDROOT
BRANCH   2   3
HETATM    3  C   UNK     1     -10.849   6.321  67.494  1.00  0.00    -0.349 C  
BRANCH   3   4
HETATM    4  C   UNK     1     -10.873   6.631  68.986  1.00  0.00    -0.277 C  
BRANCH   4   5
HETATM    5  O   UNK     1     -10.736   5.419  69.724  1.00  0.00    -0.315 OA 
BRANCH   5   6
HETATM    6  C   UNK     1      -9.405   4.912  69.656  1.00  0.00    -0.129 C  
BRANCH   6   7
HETATM    7  C   UNK     1      -9.439   3.398  69.822  1.00  0.00    -0.229 C  
BRANCH   7   8
HETATM    8  C   UNK     1      -9.404   2.664  68.477  1.00  0.00    -0.251 C  
BRANCH   8   9
HETATM    9  C   UNK     1      -8.307   1.602  68.473  1.00  0.00    -0.076 C  
BRANCH   9  10
HETATM   10  C   UNK     1      -7.253   1.861  67.399  1.00  0.00    -0.054 C  
BRANCH  10  11
HETATM   11  C   UNK     1      -6.453   3.111  67.713  1.00  0.00    -0.037 C  
HETATM   12  O   UNK     1      -5.896   3.308  68.789  1.00  0.00    -0.022 OA 
HETATM   13  N   UNK     1      -6.414   4.010  66.672  1.00  0.00    -0.040 N  
HETATM   14  H   UNK     1      -6.932   3.809  65.816  1.00  0.00     0.000 HD 
BRANCH  13  15
HETATM   15  C   UNK     1      -5.648   5.237  66.771  1.00  0.00    -0.017 C  
BRANCH  15  16
HETATM   16  C   UNK     1      -6.523   6.457  67.071  1.00  0.00    -0.046 C  
BRANCH  16  17
HETATM   17  C   UNK     1      -6.395   7.519  65.979  1.00  0.00    -0.042 C  
BRANCH  17  18
HETATM   18  C   UNK     1      -6.146   6.909  64.592  1.00  0.00    -0.036 C  
BRANCH  18  19
HETATM   19  C   UNK     1      -7.428   6.720  63.768  1.00  0.00    -0.091 C  
HETATM   20  N   UNK     1      -8.561   7.504  64.343  1.00  0.00    -0.353 NA 
HETATM   21  C   UNK     1      -7.831   5.237  63.733  1.00  0.00    -0.091 C  
HETATM   22  O   UNK     1      -7.331   4.387  63.021  1.00  0.00    -0.047 OA 
HETATM   23  O   UNK     1      -8.802   4.975  64.652  1.00  0.00    -0.153 OA 
HETATM   24  H1  UNK     1      -9.411   7.379  63.795  1.00  0.00     0.000 HD 
HETATM   25  H2  UNK     1      -8.321   8.490  64.442  1.00  0.00     0.000 HD 
ENDBRANCH  18  19
ENDBRANCH  17  18
ENDBRANCH  16  17
ENDBRANCH  15  16
ENDBRANCH  13  15
ENDBRANCH  10  11
ENDBRANCH   9  10
ENDBRANCH   8   9
ENDBRANCH   7   8
ENDBRANCH   6   7
ENDBRANCH   5   6
ENDBRANCH   4   5
ENDBRANCH   3   4
ENDBRANCH   2   3
TORSDOF 14
ENDMDL
MODEL      452
REMARK 921   NORMALIZED FREE ENERGY PREDICTED BY IDOCK:   -2.23 KCAL/MOL
REMARK 922        TOTAL FREE ENERGY PREDICTED BY IDOCK:   -4.99 KCAL/MOL
REMARK 923 INTER-LIGAND FREE ENERGY PREDICTED BY IDOCK:   -4.30 KCAL/MOL
REMARK 924 INTRA-LIGAND FREE ENERGY PREDICTED BY IDOCK:   -0.69 KCAL/MOL
REMARK 927      BINDING AFFINITY PREDICTED BY RF-SCORE:    0.00 PKD
ROOT
HETATM    1  C   UNK     1      -7.811   3.217  67.787  1.00  0.00    -0.075 C  
HETATM    2  O   UNK     1      -7.993   2.471  66.593  1.00  0.00    -0.078 OA 
ENDROOT
BRANCH   2   3
HETATM    3  C   UNK     1      -6.827   2.513  65.768  1.00  0.00    -0.043 C  
BRANCH   3   4
HETATM    4  C   UNK     1      -7.112   3.375  64.544  1.00  0.00    -0.057 C  
BRANCH   4   5
HETATM    5  O   UNK     1      -8.521   3.539  64.398  1.00  0.00    -0.093 OA 
BRANCH   5   6
HETATM    6  C   UNK     1      -8.847   4.822  63.870  1.00  0.00    -0.112 C  
BRANCH   6   7
HETATM    7  C   UNK     1      -7.978   5.876  64.545  1.00  0.00    -0.126 C  
BRANCH   7   8
HETATM    8  C   UNK     1      -7.775   7.114  63.665  1.00  0.00    -0.119 C  
BRANCH   8   9
HETATM    9  C   UNK     1      -7.607   8.363  64.526  1.00  0.00    -0.106 C  
BRANCH   9  10
HETATM   10  C   UNK     1      -7.967   9.640  63.773  1.00  0.00    -0.143 C  
BRANCH  10  11
HETATM   11  C   UNK     1      -8.957  10.476  64.563  1.00  0.00    -0.209 C  
HETATM   12  O   UNK     1     -10.134  10.615  64.247  1.00  0.00    -0.328 OA 
HETATM   13  N   UNK     1      -8.404  11.071  65.675  1.00  0.00    -0.322 N  
HETATM   14  H   UNK     1      -7.408  10.953  65.864  1.00  0.00     0.000 HD 
BRANCH  13  15
HETATM   15  C   UNK     1      -9.213  11.861  66.582  1.00  0.00    -0.205 C  
BRANCH  15  16
HETATM   16  C   UNK     1      -9.782  11.036  67.738  1.00  0.00    -0.183 C  
BRANCH  16  17
HETATM   17  C   UNK     1     -11.285  11.263  67.901  1.00  0.00    -0.353 C  
BRANCH  17  18
HETATM   18  C   UNK     1     -11.881  10.447  69.056  1.00  0.00    -0.094 C  
BRANCH  18  19
HETATM   19  C   UNK     1     -11.353  10.863  70.437  1.00  0.00    -0.200 C  
HETATM   20  N   UNK     1     -11.052   9.670  71.282  1.00  0.00    -0.365 NA 
HETATM   21  C   UNK     1     -12.389  11.730  71.169  1.00  0.00    -0.224 C  
HETATM   22  O   UNK     1     -12.588  12.913  70.967  1.00  0.00    -0.366 OA 
HETATM   23  O   UNK     1     -13.106  10.986  72.058  1.00  0.00    -0.496 OA 
HETATM   24  H1  UNK     1     -10.701   9.946  72.198  1.00  0.00     0.000 HD 
HETATM   25  H2  UNK     1     -10.412   9.030  70.812  1.00  0.00     0.000 HD 
ENDBRANCH  18  19
ENDBRANCH  17  18
ENDBRANCH  16  17
ENDBRANCH  15  16
ENDBRANCH  13  15
ENDBRANCH  10  11
ENDBRANCH   9  10
ENDBRANCH   8   9
ENDBRANCH   7   8
ENDBRANCH   6   7
ENDBRANCH   5   6
ENDBRANCH   4   5
ENDBRANCH   3   4
ENDBRANCH   2   3
TORSDOF 14
ENDMDL
MODEL      453
REMARK 921   NORMALIZED FREE ENERGY PREDICTED BY IDOCK:   -2.23 KCAL/MOL
REMARK 922        TOTAL FREE ENERGY PREDICTED BY IDOCK:   -4.98 KCAL/MOL
REMARK 923 INTER-LIGAND FREE ENERGY PREDICTED BY IDOCK:   -4.12 KCAL/MOL
REMARK 924 INTRA-LIGAND FREE ENERGY PREDICTED BY IDOCK:   -0.87 KCAL/MOL
REMARK 927      BINDING AFFINITY PREDICTED BY RF-SCORE:    0.00 PKD
ROOT
HETATM    1  C   UNK     1      -8.806  19.840  67.076  1.00  0.00    -0.326 C  
HETATM    2  O   UNK     1      -9.392  18.719  67.723  1.00  0.00    -0.286 OA 
ENDROOT
BRANCH   2   3
HETATM    3  C   UNK     1      -9.011  17.495  67.094  1.00  0.00    -0.238 C  
BRANCH   3   4
HETATM    4  C   UNK     1      -8.502  16.526  68.155  1.00  0.00    -0.191 C  
BRANCH   4   5
HETATM    5  O   UNK     1      -9.562  15.660  68.552  1.00  0.00    -0.192 OA 
BRANCH   5   6
HETATM    6  C   UNK     1      -9.205  14.288  68.390  1.00  0.00    -0.196 C  
BRANCH   6   7
HETATM    7  C   UNK     1      -7.836  14.052  69.015  1.00  0.00     0.023 C  
BRANCH   7   8
HETATM    8  C   UNK     1      -7.022  13.002  68.252  1.00  0.00    -0.101 C  
BRANCH   8   9
HETATM    9  C   UNK     1      -6.532  11.909  69.198  1.00  0.00    -0.098 C  
BRANCH   9  10
HETATM   10  C   UNK     1      -7.544  10.777  69.350  1.00  0.00    -0.114 C  
BRANCH  10  11
HETATM   11  C   UNK     1      -7.746  10.049  68.033  1.00  0.00    -0.089 C  
HETATM   12  O   UNK     1      -6.831   9.551  67.386  1.00  0.00    -0.081 OA 
HETATM   13  N   UNK     1      -9.062  10.004  67.631  1.00  0.00    -0.134 N  
HETATM   14  H   UNK     1      -9.774  10.473  68.191  1.00  0.00     0.000 HD 
BRANCH  13  15
HETATM   15  C   UNK     1      -9.452   9.300  66.425  1.00  0.00    -0.218 C  
BRANCH  15  16
HETATM   16  C   UNK     1      -9.789   7.829  66.682  1.00  0.00    -0.295 C  
BRANCH  16  17
HETATM   17  C   UNK     1     -10.707   7.670  67.894  1.00  0.00    -0.176 C  
BRANCH  17  18
HETATM   18  C   UNK     1     -10.043   6.887  69.036  1.00  0.00    -0.175 C  
BRANCH  18  19
HETATM   19  C   UNK     1     -10.196   7.559  70.408  1.00  0.00    -0.202 C  
HETATM   20  N   UNK     1      -8.955   7.408  71.225  1.00  0.00    -0.138 NA 
HETATM   21  C   UNK     1     -11.367   6.935  71.184  1.00  0.00    -0.290 C  
HETATM   22  O   UNK     1     -12.544   7.188  71.008  1.00  0.00    -0.357 OA 
HETATM   23  O   UNK     1     -10.921   6.009  72.078  1.00  0.00    -0.240 OA 
HETATM   24  H1  UNK     1      -9.057   7.855  72.136  1.00  0.00     0.000 HD 
HETATM   25  H2  UNK     1      -8.135   7.755  70.727  1.00  0.00     0.000 HD 
ENDBRANCH  18  19
ENDBRANCH  17  18
ENDBRANCH  16  17
ENDBRANCH  15  16
ENDBRANCH  13  15
ENDBRANCH  10  11
ENDBRANCH   9  10
ENDBRANCH   8   9
ENDBRANCH   7   8
ENDBRANCH   6   7
ENDBRANCH   5   6
ENDBRANCH   4   5
ENDBRANCH   3   4
ENDBRANCH   2   3
TORSDOF 14
ENDMDL
MODEL      454
REMARK 921   NORMALIZED FREE ENERGY PREDICTED BY IDOCK:   -2.21 KCAL/MOL
REMARK 922        TOTAL FREE ENERGY PREDICTED BY IDOCK:   -4.95 KCAL/MOL
REMARK 923 INTER-LIGAND FREE ENERGY PREDICTED BY IDOCK:   -3.72 KCAL/MOL
REMARK 924 INTRA-LIGAND FREE ENERGY PREDICTED BY IDOCK:   -1.23 KCAL/MOL
REMARK 927      BINDING AFFINITY PREDICTED BY RF-SCORE:    0.00 PKD
ROOT
HETATM    1  C   UNK     1     -10.534   8.658  67.145  1.00  0.00    -0.289 C  
HETATM    2  O   UNK     1     -10.322   7.348  66.638  1.00  0.00    -0.252 OA 
ENDROOT
BRANCH   2   3
HETATM    3  C   UNK     1     -11.083   6.379  67.361  1.00  0.00    -0.322 C  
BRANCH   3   4
HETATM    4  C   UNK     1     -10.997   6.688  68.851  1.00  0.00    -0.267 C  
BRANCH   4   5
HETATM    5  O   UNK     1     -10.740   5.483  69.569  1.00  0.00    -0.310 OA 
BRANCH   5   6
HETATM    6  C   UNK     1      -9.391   5.053  69.404  1.00  0.00    -0.124 C  
BRANCH   6   7
HETATM    7  C   UNK     1      -9.341   3.532  69.464  1.00  0.00    -0.243 C  
BRANCH   7   8
HETATM    8  C   UNK     1      -9.502   2.889  68.082  1.00  0.00    -0.220 C  
BRANCH   8   9
HETATM    9  C   UNK     1      -8.342   1.940  67.794  1.00  0.00    -0.081 C  
BRANCH   9  10
HETATM   10  C   UNK     1      -7.572   2.330  66.535  1.00  0.00    -0.070 C  
BRANCH  10  11
HETATM   11  C   UNK     1      -6.720   3.562  66.780  1.00  0.00    -0.049 C  
HETATM   12  O   UNK     1      -5.833   3.617  67.625  1.00  0.00    -0.021 OA 
HETATM   13  N   UNK     1      -7.042   4.620  65.960  1.00  0.00    -0.073 N  
HETATM   14  H   UNK     1      -7.818   4.528  65.304  1.00  0.00     0.000 HD 
BRANCH  13  15
HETATM   15  C   UNK     1      -6.295   5.861  66.013  1.00  0.00    -0.042 C  
BRANCH  15  16
HETATM   16  C   UNK     1      -6.945   6.903  66.927  1.00  0.00    -0.070 C  
BRANCH  16  17
HETATM   17  C   UNK     1      -6.943   8.290  66.284  1.00  0.00    -0.066 C  
BRANCH  17  18
HETATM   18  C   UNK     1      -7.279   8.244  64.786  1.00  0.00    -0.082 C  
BRANCH  18  19
HETATM   19  C   UNK     1      -7.250   9.622  64.109  1.00  0.00    -0.122 C  
HETATM   20  N   UNK     1      -6.660  10.654  65.012  1.00  0.00    -0.349 NA 
HETATM   21  C   UNK     1      -8.673  10.064  63.730  1.00  0.00    -0.217 C  
HETATM   22  O   UNK     1      -9.295   9.678  62.758  1.00  0.00    -0.247 OA 
HETATM   23  O   UNK     1      -9.181  10.920  64.659  1.00  0.00    -0.201 OA 
HETATM   24  H1  UNK     1      -6.641  11.570  64.563  1.00  0.00     0.000 HD 
HETATM   25  H2  UNK     1      -5.735  10.379  65.342  1.00  0.00     0.000 HD 
ENDBRANCH  18  19
ENDBRANCH  17  18
ENDBRANCH  16  17
ENDBRANCH  15  16
ENDBRANCH  13  15
ENDBRANCH  10  11
ENDBRANCH   9  10
ENDBRANCH   8   9
ENDBRANCH   7   8
ENDBRANCH   6   7
ENDBRANCH   5   6
ENDBRANCH   4   5
ENDBRANCH   3   4
ENDBRANCH   2   3
TORSDOF 14
ENDMDL
MODEL      455
REMARK 921   NORMALIZED FREE ENERGY PREDICTED BY IDOCK:   -2.18 KCAL/MOL
REMARK 922        TOTAL FREE ENERGY PREDICTED BY IDOCK:   -4.89 KCAL/MOL
REMARK 923 INTER-LIGAND FREE ENERGY PREDICTED BY IDOCK:   -4.18 KCAL/MOL
REMARK 924 INTRA-LIGAND FREE ENERGY PREDICTED BY IDOCK:   -0.71 KCAL/MOL
REMARK 927      BINDING AFFINITY PREDICTED BY RF-SCORE:    0.00 PKD
ROOT
HETATM    1  C   UNK     1     -10.154   9.707  68.770  1.00  0.00    -0.179 C  
HETATM    2  O   UNK     1     -10.694   8.395  68.713  1.00  0.00    -0.168 OA 
ENDROOT
BRANCH   2   3
HETATM    3  C   UNK     1     -10.981   7.891  70.018  1.00  0.00    -0.207 C  
BRANCH   3   4
HETATM    4  C   UNK     1     -11.408   9.046  70.916  1.00  0.00    -0.293 C  
BRANCH   4   5
HETATM    5  O   UNK     1     -10.570   9.085  72.069  1.00  0.00    -0.345 OA 
BRANCH   5   6
HETATM    6  C   UNK     1     -10.012   7.804  72.354  1.00  0.00    -0.214 C  
BRANCH   6   7
HETATM    7  C   UNK     1     -10.827   7.137  73.454  1.00  0.00    -0.360 C  
BRANCH   7   8
HETATM    8  C   UNK     1     -10.853   5.611  73.316  1.00  0.00    -0.321 C  
BRANCH   8   9
HETATM    9  C   UNK     1      -9.543   5.104  72.718  1.00  0.00    -0.165 C  
BRANCH   9  10
HETATM   10  C   UNK     1      -9.667   3.684  72.171  1.00  0.00    -0.231 C  
BRANCH  10  11
HETATM   11  C   UNK     1      -9.786   3.692  70.658  1.00  0.00    -0.145 C  
HETATM   12  O   UNK     1     -10.178   4.660  70.014  1.00  0.00    -0.234 OA 
HETATM   13  N   UNK     1      -9.412   2.503  70.075  1.00  0.00    -0.109 N  
HETATM   14  H   UNK     1      -9.135   1.719  70.666  1.00  0.00     0.000 HD 
BRANCH  13  15
HETATM   15  C   UNK     1      -9.407   2.346  68.633  1.00  0.00    -0.182 C  
BRANCH  15  16
HETATM   16  C   UNK     1      -8.101   2.822  67.992  1.00  0.00    -0.069 C  
BRANCH  16  17
HETATM   17  C   UNK     1      -8.313   4.093  67.171  1.00  0.00    -0.100 C  
BRANCH  17  18
HETATM   18  C   UNK     1      -7.782   3.963  65.736  1.00  0.00    -0.089 C  
BRANCH  18  19
HETATM   19  C   UNK     1      -8.891   3.819  64.684  1.00  0.00    -0.120 C  
HETATM   20  N   UNK     1     -10.201   3.492  65.321  1.00  0.00    -0.404 NA 
HETATM   21  C   UNK     1      -8.543   2.702  63.686  1.00  0.00    -0.086 C  
HETATM   22  O   UNK     1      -7.770   2.806  62.754  1.00  0.00    -0.059 OA 
HETATM   23  O   UNK     1      -9.184   1.544  64.010  1.00  0.00    -0.102 OA 
HETATM   24  H1  UNK     1     -10.938   3.397  64.623  1.00  0.00     0.000 HD 
HETATM   25  H2  UNK     1     -10.450   4.175  66.037  1.00  0.00     0.000 HD 
ENDBRANCH  18  19
ENDBRANCH  17  18
ENDBRANCH  16  17
ENDBRANCH  15  16
ENDBRANCH  13  15
ENDBRANCH  10  11
ENDBRANCH   9  10
ENDBRANCH   8   9
ENDBRANCH   7   8
ENDBRANCH   6   7
ENDBRANCH   5   6
ENDBRANCH   4   5
ENDBRANCH   3   4
ENDBRANCH   2   3
TORSDOF 14
ENDMDL
MODEL      456
REMARK 921   NORMALIZED FREE ENERGY PREDICTED BY IDOCK:   -2.17 KCAL/MOL
REMARK 922        TOTAL FREE ENERGY PREDICTED BY IDOCK:   -4.88 KCAL/MOL
REMARK 923 INTER-LIGAND FREE ENERGY PREDICTED BY IDOCK:   -4.31 KCAL/MOL
REMARK 924 INTRA-LIGAND FREE ENERGY PREDICTED BY IDOCK:   -0.57 KCAL/MOL
REMARK 927      BINDING AFFINITY PREDICTED BY RF-SCORE:    0.00 PKD
ROOT
HETATM    1  C   UNK     1      -8.779   4.910  64.457  1.00  0.00    -0.148 C  
HETATM    2  O   UNK     1      -7.852   5.047  65.524  1.00  0.00    -0.089 OA 
ENDROOT
BRANCH   2   3
HETATM    3  C   UNK     1      -7.716   3.829  66.257  1.00  0.00    -0.089 C  
BRANCH   3   4
HETATM    4  C   UNK     1      -8.866   3.711  67.249  1.00  0.00    -0.127 C  
BRANCH   4   5
HETATM    5  O   UNK     1      -8.342   3.599  68.570  1.00  0.00    -0.076 OA 
BRANCH   5   6
HETATM    6  C   UNK     1      -8.887   4.593  69.436  1.00  0.00    -0.088 C  
BRANCH   6   7
HETATM    7  C   UNK     1      -9.747   3.916  70.495  1.00  0.00    -0.247 C  
BRANCH   7   8
HETATM    8  C   UNK     1      -9.099   3.958  71.884  1.00  0.00    -0.165 C  
BRANCH   8   9
HETATM    9  C   UNK     1      -8.356   5.275  72.091  1.00  0.00    -0.125 C  
BRANCH   9  10
HETATM   10  C   UNK     1      -9.251   6.358  72.687  1.00  0.00    -0.138 C  
BRANCH  10  11
HETATM   11  C   UNK     1      -8.842   7.733  72.190  1.00  0.00    -0.133 C  
HETATM   12  O   UNK     1      -8.355   8.598  72.911  1.00  0.00    -0.400 OA 
HETATM   13  N   UNK     1      -9.074   7.920  70.846  1.00  0.00    -0.150 N  
HETATM   14  H   UNK     1      -9.521   7.178  70.307  1.00  0.00     0.000 HD 
BRANCH  13  15
HETATM   15  C   UNK     1      -8.695   9.153  70.185  1.00  0.00    -0.181 C  
BRANCH  15  16
HETATM   16  C   UNK     1      -9.723   9.607  69.146  1.00  0.00    -0.180 C  
BRANCH  16  17
HETATM   17  C   UNK     1     -11.007  10.102  69.810  1.00  0.00    -0.325 C  
BRANCH  17  18
HETATM   18  C   UNK     1     -11.076  11.634  69.888  1.00  0.00    -0.028 C  
BRANCH  18  19
HETATM   19  C   UNK     1     -11.677  12.284  68.632  1.00  0.00    -0.328 C  
HETATM   20  N   UNK     1     -12.030  11.257  67.609  1.00  0.00    -0.607 NA 
HETATM   21  C   UNK     1     -10.677  13.270  68.007  1.00  0.00    -0.240 C  
HETATM   22  O   UNK     1     -10.461  14.400  68.402  1.00  0.00    -0.233 OA 
HETATM   23  O   UNK     1     -10.015  12.696  66.964  1.00  0.00    -0.214 OA 
HETATM   24  H1  UNK     1     -12.430  11.688  66.776  1.00  0.00     0.000 HD 
HETATM   25  H2  UNK     1     -12.648  10.542  67.994  1.00  0.00     0.000 HD 
ENDBRANCH  18  19
ENDBRANCH  17  18
ENDBRANCH  16  17
ENDBRANCH  15  16
ENDBRANCH  13  15
ENDBRANCH  10  11
ENDBRANCH   9  10
ENDBRANCH   8   9
ENDBRANCH   7   8
ENDBRANCH   6   7
ENDBRANCH   5   6
ENDBRANCH   4   5
ENDBRANCH   3   4
ENDBRANCH   2   3
TORSDOF 14
ENDMDL
MODEL      457
REMARK 921   NORMALIZED FREE ENERGY PREDICTED BY IDOCK:   -2.16 KCAL/MOL
REMARK 922        TOTAL FREE ENERGY PREDICTED BY IDOCK:   -4.85 KCAL/MOL
REMARK 923 INTER-LIGAND FREE ENERGY PREDICTED BY IDOCK:   -3.96 KCAL/MOL
REMARK 924 INTRA-LIGAND FREE ENERGY PREDICTED BY IDOCK:   -0.89 KCAL/MOL
REMARK 927      BINDING AFFINITY PREDICTED BY RF-SCORE:    0.00 PKD
ROOT
HETATM    1  C   UNK     1     -11.890  13.446  66.800  1.00  0.00    -0.403 C  
HETATM    2  O   UNK     1     -10.848  14.373  66.532  1.00  0.00    -0.301 OA 
ENDROOT
BRANCH   2   3
HETATM    3  C   UNK     1      -9.625  13.708  66.214  1.00  0.00    -0.239 C  
BRANCH   3   4
HETATM    4  C   UNK     1      -9.925  12.257  65.855  1.00  0.00    -0.254 C  
BRANCH   4   5
HETATM    5  O   UNK     1      -9.128  11.395  66.664  1.00  0.00    -0.170 OA 
BRANCH   5   6
HETATM    6  C   UNK     1      -8.436  12.121  67.678  1.00  0.00    -0.163 C  
BRANCH   6   7
HETATM    7  C   UNK     1      -8.174  11.198  68.861  1.00  0.00    -0.104 C  
BRANCH   7   8
HETATM    8  C   UNK     1      -9.432  10.437  69.295  1.00  0.00    -0.214 C  
BRANCH   8   9
HETATM    9  C   UNK     1      -9.063   9.068  69.859  1.00  0.00    -0.176 C  
BRANCH   9  10
HETATM   10  C   UNK     1     -10.158   8.494  70.754  1.00  0.00    -0.237 C  
BRANCH  10  11
HETATM   11  C   UNK     1     -10.655   7.163  70.220  1.00  0.00    -0.227 C  
HETATM   12  O   UNK     1     -11.668   6.604  70.627  1.00  0.00    -0.361 OA 
HETATM   13  N   UNK     1      -9.854   6.639  69.231  1.00  0.00    -0.149 N  
HETATM   14  H   UNK     1      -9.000   7.130  68.963  1.00  0.00     0.000 HD 
BRANCH  13  15
HETATM   15  C   UNK     1     -10.203   5.400  68.563  1.00  0.00    -0.169 C  
BRANCH  15  16
HETATM   16  C   UNK     1     -10.477   5.591  67.069  1.00  0.00    -0.336 C  
BRANCH  16  17
HETATM   17  C   UNK     1      -9.327   6.325  66.380  1.00  0.00    -0.176 C  
BRANCH  17  18
HETATM   18  C   UNK     1      -9.766   7.664  65.770  1.00  0.00     0.437 C  
BRANCH  18  19
HETATM   19  C   UNK     1      -8.591   8.574  65.381  1.00  0.00    -0.176 C  
HETATM   20  N   UNK     1      -8.422   8.633  63.899  1.00  0.00    -0.362 NA 
HETATM   21  C   UNK     1      -7.283   8.056  66.000  1.00  0.00    -0.069 C  
HETATM   22  O   UNK     1      -6.936   8.220  67.154  1.00  0.00    -0.072 OA 
HETATM   23  O   UNK     1      -6.567   7.334  65.093  1.00  0.00    -0.043 OA 
HETATM   24  H1  UNK     1      -7.642   9.237  63.641  1.00  0.00     0.000 HD 
HETATM   25  H2  UNK     1      -9.285   8.915  63.434  1.00  0.00     0.000 HD 
ENDBRANCH  18  19
ENDBRANCH  17  18
ENDBRANCH  16  17
ENDBRANCH  15  16
ENDBRANCH  13  15
ENDBRANCH  10  11
ENDBRANCH   9  10
ENDBRANCH   8   9
ENDBRANCH   7   8
ENDBRANCH   6   7
ENDBRANCH   5   6
ENDBRANCH   4   5
ENDBRANCH   3   4
ENDBRANCH   2   3
TORSDOF 14
ENDMDL
MODEL      458
REMARK 921   NORMALIZED FREE ENERGY PREDICTED BY IDOCK:   -2.15 KCAL/MOL
REMARK 922        TOTAL FREE ENERGY PREDICTED BY IDOCK:   -4.83 KCAL/MOL
REMARK 923 INTER-LIGAND FREE ENERGY PREDICTED BY IDOCK:   -4.51 KCAL/MOL
REMARK 924 INTRA-LIGAND FREE ENERGY PREDICTED BY IDOCK:   -0.32 KCAL/MOL
REMARK 927      BINDING AFFINITY PREDICTED BY RF-SCORE:    0.00 PKD
ROOT
HETATM    1  C   UNK     1     -10.956   4.187  64.632  1.00  0.00    -0.027 C  
HETATM    2  O   UNK     1     -10.231   3.481  63.636  1.00  0.00    -0.176 OA 
ENDROOT
BRANCH   2   3
HETATM    3  C   UNK     1      -8.998   4.132  63.327  1.00  0.00    -0.119 C  
BRANCH   3   4
HETATM    4  C   UNK     1      -8.222   4.369  64.617  1.00  0.00    -0.106 C  
BRANCH   4   5
HETATM    5  O   UNK     1      -7.459   5.567  64.497  1.00  0.00    -0.062 OA 
BRANCH   5   6
HETATM    6  C   UNK     1      -7.738   6.475  65.561  1.00  0.00    -0.097 C  
BRANCH   6   7
HETATM    7  C   UNK     1      -8.135   7.824  64.975  1.00  0.00    -0.139 C  
BRANCH   7   8
HETATM    8  C   UNK     1      -9.519   8.280  65.450  1.00  0.00     0.345 C  
BRANCH   8   9
HETATM    9  C   UNK     1     -10.023   7.381  66.576  1.00  0.00    -0.194 C  
BRANCH   9  10
HETATM   10  C   UNK     1      -9.310   7.651  67.898  1.00  0.00    -0.146 C  
BRANCH  10  11
HETATM   11  C   UNK     1      -9.714   8.999  68.468  1.00  0.00    -0.159 C  
HETATM   12  O   UNK     1     -10.649   9.154  69.246  1.00  0.00    -0.223 OA 
HETATM   13  N   UNK     1      -8.927  10.037  68.023  1.00  0.00    -0.128 N  
HETATM   14  H   UNK     1      -8.190   9.852  67.343  1.00  0.00     0.000 HD 
BRANCH  13  15
HETATM   15  C   UNK     1      -9.130  11.389  68.505  1.00  0.00    -0.169 C  
BRANCH  15  16
HETATM   16  C   UNK     1      -9.753  12.306  67.449  1.00  0.00    -0.185 C  
BRANCH  16  17
HETATM   17  C   UNK     1     -11.091  11.759  66.953  1.00  0.00    -0.361 C  
BRANCH  17  18
HETATM   18  C   UNK     1     -11.241  11.866  65.429  1.00  0.00    -0.351 C  
BRANCH  18  19
HETATM   19  C   UNK     1     -12.537  12.564  64.989  1.00  0.00    -0.345 C  
HETATM   20  N   UNK     1     -12.838  12.288  63.554  1.00  0.00    -0.796 NA 
HETATM   21  C   UNK     1     -12.417  14.085  65.178  1.00  0.00    -0.452 C  
HETATM   22  O   UNK     1     -12.540  14.677  66.233  1.00  0.00    -0.151 OA 
HETATM   23  O   UNK     1     -12.102  14.698  64.002  1.00  0.00    -0.471 OA 
HETATM   24  H1  UNK     1     -13.699  12.752  63.262  1.00  0.00     0.000 HD 
HETATM   25  H2  UNK     1     -12.869  11.286  63.364  1.00  0.00     0.000 HD 
ENDBRANCH  18  19
ENDBRANCH  17  18
ENDBRANCH  16  17
ENDBRANCH  15  16
ENDBRANCH  13  15
ENDBRANCH  10  11
ENDBRANCH   9  10
ENDBRANCH   8   9
ENDBRANCH   7   8
ENDBRANCH   6   7
ENDBRANCH   5   6
ENDBRANCH   4   5
ENDBRANCH   3   4
ENDBRANCH   2   3
TORSDOF 14
ENDMDL
MODEL      459
REMARK 921   NORMALIZED FREE ENERGY PREDICTED BY IDOCK:   -2.15 KCAL/MOL
REMARK 922        TOTAL FREE ENERGY PREDICTED BY IDOCK:   -4.83 KCAL/MOL
REMARK 923 INTER-LIGAND FREE ENERGY PREDICTED BY IDOCK:   -4.06 KCAL/MOL
REMARK 924 INTRA-LIGAND FREE ENERGY PREDICTED BY IDOCK:   -0.77 KCAL/MOL
REMARK 927      BINDING AFFINITY PREDICTED BY RF-SCORE:    0.00 PKD
ROOT
HETATM    1  C   UNK     1     -10.666   4.355  65.144  1.00  0.00    -0.113 C  
HETATM    2  O   UNK     1     -10.015   3.708  64.060  1.00  0.00    -0.161 OA 
ENDROOT
BRANCH   2   3
HETATM    3  C   UNK     1      -8.689   4.205  63.876  1.00  0.00    -0.119 C  
BRANCH   3   4
HETATM    4  C   UNK     1      -7.982   4.251  65.225  1.00  0.00    -0.100 C  
BRANCH   4   5
HETATM    5  O   UNK     1      -7.420   5.547  65.421  1.00  0.00    -0.071 OA 
BRANCH   5   6
HETATM    6  C   UNK     1      -7.713   6.054  66.721  1.00  0.00    -0.100 C  
BRANCH   6   7
HETATM    7  C   UNK     1      -8.287   7.459  66.592  1.00  0.00    -0.124 C  
BRANCH   7   8
HETATM    8  C   UNK     1      -8.474   8.139  67.953  1.00  0.00    -0.132 C  
BRANCH   8   9
HETATM    9  C   UNK     1      -7.463   7.605  68.963  1.00  0.00    -0.095 C  
BRANCH   9  10
HETATM   10  C   UNK     1      -6.272   8.543  69.143  1.00  0.00    -0.043 C  
BRANCH  10  11
HETATM   11  C   UNK     1      -6.724   9.904  69.643  1.00  0.00    -0.061 C  
HETATM   12  O   UNK     1      -7.306  10.076  70.709  1.00  0.00    -0.323 OA 
HETATM   13  N   UNK     1      -6.418  10.931  68.780  1.00  0.00    -0.051 N  
HETATM   14  H   UNK     1      -5.970  10.720  67.887  1.00  0.00     0.000 HD 
BRANCH  13  15
HETATM   15  C   UNK     1      -6.722  12.308  69.117  1.00  0.00    -0.095 C  
BRANCH  15  16
HETATM   16  C   UNK     1      -7.606  12.992  68.071  1.00  0.00    -0.139 C  
BRANCH  16  17
HETATM   17  C   UNK     1      -9.052  12.504  68.155  1.00  0.00    -0.204 C  
BRANCH  17  18
HETATM   18  C   UNK     1      -9.849  12.805  66.878  1.00  0.00    -0.236 C  
BRANCH  18  19
HETATM   19  C   UNK     1     -11.354  12.993  67.126  1.00  0.00    -0.305 C  
HETATM   20  N   UNK     1     -12.159  12.034  66.315  1.00  0.00    -0.528 NA 
HETATM   21  C   UNK     1     -11.783  14.422  66.758  1.00  0.00    -0.397 C  
HETATM   22  O   UNK     1     -11.618  15.409  67.449  1.00  0.00    -0.269 OA 
HETATM   23  O   UNK     1     -12.341  14.458  65.515  1.00  0.00    -0.392 OA 
HETATM   24  H1  UNK     1     -13.157  12.158  66.480  1.00  0.00     0.000 HD 
HETATM   25  H2  UNK     1     -11.870  11.069  66.480  1.00  0.00     0.000 HD 
ENDBRANCH  18  19
ENDBRANCH  17  18
ENDBRANCH  16  17
ENDBRANCH  15  16
ENDBRANCH  13  15
ENDBRANCH  10  11
ENDBRANCH   9  10
ENDBRANCH   8   9
ENDBRANCH   7   8
ENDBRANCH   6   7
ENDBRANCH   5   6
ENDBRANCH   4   5
ENDBRANCH   3   4
ENDBRANCH   2   3
TORSDOF 14
ENDMDL
MODEL      460
REMARK 921   NORMALIZED FREE ENERGY PREDICTED BY IDOCK:   -2.12 KCAL/MOL
REMARK 922        TOTAL FREE ENERGY PREDICTED BY IDOCK:   -4.79 KCAL/MOL
REMARK 923 INTER-LIGAND FREE ENERGY PREDICTED BY IDOCK:   -4.13 KCAL/MOL
REMARK 924 INTRA-LIGAND FREE ENERGY PREDICTED BY IDOCK:   -0.66 KCAL/MOL
REMARK 927      BINDING AFFINITY PREDICTED BY RF-SCORE:    0.00 PKD
ROOT
HETATM    1  C   UNK     1      -7.918   6.519  64.456  1.00  0.00    -0.110 C  
HETATM    2  O   UNK     1      -7.298   5.819  65.525  1.00  0.00    -0.072 OA 
ENDROOT
BRANCH   2   3
HETATM    3  C   UNK     1      -7.891   4.535  65.721  1.00  0.00    -0.095 C  
BRANCH   3   4
HETATM    4  C   UNK     1      -9.354   4.715  66.106  1.00  0.00    -0.153 C  
BRANCH   4   5
HETATM    5  O   UNK     1      -9.461   4.816  67.524  1.00  0.00    -0.131 OA 
BRANCH   5   6
HETATM    6  C   UNK     1     -10.140   6.008  67.914  1.00  0.00    -0.155 C  
BRANCH   6   7
HETATM    7  C   UNK     1     -10.952   5.732  69.173  1.00  0.00    -0.308 C  
BRANCH   7   8
HETATM    8  C   UNK     1     -10.218   6.166  70.446  1.00  0.00    -0.256 C  
BRANCH   8   9
HETATM    9  C   UNK     1      -8.949   6.938  70.098  1.00  0.00    -0.149 C  
BRANCH   9  10
HETATM   10  C   UNK     1      -9.086   8.434  70.369  1.00  0.00    -0.155 C  
BRANCH  10  11
HETATM   11  C   UNK     1      -8.233   9.241  69.407  1.00  0.00    -0.114 C  
HETATM   12  O   UNK     1      -7.368  10.032  69.768  1.00  0.00    -0.105 OA 
HETATM   13  N   UNK     1      -8.527   9.001  68.084  1.00  0.00    -0.128 N  
HETATM   14  H   UNK     1      -9.287   8.363  67.846  1.00  0.00     0.000 HD 
BRANCH  13  15
HETATM   15  C   UNK     1      -7.774   9.641  67.023  1.00  0.00    -0.095 C  
BRANCH  15  16
HETATM   16  C   UNK     1      -8.549   9.705  65.704  1.00  0.00    -0.149 C  
BRANCH  16  17
HETATM   17  C   UNK     1      -9.425  10.955  65.631  1.00  0.00    -0.252 C  
BRANCH  17  18
HETATM   18  C   UNK     1     -10.842  10.650  65.124  1.00  0.00     0.040 C  
BRANCH  18  19
HETATM   19  C   UNK     1     -11.314  11.604  64.016  1.00  0.00    -0.345 C  
HETATM   20  N   UNK     1     -10.276  12.632  63.710  1.00  0.00    -0.516 NA 
HETATM   21  C   UNK     1     -12.603  12.326  64.442  1.00  0.00    -0.354 C  
HETATM   22  O   UNK     1     -13.721  11.849  64.410  1.00  0.00    -0.139 OA 
HETATM   23  O   UNK     1     -12.328  13.574  64.914  1.00  0.00    -0.391 OA 
HETATM   24  H1  UNK     1     -10.588  13.264  62.974  1.00  0.00     0.000 HD 
HETATM   25  H2  UNK     1      -9.380  12.202  63.478  1.00  0.00     0.000 HD 
ENDBRANCH  18  19
ENDBRANCH  17  18
ENDBRANCH  16  17
ENDBRANCH  15  16
ENDBRANCH  13  15
ENDBRANCH  10  11
ENDBRANCH   9  10
ENDBRANCH   8   9
ENDBRANCH   7   8
ENDBRANCH   6   7
ENDBRANCH   5   6
ENDBRANCH   4   5
ENDBRANCH   3   4
ENDBRANCH   2   3
TORSDOF 14
ENDMDL
MODEL      461
REMARK 921   NORMALIZED FREE ENERGY PREDICTED BY IDOCK:   -2.12 KCAL/MOL
REMARK 922        TOTAL FREE ENERGY PREDICTED BY IDOCK:   -4.79 KCAL/MOL
REMARK 923 INTER-LIGAND FREE ENERGY PREDICTED BY IDOCK:   -4.25 KCAL/MOL
REMARK 924 INTRA-LIGAND FREE ENERGY PREDICTED BY IDOCK:   -0.54 KCAL/MOL
REMARK 927      BINDING AFFINITY PREDICTED BY RF-SCORE:    0.00 PKD
ROOT
HETATM    1  C   UNK     1     -11.065   7.957  72.484  1.00  0.00    -0.362 C  
HETATM    2  O   UNK     1     -11.781   8.759  71.555  1.00  0.00    -0.271 OA 
ENDROOT
BRANCH   2   3
HETATM    3  C   UNK     1     -11.098   9.984  71.287  1.00  0.00    -0.114 C  
BRANCH   3   4
HETATM    4  C   UNK     1     -10.740  10.042  69.807  1.00  0.00    -0.271 C  
BRANCH   4   5
HETATM    5  O   UNK     1      -9.530   9.322  69.584  1.00  0.00    -0.163 OA 
BRANCH   5   6
HETATM    6  C   UNK     1      -9.695   8.317  68.586  1.00  0.00    -0.156 C  
BRANCH   6   7
HETATM    7  C   UNK     1      -9.123   8.824  67.269  1.00  0.00    -0.151 C  
BRANCH   7   8
HETATM    8  C   UNK     1     -10.218   9.156  66.249  1.00  0.00    -0.257 C  
BRANCH   8   9
HETATM    9  C   UNK     1     -10.028  10.566  65.697  1.00  0.00    -0.332 C  
BRANCH   9  10
HETATM   10  C   UNK     1     -10.368  11.642  66.726  1.00  0.00    -0.257 C  
BRANCH  10  11
HETATM   11  C   UNK     1      -9.259  12.674  66.820  1.00  0.00    -0.225 C  
HETATM   12  O   UNK     1      -9.094  13.570  65.998  1.00  0.00     0.018 OA 
HETATM   13  N   UNK     1      -8.449  12.506  67.920  1.00  0.00    -0.161 N  
HETATM   14  H   UNK     1      -8.611  11.716  68.546  1.00  0.00     0.000 HD 
BRANCH  13  15
HETATM   15  C   UNK     1      -7.371  13.432  68.205  1.00  0.00    -0.117 C  
BRANCH  15  16
HETATM   16  C   UNK     1      -7.764  14.499  69.229  1.00  0.00    -0.042 C  
BRANCH  16  17
HETATM   17  C   UNK     1      -9.126  15.112  68.905  1.00  0.00    -0.206 C  
BRANCH  17  18
HETATM   18  C   UNK     1      -9.023  16.289  67.924  1.00  0.00    -0.187 C  
BRANCH  18  19
HETATM   19  C   UNK     1      -7.701  17.062  68.033  1.00  0.00    -0.180 C  
HETATM   20  N   UNK     1      -7.944  18.522  68.233  1.00  0.00    -0.295 NA 
HETATM   21  C   UNK     1      -6.864  16.878  66.757  1.00  0.00    -0.232 C  
HETATM   22  O   UNK     1      -6.189  15.902  66.491  1.00  0.00     0.005 OA 
HETATM   23  O   UNK     1      -7.012  17.944  65.921  1.00  0.00    -0.291 OA 
HETATM   24  H1  UNK     1      -7.066  19.035  68.306  1.00  0.00     0.000 HD 
HETATM   25  H2  UNK     1      -8.547  18.694  69.037  1.00  0.00     0.000 HD 
ENDBRANCH  18  19
ENDBRANCH  17  18
ENDBRANCH  16  17
ENDBRANCH  15  16
ENDBRANCH  13  15
ENDBRANCH  10  11
ENDBRANCH   9  10
ENDBRANCH   8   9
ENDBRANCH   7   8
ENDBRANCH   6   7
ENDBRANCH   5   6
ENDBRANCH   4   5
ENDBRANCH   3   4
ENDBRANCH   2   3
TORSDOF 14
ENDMDL
MODEL      462
REMARK 921   NORMALIZED FREE ENERGY PREDICTED BY IDOCK:   -2.09 KCAL/MOL
REMARK 922        TOTAL FREE ENERGY PREDICTED BY IDOCK:   -4.74 KCAL/MOL
REMARK 923 INTER-LIGAND FREE ENERGY PREDICTED BY IDOCK:   -3.83 KCAL/MOL
REMARK 924 INTRA-LIGAND FREE ENERGY PREDICTED BY IDOCK:   -0.90 KCAL/MOL
REMARK 927      BINDING AFFINITY PREDICTED BY RF-SCORE:    0.00 PKD
ROOT
HETATM    1  C   UNK     1      -8.159   1.732  65.866  1.00  0.00    -0.080 C  
HETATM    2  O   UNK     1      -7.558   2.180  64.660  1.00  0.00    -0.062 OA 
ENDROOT
BRANCH   2   3
HETATM    3  C   UNK     1      -7.948   3.518  64.347  1.00  0.00    -0.086 C  
BRANCH   3   4
HETATM    4  C   UNK     1      -7.137   4.487  65.199  1.00  0.00    -0.063 C  
BRANCH   4   5
HETATM    5  O   UNK     1      -7.961   5.004  66.241  1.00  0.00    -0.105 OA 
BRANCH   5   6
HETATM    6  C   UNK     1      -9.091   5.700  65.719  1.00  0.00    -0.128 C  
BRANCH   6   7
HETATM    7  C   UNK     1     -10.355   5.172  66.384  1.00  0.00    -0.332 C  
BRANCH   7   8
HETATM    8  C   UNK     1     -11.223   6.296  66.960  1.00  0.00    -0.248 C  
BRANCH   8   9
HETATM    9  C   UNK     1     -10.539   6.941  68.162  1.00  0.00    -0.262 C  
BRANCH   9  10
HETATM   10  C   UNK     1     -10.070   5.910  69.185  1.00  0.00    -0.244 C  
BRANCH  10  11
HETATM   11  C   UNK     1      -8.829   6.393  69.914  1.00  0.00    -0.142 C  
HETATM   12  O   UNK     1      -7.834   5.699  70.094  1.00  0.00    -0.087 OA 
HETATM   13  N   UNK     1      -8.929   7.692  70.360  1.00  0.00    -0.151 N  
HETATM   14  H   UNK     1      -9.800   8.205  70.218  1.00  0.00     0.000 HD 
BRANCH  13  15
HETATM   15  C   UNK     1      -7.819   8.341  71.028  1.00  0.00    -0.096 C  
BRANCH  15  16
HETATM   16  C   UNK     1      -7.380   9.630  70.329  1.00  0.00    -0.153 C  
BRANCH  16  17
HETATM   17  C   UNK     1      -8.535  10.267  69.556  1.00  0.00    -0.156 C  
BRANCH  17  18
HETATM   18  C   UNK     1      -8.052  11.105  68.363  1.00  0.00    -0.141 C  
BRANCH  18  19
HETATM   19  C   UNK     1      -9.181  11.869  67.656  1.00  0.00    -0.183 C  
HETATM   20  N   UNK     1     -10.059  12.568  68.640  1.00  0.00    -0.378 NA 
HETATM   21  C   UNK     1     -10.047  10.905  66.829  1.00  0.00    -0.216 C  
HETATM   22  O   UNK     1      -9.758  10.460  65.735  1.00  0.00    -0.199 OA 
HETATM   23  O   UNK     1     -11.179  10.564  67.507  1.00  0.00    -0.320 OA 
HETATM   24  H1  UNK     1     -10.808  13.076  68.171  1.00  0.00     0.000 HD 
HETATM   25  H2  UNK     1      -9.521  13.178  69.256  1.00  0.00     0.000 HD 
ENDBRANCH  18  19
ENDBRANCH  17  18
ENDBRANCH  16  17
ENDBRANCH  15  16
ENDBRANCH  13  15
ENDBRANCH  10  11
ENDBRANCH   9  10
ENDBRANCH   8   9
ENDBRANCH   7   8
ENDBRANCH   6   7
ENDBRANCH   5   6
ENDBRANCH   4   5
ENDBRANCH   3   4
ENDBRANCH   2   3
TORSDOF 14
ENDMDL
MODEL      463
REMARK 921   NORMALIZED FREE ENERGY PREDICTED BY IDOCK:   -2.05 KCAL/MOL
REMARK 922        TOTAL FREE ENERGY PREDICTED BY IDOCK:   -4.66 KCAL/MOL
REMARK 923 INTER-LIGAND FREE ENERGY PREDICTED BY IDOCK:   -3.91 KCAL/MOL
REMARK 924 INTRA-LIGAND FREE ENERGY PREDICTED BY IDOCK:   -0.75 KCAL/MOL
REMARK 927      BINDING AFFINITY PREDICTED BY RF-SCORE:    0.00 PKD
ROOT
HETATM    1  C   UNK     1     -11.446   6.233  69.969  1.00  0.00    -0.390 C  
HETATM    2  O   UNK     1     -10.285   6.796  70.563  1.00  0.00    -0.190 OA 
ENDROOT
BRANCH   2   3
HETATM    3  C   UNK     1      -9.555   7.593  69.630  1.00  0.00    -0.160 C  
BRANCH   3   4
HETATM    4  C   UNK     1      -9.654   9.058  70.040  1.00  0.00    -0.186 C  
BRANCH   4   5
HETATM    5  O   UNK     1     -10.781   9.653  69.402  1.00  0.00    -0.217 OA 
BRANCH   5   6
HETATM    6  C   UNK     1     -10.383  10.576  68.390  1.00  0.00    -0.176 C  
BRANCH   6   7
HETATM    7  C   UNK     1     -10.453   9.888  67.033  1.00  0.00    -0.296 C  
BRANCH   7   8
HETATM    8  C   UNK     1     -10.290  10.875  65.871  1.00  0.00    -0.310 C  
BRANCH   8   9
HETATM    9  C   UNK     1      -9.039  10.549  65.061  1.00  0.00    -0.231 C  
BRANCH   9  10
HETATM   10  C   UNK     1      -7.755  10.809  65.844  1.00  0.00    -0.118 C  
BRANCH  10  11
HETATM   11  C   UNK     1      -6.833   9.605  65.793  1.00  0.00    -0.093 C  
HETATM   12  O   UNK     1      -5.663   9.629  66.161  1.00  0.00    -0.051 OA 
HETATM   13  N   UNK     1      -7.438   8.476  65.288  1.00  0.00    -0.084 N  
HETATM   14  H   UNK     1      -8.403   8.528  64.959  1.00  0.00     0.000 HD 
BRANCH  13  15
HETATM   15  C   UNK     1      -6.728   7.214  65.218  1.00  0.00    -0.047 C  
BRANCH  15  16
HETATM   16  C   UNK     1      -7.117   6.253  66.343  1.00  0.00    -0.068 C  
BRANCH  16  17
HETATM   17  C   UNK     1      -7.336   4.835  65.816  1.00  0.00    -0.077 C  
BRANCH  17  18
HETATM   18  C   UNK     1      -8.382   4.780  64.693  1.00  0.00    -0.130 C  
BRANCH  18  19
HETATM   19  C   UNK     1      -9.629   3.961  65.057  1.00  0.00    -0.181 C  
HETATM   20  N   UNK     1     -10.767   4.849  65.435  1.00  0.00    -0.547 NA 
HETATM   21  C   UNK     1      -9.329   3.023  66.238  1.00  0.00    -0.069 C  
HETATM   22  O   UNK     1      -8.740   1.962  66.164  1.00  0.00    -0.109 OA 
HETATM   23  O   UNK     1      -9.771   3.560  67.409  1.00  0.00    -0.180 OA 
HETATM   24  H1  UNK     1     -11.595   4.305  65.676  1.00  0.00     0.000 HD 
HETATM   25  H2  UNK     1     -10.968   5.532  64.705  1.00  0.00     0.000 HD 
ENDBRANCH  18  19
ENDBRANCH  17  18
ENDBRANCH  16  17
ENDBRANCH  15  16
ENDBRANCH  13  15
ENDBRANCH  10  11
ENDBRANCH   9  10
ENDBRANCH   8   9
ENDBRANCH   7   8
ENDBRANCH   6   7
ENDBRANCH   5   6
ENDBRANCH   4   5
ENDBRANCH   3   4
ENDBRANCH   2   3
TORSDOF 14
ENDMDL
MODEL      464
REMARK 921   NORMALIZED FREE ENERGY PREDICTED BY IDOCK:   -2.04 KCAL/MOL
REMARK 922        TOTAL FREE ENERGY PREDICTED BY IDOCK:   -4.64 KCAL/MOL
REMARK 923 INTER-LIGAND FREE ENERGY PREDICTED BY IDOCK:   -4.13 KCAL/MOL
REMARK 924 INTRA-LIGAND FREE ENERGY PREDICTED BY IDOCK:   -0.51 KCAL/MOL
REMARK 927      BINDING AFFINITY PREDICTED BY RF-SCORE:    0.00 PKD
ROOT
HETATM    1  C   UNK     1      -8.861   4.717  68.450  1.00  0.00    -0.105 C  
HETATM    2  O   UNK     1      -9.487   4.055  67.361  1.00  0.00    -0.170 OA 
ENDROOT
BRANCH   2   3
HETATM    3  C   UNK     1      -8.535   3.353  66.560  1.00  0.00    -0.109 C  
BRANCH   3   4
HETATM    4  C   UNK     1      -7.766   4.355  65.707  1.00  0.00    -0.090 C  
BRANCH   4   5
HETATM    5  O   UNK     1      -8.671   5.028  64.836  1.00  0.00    -0.147 OA 
BRANCH   5   6
HETATM    6  C   UNK     1      -8.088   6.207  64.284  1.00  0.00    -0.093 C  
BRANCH   6   7
HETATM    7  C   UNK     1      -7.947   7.254  65.381  1.00  0.00    -0.125 C  
BRANCH   7   8
HETATM    8  C   UNK     1      -7.292   8.544  64.874  1.00  0.00    -0.087 C  
BRANCH   8   9
HETATM    9  C   UNK     1      -7.955   9.766  65.504  1.00  0.00    -0.123 C  
BRANCH   9  10
HETATM   10  C   UNK     1      -8.918  10.462  64.545  1.00  0.00    -0.241 C  
BRANCH  10  11
HETATM   11  C   UNK     1      -9.692  11.559  65.254  1.00  0.00    -0.238 C  
HETATM   12  O   UNK     1     -10.409  12.367  64.673  1.00  0.00    -0.288 OA 
HETATM   13  N   UNK     1      -9.510  11.561  66.618  1.00  0.00    -0.188 N  
HETATM   14  H   UNK     1      -8.868  10.889  67.040  1.00  0.00     0.000 HD 
BRANCH  13  15
HETATM   15  C   UNK     1     -10.216  12.502  67.466  1.00  0.00    -0.217 C  
BRANCH  15  16
HETATM   16  C   UNK     1      -9.327  13.657  67.933  1.00  0.00    -0.206 C  
BRANCH  16  17
HETATM   17  C   UNK     1     -10.134  14.711  68.690  1.00  0.00    -0.238 C  
BRANCH  17  18
HETATM   18  C   UNK     1      -9.315  15.975  68.992  1.00  0.00    -0.239 C  
BRANCH  18  19
HETATM   19  C   UNK     1      -8.807  16.690  67.731  1.00  0.00    -0.206 C  
HETATM   20  N   UNK     1      -7.384  16.339  67.447  1.00  0.00    -0.147 NA 
HETATM   21  C   UNK     1      -8.908  18.214  67.901  1.00  0.00    -0.268 C  
HETATM   22  O   UNK     1      -9.924  18.872  67.779  1.00  0.00    -0.324 OA 
HETATM   23  O   UNK     1      -7.705  18.745  68.260  1.00  0.00    -0.278 OA 
HETATM   24  H1  UNK     1      -7.047  16.814  66.610  1.00  0.00     0.000 HD 
HETATM   25  H2  UNK     1      -7.253  15.330  67.384  1.00  0.00     0.000 HD 
ENDBRANCH  18  19
ENDBRANCH  17  18
ENDBRANCH  16  17
ENDBRANCH  15  16
ENDBRANCH  13  15
ENDBRANCH  10  11
ENDBRANCH   9  10
ENDBRANCH   8   9
ENDBRANCH   7   8
ENDBRANCH   6   7
ENDBRANCH   5   6
ENDBRANCH   4   5
ENDBRANCH   3   4
ENDBRANCH   2   3
TORSDOF 14
ENDMDL
MODEL      465
REMARK 921   NORMALIZED FREE ENERGY PREDICTED BY IDOCK:   -2.00 KCAL/MOL
REMARK 922        TOTAL FREE ENERGY PREDICTED BY IDOCK:   -4.57 KCAL/MOL
REMARK 923 INTER-LIGAND FREE ENERGY PREDICTED BY IDOCK:   -4.15 KCAL/MOL
REMARK 924 INTRA-LIGAND FREE ENERGY PREDICTED BY IDOCK:   -0.42 KCAL/MOL
REMARK 927      BINDING AFFINITY PREDICTED BY RF-SCORE:    0.00 PKD
ROOT
HETATM    1  C   UNK     1     -11.894  13.403  66.805  1.00  0.00    -0.403 C  
HETATM    2  O   UNK     1     -10.977  14.487  66.798  1.00  0.00    -0.303 OA 
ENDROOT
BRANCH   2   3
HETATM    3  C   UNK     1      -9.638  14.037  66.590  1.00  0.00    -0.289 C  
BRANCH   3   4
HETATM    4  C   UNK     1      -9.669  12.663  65.933  1.00  0.00    -0.207 C  
BRANCH   4   5
HETATM    5  O   UNK     1      -8.864  11.759  66.687  1.00  0.00    -0.182 OA 
BRANCH   5   6
HETATM    6  C   UNK     1      -8.738  12.178  68.045  1.00  0.00    -0.180 C  
BRANCH   6   7
HETATM    7  C   UNK     1      -8.134  11.044  68.862  1.00  0.00    -0.135 C  
BRANCH   7   8
HETATM    8  C   UNK     1      -9.197  10.073  69.387  1.00  0.00    -0.229 C  
BRANCH   8   9
HETATM    9  C   UNK     1      -8.544   8.806  69.934  1.00  0.00    -0.133 C  
BRANCH   9  10
HETATM   10  C   UNK     1      -7.969   9.008  71.333  1.00  0.00    -0.096 C  
BRANCH  10  11
HETATM   11  C   UNK     1      -8.441   7.917  72.277  1.00  0.00    -0.140 C  
HETATM   12  O   UNK     1      -8.702   8.109  73.461  1.00  0.00    -0.247 OA 
HETATM   13  N   UNK     1      -8.547   6.683  71.676  1.00  0.00    -0.124 N  
HETATM   14  H   UNK     1      -8.276   6.577  70.698  1.00  0.00     0.000 HD 
BRANCH  13  15
HETATM   15  C   UNK     1      -9.038   5.533  72.409  1.00  0.00    -0.141 C  
BRANCH  15  16
HETATM   16  C   UNK     1     -10.066   4.722  71.617  1.00  0.00    -0.264 C  
BRANCH  16  17
HETATM   17  C   UNK     1      -9.457   4.142  70.340  1.00  0.00    -0.247 C  
BRANCH  17  18
HETATM   18  C   UNK     1     -10.046   4.771  69.069  1.00  0.00    -0.171 C  
BRANCH  18  19
HETATM   19  C   UNK     1      -9.137   4.629  67.839  1.00  0.00    -0.119 C  
HETATM   20  N   UNK     1      -9.665   3.603  66.893  1.00  0.00    -0.366 NA 
HETATM   21  C   UNK     1      -7.719   4.216  68.264  1.00  0.00    -0.070 C  
HETATM   22  O   UNK     1      -6.872   4.963  68.716  1.00  0.00    -0.049 OA 
HETATM   23  O   UNK     1      -7.538   2.874  68.115  1.00  0.00    -0.056 OA 
HETATM   24  H1  UNK     1      -9.062   3.510  66.076  1.00  0.00     0.000 HD 
HETATM   25  H2  UNK     1     -10.630   3.801  66.626  1.00  0.00     0.000 HD 
ENDBRANCH  18  19
ENDBRANCH  17  18
ENDBRANCH  16  17
ENDBRANCH  15  16
ENDBRANCH  13  15
ENDBRANCH  10  11
ENDBRANCH   9  10
ENDBRANCH   8   9
ENDBRANCH   7   8
ENDBRANCH   6   7
ENDBRANCH   5   6
ENDBRANCH   4   5
ENDBRANCH   3   4
ENDBRANCH   2   3
TORSDOF 14
ENDMDL
MODEL      466
REMARK 921   NORMALIZED FREE ENERGY PREDICTED BY IDOCK:   -1.95 KCAL/MOL
REMARK 922        TOTAL FREE ENERGY PREDICTED BY IDOCK:   -4.48 KCAL/MOL
REMARK 923 INTER-LIGAND FREE ENERGY PREDICTED BY IDOCK:   -3.89 KCAL/MOL
REMARK 924 INTRA-LIGAND FREE ENERGY PREDICTED BY IDOCK:   -0.58 KCAL/MOL
REMARK 927      BINDING AFFINITY PREDICTED BY RF-SCORE:    0.00 PKD
ROOT
HETATM    1  C   UNK     1     -11.888  13.446  66.797  1.00  0.00    -0.403 C  
HETATM    2  O   UNK     1     -10.851  14.382  66.538  1.00  0.00    -0.301 OA 
ENDROOT
BRANCH   2   3
HETATM    3  C   UNK     1      -9.630  13.727  66.193  1.00  0.00    -0.216 C  
BRANCH   3   4
HETATM    4  C   UNK     1      -9.933  12.292  65.779  1.00  0.00    -0.254 C  
BRANCH   4   5
HETATM    5  O   UNK     1      -9.129  11.399  66.546  1.00  0.00    -0.174 OA 
BRANCH   5   6
HETATM    6  C   UNK     1      -8.439  12.081  67.591  1.00  0.00    -0.160 C  
BRANCH   6   7
HETATM    7  C   UNK     1      -8.157  11.104  68.725  1.00  0.00    -0.140 C  
BRANCH   7   8
HETATM    8  C   UNK     1      -9.400  10.300  69.122  1.00  0.00    -0.214 C  
BRANCH   8   9
HETATM    9  C   UNK     1      -9.007   8.904  69.597  1.00  0.00    -0.147 C  
BRANCH   9  10
HETATM   10  C   UNK     1     -10.087   8.259  70.462  1.00  0.00    -0.210 C  
BRANCH  10  11
HETATM   11  C   UNK     1     -10.575   6.961  69.845  1.00  0.00    -0.228 C  
HETATM   12  O   UNK     1     -11.574   6.361  70.227  1.00  0.00    -0.399 OA 
HETATM   13  N   UNK     1      -9.782   6.518  68.810  1.00  0.00    -0.129 N  
HETATM   14  H   UNK     1      -8.940   7.038  68.565  1.00  0.00     0.000 HD 
BRANCH  13  15
HETATM   15  C   UNK     1     -10.126   5.323  68.064  1.00  0.00    -0.152 C  
BRANCH  15  16
HETATM   16  C   UNK     1      -9.122   4.187  68.272  1.00  0.00    -0.176 C  
BRANCH  16  17
HETATM   17  C   UNK     1      -8.895   3.907  69.758  1.00  0.00    -0.143 C  
BRANCH  17  18
HETATM   18  C   UNK     1      -7.437   4.135  70.183  1.00  0.00    -0.046 C  
BRANCH  18  19
HETATM   19  C   UNK     1      -7.247   4.204  71.706  1.00  0.00    -0.054 C  
HETATM   20  N   UNK     1      -6.582   2.973  72.224  1.00  0.00    -0.014 NA 
HETATM   21  C   UNK     1      -8.605   4.356  72.409  1.00  0.00    -0.110 C  
HETATM   22  O   UNK     1      -9.235   5.392  72.511  1.00  0.00    -0.136 OA 
HETATM   23  O   UNK     1      -9.050   3.154  72.873  1.00  0.00    -0.086 OA 
HETATM   24  H1  UNK     1      -6.455   3.019  73.234  1.00  0.00     0.000 HD 
HETATM   25  H2  UNK     1      -5.699   2.794  71.744  1.00  0.00     0.000 HD 
ENDBRANCH  18  19
ENDBRANCH  17  18
ENDBRANCH  16  17
ENDBRANCH  15  16
ENDBRANCH  13  15
ENDBRANCH  10  11
ENDBRANCH   9  10
ENDBRANCH   8   9
ENDBRANCH   7   8
ENDBRANCH   6   7
ENDBRANCH   5   6
ENDBRANCH   4   5
ENDBRANCH   3   4
ENDBRANCH   2   3
TORSDOF 14
ENDMDL
MODEL      467
REMARK 921   NORMALIZED FREE ENERGY PREDICTED BY IDOCK:   -1.93 KCAL/MOL
REMARK 922        TOTAL FREE ENERGY PREDICTED BY IDOCK:   -4.45 KCAL/MOL
REMARK 923 INTER-LIGAND FREE ENERGY PREDICTED BY IDOCK:   -3.70 KCAL/MOL
REMARK 924 INTRA-LIGAND FREE ENERGY PREDICTED BY IDOCK:   -0.74 KCAL/MOL
REMARK 927      BINDING AFFINITY PREDICTED BY RF-SCORE:    0.00 PKD
ROOT
HETATM    1  C   UNK     1      -5.821  13.998  69.567  1.00  0.00    -0.097 C  
HETATM    2  O   UNK     1      -5.794  13.493  68.240  1.00  0.00    -0.081 OA 
ENDROOT
BRANCH   2   3
HETATM    3  C   UNK     1      -7.085  13.553  67.632  1.00  0.00    -0.168 C  
BRANCH   3   4
HETATM    4  C   UNK     1      -7.496  12.152  67.194  1.00  0.00    -0.129 C  
BRANCH   4   5
HETATM    5  O   UNK     1      -7.327  11.247  68.283  1.00  0.00    -0.085 OA 
BRANCH   5   6
HETATM    6  C   UNK     1      -7.155   9.907  67.828  1.00  0.00    -0.087 C  
BRANCH   6   7
HETATM    7  C   UNK     1      -7.920   8.965  68.748  1.00  0.00    -0.102 C  
BRANCH   7   8
HETATM    8  C   UNK     1      -9.426   8.970  68.464  1.00  0.00    -0.148 C  
BRANCH   8   9
HETATM    9  C   UNK     1      -9.704   8.532  67.028  1.00  0.00    -0.266 C  
BRANCH   9  10
HETATM   10  C   UNK     1      -9.355   7.065  66.791  1.00  0.00    -0.191 C  
BRANCH  10  11
HETATM   11  C   UNK     1     -10.120   6.165  67.744  1.00  0.00    -0.150 C  
HETATM   12  O   UNK     1     -11.340   6.193  67.873  1.00  0.00    -0.208 OA 
HETATM   13  N   UNK     1      -9.309   5.310  68.456  1.00  0.00    -0.117 N  
HETATM   14  H   UNK     1      -8.297   5.362  68.337  1.00  0.00     0.000 HD 
BRANCH  13  15
HETATM   15  C   UNK     1      -9.870   4.337  69.373  1.00  0.00    -0.135 C  
BRANCH  15  16
HETATM   16  C   UNK     1      -8.948   4.042  70.559  1.00  0.00    -0.159 C  
BRANCH  16  17
HETATM   17  C   UNK     1      -9.699   4.131  71.887  1.00  0.00    -0.235 C  
BRANCH  17  18
HETATM   18  C   UNK     1     -10.656   5.331  71.941  1.00  0.00    -0.274 C  
BRANCH  18  19
HETATM   19  C   UNK     1     -10.516   6.168  73.222  1.00  0.00    -0.243 C  
HETATM   20  N   UNK     1     -11.643   7.136  73.360  1.00  0.00    -0.331 NA 
HETATM   21  C   UNK     1      -9.197   6.956  73.206  1.00  0.00    -0.138 C  
HETATM   22  O   UNK     1      -8.100   6.501  73.469  1.00  0.00    -0.110 OA 
HETATM   23  O   UNK     1      -9.403   8.243  72.808  1.00  0.00    -0.249 OA 
HETATM   24  H1  UNK     1     -11.551   7.691  74.210  1.00  0.00     0.000 HD 
HETATM   25  H2  UNK     1     -12.548   6.667  73.315  1.00  0.00     0.000 HD 
ENDBRANCH  18  19
ENDBRANCH  17  18
ENDBRANCH  16  17
ENDBRANCH  15  16
ENDBRANCH  13  15
ENDBRANCH  10  11
ENDBRANCH   9  10
ENDBRANCH   8   9
ENDBRANCH   7   8
ENDBRANCH   6   7
ENDBRANCH   5   6
ENDBRANCH   4   5
ENDBRANCH   3   4
ENDBRANCH   2   3
TORSDOF 14
ENDMDL
MODEL      468
REMARK 921   NORMALIZED FREE ENERGY PREDICTED BY IDOCK:   -1.93 KCAL/MOL
REMARK 922        TOTAL FREE ENERGY PREDICTED BY IDOCK:   -4.44 KCAL/MOL
REMARK 923 INTER-LIGAND FREE ENERGY PREDICTED BY IDOCK:   -4.12 KCAL/MOL
REMARK 924 INTRA-LIGAND FREE ENERGY PREDICTED BY IDOCK:   -0.32 KCAL/MOL
REMARK 927      BINDING AFFINITY PREDICTED BY RF-SCORE:    0.00 PKD
ROOT
HETATM    1  C   UNK     1     -10.166   6.699  69.986  1.00  0.00    -0.187 C  
HETATM    2  O   UNK     1     -10.951   6.984  71.134  1.00  0.00    -0.238 OA 
ENDROOT
BRANCH   2   3
HETATM    3  C   UNK     1     -10.473   8.142  71.819  1.00  0.00    -0.242 C  
BRANCH   3   4
HETATM    4  C   UNK     1     -11.657   9.030  72.184  1.00  0.00    -0.278 C  
BRANCH   4   5
HETATM    5  O   UNK     1     -12.243   9.550  70.993  1.00  0.00    -0.301 OA 
BRANCH   5   6
HETATM    6  C   UNK     1     -11.989  10.945  70.850  1.00  0.00    -0.311 C  
BRANCH   6   7
HETATM    7  C   UNK     1     -11.325  11.197  69.503  1.00  0.00    -0.359 C  
BRANCH   7   8
HETATM    8  C   UNK     1     -11.231   9.924  68.654  1.00  0.00    -0.122 C  
BRANCH   8   9
HETATM    9  C   UNK     1     -10.352  10.160  67.429  1.00  0.00    -0.289 C  
BRANCH   9  10
HETATM   10  C   UNK     1     -11.140  10.727  66.250  1.00  0.00     0.027 C  
BRANCH  10  11
HETATM   11  C   UNK     1     -10.218  11.056  65.090  1.00  0.00    -0.291 C  
HETATM   12  O   UNK     1      -9.625  12.124  64.975  1.00  0.00    -0.149 OA 
HETATM   13  N   UNK     1     -10.114  10.037  64.170  1.00  0.00    -0.447 N  
HETATM   14  H   UNK     1     -10.665   9.188  64.298  1.00  0.00     0.000 HD 
BRANCH  13  15
HETATM   15  C   UNK     1      -9.234  10.151  63.024  1.00  0.00    -0.293 C  
BRANCH  15  16
HETATM   16  C   UNK     1      -7.753  10.120  63.410  1.00  0.00    -0.153 C  
BRANCH  16  17
HETATM   17  C   UNK     1      -7.198   8.697  63.385  1.00  0.00    -0.095 C  
BRANCH  17  18
HETATM   18  C   UNK     1      -5.835   8.584  64.083  1.00  0.00    -0.066 C  
BRANCH  18  19
HETATM   19  C   UNK     1      -5.872   7.739  65.365  1.00  0.00    -0.038 C  
HETATM   20  N   UNK     1      -5.457   6.330  65.095  1.00  0.00    -0.017 NA 
HETATM   21  C   UNK     1      -7.290   7.724  65.957  1.00  0.00    -0.074 C  
HETATM   22  O   UNK     1      -7.788   8.616  66.616  1.00  0.00    -0.095 OA 
HETATM   23  O   UNK     1      -7.952   6.585  65.607  1.00  0.00    -0.101 OA 
HETATM   24  H1  UNK     1      -5.481   5.769  65.946  1.00  0.00     0.000 HD 
HETATM   25  H2  UNK     1      -4.543   6.289  64.644  1.00  0.00     0.000 HD 
ENDBRANCH  18  19
ENDBRANCH  17  18
ENDBRANCH  16  17
ENDBRANCH  15  16
ENDBRANCH  13  15
ENDBRANCH  10  11
ENDBRANCH   9  10
ENDBRANCH   8   9
ENDBRANCH   7   8
ENDBRANCH   6   7
ENDBRANCH   5   6
ENDBRANCH   4   5
ENDBRANCH   3   4
ENDBRANCH   2   3
TORSDOF 14
ENDMDL
MODEL      469
REMARK 921   NORMALIZED FREE ENERGY PREDICTED BY IDOCK:   -1.86 KCAL/MOL
REMARK 922        TOTAL FREE ENERGY PREDICTED BY IDOCK:   -4.32 KCAL/MOL
REMARK 923 INTER-LIGAND FREE ENERGY PREDICTED BY IDOCK:   -3.66 KCAL/MOL
REMARK 924 INTRA-LIGAND FREE ENERGY PREDICTED BY IDOCK:   -0.66 KCAL/MOL
REMARK 927      BINDING AFFINITY PREDICTED BY RF-SCORE:    0.00 PKD
ROOT
HETATM    1  C   UNK     1      -9.206   3.422  66.374  1.00  0.00    -0.163 C  
HETATM    2  O   UNK     1      -8.177   3.796  65.468  1.00  0.00    -0.100 OA 
ENDROOT
BRANCH   2   3
HETATM    3  C   UNK     1      -8.151   5.209  65.263  1.00  0.00    -0.120 C  
BRANCH   3   4
HETATM    4  C   UNK     1      -7.159   5.836  66.236  1.00  0.00    -0.068 C  
BRANCH   4   5
HETATM    5  O   UNK     1      -7.862   6.656  67.166  1.00  0.00    -0.102 OA 
BRANCH   5   6
HETATM    6  C   UNK     1      -8.769   7.536  66.506  1.00  0.00    -0.140 C  
BRANCH   6   7
HETATM    7  C   UNK     1      -9.893   7.906  67.465  1.00  0.00    -0.221 C  
BRANCH   7   8
HETATM    8  C   UNK     1     -10.494   9.281  67.156  1.00  0.00    -0.319 C  
BRANCH   8   9
HETATM    9  C   UNK     1      -9.497  10.389  67.486  1.00  0.00    -0.167 C  
BRANCH   9  10
HETATM   10  C   UNK     1      -9.202  10.478  68.980  1.00  0.00    -0.193 C  
BRANCH  10  11
HETATM   11  C   UNK     1      -7.849  11.119  69.230  1.00  0.00    -0.001 C  
HETATM   12  O   UNK     1      -6.853  10.491  69.575  1.00  0.00    -0.070 OA 
HETATM   13  N   UNK     1      -7.846  12.482  69.032  1.00  0.00    -0.329 N  
HETATM   14  H   UNK     1      -8.716  12.954  68.786  1.00  0.00     0.000 HD 
BRANCH  13  15
HETATM   15  C   UNK     1      -6.628  13.255  69.169  1.00  0.00    -0.105 C  
BRANCH  15  16
HETATM   16  C   UNK     1      -6.377  14.179  67.975  1.00  0.00    -0.154 C  
BRANCH  16  17
HETATM   17  C   UNK     1      -7.542  15.145  67.761  1.00  0.00    -0.171 C  
BRANCH  17  18
HETATM   18  C   UNK     1      -7.379  16.447  68.558  1.00  0.00    -0.181 C  
BRANCH  18  19
HETATM   19  C   UNK     1      -6.214  17.322  68.070  1.00  0.00    -0.142 C  
HETATM   20  N   UNK     1      -5.689  18.184  69.169  1.00  0.00    -0.203 NA 
HETATM   21  C   UNK     1      -6.670  18.228  66.915  1.00  0.00    -0.186 C  
HETATM   22  O   UNK     1      -6.803  17.882  65.757  1.00  0.00    -0.312 OA 
HETATM   23  O   UNK     1      -6.960  19.481  67.366  1.00  0.00    -0.209 OA 
HETATM   24  H1  UNK     1      -4.915  18.764  68.845  1.00  0.00     0.000 HD 
HETATM   25  H2  UNK     1      -5.427  17.632  69.986  1.00  0.00     0.000 HD 
ENDBRANCH  18  19
ENDBRANCH  17  18
ENDBRANCH  16  17
ENDBRANCH  15  16
ENDBRANCH  13  15
ENDBRANCH  10  11
ENDBRANCH   9  10
ENDBRANCH   8   9
ENDBRANCH   7   8
ENDBRANCH   6   7
ENDBRANCH   5   6
ENDBRANCH   4   5
ENDBRANCH   3   4
ENDBRANCH   2   3
TORSDOF 14
ENDMDL
MODEL      470
REMARK 921   NORMALIZED FREE ENERGY PREDICTED BY IDOCK:   -1.83 KCAL/MOL
REMARK 922        TOTAL FREE ENERGY PREDICTED BY IDOCK:   -4.27 KCAL/MOL
REMARK 923 INTER-LIGAND FREE ENERGY PREDICTED BY IDOCK:   -3.52 KCAL/MOL
REMARK 924 INTRA-LIGAND FREE ENERGY PREDICTED BY IDOCK:   -0.74 KCAL/MOL
REMARK 927      BINDING AFFINITY PREDICTED BY RF-SCORE:    0.00 PKD
ROOT
HETATM    1  C   UNK     1      -6.735  14.130  69.167  1.00  0.00    -0.118 C  
HETATM    2  O   UNK     1      -7.366  13.827  67.931  1.00  0.00    -0.117 OA 
ENDROOT
BRANCH   2   3
HETATM    3  C   UNK     1      -8.739  14.220  67.936  1.00  0.00    -0.178 C  
BRANCH   3   4
HETATM    4  C   UNK     1      -9.505  13.367  66.931  1.00  0.00    -0.253 C  
BRANCH   4   5
HETATM    5  O   UNK     1      -8.845  12.114  66.773  1.00  0.00    -0.197 OA 
BRANCH   5   6
HETATM    6  C   UNK     1      -9.367  11.383  65.666  1.00  0.00    -0.222 C  
BRANCH   6   7
HETATM    7  C   UNK     1      -9.046   9.905  65.848  1.00  0.00    -0.201 C  
BRANCH   7   8
HETATM    8  C   UNK     1      -9.201   9.451  67.303  1.00  0.00    -0.151 C  
BRANCH   8   9
HETATM    9  C   UNK     1     -10.649   9.068  67.596  1.00  0.00    -0.298 C  
BRANCH   9  10
HETATM   10  C   UNK     1     -10.773   8.150  68.809  1.00  0.00    -0.074 C  
BRANCH  10  11
HETATM   11  C   UNK     1     -10.391   8.878  70.084  1.00  0.00    -0.206 C  
HETATM   12  O   UNK     1     -10.805   9.995  70.378  1.00  0.00    -0.283 OA 
HETATM   13  N   UNK     1      -9.527   8.164  70.883  1.00  0.00    -0.160 N  
HETATM   14  H   UNK     1      -9.184   7.257  70.565  1.00  0.00     0.000 HD 
BRANCH  13  15
HETATM   15  C   UNK     1      -9.098   8.679  72.168  1.00  0.00    -0.231 C  
BRANCH  15  16
HETATM   16  C   UNK     1      -7.836   7.987  72.690  1.00  0.00    -0.169 C  
BRANCH  16  17
HETATM   17  C   UNK     1      -7.481   6.762  71.848  1.00  0.00    -0.093 C  
BRANCH  17  18
HETATM   18  C   UNK     1      -8.090   5.468  72.406  1.00  0.00    -0.107 C  
BRANCH  18  19
HETATM   19  C   UNK     1      -8.492   4.461  71.318  1.00  0.00    -0.098 C  
HETATM   20  N   UNK     1      -9.959   4.516  71.047  1.00  0.00    -0.199 NA 
HETATM   21  C   UNK     1      -8.129   3.031  71.749  1.00  0.00    -0.058 C  
HETATM   22  O   UNK     1      -7.018   2.539  71.694  1.00  0.00    -0.029 OA 
HETATM   23  O   UNK     1      -9.217   2.385  72.254  1.00  0.00    -0.080 OA 
HETATM   24  H1  UNK     1     -10.226   3.848  70.324  1.00  0.00     0.000 HD 
HETATM   25  H2  UNK     1     -10.262   5.462  70.814  1.00  0.00     0.000 HD 
ENDBRANCH  18  19
ENDBRANCH  17  18
ENDBRANCH  16  17
ENDBRANCH  15  16
ENDBRANCH  13  15
ENDBRANCH  10  11
ENDBRANCH   9  10
ENDBRANCH   8   9
ENDBRANCH   7   8
ENDBRANCH   6   7
ENDBRANCH   5   6
ENDBRANCH   4   5
ENDBRANCH   3   4
ENDBRANCH   2   3
TORSDOF 14
ENDMDL
MODEL      471
REMARK 921   NORMALIZED FREE ENERGY PREDICTED BY IDOCK:   -1.69 KCAL/MOL
REMARK 922        TOTAL FREE ENERGY PREDICTED BY IDOCK:   -4.01 KCAL/MOL
REMARK 923 INTER-LIGAND FREE ENERGY PREDICTED BY IDOCK:   -3.65 KCAL/MOL
REMARK 924 INTRA-LIGAND FREE ENERGY PREDICTED BY IDOCK:   -0.36 KCAL/MOL
REMARK 927      BINDING AFFINITY PREDICTED BY RF-SCORE:    0.00 PKD
ROOT
HETATM    1  C   UNK     1      -9.570  16.061  68.658  1.00  0.00    -0.222 C  
HETATM    2  O   UNK     1     -10.438  15.503  69.634  1.00  0.00    -0.246 OA 
ENDROOT
BRANCH   2   3
HETATM    3  C   UNK     1     -11.789  15.468  69.173  1.00  0.00    -0.354 C  
BRANCH   3   4
HETATM    4  C   UNK     1     -11.820  14.897  67.761  1.00  0.00    -0.251 C  
BRANCH   4   5
HETATM    5  O   UNK     1     -11.337  13.556  67.782  1.00  0.00    -0.269 OA 
BRANCH   5   6
HETATM    6  C   UNK     1     -11.552  12.902  66.533  1.00  0.00    -0.371 C  
BRANCH   6   7
HETATM    7  C   UNK     1     -10.829  11.561  66.540  1.00  0.00    -0.335 C  
BRANCH   7   8
HETATM    8  C   UNK     1      -9.413  11.667  67.117  1.00  0.00    -0.183 C  
BRANCH   8   9
HETATM    9  C   UNK     1      -8.482  10.664  66.441  1.00  0.00    -0.152 C  
BRANCH   9  10
HETATM   10  C   UNK     1      -8.896   9.219  66.704  1.00  0.00    -0.146 C  
BRANCH  10  11
HETATM   11  C   UNK     1      -8.054   8.604  67.807  1.00  0.00    -0.107 C  
HETATM   12  O   UNK     1      -7.023   9.112  68.237  1.00  0.00    -0.073 OA 
HETATM   13  N   UNK     1      -8.558   7.414  68.281  1.00  0.00    -0.124 N  
HETATM   14  H   UNK     1      -9.398   7.020  67.854  1.00  0.00     0.000 HD 
BRANCH  13  15
HETATM   15  C   UNK     1      -7.917   6.712  69.375  1.00  0.00    -0.115 C  
BRANCH  15  16
HETATM   16  C   UNK     1      -7.564   5.265  69.022  1.00  0.00    -0.078 C  
BRANCH  16  17
HETATM   17  C   UNK     1      -8.503   4.705  67.953  1.00  0.00    -0.103 C  
BRANCH  17  18
HETATM   18  C   UNK     1      -7.849   3.593  67.120  1.00  0.00    -0.080 C  
BRANCH  18  19
HETATM   19  C   UNK     1      -8.301   2.181  67.522  1.00  0.00    -0.071 C  
HETATM   20  N   UNK     1      -9.789   2.070  67.520  1.00  0.00    -0.247 NA 
HETATM   21  C   UNK     1      -7.789   1.834  68.929  1.00  0.00    -0.045 C  
HETATM   22  O   UNK     1      -6.659   1.473  69.199  1.00  0.00    -0.028 OA 
HETATM   23  O   UNK     1      -8.761   2.030  69.863  1.00  0.00    -0.049 OA 
HETATM   24  H1  UNK     1     -10.089   1.132  67.786  1.00  0.00     0.000 HD 
HETATM   25  H2  UNK     1     -10.185   2.349  66.622  1.00  0.00     0.000 HD 
ENDBRANCH  18  19
ENDBRANCH  17  18
ENDBRANCH  16  17
ENDBRANCH  15  16
ENDBRANCH  13  15
ENDBRANCH  10  11
ENDBRANCH   9  10
ENDBRANCH   8   9
ENDBRANCH   7   8
ENDBRANCH   6   7
ENDBRANCH   5   6
ENDBRANCH   4   5
ENDBRANCH   3   4
ENDBRANCH   2   3
TORSDOF 14
ENDMDL
MODEL      472
REMARK 921   NORMALIZED FREE ENERGY PREDICTED BY IDOCK:   -1.68 KCAL/MOL
REMARK 922        TOTAL FREE ENERGY PREDICTED BY IDOCK:   -3.99 KCAL/MOL
REMARK 923 INTER-LIGAND FREE ENERGY PREDICTED BY IDOCK:   -3.46 KCAL/MOL
REMARK 924 INTRA-LIGAND FREE ENERGY PREDICTED BY IDOCK:   -0.53 KCAL/MOL
REMARK 927      BINDING AFFINITY PREDICTED BY RF-SCORE:    0.00 PKD
ROOT
HETATM    1  C   UNK     1     -11.914  13.030  67.495  1.00  0.00    -0.306 C  
HETATM    2  O   UNK     1     -11.217  14.245  67.262  1.00  0.00    -0.296 OA 
ENDROOT
BRANCH   2   3
HETATM    3  C   UNK     1      -9.969  14.015  66.606  1.00  0.00    -0.278 C  
BRANCH   3   4
HETATM    4  C   UNK     1      -9.974  12.615  66.003  1.00  0.00    -0.258 C  
BRANCH   4   5
HETATM    5  O   UNK     1      -8.717  11.989  66.253  1.00  0.00    -0.144 OA 
BRANCH   5   6
HETATM    6  C   UNK     1      -7.925  12.748  67.163  1.00  0.00    -0.108 C  
BRANCH   6   7
HETATM    7  C   UNK     1      -7.265  11.803  68.159  1.00  0.00    -0.086 C  
BRANCH   7   8
HETATM    8  C   UNK     1      -8.290  11.042  69.007  1.00  0.00    -0.089 C  
BRANCH   8   9
HETATM    9  C   UNK     1      -8.079   9.536  68.881  1.00  0.00    -0.096 C  
BRANCH   9  10
HETATM   10  C   UNK     1      -8.855   8.751  69.935  1.00  0.00    -0.143 C  
BRANCH  10  11
HETATM   11  C   UNK     1      -9.978   7.951  69.300  1.00  0.00    -0.190 C  
HETATM   12  O   UNK     1     -11.064   7.760  69.837  1.00  0.00    -0.230 OA 
HETATM   13  N   UNK     1      -9.658   7.455  68.056  1.00  0.00    -0.140 N  
HETATM   14  H   UNK     1      -8.723   7.612  67.678  1.00  0.00     0.000 HD 
BRANCH  13  15
HETATM   15  C   UNK     1     -10.628   6.714  67.274  1.00  0.00    -0.317 C  
BRANCH  15  16
HETATM   16  C   UNK     1     -10.228   5.251  67.069  1.00  0.00    -0.274 C  
BRANCH  16  17
HETATM   17  C   UNK     1      -9.224   4.793  68.126  1.00  0.00    -0.155 C  
BRANCH  17  18
HETATM   18  C   UNK     1      -9.555   3.402  68.688  1.00  0.00    -0.127 C  
BRANCH  18  19
HETATM   19  C   UNK     1      -8.319   2.625  69.166  1.00  0.00    -0.059 C  
HETATM   20  N   UNK     1      -8.256   2.576  70.656  1.00  0.00    -0.048 NA 
HETATM   21  C   UNK     1      -7.034   3.289  68.646  1.00  0.00    -0.049 C  
HETATM   22  O   UNK     1      -6.585   3.171  67.522  1.00  0.00    -0.036 OA 
HETATM   23  O   UNK     1      -6.473   4.079  69.603  1.00  0.00    -0.031 OA 
HETATM   24  H1  UNK     1      -7.436   2.060  70.974  1.00  0.00     0.000 HD 
HETATM   25  H2  UNK     1      -9.115   2.197  71.056  1.00  0.00     0.000 HD 
ENDBRANCH  18  19
ENDBRANCH  17  18
ENDBRANCH  16  17
ENDBRANCH  15  16
ENDBRANCH  13  15
ENDBRANCH  10  11
ENDBRANCH   9  10
ENDBRANCH   8   9
ENDBRANCH   7   8
ENDBRANCH   6   7
ENDBRANCH   5   6
ENDBRANCH   4   5
ENDBRANCH   3   4
ENDBRANCH   2   3
TORSDOF 14
ENDMDL
MODEL      473
REMARK 921   NORMALIZED FREE ENERGY PREDICTED BY IDOCK:   -1.66 KCAL/MOL
REMARK 922        TOTAL FREE ENERGY PREDICTED BY IDOCK:   -3.94 KCAL/MOL
REMARK 923 INTER-LIGAND FREE ENERGY PREDICTED BY IDOCK:   -3.27 KCAL/MOL
REMARK 924 INTRA-LIGAND FREE ENERGY PREDICTED BY IDOCK:   -0.68 KCAL/MOL
REMARK 927      BINDING AFFINITY PREDICTED BY RF-SCORE:    0.00 PKD
ROOT
HETATM    1  C   UNK     1      -7.678   7.701  71.382  1.00  0.00    -0.081 C  
HETATM    2  O   UNK     1      -9.009   8.109  71.665  1.00  0.00    -0.138 OA 
ENDROOT
BRANCH   2   3
HETATM    3  C   UNK     1      -9.922   7.016  71.565  1.00  0.00    -0.180 C  
BRANCH   3   4
HETATM    4  C   UNK     1      -9.998   6.303  72.910  1.00  0.00    -0.170 C  
BRANCH   4   5
HETATM    5  O   UNK     1     -10.279   4.922  72.698  1.00  0.00    -0.174 OA 
BRANCH   5   6
HETATM    6  C   UNK     1      -9.264   4.295  71.917  1.00  0.00    -0.126 C  
BRANCH   6   7
HETATM    7  C   UNK     1      -9.874   3.796  70.614  1.00  0.00    -0.159 C  
BRANCH   7   8
HETATM    8  C   UNK     1      -8.842   3.709  69.484  1.00  0.00    -0.152 C  
BRANCH   8   9
HETATM    9  C   UNK     1      -9.520   3.860  68.125  1.00  0.00    -0.219 C  
BRANCH   9  10
HETATM   10  C   UNK     1      -8.710   4.728  67.166  1.00  0.00    -0.103 C  
BRANCH  10  11
HETATM   11  C   UNK     1      -8.979   6.202  67.408  1.00  0.00    -0.112 C  
HETATM   12  O   UNK     1     -10.019   6.630  67.898  1.00  0.00    -0.125 OA 
HETATM   13  N   UNK     1      -7.940   7.017  67.020  1.00  0.00    -0.114 N  
HETATM   14  H   UNK     1      -7.117   6.606  66.579  1.00  0.00     0.000 HD 
BRANCH  13  15
HETATM   15  C   UNK     1      -7.997   8.451  67.228  1.00  0.00    -0.105 C  
BRANCH  15  16
HETATM   16  C   UNK     1      -7.413   9.242  66.054  1.00  0.00    -0.095 C  
BRANCH  16  17
HETATM   17  C   UNK     1      -8.127   8.908  64.745  1.00  0.00    -0.144 C  
BRANCH  17  18
HETATM   18  C   UNK     1      -9.557   9.466  64.696  1.00  0.00     0.104 C  
BRANCH  18  19
HETATM   19  C   UNK     1      -9.878  10.211  63.392  1.00  0.00     0.087 C  
HETATM   20  N   UNK     1      -8.631  10.601  62.671  1.00  0.00    -0.206 NA 
HETATM   21  C   UNK     1     -10.688  11.484  63.686  1.00  0.00    -0.424 C  
HETATM   22  O   UNK     1     -11.881  11.522  63.919  1.00  0.00    -0.306 OA 
HETATM   23  O   UNK     1      -9.881  12.581  63.702  1.00  0.00    -0.323 OA 
HETATM   24  H1  UNK     1      -8.844  11.095  61.805  1.00  0.00     0.000 HD 
HETATM   25  H2  UNK     1      -8.027   9.795  62.504  1.00  0.00     0.000 HD 
ENDBRANCH  18  19
ENDBRANCH  17  18
ENDBRANCH  16  17
ENDBRANCH  15  16
ENDBRANCH  13  15
ENDBRANCH  10  11
ENDBRANCH   9  10
ENDBRANCH   8   9
ENDBRANCH   7   8
ENDBRANCH   6   7
ENDBRANCH   5   6
ENDBRANCH   4   5
ENDBRANCH   3   4
ENDBRANCH   2   3
TORSDOF 14
ENDMDL
MODEL      474
REMARK 921   NORMALIZED FREE ENERGY PREDICTED BY IDOCK:   -1.59 KCAL/MOL
REMARK 922        TOTAL FREE ENERGY PREDICTED BY IDOCK:   -3.83 KCAL/MOL
REMARK 923 INTER-LIGAND FREE ENERGY PREDICTED BY IDOCK:   -3.47 KCAL/MOL
REMARK 924 INTRA-LIGAND FREE ENERGY PREDICTED BY IDOCK:   -0.36 KCAL/MOL
REMARK 927      BINDING AFFINITY PREDICTED BY RF-SCORE:    0.00 PKD
ROOT
HETATM    1  C   UNK     1     -11.904  12.473  67.015  1.00  0.00    -0.323 C  
HETATM    2  O   UNK     1     -11.289  13.690  66.620  1.00  0.00    -0.309 OA 
ENDROOT
BRANCH   2   3
HETATM    3  C   UNK     1     -10.003  13.462  66.043  1.00  0.00    -0.293 C  
BRANCH   3   4
HETATM    4  C   UNK     1      -9.896  12.000  65.624  1.00  0.00    -0.243 C  
BRANCH   4   5
HETATM    5  O   UNK     1      -8.816  11.386  66.323  1.00  0.00    -0.191 OA 
BRANCH   5   6
HETATM    6  C   UNK     1      -8.427  12.150  67.462  1.00  0.00    -0.169 C  
BRANCH   6   7
HETATM    7  C   UNK     1      -7.751  11.232  68.472  1.00  0.00    -0.131 C  
BRANCH   7   8
HETATM    8  C   UNK     1      -8.745  10.283  69.151  1.00  0.00    -0.176 C  
BRANCH   8   9
HETATM    9  C   UNK     1      -8.659   8.888  68.537  1.00  0.00    -0.133 C  
BRANCH   9  10
HETATM   10  C   UNK     1      -7.426   8.121  69.009  1.00  0.00    -0.088 C  
BRANCH  10  11
HETATM   11  C   UNK     1      -7.823   6.853  69.743  1.00  0.00    -0.115 C  
HETATM   12  O   UNK     1      -7.337   6.511  70.816  1.00  0.00    -0.073 OA 
HETATM   13  N   UNK     1      -8.784   6.119  69.085  1.00  0.00    -0.121 N  
HETATM   14  H   UNK     1      -9.119   6.434  68.175  1.00  0.00     0.000 HD 
BRANCH  13  15
HETATM   15  C   UNK     1      -9.326   4.906  69.665  1.00  0.00    -0.129 C  
BRANCH  15  16
HETATM   16  C   UNK     1      -9.516   3.792  68.633  1.00  0.00    -0.215 C  
BRANCH  16  17
HETATM   17  C   UNK     1      -8.760   4.093  67.340  1.00  0.00    -0.115 C  
BRANCH  17  18
HETATM   18  C   UNK     1      -8.304   2.818  66.615  1.00  0.00    -0.096 C  
BRANCH  18  19
HETATM   19  C   UNK     1      -7.964   3.045  65.134  1.00  0.00    -0.082 C  
HETATM   20  N   UNK     1      -6.533   3.430  64.961  1.00  0.00    -0.034 NA 
HETATM   21  C   UNK     1      -8.843   4.160  64.546  1.00  0.00    -0.137 C  
HETATM   22  O   UNK     1      -9.998   4.033  64.188  1.00  0.00    -0.172 OA 
HETATM   23  O   UNK     1      -8.171   5.345  64.518  1.00  0.00    -0.124 OA 
HETATM   24  H1  UNK     1      -6.307   3.580  63.978  1.00  0.00     0.000 HD 
HETATM   25  H2  UNK     1      -5.906   2.748  65.390  1.00  0.00     0.000 HD 
ENDBRANCH  18  19
ENDBRANCH  17  18
ENDBRANCH  16  17
ENDBRANCH  15  16
ENDBRANCH  13  15
ENDBRANCH  10  11
ENDBRANCH   9  10
ENDBRANCH   8   9
ENDBRANCH   7   8
ENDBRANCH   6   7
ENDBRANCH   5   6
ENDBRANCH   4   5
ENDBRANCH   3   4
ENDBRANCH   2   3
TORSDOF 14
ENDMDL
MODEL      475
REMARK 921   NORMALIZED FREE ENERGY PREDICTED BY IDOCK:   -1.50 KCAL/MOL
REMARK 922        TOTAL FREE ENERGY PREDICTED BY IDOCK:   -3.65 KCAL/MOL
REMARK 923 INTER-LIGAND FREE ENERGY PREDICTED BY IDOCK:   -3.05 KCAL/MOL
REMARK 924 INTRA-LIGAND FREE ENERGY PREDICTED BY IDOCK:   -0.60 KCAL/MOL
REMARK 927      BINDING AFFINITY PREDICTED BY RF-SCORE:    0.00 PKD
ROOT
HETATM    1  C   UNK     1      -8.584   3.748  68.903  1.00  0.00    -0.085 C  
HETATM    2  O   UNK     1      -9.202   3.049  67.833  1.00  0.00    -0.164 OA 
ENDROOT
BRANCH   2   3
HETATM    3  C   UNK     1      -8.242   2.349  67.042  1.00  0.00    -0.083 C  
BRANCH   3   4
HETATM    4  C   UNK     1      -7.528   3.340  66.130  1.00  0.00    -0.076 C  
BRANCH   4   5
HETATM    5  O   UNK     1      -8.469   3.914  65.226  1.00  0.00    -0.110 OA 
BRANCH   5   6
HETATM    6  C   UNK     1      -7.950   5.088  64.605  1.00  0.00    -0.102 C  
BRANCH   6   7
HETATM    7  C   UNK     1      -7.894   6.212  65.631  1.00  0.00    -0.104 C  
BRANCH   7   8
HETATM    8  C   UNK     1      -7.314   7.505  65.047  1.00  0.00    -0.078 C  
BRANCH   8   9
HETATM    9  C   UNK     1      -8.080   8.719  65.565  1.00  0.00    -0.115 C  
BRANCH   9  10
HETATM   10  C   UNK     1      -9.062   9.269  64.533  1.00  0.00    -0.145 C  
BRANCH  10  11
HETATM   11  C   UNK     1      -9.932  10.357  65.137  1.00  0.00    -0.322 C  
HETATM   12  O   UNK     1     -10.691  11.061  64.480  1.00  0.00    -0.341 OA 
HETATM   13  N   UNK     1      -9.783  10.480  66.500  1.00  0.00    -0.185 N  
HETATM   14  H   UNK     1      -9.104   9.894  66.986  1.00  0.00     0.000 HD 
BRANCH  13  15
HETATM   15  C   UNK     1     -10.576  11.430  67.256  1.00  0.00    -0.227 C  
BRANCH  15  16
HETATM   16  C   UNK     1      -9.789  12.686  67.637  1.00  0.00    -0.210 C  
BRANCH  16  17
HETATM   17  C   UNK     1      -8.290  12.497  67.408  1.00  0.00    -0.182 C  
BRANCH  17  18
HETATM   18  C   UNK     1      -7.457  13.657  67.972  1.00  0.00    -0.133 C  
BRANCH  18  19
HETATM   19  C   UNK     1      -7.607  13.836  69.491  1.00  0.00     0.423 C  
HETATM   20  N   UNK     1      -8.574  14.925  69.813  1.00  0.00    -0.434 NA 
HETATM   21  C   UNK     1      -6.251  14.184  70.126  1.00  0.00    -0.151 C  
HETATM   22  O   UNK     1      -5.366  13.389  70.378  1.00  0.00    -0.106 OA 
HETATM   23  O   UNK     1      -6.141  15.526  70.333  1.00  0.00    -0.124 OA 
HETATM   24  H1  UNK     1      -8.674  15.044  70.821  1.00  0.00     0.000 HD 
HETATM   25  H2  UNK     1      -9.477  14.771  69.363  1.00  0.00     0.000 HD 
ENDBRANCH  18  19
ENDBRANCH  17  18
ENDBRANCH  16  17
ENDBRANCH  15  16
ENDBRANCH  13  15
ENDBRANCH  10  11
ENDBRANCH   9  10
ENDBRANCH   8   9
ENDBRANCH   7   8
ENDBRANCH   6   7
ENDBRANCH   5   6
ENDBRANCH   4   5
ENDBRANCH   3   4
ENDBRANCH   2   3
TORSDOF 14
ENDMDL
MODEL      476
REMARK 921   NORMALIZED FREE ENERGY PREDICTED BY IDOCK:   -1.48 KCAL/MOL
REMARK 922        TOTAL FREE ENERGY PREDICTED BY IDOCK:   -3.63 KCAL/MOL
REMARK 923 INTER-LIGAND FREE ENERGY PREDICTED BY IDOCK:   -2.55 KCAL/MOL
REMARK 924 INTRA-LIGAND FREE ENERGY PREDICTED BY IDOCK:   -1.08 KCAL/MOL
REMARK 927      BINDING AFFINITY PREDICTED BY RF-SCORE:    0.00 PKD
ROOT
HETATM    1  C   UNK     1      -7.598   7.075  64.899  1.00  0.00    -0.106 C  
HETATM    2  O   UNK     1      -7.882   5.730  65.258  1.00  0.00    -0.095 OA 
ENDROOT
BRANCH   2   3
HETATM    3  C   UNK     1      -7.153   4.808  64.447  1.00  0.00    -0.050 C  
BRANCH   3   4
HETATM    4  C   UNK     1      -7.782   3.425  64.576  1.00  0.00    -0.077 C  
BRANCH   4   5
HETATM    5  O   UNK     1      -6.824   2.519  65.117  1.00  0.00    -0.041 OA 
BRANCH   5   6
HETATM    6  C   UNK     1      -7.318   1.873  66.289  1.00  0.00    -0.061 C  
BRANCH   6   7
HETATM    7  C   UNK     1      -7.074   2.772  67.494  1.00  0.00    -0.053 C  
BRANCH   7   8
HETATM    8  C   UNK     1      -6.151   2.119  68.529  1.00  0.00    -0.025 C  
BRANCH   8   9
HETATM    9  C   UNK     1      -6.882   1.926  69.855  1.00  0.00    -0.033 C  
BRANCH   9  10
HETATM   10  C   UNK     1      -8.074   2.867  70.003  1.00  0.00    -0.056 C  
BRANCH  10  11
HETATM   11  C   UNK     1      -7.687   4.118  70.770  1.00  0.00    -0.052 C  
HETATM   12  O   UNK     1      -7.581   5.226  70.254  1.00  0.00    -0.068 OA 
HETATM   13  N   UNK     1      -7.463   3.889  72.109  1.00  0.00    -0.063 N  
HETATM   14  H   UNK     1      -7.525   2.938  72.473  1.00  0.00     0.000 HD 
BRANCH  13  15
HETATM   15  C   UNK     1      -7.138   4.978  73.010  1.00  0.00    -0.084 C  
BRANCH  15  16
HETATM   16  C   UNK     1      -8.379   5.730  73.498  1.00  0.00    -0.111 C  
BRANCH  16  17
HETATM   17  C   UNK     1      -8.028   7.142  73.966  1.00  0.00    -0.138 C  
BRANCH  17  18
HETATM   18  C   UNK     1      -8.194   8.188  72.854  1.00  0.00    -0.234 C  
BRANCH  18  19
HETATM   19  C   UNK     1      -9.263   7.813  71.816  1.00  0.00    -0.141 C  
HETATM   20  N   UNK     1      -8.743   7.967  70.426  1.00  0.00    -0.135 NA 
HETATM   21  C   UNK     1     -10.502   8.709  71.975  1.00  0.00    -0.352 C  
HETATM   22  O   UNK     1     -11.370   8.569  72.815  1.00  0.00    -0.286 OA 
HETATM   23  O   UNK     1     -10.485   9.728  71.070  1.00  0.00    -0.290 OA 
HETATM   24  H1  UNK     1      -9.452   7.718  69.737  1.00  0.00     0.000 HD 
HETATM   25  H2  UNK     1      -7.883   7.437  70.286  1.00  0.00     0.000 HD 
ENDBRANCH  18  19
ENDBRANCH  17  18
ENDBRANCH  16  17
ENDBRANCH  15  16
ENDBRANCH  13  15
ENDBRANCH  10  11
ENDBRANCH   9  10
ENDBRANCH   8   9
ENDBRANCH   7   8
ENDBRANCH   6   7
ENDBRANCH   5   6
ENDBRANCH   4   5
ENDBRANCH   3   4
ENDBRANCH   2   3
TORSDOF 14
ENDMDL
MODEL      477
REMARK 921   NORMALIZED FREE ENERGY PREDICTED BY IDOCK:   -1.46 KCAL/MOL
REMARK 922        TOTAL FREE ENERGY PREDICTED BY IDOCK:   -3.58 KCAL/MOL
REMARK 923 INTER-LIGAND FREE ENERGY PREDICTED BY IDOCK:   -3.51 KCAL/MOL
REMARK 924 INTRA-LIGAND FREE ENERGY PREDICTED BY IDOCK:   -0.06 KCAL/MOL
REMARK 927      BINDING AFFINITY PREDICTED BY RF-SCORE:    0.00 PKD
ROOT
HETATM    1  C   UNK     1      -9.544  16.106  68.692  1.00  0.00    -0.226 C  
HETATM    2  O   UNK     1     -10.792  15.683  69.222  1.00  0.00    -0.219 OA 
ENDROOT
BRANCH   2   3
HETATM    3  C   UNK     1     -11.753  15.467  68.189  1.00  0.00    -0.261 C  
BRANCH   3   4
HETATM    4  C   UNK     1     -11.096  14.697  67.049  1.00  0.00    -0.333 C  
BRANCH   4   5
HETATM    5  O   UNK     1     -10.497  13.509  67.564  1.00  0.00    -0.235 OA 
BRANCH   5   6
HETATM    6  C   UNK     1      -9.782  12.803  66.552  1.00  0.00    -0.255 C  
BRANCH   6   7
HETATM    7  C   UNK     1      -9.234  11.509  67.140  1.00  0.00    -0.171 C  
BRANCH   7   8
HETATM    8  C   UNK     1      -8.776  11.677  68.593  1.00  0.00    -0.083 C  
BRANCH   8   9
HETATM    9  C   UNK     1      -7.890  10.509  69.015  1.00  0.00    -0.129 C  
BRANCH   9  10
HETATM   10  C   UNK     1      -8.605   9.166  68.897  1.00  0.00    -0.131 C  
BRANCH  10  11
HETATM   11  C   UNK     1      -9.309   8.809  70.193  1.00  0.00    -0.169 C  
HETATM   12  O   UNK     1      -9.645   9.638  71.033  1.00  0.00    -0.173 OA 
HETATM   13  N   UNK     1      -9.535   7.459  70.338  1.00  0.00    -0.165 N  
HETATM   14  H   UNK     1      -9.195   6.814  69.624  1.00  0.00     0.000 HD 
BRANCH  13  15
HETATM   15  C   UNK     1     -10.247   6.939  71.489  1.00  0.00    -0.196 C  
BRANCH  15  16
HETATM   16  C   UNK     1      -9.529   5.756  72.143  1.00  0.00    -0.164 C  
BRANCH  16  17
HETATM   17  C   UNK     1      -8.560   5.083  71.172  1.00  0.00    -0.131 C  
BRANCH  17  18
HETATM   18  C   UNK     1      -7.500   4.236  71.890  1.00  0.00    -0.070 C  
BRANCH  18  19
HETATM   19  C   UNK     1      -7.795   2.729  71.856  1.00  0.00    -0.053 C  
HETATM   20  N   UNK     1      -7.880   2.227  70.454  1.00  0.00    -0.042 NA 
HETATM   21  C   UNK     1      -9.126   2.427  72.563  1.00  0.00    -0.078 C  
HETATM   22  O   UNK     1      -9.285   2.359  73.767  1.00  0.00    -0.079 OA 
HETATM   23  O   UNK     1     -10.136   2.288  71.660  1.00  0.00    -0.151 OA 
HETATM   24  H1  UNK     1      -8.075   1.227  70.431  1.00  0.00     0.000 HD 
HETATM   25  H2  UNK     1      -7.040   2.457  69.922  1.00  0.00     0.000 HD 
ENDBRANCH  18  19
ENDBRANCH  17  18
ENDBRANCH  16  17
ENDBRANCH  15  16
ENDBRANCH  13  15
ENDBRANCH  10  11
ENDBRANCH   9  10
ENDBRANCH   8   9
ENDBRANCH   7   8
ENDBRANCH   6   7
ENDBRANCH   5   6
ENDBRANCH   4   5
ENDBRANCH   3   4
ENDBRANCH   2   3
TORSDOF 14
ENDMDL
MODEL      478
REMARK 921   NORMALIZED FREE ENERGY PREDICTED BY IDOCK:   -1.38 KCAL/MOL
REMARK 922        TOTAL FREE ENERGY PREDICTED BY IDOCK:   -3.43 KCAL/MOL
REMARK 923 INTER-LIGAND FREE ENERGY PREDICTED BY IDOCK:   -3.00 KCAL/MOL
REMARK 924 INTRA-LIGAND FREE ENERGY PREDICTED BY IDOCK:   -0.43 KCAL/MOL
REMARK 927      BINDING AFFINITY PREDICTED BY RF-SCORE:    0.00 PKD
ROOT
HETATM    1  C   UNK     1     -10.609   8.844  66.793  1.00  0.00    -0.142 C  
HETATM    2  O   UNK     1     -10.254   7.480  66.615  1.00  0.00    -0.250 OA 
ENDROOT
BRANCH   2   3
HETATM    3  C   UNK     1     -10.979   6.632  67.506  1.00  0.00    -0.338 C  
BRANCH   3   4
HETATM    4  C   UNK     1     -10.461   6.840  68.925  1.00  0.00    -0.207 C  
BRANCH   4   5
HETATM    5  O   UNK     1     -10.355   5.577  69.579  1.00  0.00    -0.236 OA 
BRANCH   5   6
HETATM    6  C   UNK     1      -9.045   5.029  69.449  1.00  0.00    -0.103 C  
BRANCH   6   7
HETATM    7  C   UNK     1      -9.156   3.566  69.038  1.00  0.00    -0.202 C  
BRANCH   7   8
HETATM    8  C   UNK     1      -9.395   3.401  67.533  1.00  0.00    -0.248 C  
BRANCH   8   9
HETATM    9  C   UNK     1      -8.370   2.445  66.928  1.00  0.00    -0.090 C  
BRANCH   9  10
HETATM   10  C   UNK     1      -7.773   2.980  65.629  1.00  0.00    -0.081 C  
BRANCH  10  11
HETATM   11  C   UNK     1      -6.855   4.158  65.898  1.00  0.00    -0.057 C  
HETATM   12  O   UNK     1      -5.804   4.071  66.525  1.00  0.00    -0.021 OA 
HETATM   13  N   UNK     1      -7.318   5.343  65.371  1.00  0.00    -0.068 N  
HETATM   14  H   UNK     1      -8.221   5.361  64.896  1.00  0.00     0.000 HD 
BRANCH  13  15
HETATM   15  C   UNK     1      -6.544   6.564  65.481  1.00  0.00    -0.043 C  
BRANCH  15  16
HETATM   16  C   UNK     1      -6.628   7.194  66.874  1.00  0.00    -0.055 C  
BRANCH  16  17
HETATM   17  C   UNK     1      -6.318   8.690  66.830  1.00  0.00    -0.059 C  
BRANCH  17  18
HETATM   18  C   UNK     1      -7.588   9.554  66.845  1.00  0.00    -0.095 C  
BRANCH  18  19
HETATM   19  C   UNK     1      -7.306  11.058  66.712  1.00  0.00    -0.139 C  
HETATM   20  N   UNK     1      -6.410  11.339  65.552  1.00  0.00    -0.348 NA 
HETATM   21  C   UNK     1      -6.633  11.593  67.987  1.00  0.00    -0.062 C  
HETATM   22  O   UNK     1      -7.206  11.864  69.025  1.00  0.00    -0.112 OA 
HETATM   23  O   UNK     1      -5.283  11.683  67.824  1.00  0.00    -0.045 OA 
HETATM   24  H1  UNK     1      -6.223  12.337  65.463  1.00  0.00     0.000 HD 
HETATM   25  H2  UNK     1      -6.784  10.950  64.686  1.00  0.00     0.000 HD 
ENDBRANCH  18  19
ENDBRANCH  17  18
ENDBRANCH  16  17
ENDBRANCH  15  16
ENDBRANCH  13  15
ENDBRANCH  10  11
ENDBRANCH   9  10
ENDBRANCH   8   9
ENDBRANCH   7   8
ENDBRANCH   6   7
ENDBRANCH   5   6
ENDBRANCH   4   5
ENDBRANCH   3   4
ENDBRANCH   2   3
TORSDOF 14
ENDMDL
MODEL      479
REMARK 921   NORMALIZED FREE ENERGY PREDICTED BY IDOCK:   -1.30 KCAL/MOL
REMARK 922        TOTAL FREE ENERGY PREDICTED BY IDOCK:   -3.29 KCAL/MOL
REMARK 923 INTER-LIGAND FREE ENERGY PREDICTED BY IDOCK:   -3.51 KCAL/MOL
REMARK 924 INTRA-LIGAND FREE ENERGY PREDICTED BY IDOCK:    0.22 KCAL/MOL
REMARK 927      BINDING AFFINITY PREDICTED BY RF-SCORE:    0.00 PKD
ROOT
HETATM    1  C   UNK     1      -9.577   6.958  68.604  1.00  0.00    -0.133 C  
HETATM    2  O   UNK     1      -8.889   5.731  68.799  1.00  0.00    -0.110 OA 
ENDROOT
BRANCH   2   3
HETATM    3  C   UNK     1      -7.475   5.924  68.829  1.00  0.00    -0.086 C  
BRANCH   3   4
HETATM    4  C   UNK     1      -7.045   6.667  67.570  1.00  0.00    -0.084 C  
BRANCH   4   5
HETATM    5  O   UNK     1      -6.696   5.724  66.560  1.00  0.00    -0.054 OA 
BRANCH   5   6
HETATM    6  C   UNK     1      -7.373   5.995  65.334  1.00  0.00    -0.076 C  
BRANCH   6   7
HETATM    7  C   UNK     1      -7.283   7.486  65.034  1.00  0.00    -0.066 C  
BRANCH   7   8
HETATM    8  C   UNK     1      -8.457   7.979  64.180  1.00  0.00     0.111 C  
BRANCH   8   9
HETATM    9  C   UNK     1      -7.956   8.851  63.032  1.00  0.00    -0.161 C  
BRANCH   9  10
HETATM   10  C   UNK     1      -9.071   9.686  62.408  1.00  0.00    -0.290 C  
BRANCH  10  11
HETATM   11  C   UNK     1      -9.268  10.984  63.169  1.00  0.00    -0.302 C  
HETATM   12  O   UNK     1      -8.375  11.548  63.792  1.00  0.00     0.567 OA 
HETATM   13  N   UNK     1     -10.554  11.470  63.094  1.00  0.00    -0.649 N  
HETATM   14  H   UNK     1     -11.265  10.935  62.595  1.00  0.00     0.000 HD 
BRANCH  13  15
HETATM   15  C   UNK     1     -10.914  12.731  63.713  1.00  0.00    -0.402 C  
BRANCH  15  16
HETATM   16  C   UNK     1     -10.379  12.862  65.141  1.00  0.00    -0.320 C  
BRANCH  16  17
HETATM   17  C   UNK     1     -11.010  11.827  66.072  1.00  0.00    -0.355 C  
BRANCH  17  18
HETATM   18  C   UNK     1     -11.562  12.454  67.361  1.00  0.00    -0.433 C  
BRANCH  18  19
HETATM   19  C   UNK     1     -10.482  12.737  68.415  1.00  0.00    -0.243 C  
HETATM   20  N   UNK     1      -9.193  13.134  67.775  1.00  0.00    -0.194 NA 
HETATM   21  C   UNK     1     -10.233  11.489  69.277  1.00  0.00     0.078 C  
HETATM   22  O   UNK     1     -10.934  11.117  70.199  1.00  0.00    -0.138 OA 
HETATM   23  O   UNK     1      -9.134  10.809  68.844  1.00  0.00    -0.168 OA 
HETATM   24  H1  UNK     1      -8.476  13.322  68.475  1.00  0.00     0.000 HD 
HETATM   25  H2  UNK     1      -9.317  13.925  67.143  1.00  0.00     0.000 HD 
ENDBRANCH  18  19
ENDBRANCH  17  18
ENDBRANCH  16  17
ENDBRANCH  15  16
ENDBRANCH  13  15
ENDBRANCH  10  11
ENDBRANCH   9  10
ENDBRANCH   8   9
ENDBRANCH   7   8
ENDBRANCH   6   7
ENDBRANCH   5   6
ENDBRANCH   4   5
ENDBRANCH   3   4
ENDBRANCH   2   3
TORSDOF 14
ENDMDL
MODEL      480
REMARK 921   NORMALIZED FREE ENERGY PREDICTED BY IDOCK:   -0.78 KCAL/MOL
REMARK 922        TOTAL FREE ENERGY PREDICTED BY IDOCK:   -2.34 KCAL/MOL
REMARK 923 INTER-LIGAND FREE ENERGY PREDICTED BY IDOCK:   -2.47 KCAL/MOL
REMARK 924 INTRA-LIGAND FREE ENERGY PREDICTED BY IDOCK:    0.12 KCAL/MOL
REMARK 927      BINDING AFFINITY PREDICTED BY RF-SCORE:    0.00 PKD
ROOT
HETATM    1  C   UNK     1      -8.226   2.027  65.586  1.00  0.00    -0.088 C  
HETATM    2  O   UNK     1      -7.308   1.631  64.578  1.00  0.00    -0.050 OA 
ENDROOT
BRANCH   2   3
HETATM    3  C   UNK     1      -6.858   2.749  63.812  1.00  0.00    -0.036 C  
BRANCH   3   4
HETATM    4  C   UNK     1      -5.978   3.633  64.689  1.00  0.00    -0.022 C  
BRANCH   4   5
HETATM    5  O   UNK     1      -6.792   4.312  65.643  1.00  0.00    -0.054 OA 
BRANCH   5   6
HETATM    6  C   UNK     1      -6.829   5.716  65.395  1.00  0.00    -0.056 C  
BRANCH   6   7
HETATM    7  C   UNK     1      -8.221   6.100  64.912  1.00  0.00    -0.125 C  
BRANCH   7   8
HETATM    8  C   UNK     1      -8.844   7.216  65.759  1.00  0.00    -0.090 C  
BRANCH   8   9
HETATM    9  C   UNK     1      -9.351   6.662  67.087  1.00  0.00    -0.150 C  
BRANCH   9  10
HETATM   10  C   UNK     1     -10.403   5.572  66.897  1.00  0.00    -0.315 C  
BRANCH  10  11
HETATM   11  C   UNK     1     -10.218   4.456  67.910  1.00  0.00     0.162 C  
HETATM   12  O   UNK     1     -10.091   3.275  67.603  1.00  0.00     0.320 OA 
HETATM   13  N   UNK     1     -10.210   4.898  69.213  1.00  0.00    -0.182 N  
HETATM   14  H   UNK     1     -10.363   5.888  69.409  1.00  0.00     0.000 HD 
BRANCH  13  15
HETATM   15  C   UNK     1      -9.988   3.980  70.313  1.00  0.00    -0.032 C  
BRANCH  15  16
HETATM   16  C   UNK     1      -8.969   4.507  71.327  1.00  0.00    -0.167 C  
BRANCH  16  17
HETATM   17  C   UNK     1      -9.139   6.008  71.560  1.00  0.00    -0.148 C  
BRANCH  17  18
HETATM   18  C   UNK     1      -9.745   6.324  72.936  1.00  0.00    -0.162 C  
BRANCH  18  19
HETATM   19  C   UNK     1      -9.967   7.825  73.177  1.00  0.00    -0.311 C  
HETATM   20  N   UNK     1     -10.770   8.436  72.076  1.00  0.00    -0.291 NA 
HETATM   21  C   UNK     1      -8.619   8.560  73.261  1.00  0.00    -0.003 C  
HETATM   22  O   UNK     1      -7.889   8.584  74.234  1.00  0.00    -0.346 OA 
HETATM   23  O   UNK     1      -8.314   9.154  72.074  1.00  0.00    -0.321 OA 
HETATM   24  H1  UNK     1     -10.917   9.432  72.236  1.00  0.00     0.000 HD 
HETATM   25  H2  UNK     1     -11.653   7.943  71.940  1.00  0.00     0.000 HD 
ENDBRANCH  18  19
ENDBRANCH  17  18
ENDBRANCH  16  17
ENDBRANCH  15  16
ENDBRANCH  13  15
ENDBRANCH  10  11
ENDBRANCH   9  10
ENDBRANCH   8   9
ENDBRANCH   7   8
ENDBRANCH   6   7
ENDBRANCH   5   6
ENDBRANCH   4   5
ENDBRANCH   3   4
ENDBRANCH   2   3
TORSDOF 14
ENDMDL
MODEL      481
REMARK 921   NORMALIZED FREE ENERGY PREDICTED BY IDOCK:   -0.60 KCAL/MOL
REMARK 922        TOTAL FREE ENERGY PREDICTED BY IDOCK:   -2.02 KCAL/MOL
REMARK 923 INTER-LIGAND FREE ENERGY PREDICTED BY IDOCK:   -1.33 KCAL/MOL
REMARK 924 INTRA-LIGAND FREE ENERGY PREDICTED BY IDOCK:   -0.69 KCAL/MOL
REMARK 927      BINDING AFFINITY PREDICTED BY RF-SCORE:    0.00 PKD
ROOT
HETATM    1  C   UNK     1      -5.950   2.944  68.278  1.00  0.00    -0.024 C  
HETATM    2  O   UNK     1      -6.322   1.828  67.482  1.00  0.00    -0.024 OA 
ENDROOT
BRANCH   2   3
HETATM    3  C   UNK     1      -5.350   1.560  66.471  1.00  0.00    -0.005 C  
BRANCH   3   4
HETATM    4  C   UNK     1      -5.857   2.096  65.137  1.00  0.00    -0.017 C  
BRANCH   4   5
HETATM    5  O   UNK     1      -7.261   2.325  65.221  1.00  0.00    -0.055 OA 
BRANCH   5   6
HETATM    6  C   UNK     1      -7.662   3.430  64.415  1.00  0.00    -0.077 C  
BRANCH   6   7
HETATM    7  C   UNK     1      -6.682   4.578  64.619  1.00  0.00    -0.045 C  
BRANCH   7   8
HETATM    8  C   UNK     1      -6.580   5.483  63.386  1.00  0.00    -0.029 C  
BRANCH   8   9
HETATM    9  C   UNK     1      -6.415   6.942  63.803  1.00  0.00    -0.043 C  
BRANCH   9  10
HETATM   10  C   UNK     1      -6.863   7.911  62.712  1.00  0.00    -0.084 C  
BRANCH  10  11
HETATM   11  C   UNK     1      -7.979   8.812  63.211  1.00  0.00    -0.160 C  
HETATM   12  O   UNK     1      -9.141   8.730  62.826  1.00  0.00     0.053 OA 
HETATM   13  N   UNK     1      -7.559   9.737  64.140  1.00  0.00    -0.129 N  
HETATM   14  H   UNK     1      -6.571   9.784  64.390  1.00  0.00     0.000 HD 
BRANCH  13  15
HETATM   15  C   UNK     1      -8.498  10.645  64.769  1.00  0.00    -0.100 C  
BRANCH  15  16
HETATM   16  C   UNK     1      -8.871  10.218  66.191  1.00  0.00    -0.166 C  
BRANCH  16  17
HETATM   17  C   UNK     1     -10.369  10.375  66.447  1.00  0.00    -0.278 C  
BRANCH  17  18
HETATM   18  C   UNK     1     -10.702  10.489  67.942  1.00  0.00    -0.305 C  
BRANCH  18  19
HETATM   19  C   UNK     1      -9.762  11.433  68.707  1.00  0.00    -0.145 C  
HETATM   20  N   UNK     1      -9.584  10.987  70.121  1.00  0.00     0.523 NA 
HETATM   21  C   UNK     1     -10.327  12.862  68.715  1.00  0.00    -0.125 C  
HETATM   22  O   UNK     1     -10.256  13.654  67.794  1.00  0.00    -0.234 OA 
HETATM   23  O   UNK     1     -10.973  13.124  69.886  1.00  0.00     0.139 OA 
HETATM   24  H1  UNK     1      -8.960  11.613  70.629  1.00  0.00     0.000 HD 
HETATM   25  H2  UNK     1      -9.266  10.019  70.171  1.00  0.00     0.000 HD 
ENDBRANCH  18  19
ENDBRANCH  17  18
ENDBRANCH  16  17
ENDBRANCH  15  16
ENDBRANCH  13  15
ENDBRANCH  10  11
ENDBRANCH   9  10
ENDBRANCH   8   9
ENDBRANCH   7   8
ENDBRANCH   6   7
ENDBRANCH   5   6
ENDBRANCH   4   5
ENDBRANCH   3   4
ENDBRANCH   2   3
TORSDOF 14
ENDMDL
