MODEL        1
REMARK 921   NORMALIZED FREE ENERGY PREDICTED BY IDOCK:   -7.18 KCAL/MOL
REMARK 922        TOTAL FREE ENERGY PREDICTED BY IDOCK:  -12.76 KCAL/MOL
REMARK 923 INTER-LIGAND FREE ENERGY PREDICTED BY IDOCK:  -10.12 KCAL/MOL
REMARK 924 INTRA-LIGAND FREE ENERGY PREDICTED BY IDOCK:   -2.64 KCAL/MOL
REMARK 927      BINDING AFFINITY PREDICTED BY RF-SCORE:    0.00 PKD
ROOT
HETATM    1  N   UNK A   0     -12.401  14.214  63.206  1.00  0.00    -1.133 NA 
HETATM    2  H1  UNK A   0     -12.123  14.192  62.226  1.00  0.00     0.000 HD 
HETATM    3  C   UNK A   0     -11.951  13.274  64.077  1.00  0.00    -0.465 C  
HETATM    4  H2  UNK A   0     -13.023  14.952  63.537  1.00  0.00     0.000 HD 
HETATM    5  N   UNK A   0     -12.305  13.303  65.329  1.00  0.00    -0.450 N  
HETATM    6  H   UNK A   0     -12.942  14.025  65.665  1.00  0.00     0.000 HD 
HETATM    7  C   UNK A   0     -11.809  12.338  66.209  1.00  0.00    -0.317 C  
HETATM    8  C   UNK A   0     -10.865  11.376  65.634  1.00  0.00    -0.280 A  
HETATM    9  O   UNK A   0     -12.129  12.294  67.390  1.00  0.00    -0.533 OA 
HETATM   10  C   UNK A   0     -10.572  11.441  64.299  1.00  0.00    -0.355 A  
HETATM   11  N   UNK A   0      -9.660  10.494  63.970  1.00  0.00    -0.287 NA 
HETATM   12  N   UNK A   0     -11.116  12.359  63.492  1.00  0.00    -0.461 NA 
HETATM   13  H   UNK A   0      -9.273  10.330  63.040  1.00  0.00     0.000 HD 
HETATM   14  C   UNK A   0      -9.348   9.791  65.110  1.00  0.00    -0.260 A  
HETATM   15  C   UNK A   0     -10.080  10.311  66.172  1.00  0.00    -0.307 A  
ENDROOT
BRANCH  15  16
HETATM   16  C   UNK A   0      -9.994   9.873  67.600  1.00  0.00    -0.212 C  
BRANCH  16  17
HETATM   17  C   UNK A   0      -8.622  10.126  68.247  1.00  0.00    -0.116 C  
BRANCH  17  18
HETATM   18  C   UNK A   0      -8.171  11.574  68.165  1.00  0.00    -0.149 A  
HETATM   19  C   UNK A   0      -9.008  12.623  68.569  1.00  0.00    -0.046 A  
HETATM   20  C   UNK A   0      -8.632  13.952  68.376  1.00  0.00    -0.169 A  
HETATM   21  C   UNK A   0      -7.398  14.256  67.796  1.00  0.00    -0.185 A  
HETATM   22  C   UNK A   0      -6.499  13.227  67.506  1.00  0.00    -0.143 A  
HETATM   23  C   UNK A   0      -6.888  11.892  67.686  1.00  0.00    -0.112 A  
BRANCH  21  24
HETATM   24  C   UNK A   0      -7.075  15.664  67.428  1.00  0.00    -0.207 C  
HETATM   25  O   UNK A   0      -5.965  16.016  67.050  1.00  0.00    -0.334 OA 
ATOM     26  N   GLU A   1      -8.139  16.540  67.514  1.00  0.00    -0.151 N  
ATOM     27  H   GLU A   1      -9.045  16.193  67.828  1.00  0.00     0.000 HD 
BRANCH  26  28
ATOM     28  CA  GLU A   1      -8.000  17.946  67.166  1.00  0.00    -0.210 C  
ATOM     29  C   GLU A   1      -8.007  18.781  68.452  1.00  0.00    -0.334 C  
ATOM     30  O   GLU A   1      -6.777  18.957  68.986  1.00  0.00    -0.278 OA 
ATOM     31  OXT GLU A   1      -9.024  19.242  68.969  1.00  0.00    -0.338 OA 
BRANCH  28  32
ATOM     32  CB  GLU A   1      -9.133  18.392  66.232  1.00  0.00    -0.213 C  
BRANCH  32  33
ATOM     33  CG  GLU A   1     -10.396  17.557  66.433  1.00  0.00    -0.334 C  
ATOM     34  CD  GLU A   1     -10.658  16.684  65.236  1.00  0.00    -0.205 C  
ATOM     35  OE1 GLU A   1     -10.105  15.456  65.330  1.00  0.00    -0.349 OA 
ATOM     36  OE2 GLU A   1     -11.283  17.056  64.254  1.00  0.00    -1.186 OA 
ENDBRANCH  32  33
ENDBRANCH  28  32
ENDBRANCH  26  28
ENDBRANCH  21  24
ENDBRANCH  17  18
ENDBRANCH  16  17
ENDBRANCH  15  16
TORSDOF 7
ENDMDL
MODEL        2
REMARK 921   NORMALIZED FREE ENERGY PREDICTED BY IDOCK:   -6.91 KCAL/MOL
REMARK 922        TOTAL FREE ENERGY PREDICTED BY IDOCK:  -12.38 KCAL/MOL
REMARK 923 INTER-LIGAND FREE ENERGY PREDICTED BY IDOCK:  -11.29 KCAL/MOL
REMARK 924 INTRA-LIGAND FREE ENERGY PREDICTED BY IDOCK:   -1.09 KCAL/MOL
REMARK 927      BINDING AFFINITY PREDICTED BY RF-SCORE:    0.00 PKD
ROOT
HETATM    1  N   UNK A   0     -14.242   8.946  73.107  1.00  0.00    -1.200 NA 
HETATM    2  H1  UNK A   0     -14.261   7.928  73.150  1.00  0.00     0.000 HD 
HETATM    3  C   UNK A   0     -13.420   9.590  72.239  1.00  0.00    -0.440 C  
HETATM    4  H2  UNK A   0     -14.848   9.488  73.723  1.00  0.00     0.000 HD 
HETATM    5  N   UNK A   0     -13.395  10.889  72.183  1.00  0.00    -0.580 N  
HETATM    6  H   UNK A   0     -13.984  11.440  72.808  1.00  0.00     0.000 HD 
HETATM    7  C   UNK A   0     -12.559  11.526  71.264  1.00  0.00    -0.347 C  
HETATM    8  C   UNK A   0     -11.791  10.642  70.382  1.00  0.00    -0.441 A  
HETATM    9  O   UNK A   0     -12.468  12.744  71.185  1.00  0.00    -0.352 OA 
HETATM   10  C   UNK A   0     -11.894   9.287  70.537  1.00  0.00    -0.124 A  
HETATM   11  N   UNK A   0     -11.138   8.647  69.612  1.00  0.00    -0.429 NA 
HETATM   12  N   UNK A   0     -12.677   8.732  71.470  1.00  0.00    -0.326 NA 
HETATM   13  H   UNK A   0     -11.040   7.637  69.511  1.00  0.00     0.000 HD 
HETATM   14  C   UNK A   0     -10.526   9.600  68.833  1.00  0.00    -0.215 A  
HETATM   15  C   UNK A   0     -10.907  10.860  69.282  1.00  0.00    -0.286 A  
ENDROOT
BRANCH  15  16
HETATM   16  C   UNK A   0     -10.513  12.169  68.673  1.00  0.00    -0.237 C  
BRANCH  16  17
HETATM   17  C   UNK A   0     -11.626  12.826  67.838  1.00  0.00    -0.400 C  
BRANCH  17  18
HETATM   18  C   UNK A   0     -11.290  14.237  67.387  1.00  0.00    -0.349 A  
HETATM   19  C   UNK A   0     -11.056  14.537  66.039  1.00  0.00    -0.329 A  
HETATM   20  C   UNK A   0     -10.629  15.807  65.653  1.00  0.00    -0.393 A  
HETATM   21  C   UNK A   0     -10.454  16.811  66.609  1.00  0.00    -0.258 A  
HETATM   22  C   UNK A   0     -10.806  16.567  67.938  1.00  0.00    -0.326 A  
HETATM   23  C   UNK A   0     -11.218  15.283  68.325  1.00  0.00    -0.318 A  
BRANCH  21  24
HETATM   24  C   UNK A   0      -9.831  18.107  66.221  1.00  0.00    -0.310 C  
HETATM   25  O   UNK A   0     -10.439  18.986  65.623  1.00  0.00    -0.554 OA 
ATOM     26  N   GLU A   1      -8.518  18.259  66.621  1.00  0.00    -0.258 N  
ATOM     27  H   GLU A   1      -8.061  17.498  67.123  1.00  0.00     0.000 HD 
BRANCH  26  28
ATOM     28  CA  GLU A   1      -7.771  19.477  66.344  1.00  0.00    -0.296 C  
ATOM     29  C   GLU A   1      -6.415  19.102  65.735  1.00  0.00    -0.239 C  
ATOM     30  O   GLU A   1      -6.439  19.001  64.387  1.00  0.00    -0.415 OA 
ATOM     31  OXT GLU A   1      -5.396  18.896  66.395  1.00  0.00    -0.147 OA 
BRANCH  28  32
ATOM     32  CB  GLU A   1      -7.574  20.300  67.624  1.00  0.00    -0.339 C  
BRANCH  32  33
ATOM     33  CG  GLU A   1      -7.699  19.437  68.878  1.00  0.00    -0.382 C  
ATOM     34  CD  GLU A   1      -6.436  19.487  69.693  1.00  0.00    -0.315 C  
ATOM     35  OE1 GLU A   1      -6.436  20.454  70.634  1.00  0.00    -0.485 OA 
ATOM     36  OE2 GLU A   1      -5.481  18.748  69.503  1.00  0.00    -0.197 OA 
ENDBRANCH  32  33
ENDBRANCH  28  32
ENDBRANCH  26  28
ENDBRANCH  21  24
ENDBRANCH  17  18
ENDBRANCH  16  17
ENDBRANCH  15  16
TORSDOF 7
ENDMDL
MODEL        3
REMARK 921   NORMALIZED FREE ENERGY PREDICTED BY IDOCK:   -6.60 KCAL/MOL
REMARK 922        TOTAL FREE ENERGY PREDICTED BY IDOCK:  -11.94 KCAL/MOL
REMARK 923 INTER-LIGAND FREE ENERGY PREDICTED BY IDOCK:  -10.50 KCAL/MOL
REMARK 924 INTRA-LIGAND FREE ENERGY PREDICTED BY IDOCK:   -1.44 KCAL/MOL
REMARK 927      BINDING AFFINITY PREDICTED BY RF-SCORE:    0.00 PKD
ROOT
HETATM    1  N   UNK A   0     -14.050  16.103  73.354  1.00  0.00    -0.592 NA 
HETATM    2  H1  UNK A   0     -14.439  15.740  74.224  1.00  0.00     0.000 HD 
HETATM    3  C   UNK A   0     -13.513  15.266  72.430  1.00  0.00    -0.463 C  
HETATM    4  H2  UNK A   0     -14.065  17.107  73.176  1.00  0.00     0.000 HD 
HETATM    5  N   UNK A   0     -13.017  15.728  71.320  1.00  0.00    -0.507 N  
HETATM    6  H   UNK A   0     -13.010  16.733  71.142  1.00  0.00     0.000 HD 
HETATM    7  C   UNK A   0     -12.493  14.843  70.375  1.00  0.00    -0.350 C  
HETATM    8  C   UNK A   0     -12.595  13.420  70.710  1.00  0.00    -0.369 A  
HETATM    9  O   UNK A   0     -11.985  15.219  69.327  1.00  0.00    -0.320 OA 
HETATM   10  C   UNK A   0     -13.133  13.051  71.913  1.00  0.00    -0.384 A  
HETATM   11  N   UNK A   0     -13.170  11.701  72.019  1.00  0.00    -0.495 NA 
HETATM   12  N   UNK A   0     -13.576  13.949  72.802  1.00  0.00    -0.699 NA 
HETATM   13  H   UNK A   0     -13.524  11.171  72.816  1.00  0.00     0.000 HD 
HETATM   14  C   UNK A   0     -12.645  11.171  70.864  1.00  0.00    -0.386 A  
HETATM   15  C   UNK A   0     -12.274  12.211  70.020  1.00  0.00    -0.270 A  
ENDROOT
BRANCH  15  16
HETATM   16  C   UNK A   0     -11.715  12.070  68.640  1.00  0.00    -0.380 C  
BRANCH  16  17
HETATM   17  C   UNK A   0     -10.194  11.849  68.603  1.00  0.00    -0.202 C  
BRANCH  17  18
HETATM   18  C   UNK A   0      -9.420  13.047  68.081  1.00  0.00    -0.218 A  
HETATM   19  C   UNK A   0      -8.142  13.358  68.562  1.00  0.00    -0.105 A  
HETATM   20  C   UNK A   0      -7.493  14.527  68.165  1.00  0.00    -0.126 A  
HETATM   21  C   UNK A   0      -8.103  15.396  67.258  1.00  0.00    -0.228 A  
HETATM   22  C   UNK A   0      -9.319  15.039  66.670  1.00  0.00    -0.290 A  
HETATM   23  C   UNK A   0      -9.975  13.871  67.085  1.00  0.00    -0.239 A  
BRANCH  21  24
HETATM   24  C   UNK A   0      -7.491  16.724  66.973  1.00  0.00    -0.201 C  
HETATM   25  O   UNK A   0      -6.536  16.871  66.221  1.00  0.00    -0.211 OA 
ATOM     26  N   GLU A   1      -8.110  17.790  67.597  1.00  0.00    -0.219 N  
ATOM     27  H   GLU A   1      -8.907  17.613  68.208  1.00  0.00     0.000 HD 
BRANCH  26  28
ATOM     28  CA  GLU A   1      -7.653  19.158  67.405  1.00  0.00    -0.234 C  
ATOM     29  C   GLU A   1      -6.668  19.516  68.524  1.00  0.00    -0.288 C  
ATOM     30  O   GLU A   1      -5.383  19.215  68.228  1.00  0.00    -0.182 OA 
ATOM     31  OXT GLU A   1      -6.999  20.017  69.599  1.00  0.00    -0.281 OA 
BRANCH  28  32
ATOM     32  CB  GLU A   1      -8.837  20.134  67.400  1.00  0.00    -0.440 C  
BRANCH  32  33
ATOM     33  CG  GLU A   1     -10.176  19.400  67.360  1.00  0.00    -0.530 C  
ATOM     34  CD  GLU A   1     -10.593  19.119  65.942  1.00  0.00    -0.415 C  
ATOM     35  OE1 GLU A   1     -10.180  17.919  65.484  1.00  0.00    -0.576 OA 
ATOM     36  OE2 GLU A   1     -11.217  19.912  65.252  1.00  0.00    -0.301 OA 
ENDBRANCH  32  33
ENDBRANCH  28  32
ENDBRANCH  26  28
ENDBRANCH  21  24
ENDBRANCH  17  18
ENDBRANCH  16  17
ENDBRANCH  15  16
TORSDOF 7
ENDMDL
MODEL        4
REMARK 921   NORMALIZED FREE ENERGY PREDICTED BY IDOCK:   -6.52 KCAL/MOL
REMARK 922        TOTAL FREE ENERGY PREDICTED BY IDOCK:  -11.83 KCAL/MOL
REMARK 923 INTER-LIGAND FREE ENERGY PREDICTED BY IDOCK:  -10.87 KCAL/MOL
REMARK 924 INTRA-LIGAND FREE ENERGY PREDICTED BY IDOCK:   -0.96 KCAL/MOL
REMARK 927      BINDING AFFINITY PREDICTED BY RF-SCORE:    0.00 PKD
ROOT
HETATM    1  N   UNK A   0     -14.341   8.735  73.290  1.00  0.00    -1.130 NA 
HETATM    2  H1  UNK A   0     -14.319   7.740  73.513  1.00  0.00     0.000 HD 
HETATM    3  C   UNK A   0     -13.454   9.270  72.413  1.00  0.00    -0.459 C  
HETATM    4  H2  UNK A   0     -15.039   9.334  73.731  1.00  0.00     0.000 HD 
HETATM    5  N   UNK A   0     -13.482  10.539  72.128  1.00  0.00    -0.529 N  
HETATM    6  H   UNK A   0     -14.164  11.150  72.578  1.00  0.00     0.000 HD 
HETATM    7  C   UNK A   0     -12.574  11.060  71.203  1.00  0.00    -0.418 C  
HETATM    8  C   UNK A   0     -11.670  10.088  70.580  1.00  0.00    -0.421 A  
HETATM    9  O   UNK A   0     -12.531  12.249  70.916  1.00  0.00    -0.371 OA 
HETATM   10  C   UNK A   0     -11.729   8.777  70.965  1.00  0.00    -0.282 A  
HETATM   11  N   UNK A   0     -10.842   8.037  70.255  1.00  0.00    -0.241 NA 
HETATM   12  N   UNK A   0     -12.589   8.342  71.894  1.00  0.00    -0.332 NA 
HETATM   13  H   UNK A   0     -10.688   7.033  70.349  1.00  0.00     0.000 HD 
HETATM   14  C   UNK A   0     -10.188   8.878  69.388  1.00  0.00    -0.209 A  
HETATM   15  C   UNK A   0     -10.675  10.169  69.559  1.00  0.00    -0.277 A  
ENDROOT
BRANCH  15  16
HETATM   16  C   UNK A   0     -10.273  11.375  68.771  1.00  0.00    -0.209 C  
BRANCH  16  17
HETATM   17  C   UNK A   0     -11.324  11.823  67.740  1.00  0.00    -0.358 C  
BRANCH  17  18
HETATM   18  C   UNK A   0     -10.990  13.145  67.070  1.00  0.00    -0.289 A  
HETATM   19  C   UNK A   0      -9.935  13.948  67.523  1.00  0.00    -0.240 A  
HETATM   20  C   UNK A   0      -9.715  15.213  66.979  1.00  0.00    -0.237 A  
HETATM   21  C   UNK A   0     -10.535  15.688  65.952  1.00  0.00    -0.358 A  
HETATM   22  C   UNK A   0     -11.507  14.851  65.401  1.00  0.00    -0.320 A  
HETATM   23  C   UNK A   0     -11.735  13.587  65.962  1.00  0.00    -0.389 A  
BRANCH  21  24
HETATM   24  C   UNK A   0     -10.412  17.102  65.497  1.00  0.00    -0.144 C  
HETATM   25  O   UNK A   0     -11.134  17.590  64.636  1.00  0.00    -0.978 OA 
ATOM     26  N   GLU A   1      -9.440  17.835  66.148  1.00  0.00    -0.214 N  
ATOM     27  H   GLU A   1      -8.871  17.381  66.863  1.00  0.00     0.000 HD 
BRANCH  26  28
ATOM     28  CA  GLU A   1      -9.208  19.238  65.841  1.00  0.00     0.044 C  
ATOM     29  C   GLU A   1      -7.721  19.553  66.045  1.00  0.00    -0.312 C  
ATOM     30  O   GLU A   1      -6.972  19.352  64.937  1.00  0.00    -0.381 OA 
ATOM     31  OXT GLU A   1      -7.238  19.940  67.109  1.00  0.00    -0.225 OA 
BRANCH  28  32
ATOM     32  CB  GLU A   1     -10.074  20.143  66.729  1.00  0.00    -0.591 C  
BRANCH  32  33
ATOM     33  CG  GLU A   1     -10.888  19.334  67.737  1.00  0.00    -0.416 C  
ATOM     34  CD  GLU A   1     -10.073  19.027  68.964  1.00  0.00    -0.271 C  
ATOM     35  OE1 GLU A   1     -10.199  19.948  69.942  1.00  0.00    -0.109 OA 
ATOM     36  OE2 GLU A   1      -9.337  18.056  69.059  1.00  0.00    -0.203 OA 
ENDBRANCH  32  33
ENDBRANCH  28  32
ENDBRANCH  26  28
ENDBRANCH  21  24
ENDBRANCH  17  18
ENDBRANCH  16  17
ENDBRANCH  15  16
TORSDOF 7
ENDMDL
MODEL        5
REMARK 921   NORMALIZED FREE ENERGY PREDICTED BY IDOCK:   -6.45 KCAL/MOL
REMARK 922        TOTAL FREE ENERGY PREDICTED BY IDOCK:  -11.74 KCAL/MOL
REMARK 923 INTER-LIGAND FREE ENERGY PREDICTED BY IDOCK:  -10.08 KCAL/MOL
REMARK 924 INTRA-LIGAND FREE ENERGY PREDICTED BY IDOCK:   -1.66 KCAL/MOL
REMARK 927      BINDING AFFINITY PREDICTED BY RF-SCORE:    0.00 PKD
ROOT
HETATM    1  N   UNK A   0     -13.878   8.860  73.098  1.00  0.00    -1.176 NA 
HETATM    2  H1  UNK A   0     -14.350   8.024  73.441  1.00  0.00     0.000 HD 
HETATM    3  C   UNK A   0     -12.924   8.776  72.136  1.00  0.00    -0.406 C  
HETATM    4  H2  UNK A   0     -14.127   9.772  73.483  1.00  0.00     0.000 HD 
HETATM    5  N   UNK A   0     -12.323   9.844  71.699  1.00  0.00    -0.395 N  
HETATM    6  H   UNK A   0     -12.552  10.757  72.091  1.00  0.00     0.000 HD 
HETATM    7  C   UNK A   0     -11.363   9.732  70.691  1.00  0.00    -0.330 C  
HETATM    8  C   UNK A   0     -11.144   8.382  70.165  1.00  0.00    -0.183 A  
HETATM    9  O   UNK A   0     -10.742  10.695  70.259  1.00  0.00    -0.204 OA 
HETATM   10  C   UNK A   0     -11.832   7.332  70.709  1.00  0.00    -0.288 A  
HETATM   11  N   UNK A   0     -11.518   6.179  70.069  1.00  0.00    -0.382 NA 
HETATM   12  N   UNK A   0     -12.707   7.493  71.710  1.00  0.00    -0.332 NA 
HETATM   13  H   UNK A   0     -11.893   5.254  70.280  1.00  0.00     0.000 HD 
HETATM   14  C   UNK A   0     -10.604   6.477  69.086  1.00  0.00    -0.243 A  
HETATM   15  C   UNK A   0     -10.344   7.843  69.113  1.00  0.00    -0.225 A  
ENDROOT
BRANCH  15  16
HETATM   16  C   UNK A   0      -9.453   8.588  68.171  1.00  0.00    -0.152 C  
BRANCH  16  17
HETATM   17  C   UNK A   0     -10.132   8.975  66.846  1.00  0.00    -0.338 C  
BRANCH  17  18
HETATM   18  C   UNK A   0     -10.048  10.459  66.533  1.00  0.00    -0.285 A  
HETATM   19  C   UNK A   0      -9.249  11.322  67.293  1.00  0.00    -0.170 A  
HETATM   20  C   UNK A   0      -9.275  12.699  67.074  1.00  0.00    -0.212 A  
HETATM   21  C   UNK A   0     -10.086  13.236  66.071  1.00  0.00    -0.301 A  
HETATM   22  C   UNK A   0     -10.790  12.381  65.220  1.00  0.00    -0.324 A  
HETATM   23  C   UNK A   0     -10.773  10.998  65.455  1.00  0.00    -0.218 A  
BRANCH  21  24
HETATM   24  C   UNK A   0     -10.248  14.713  65.956  1.00  0.00    -0.311 C  
HETATM   25  O   UNK A   0     -10.631  15.264  64.932  1.00  0.00    -0.407 OA 
ATOM     26  N   GLU A   1      -9.965  15.415  67.111  1.00  0.00    -0.232 N  
ATOM     27  H   GLU A   1      -9.656  14.906  67.939  1.00  0.00     0.000 HD 
BRANCH  26  28
ATOM     28  CA  GLU A   1     -10.097  16.863  67.176  1.00  0.00    -0.287 C  
ATOM     29  C   GLU A   1      -8.705  17.496  67.071  1.00  0.00    -0.240 C  
ATOM     30  O   GLU A   1      -8.323  17.749  65.798  1.00  0.00    -0.529 OA 
ATOM     31  OXT GLU A   1      -7.985  17.744  68.038  1.00  0.00    -0.230 OA 
BRANCH  28  32
ATOM     32  CB  GLU A   1     -10.783  17.290  68.481  1.00  0.00    -0.305 C  
BRANCH  32  33
ATOM     33  CG  GLU A   1     -10.697  16.202  69.550  1.00  0.00    -0.313 C  
ATOM     34  CD  GLU A   1     -12.020  15.505  69.714  1.00  0.00    -0.364 C  
ATOM     35  OE1 GLU A   1     -12.157  14.412  68.935  1.00  0.00    -0.311 OA 
ATOM     36  OE2 GLU A   1     -12.906  15.905  70.455  1.00  0.00    -0.385 OA 
ENDBRANCH  32  33
ENDBRANCH  28  32
ENDBRANCH  26  28
ENDBRANCH  21  24
ENDBRANCH  17  18
ENDBRANCH  16  17
ENDBRANCH  15  16
TORSDOF 7
ENDMDL
MODEL        6
REMARK 921   NORMALIZED FREE ENERGY PREDICTED BY IDOCK:   -6.44 KCAL/MOL
REMARK 922        TOTAL FREE ENERGY PREDICTED BY IDOCK:  -11.72 KCAL/MOL
REMARK 923 INTER-LIGAND FREE ENERGY PREDICTED BY IDOCK:  -10.24 KCAL/MOL
REMARK 924 INTRA-LIGAND FREE ENERGY PREDICTED BY IDOCK:   -1.48 KCAL/MOL
REMARK 927      BINDING AFFINITY PREDICTED BY RF-SCORE:    0.00 PKD
ROOT
HETATM    1  N   UNK A   0      -9.790  20.801  67.031  1.00  0.00    -0.603 NA 
HETATM    2  H1  UNK A   0      -9.189  21.148  67.777  1.00  0.00     0.000 HD 
HETATM    3  C   UNK A   0      -9.809  19.483  66.709  1.00  0.00    -0.382 C  
HETATM    4  H2  UNK A   0     -10.384  21.454  66.519  1.00  0.00     0.000 HD 
HETATM    5  N   UNK A   0     -10.576  19.041  65.756  1.00  0.00    -0.429 N  
HETATM    6  H   UNK A   0     -11.160  19.688  65.226  1.00  0.00     0.000 HD 
HETATM    7  C   UNK A   0     -10.595  17.675  65.461  1.00  0.00    -0.068 C  
HETATM    8  C   UNK A   0      -9.755  16.827  66.312  1.00  0.00    -0.318 A  
HETATM    9  O   UNK A   0     -11.272  17.203  64.557  1.00  0.00    -1.104 OA 
HETATM   10  C   UNK A   0      -8.984  17.408  67.282  1.00  0.00    -0.236 A  
HETATM   11  N   UNK A   0      -8.310  16.460  67.978  1.00  0.00    -0.175 NA 
HETATM   12  N   UNK A   0      -8.970  18.730  67.487  1.00  0.00    -0.273 NA 
HETATM   13  H   UNK A   0      -7.668  16.627  68.753  1.00  0.00     0.000 HD 
HETATM   14  C   UNK A   0      -8.643  15.233  67.455  1.00  0.00    -0.180 A  
HETATM   15  C   UNK A   0      -9.544  15.419  66.411  1.00  0.00    -0.319 A  
ENDROOT
BRANCH  15  16
HETATM   16  C   UNK A   0     -10.202  14.339  65.612  1.00  0.00    -0.366 C  
BRANCH  16  17
HETATM   17  C   UNK A   0     -11.582  13.921  66.149  1.00  0.00    -0.371 C  
BRANCH  17  18
HETATM   18  C   UNK A   0     -11.512  12.885  67.257  1.00  0.00    -0.388 A  
HETATM   19  C   UNK A   0     -11.143  11.559  66.996  1.00  0.00    -0.365 A  
HETATM   20  C   UNK A   0     -11.201  10.591  67.997  1.00  0.00    -0.361 A  
HETATM   21  C   UNK A   0     -11.607  10.937  69.288  1.00  0.00    -0.388 A  
HETATM   22  C   UNK A   0     -11.854  12.277  69.598  1.00  0.00    -0.393 A  
HETATM   23  C   UNK A   0     -11.811  13.244  68.584  1.00  0.00    -0.380 A  
BRANCH  21  24
HETATM   24  C   UNK A   0     -11.839   9.874  70.306  1.00  0.00    -0.184 C  
HETATM   25  O   UNK A   0     -12.560  10.032  71.283  1.00  0.00    -0.331 OA 
ATOM     26  N   GLU A   1     -11.203   8.677  70.044  1.00  0.00    -0.424 N  
ATOM     27  H   GLU A   1     -10.619   8.596  69.211  1.00  0.00     0.000 HD 
BRANCH  26  28
ATOM     28  CA  GLU A   1     -11.345   7.528  70.925  1.00  0.00    -0.277 C  
ATOM     29  C   GLU A   1     -10.170   7.507  71.910  1.00  0.00    -0.188 C  
ATOM     30  O   GLU A   1     -10.406   8.203  73.045  1.00  0.00    -0.321 OA 
ATOM     31  OXT GLU A   1      -9.104   6.928  71.700  1.00  0.00    -0.140 OA 
BRANCH  28  32
ATOM     32  CB  GLU A   1     -11.391   6.223  70.118  1.00  0.00    -0.476 C  
BRANCH  32  33
ATOM     33  CG  GLU A   1     -11.040   6.452  68.649  1.00  0.00    -0.393 C  
ATOM     34  CD  GLU A   1      -9.724   5.809  68.304  1.00  0.00    -0.129 C  
ATOM     35  OE1 GLU A   1      -9.843   4.547  67.843  1.00  0.00    -0.155 OA 
ATOM     36  OE2 GLU A   1      -8.644   6.359  68.457  1.00  0.00    -0.122 OA 
ENDBRANCH  32  33
ENDBRANCH  28  32
ENDBRANCH  26  28
ENDBRANCH  21  24
ENDBRANCH  17  18
ENDBRANCH  16  17
ENDBRANCH  15  16
TORSDOF 7
ENDMDL
MODEL        7
REMARK 921   NORMALIZED FREE ENERGY PREDICTED BY IDOCK:   -6.40 KCAL/MOL
REMARK 922        TOTAL FREE ENERGY PREDICTED BY IDOCK:  -11.66 KCAL/MOL
REMARK 923 INTER-LIGAND FREE ENERGY PREDICTED BY IDOCK:  -10.06 KCAL/MOL
REMARK 924 INTRA-LIGAND FREE ENERGY PREDICTED BY IDOCK:   -1.60 KCAL/MOL
REMARK 927      BINDING AFFINITY PREDICTED BY RF-SCORE:    0.00 PKD
ROOT
HETATM    1  N   UNK A   0      -8.785   4.735  66.403  1.00  0.00    -0.112 NA 
HETATM    2  H1  UNK A   0      -8.020   4.081  66.243  1.00  0.00     0.000 HD 
HETATM    3  C   UNK A   0      -9.359   4.849  67.628  1.00  0.00    -0.130 C  
HETATM    4  H2  UNK A   0      -9.123   5.312  65.632  1.00  0.00     0.000 HD 
HETATM    5  N   UNK A   0     -10.335   5.684  67.831  1.00  0.00    -0.200 N  
HETATM    6  H   UNK A   0     -10.693   6.252  67.062  1.00  0.00     0.000 HD 
HETATM    7  C   UNK A   0     -10.892   5.800  69.108  1.00  0.00    -0.285 C  
HETATM    8  C   UNK A   0     -10.274   4.975  70.150  1.00  0.00    -0.329 A  
HETATM    9  O   UNK A   0     -11.831   6.545  69.354  1.00  0.00    -0.209 OA 
HETATM   10  C   UNK A   0      -9.253   4.127  69.815  1.00  0.00    -0.143 A  
HETATM   11  N   UNK A   0      -8.797   3.481  70.916  1.00  0.00    -0.078 NA 
HETATM   12  N   UNK A   0      -8.792   4.023  68.562  1.00  0.00    -0.100 NA 
HETATM   13  H   UNK A   0      -8.042   2.796  70.939  1.00  0.00     0.000 HD 
HETATM   14  C   UNK A   0      -9.532   3.912  71.994  1.00  0.00    -0.136 A  
HETATM   15  C   UNK A   0     -10.465   4.846  71.559  1.00  0.00    -0.179 A  
ENDROOT
BRANCH  15  16
HETATM   16  C   UNK A   0     -11.423   5.604  72.422  1.00  0.00    -0.309 C  
BRANCH  16  17
HETATM   17  C   UNK A   0     -10.807   6.842  73.096  1.00  0.00    -0.315 C  
BRANCH  17  18
HETATM   18  C   UNK A   0     -11.045   8.131  72.329  1.00  0.00    -0.410 A  
HETATM   19  C   UNK A   0     -12.252   8.833  72.437  1.00  0.00    -0.396 A  
HETATM   20  C   UNK A   0     -12.506   9.946  71.637  1.00  0.00    -0.507 A  
HETATM   21  C   UNK A   0     -11.543  10.393  70.728  1.00  0.00    -0.450 A  
HETATM   22  C   UNK A   0     -10.286   9.785  70.699  1.00  0.00    -0.330 A  
HETATM   23  C   UNK A   0     -10.042   8.655  71.494  1.00  0.00    -0.345 A  
BRANCH  21  24
HETATM   24  C   UNK A   0     -11.882  11.468  69.753  1.00  0.00    -0.357 C  
HETATM   25  O   UNK A   0     -12.386  11.242  68.660  1.00  0.00    -0.534 OA 
ATOM     26  N   GLU A   1     -11.616  12.750  70.192  1.00  0.00    -0.536 N  
ATOM     27  H   GLU A   1     -11.202  12.883  71.115  1.00  0.00     0.000 HD 
BRANCH  26  28
ATOM     28  CA  GLU A   1     -11.911  13.915  69.372  1.00  0.00    -0.354 C  
ATOM     29  C   GLU A   1     -10.657  14.295  68.576  1.00  0.00    -0.257 C  
ATOM     30  O   GLU A   1     -10.571  13.673  67.379  1.00  0.00    -0.256 OA 
ATOM     31  OXT GLU A   1      -9.796  15.077  68.979  1.00  0.00    -0.223 OA 
BRANCH  28  32
ATOM     32  CB  GLU A   1     -12.372  15.093  70.242  1.00  0.00    -0.398 C  
BRANCH  32  33
ATOM     33  CG  GLU A   1     -12.087  14.849  71.723  1.00  0.00    -0.428 C  
ATOM     34  CD  GLU A   1     -13.356  14.895  72.529  1.00  0.00    -0.428 C  
ATOM     35  OE1 GLU A   1     -13.947  13.691  72.678  1.00  0.00    -0.733 OA 
ATOM     36  OE2 GLU A   1     -13.832  15.927  72.980  1.00  0.00    -0.592 OA 
ENDBRANCH  32  33
ENDBRANCH  28  32
ENDBRANCH  26  28
ENDBRANCH  21  24
ENDBRANCH  17  18
ENDBRANCH  16  17
ENDBRANCH  15  16
TORSDOF 7
ENDMDL
MODEL        8
REMARK 921   NORMALIZED FREE ENERGY PREDICTED BY IDOCK:   -6.35 KCAL/MOL
REMARK 922        TOTAL FREE ENERGY PREDICTED BY IDOCK:  -11.59 KCAL/MOL
REMARK 923 INTER-LIGAND FREE ENERGY PREDICTED BY IDOCK:  -10.18 KCAL/MOL
REMARK 924 INTRA-LIGAND FREE ENERGY PREDICTED BY IDOCK:   -1.41 KCAL/MOL
REMARK 927      BINDING AFFINITY PREDICTED BY RF-SCORE:    0.00 PKD
ROOT
HETATM    1  N   UNK A   0     -13.402   8.016  72.568  1.00  0.00    -0.533 NA 
HETATM    2  H1  UNK A   0     -13.073   7.126  72.195  1.00  0.00     0.000 HD 
HETATM    3  C   UNK A   0     -13.070   9.187  71.967  1.00  0.00    -0.429 C  
HETATM    4  H2  UNK A   0     -13.987   8.026  73.403  1.00  0.00     0.000 HD 
HETATM    5  N   UNK A   0     -13.490  10.323  72.443  1.00  0.00    -0.575 N  
HETATM    6  H   UNK A   0     -14.060  10.344  73.289  1.00  0.00     0.000 HD 
HETATM    7  C   UNK A   0     -13.155  11.512  71.791  1.00  0.00    -0.398 C  
HETATM    8  C   UNK A   0     -12.372  11.365  70.560  1.00  0.00    -0.439 A  
HETATM    9  O   UNK A   0     -13.493  12.612  72.207  1.00  0.00    -0.561 OA 
HETATM   10  C   UNK A   0     -11.982  10.117  70.160  1.00  0.00    -0.185 A  
HETATM   11  N   UNK A   0     -11.301  10.188  68.990  1.00  0.00    -0.428 NA 
HETATM   12  N   UNK A   0     -12.292   9.014  70.852  1.00  0.00    -0.183 NA 
HETATM   13  H   UNK A   0     -10.903   9.401  68.478  1.00  0.00     0.000 HD 
HETATM   14  C   UNK A   0     -11.242  11.510  68.615  1.00  0.00    -0.248 A  
HETATM   15  C   UNK A   0     -11.899  12.278  69.569  1.00  0.00    -0.380 A  
ENDROOT
BRANCH  15  16
HETATM   16  C   UNK A   0     -12.116  13.757  69.514  1.00  0.00    -0.386 C  
BRANCH  16  17
HETATM   17  C   UNK A   0     -11.673  14.401  68.189  1.00  0.00    -0.377 C  
BRANCH  17  18
HETATM   18  C   UNK A   0     -10.332  15.109  68.278  1.00  0.00    -0.231 A  
HETATM   19  C   UNK A   0      -9.126  14.399  68.217  1.00  0.00    -0.193 A  
HETATM   20  C   UNK A   0      -7.906  15.043  68.423  1.00  0.00    -0.125 A  
HETATM   21  C   UNK A   0      -7.870  16.418  68.670  1.00  0.00    -0.211 A  
HETATM   22  C   UNK A   0      -9.050  17.162  68.606  1.00  0.00    -0.268 A  
HETATM   23  C   UNK A   0     -10.275  16.507  68.416  1.00  0.00    -0.266 A  
BRANCH  21  24
HETATM   24  C   UNK A   0      -6.589  17.069  69.064  1.00  0.00    -0.216 C  
HETATM   25  O   UNK A   0      -5.530  16.461  69.148  1.00  0.00    -0.117 OA 
ATOM     26  N   GLU A   1      -6.681  18.428  69.296  1.00  0.00    -0.263 N  
ATOM     27  H   GLU A   1      -7.588  18.887  69.205  1.00  0.00     0.000 HD 
BRANCH  26  28
ATOM     28  CA  GLU A   1      -5.518  19.220  69.665  1.00  0.00    -0.205 C  
ATOM     29  C   GLU A   1      -5.661  19.666  71.125  1.00  0.00    -0.269 C  
ATOM     30  O   GLU A   1      -5.142  18.785  72.010  1.00  0.00    -0.770 OA 
ATOM     31  OXT GLU A   1      -6.204  20.713  71.476  1.00  0.00    -0.639 OA 
BRANCH  28  32
ATOM     32  CB  GLU A   1      -5.373  20.439  68.744  1.00  0.00    -0.283 C  
BRANCH  32  33
ATOM     33  CG  GLU A   1      -6.682  20.767  68.028  1.00  0.00    -0.308 C  
ATOM     34  CD  GLU A   1      -6.594  20.424  66.566  1.00  0.00    -0.233 C  
ATOM     35  OE1 GLU A   1      -7.013  19.175  66.277  1.00  0.00    -0.209 OA 
ATOM     36  OE2 GLU A   1      -6.154  21.187  65.718  1.00  0.00    -0.256 OA 
ENDBRANCH  32  33
ENDBRANCH  28  32
ENDBRANCH  26  28
ENDBRANCH  21  24
ENDBRANCH  17  18
ENDBRANCH  16  17
ENDBRANCH  15  16
TORSDOF 7
ENDMDL
MODEL        9
REMARK 921   NORMALIZED FREE ENERGY PREDICTED BY IDOCK:   -6.35 KCAL/MOL
REMARK 922        TOTAL FREE ENERGY PREDICTED BY IDOCK:  -11.59 KCAL/MOL
REMARK 923 INTER-LIGAND FREE ENERGY PREDICTED BY IDOCK:  -10.08 KCAL/MOL
REMARK 924 INTRA-LIGAND FREE ENERGY PREDICTED BY IDOCK:   -1.51 KCAL/MOL
REMARK 927      BINDING AFFINITY PREDICTED BY RF-SCORE:    0.00 PKD
ROOT
HETATM    1  N   UNK A   0     -14.226   8.302  72.460  1.00  0.00    -0.675 NA 
HETATM    2  H1  UNK A   0     -14.316   8.921  73.265  1.00  0.00     0.000 HD 
HETATM    3  C   UNK A   0     -13.006   8.010  71.940  1.00  0.00    -0.312 C  
HETATM    4  H2  UNK A   0     -15.062   7.897  72.040  1.00  0.00     0.000 HD 
HETATM    5  N   UNK A   0     -12.891   7.220  70.914  1.00  0.00    -0.599 N  
HETATM    6  H   UNK A   0     -13.723   6.824  70.476  1.00  0.00     0.000 HD 
HETATM    7  C   UNK A   0     -11.622   6.916  70.414  1.00  0.00    -0.335 C  
HETATM    8  C   UNK A   0     -10.493   7.498  71.145  1.00  0.00    -0.216 A  
HETATM    9  O   UNK A   0     -11.451   6.204  69.433  1.00  0.00    -0.423 OA 
HETATM   10  C   UNK A   0     -10.737   8.321  72.210  1.00  0.00    -0.329 A  
HETATM   11  N   UNK A   0      -9.571   8.728  72.769  1.00  0.00    -0.165 NA 
HETATM   12  N   UNK A   0     -11.979   8.616  72.615  1.00  0.00    -0.287 NA 
HETATM   13  H   UNK A   0      -9.476   9.346  73.575  1.00  0.00     0.000 HD 
HETATM   14  C   UNK A   0      -8.540   8.162  72.057  1.00  0.00    -0.162 A  
HETATM   15  C   UNK A   0      -9.074   7.386  71.034  1.00  0.00    -0.152 A  
ENDROOT
BRANCH  15  16
HETATM   16  C   UNK A   0      -8.298   6.552  70.064  1.00  0.00    -0.134 C  
BRANCH  16  17
HETATM   17  C   UNK A   0      -7.529   7.372  69.015  1.00  0.00    -0.100 C  
BRANCH  17  18
HETATM   18  C   UNK A   0      -8.365   8.461  68.365  1.00  0.00    -0.131 A  
HETATM   19  C   UNK A   0      -8.148   9.816  68.649  1.00  0.00    -0.105 A  
HETATM   20  C   UNK A   0      -9.000  10.797  68.143  1.00  0.00    -0.140 A  
HETATM   21  C   UNK A   0     -10.072  10.441  67.321  1.00  0.00    -0.244 A  
HETATM   22  C   UNK A   0     -10.226   9.111  66.923  1.00  0.00    -0.336 A  
HETATM   23  C   UNK A   0      -9.377   8.126  67.448  1.00  0.00    -0.171 A  
BRANCH  21  24
HETATM   24  C   UNK A   0     -11.080  11.466  66.928  1.00  0.00    -0.295 C  
HETATM   25  O   UNK A   0     -12.157  11.594  67.496  1.00  0.00    -0.611 OA 
ATOM     26  N   GLU A   1     -10.691  12.290  65.890  1.00  0.00    -0.251 N  
ATOM     27  H   GLU A   1      -9.779  12.145  65.456  1.00  0.00     0.000 HD 
BRANCH  26  28
ATOM     28  CA  GLU A   1     -11.548  13.359  65.401  1.00  0.00    -0.314 C  
ATOM     29  C   GLU A   1     -12.318  12.859  64.173  1.00  0.00    -0.376 C  
ATOM     30  O   GLU A   1     -13.496  12.271  64.479  1.00  0.00    -0.686 OA 
ATOM     31  OXT GLU A   1     -11.911  12.961  63.016  1.00  0.00    -0.403 OA 
BRANCH  28  32
ATOM     32  CB  GLU A   1     -10.721  14.602  65.046  1.00  0.00    -0.448 C  
BRANCH  32  33
ATOM     33  CG  GLU A   1     -10.575  15.546  66.238  1.00  0.00    -0.310 C  
ATOM     34  CD  GLU A   1      -9.779  16.766  65.863  1.00  0.00    -0.217 C  
ATOM     35  OE1 GLU A   1     -10.538  17.796  65.431  1.00  0.00    -0.659 OA 
ATOM     36  OE2 GLU A   1      -8.559  16.816  65.909  1.00  0.00    -0.500 OA 
ENDBRANCH  32  33
ENDBRANCH  28  32
ENDBRANCH  26  28
ENDBRANCH  21  24
ENDBRANCH  17  18
ENDBRANCH  16  17
ENDBRANCH  15  16
TORSDOF 7
ENDMDL
MODEL       10
REMARK 921   NORMALIZED FREE ENERGY PREDICTED BY IDOCK:   -6.31 KCAL/MOL
REMARK 922        TOTAL FREE ENERGY PREDICTED BY IDOCK:  -11.53 KCAL/MOL
REMARK 923 INTER-LIGAND FREE ENERGY PREDICTED BY IDOCK:   -9.60 KCAL/MOL
REMARK 924 INTRA-LIGAND FREE ENERGY PREDICTED BY IDOCK:   -1.93 KCAL/MOL
REMARK 927      BINDING AFFINITY PREDICTED BY RF-SCORE:    0.00 PKD
ROOT
HETATM    1  N   UNK A   0     -13.394   8.733  72.848  1.00  0.00    -0.837 NA 
HETATM    2  H1  UNK A   0     -14.265   8.216  72.731  1.00  0.00     0.000 HD 
HETATM    3  C   UNK A   0     -12.328   8.492  72.041  1.00  0.00    -0.365 C  
HETATM    4  H2  UNK A   0     -13.322   9.441  73.580  1.00  0.00     0.000 HD 
HETATM    5  N   UNK A   0     -11.217   9.151  72.190  1.00  0.00    -0.245 N  
HETATM    6  H   UNK A   0     -11.130   9.847  72.931  1.00  0.00     0.000 HD 
HETATM    7  C   UNK A   0     -10.145   8.901  71.331  1.00  0.00    -0.309 C  
HETATM    8  C   UNK A   0     -10.391   7.917  70.273  1.00  0.00    -0.212 A  
HETATM    9  O   UNK A   0      -9.064   9.467  71.439  1.00  0.00    -0.285 OA 
HETATM   10  C   UNK A   0     -11.602   7.281  70.219  1.00  0.00    -0.174 A  
HETATM   11  N   UNK A   0     -11.645   6.439  69.158  1.00  0.00    -0.583 NA 
HETATM   12  N   UNK A   0     -12.578   7.527  71.101  1.00  0.00    -0.295 NA 
HETATM   13  H   UNK A   0     -12.433   5.847  68.893  1.00  0.00     0.000 HD 
HETATM   14  C   UNK A   0     -10.440   6.523  68.502  1.00  0.00    -0.220 A  
HETATM   15  C   UNK A   0      -9.628   7.435  69.167  1.00  0.00    -0.156 A  
ENDROOT
BRANCH  15  16
HETATM   16  C   UNK A   0      -8.258   7.864  68.748  1.00  0.00    -0.127 C  
BRANCH  16  17
HETATM   17  C   UNK A   0      -8.221   8.597  67.396  1.00  0.00    -0.105 C  
BRANCH  17  18
HETATM   18  C   UNK A   0      -9.094   9.839  67.356  1.00  0.00    -0.148 A  
HETATM   19  C   UNK A   0     -10.137   9.969  66.430  1.00  0.00    -0.307 A  
HETATM   20  C   UNK A   0     -10.852  11.161  66.321  1.00  0.00    -0.266 A  
HETATM   21  C   UNK A   0     -10.552  12.240  67.157  1.00  0.00    -0.250 A  
HETATM   22  C   UNK A   0      -9.604  12.084  68.172  1.00  0.00    -0.200 A  
HETATM   23  C   UNK A   0      -8.876  10.889  68.266  1.00  0.00    -0.140 A  
BRANCH  21  24
HETATM   24  C   UNK A   0     -11.192  13.564  66.922  1.00  0.00    -0.311 C  
HETATM   25  O   UNK A   0     -12.363  13.689  66.588  1.00  0.00    -0.397 OA 
ATOM     26  N   GLU A   1     -10.368  14.650  67.145  1.00  0.00    -0.263 N  
ATOM     27  H   GLU A   1      -9.401  14.490  67.429  1.00  0.00     0.000 HD 
BRANCH  26  28
ATOM     28  CA  GLU A   1     -10.844  16.016  66.985  1.00  0.00    -0.227 C  
ATOM     29  C   GLU A   1     -10.199  16.625  65.735  1.00  0.00    -0.307 C  
ATOM     30  O   GLU A   1     -10.911  16.415  64.604  1.00  0.00    -0.717 OA 
ATOM     31  OXT GLU A   1      -9.132  17.238  65.739  1.00  0.00    -0.523 OA 
BRANCH  28  32
ATOM     32  CB  GLU A   1     -10.513  16.858  68.224  1.00  0.00    -0.352 C  
BRANCH  32  33
ATOM     33  CG  GLU A   1     -10.108  15.986  69.411  1.00  0.00    -0.271 C  
ATOM     34  CD  GLU A   1     -11.295  15.683  70.284  1.00  0.00    -0.344 C  
ATOM     35  OE1 GLU A   1     -11.933  14.541  69.954  1.00  0.00    -0.289 OA 
ATOM     36  OE2 GLU A   1     -11.672  16.415  71.188  1.00  0.00    -0.374 OA 
ENDBRANCH  32  33
ENDBRANCH  28  32
ENDBRANCH  26  28
ENDBRANCH  21  24
ENDBRANCH  17  18
ENDBRANCH  16  17
ENDBRANCH  15  16
TORSDOF 7
ENDMDL
MODEL       11
REMARK 921   NORMALIZED FREE ENERGY PREDICTED BY IDOCK:   -6.29 KCAL/MOL
REMARK 922        TOTAL FREE ENERGY PREDICTED BY IDOCK:  -11.50 KCAL/MOL
REMARK 923 INTER-LIGAND FREE ENERGY PREDICTED BY IDOCK:  -10.41 KCAL/MOL
REMARK 924 INTRA-LIGAND FREE ENERGY PREDICTED BY IDOCK:   -1.09 KCAL/MOL
REMARK 927      BINDING AFFINITY PREDICTED BY RF-SCORE:    0.00 PKD
ROOT
HETATM    1  N   UNK A   0      -7.993   2.296  71.570  1.00  0.00    -0.044 NA 
HETATM    2  H1  UNK A   0      -7.556   1.974  70.707  1.00  0.00     0.000 HD 
HETATM    3  C   UNK A   0      -8.863   3.338  71.562  1.00  0.00    -0.084 C  
HETATM    4  H2  UNK A   0      -7.774   1.829  72.450  1.00  0.00     0.000 HD 
HETATM    5  N   UNK A   0      -9.421   3.748  72.663  1.00  0.00    -0.120 N  
HETATM    6  H   UNK A   0      -9.194   3.300  73.550  1.00  0.00     0.000 HD 
HETATM    7  C   UNK A   0     -10.332   4.807  72.623  1.00  0.00    -0.198 C  
HETATM    8  C   UNK A   0     -10.623   5.349  71.293  1.00  0.00    -0.276 A  
HETATM    9  O   UNK A   0     -10.866   5.258  73.628  1.00  0.00    -0.276 OA 
HETATM   10  C   UNK A   0      -9.968   4.838  70.205  1.00  0.00    -0.251 A  
HETATM   11  N   UNK A   0     -10.397   5.444  69.070  1.00  0.00    -0.222 NA 
HETATM   12  N   UNK A   0      -9.067   3.854  70.309  1.00  0.00    -0.106 NA 
HETATM   13  H   UNK A   0     -10.069   5.248  68.124  1.00  0.00     0.000 HD 
HETATM   14  C   UNK A   0     -11.350   6.371  69.419  1.00  0.00    -0.377 A  
HETATM   15  C   UNK A   0     -11.521   6.343  70.799  1.00  0.00    -0.415 A  
ENDROOT
BRANCH  15  16
HETATM   16  C   UNK A   0     -12.506   7.152  71.582  1.00  0.00    -0.405 C  
BRANCH  16  17
HETATM   17  C   UNK A   0     -11.877   8.333  72.341  1.00  0.00    -0.461 C  
BRANCH  17  18
HETATM   18  C   UNK A   0     -11.833   9.618  71.532  1.00  0.00    -0.483 A  
HETATM   19  C   UNK A   0     -12.785  10.629  71.715  1.00  0.00    -0.489 A  
HETATM   20  C   UNK A   0     -12.808  11.748  70.884  1.00  0.00    -0.243 A  
HETATM   21  C   UNK A   0     -11.859  11.888  69.867  1.00  0.00    -0.418 A  
HETATM   22  C   UNK A   0     -10.826  10.956  69.754  1.00  0.00    -0.247 A  
HETATM   23  C   UNK A   0     -10.818   9.823  70.581  1.00  0.00    -0.396 A  
BRANCH  21  24
HETATM   24  C   UNK A   0     -11.992  12.989  68.872  1.00  0.00    -0.263 C  
HETATM   25  O   UNK A   0     -12.407  14.104  69.163  1.00  0.00    -0.301 OA 
ATOM     26  N   GLU A   1     -11.575  12.667  67.596  1.00  0.00    -0.337 N  
ATOM     27  H   GLU A   1     -11.230  11.725  67.409  1.00  0.00     0.000 HD 
BRANCH  26  28
ATOM     28  CA  GLU A   1     -11.614  13.636  66.511  1.00  0.00    -0.366 C  
ATOM     29  C   GLU A   1     -11.909  12.902  65.198  1.00  0.00    -0.380 C  
ATOM     30  O   GLU A   1     -13.229  12.787  64.929  1.00  0.00    -0.808 OA 
ATOM     31  OXT GLU A   1     -11.041  12.444  64.455  1.00  0.00    -0.299 OA 
BRANCH  28  32
ATOM     32  CB  GLU A   1     -10.287  14.400  66.413  1.00  0.00    -0.289 C  
BRANCH  32  33
ATOM     33  CG  GLU A   1     -10.434  15.852  66.863  1.00  0.00    -0.309 C  
ATOM     34  CD  GLU A   1      -9.875  16.793  65.831  1.00  0.00    -0.249 C  
ATOM     35  OE1 GLU A   1     -10.790  17.217  64.934  1.00  0.00    -0.773 OA 
ATOM     36  OE2 GLU A   1      -8.699  17.121  65.782  1.00  0.00    -0.527 OA 
ENDBRANCH  32  33
ENDBRANCH  28  32
ENDBRANCH  26  28
ENDBRANCH  21  24
ENDBRANCH  17  18
ENDBRANCH  16  17
ENDBRANCH  15  16
TORSDOF 7
ENDMDL
MODEL       12
REMARK 921   NORMALIZED FREE ENERGY PREDICTED BY IDOCK:   -6.26 KCAL/MOL
REMARK 922        TOTAL FREE ENERGY PREDICTED BY IDOCK:  -11.46 KCAL/MOL
REMARK 923 INTER-LIGAND FREE ENERGY PREDICTED BY IDOCK:   -9.23 KCAL/MOL
REMARK 924 INTRA-LIGAND FREE ENERGY PREDICTED BY IDOCK:   -2.24 KCAL/MOL
REMARK 927      BINDING AFFINITY PREDICTED BY RF-SCORE:    0.00 PKD
ROOT
HETATM    1  N   UNK A   0     -11.760  15.841  70.364  1.00  0.00    -0.346 NA 
HETATM    2  H1  UNK A   0     -11.437  16.795  70.519  1.00  0.00     0.000 HD 
HETATM    3  C   UNK A   0     -11.677  15.269  69.135  1.00  0.00    -0.335 C  
HETATM    4  H2  UNK A   0     -12.151  15.309  71.142  1.00  0.00     0.000 HD 
HETATM    5  N   UNK A   0     -12.089  14.051  68.938  1.00  0.00    -0.457 N  
HETATM    6  H   UNK A   0     -12.499  13.518  69.705  1.00  0.00     0.000 HD 
HETATM    7  C   UNK A   0     -11.969  13.478  67.669  1.00  0.00    -0.336 C  
HETATM    8  C   UNK A   0     -11.325  14.313  66.651  1.00  0.00    -0.356 A  
HETATM    9  O   UNK A   0     -12.367  12.349  67.413  1.00  0.00    -0.343 OA 
HETATM   10  C   UNK A   0     -10.936  15.584  66.975  1.00  0.00    -0.283 A  
HETATM   11  N   UNK A   0     -10.334  16.178  65.915  1.00  0.00    -0.350 NA 
HETATM   12  N   UNK A   0     -11.121  16.098  68.197  1.00  0.00    -0.342 NA 
HETATM   13  H   UNK A   0      -9.954  17.124  65.894  1.00  0.00     0.000 HD 
HETATM   14  C   UNK A   0     -10.328  15.279  64.874  1.00  0.00    -0.238 A  
HETATM   15  C   UNK A   0     -10.938  14.102  65.293  1.00  0.00    -0.339 A  
ENDROOT
BRANCH  15  16
HETATM   16  C   UNK A   0     -11.086  12.851  64.486  1.00  0.00    -0.373 C  
BRANCH  16  17
HETATM   17  C   UNK A   0      -9.841  11.946  64.507  1.00  0.00    -0.203 C  
BRANCH  17  18
HETATM   18  C   UNK A   0      -9.650  11.209  65.821  1.00  0.00    -0.255 A  
HETATM   19  C   UNK A   0     -10.280   9.983  66.069  1.00  0.00    -0.277 A  
HETATM   20  C   UNK A   0     -10.196   9.376  67.322  1.00  0.00    -0.308 A  
HETATM   21  C   UNK A   0      -9.457   9.976  68.345  1.00  0.00    -0.146 A  
HETATM   22  C   UNK A   0      -8.719  11.131  68.078  1.00  0.00    -0.141 A  
HETATM   23  C   UNK A   0      -8.820  11.746  66.821  1.00  0.00    -0.191 A  
BRANCH  21  24
HETATM   24  C   UNK A   0      -9.514   9.422  69.727  1.00  0.00    -0.202 C  
HETATM   25  O   UNK A   0      -8.550   9.412  70.482  1.00  0.00    -0.206 OA 
ATOM     26  N   GLU A   1     -10.754   8.949  70.108  1.00  0.00    -0.221 N  
ATOM     27  H   GLU A   1     -11.527   8.987  69.442  1.00  0.00     0.000 HD 
BRANCH  26  28
ATOM     28  CA  GLU A   1     -10.988   8.398  71.434  1.00  0.00    -0.253 C  
ATOM     29  C   GLU A   1     -11.324   6.908  71.303  1.00  0.00    -0.279 C  
ATOM     30  O   GLU A   1     -10.236   6.105  71.336  1.00  0.00    -0.197 OA 
ATOM     31  OXT GLU A   1     -12.465   6.468  71.166  1.00  0.00    -0.264 OA 
BRANCH  28  32
ATOM     32  CB  GLU A   1     -12.127   9.144  72.143  1.00  0.00    -0.389 C  
BRANCH  32  33
ATOM     33  CG  GLU A   1     -12.972   9.953  71.161  1.00  0.00    -0.456 C  
ATOM     34  CD  GLU A   1     -12.782  11.429  71.379  1.00  0.00    -0.384 C  
ATOM     35  OE1 GLU A   1     -11.800  11.966  70.624  1.00  0.00    -0.280 OA 
ATOM     36  OE2 GLU A   1     -13.428  12.081  72.186  1.00  0.00    -0.476 OA 
ENDBRANCH  32  33
ENDBRANCH  28  32
ENDBRANCH  26  28
ENDBRANCH  21  24
ENDBRANCH  17  18
ENDBRANCH  16  17
ENDBRANCH  15  16
TORSDOF 7
ENDMDL
MODEL       13
REMARK 921   NORMALIZED FREE ENERGY PREDICTED BY IDOCK:   -6.18 KCAL/MOL
REMARK 922        TOTAL FREE ENERGY PREDICTED BY IDOCK:  -11.35 KCAL/MOL
REMARK 923 INTER-LIGAND FREE ENERGY PREDICTED BY IDOCK:   -9.40 KCAL/MOL
REMARK 924 INTRA-LIGAND FREE ENERGY PREDICTED BY IDOCK:   -1.95 KCAL/MOL
REMARK 927      BINDING AFFINITY PREDICTED BY RF-SCORE:    0.00 PKD
ROOT
HETATM    1  N   UNK A   0     -14.051   7.805  72.340  1.00  0.00    -0.555 NA 
HETATM    2  H1  UNK A   0     -14.132   8.333  73.208  1.00  0.00     0.000 HD 
HETATM    3  C   UNK A   0     -12.860   7.708  71.694  1.00  0.00    -0.349 C  
HETATM    4  H2  UNK A   0     -14.874   7.345  71.951  1.00  0.00     0.000 HD 
HETATM    5  N   UNK A   0     -12.756   7.035  70.586  1.00  0.00    -0.575 N  
HETATM    6  H   UNK A   0     -13.578   6.587  70.180  1.00  0.00     0.000 HD 
HETATM    7  C   UNK A   0     -11.514   6.929  69.955  1.00  0.00    -0.277 C  
HETATM    8  C   UNK A   0     -10.392   7.570  70.646  1.00  0.00    -0.211 A  
HETATM    9  O   UNK A   0     -11.359   6.336  68.895  1.00  0.00    -0.373 OA 
HETATM   10  C   UNK A   0     -10.624   8.257  71.807  1.00  0.00    -0.259 A  
HETATM   11  N   UNK A   0      -9.462   8.745  72.307  1.00  0.00    -0.330 NA 
HETATM   12  N   UNK A   0     -11.847   8.366  72.340  1.00  0.00    -0.388 NA 
HETATM   13  H   UNK A   0      -9.360   9.292  73.161  1.00  0.00     0.000 HD 
HETATM   14  C   UNK A   0      -8.447   8.372  71.458  1.00  0.00    -0.157 A  
HETATM   15  C   UNK A   0      -8.985   7.636  70.408  1.00  0.00    -0.152 A  
ENDROOT
BRANCH  15  16
HETATM   16  C   UNK A   0      -8.217   6.993  69.298  1.00  0.00    -0.125 C  
BRANCH  16  17
HETATM   17  C   UNK A   0      -7.414   7.985  68.440  1.00  0.00    -0.103 C  
BRANCH  17  18
HETATM   18  C   UNK A   0      -8.252   9.125  67.888  1.00  0.00    -0.112 A  
HETATM   19  C   UNK A   0      -8.009  10.455  68.255  1.00  0.00    -0.111 A  
HETATM   20  C   UNK A   0      -8.860  11.478  67.839  1.00  0.00    -0.152 A  
HETATM   21  C   UNK A   0      -9.959  11.191  67.024  1.00  0.00    -0.223 A  
HETATM   22  C   UNK A   0     -10.141   9.893  66.544  1.00  0.00    -0.298 A  
HETATM   23  C   UNK A   0      -9.293   8.864  66.979  1.00  0.00    -0.194 A  
BRANCH  21  24
HETATM   24  C   UNK A   0     -10.962  12.252  66.729  1.00  0.00    -0.276 C  
HETATM   25  O   UNK A   0     -12.124  12.006  66.429  1.00  0.00    -0.610 OA 
ATOM     26  N   GLU A   1     -10.490  13.543  66.853  1.00  0.00    -0.269 N  
ATOM     27  H   GLU A   1      -9.515  13.693  67.112  1.00  0.00     0.000 HD 
BRANCH  26  28
ATOM     28  CA  GLU A   1     -11.348  14.696  66.624  1.00  0.00    -0.356 C  
ATOM     29  C   GLU A   1     -11.142  15.194  65.189  1.00  0.00    -0.403 C  
ATOM     30  O   GLU A   1     -11.964  14.605  64.291  1.00  0.00    -0.444 OA 
ATOM     31  OXT GLU A   1     -10.306  16.037  64.865  1.00  0.00    -0.543 OA 
BRANCH  28  32
ATOM     32  CB  GLU A   1     -11.040  15.815  67.629  1.00  0.00    -0.283 C  
BRANCH  32  33
ATOM     33  CG  GLU A   1     -10.593  15.257  68.979  1.00  0.00    -0.245 C  
ATOM     34  CD  GLU A   1     -11.779  14.930  69.844  1.00  0.00    -0.305 C  
ATOM     35  OE1 GLU A   1     -12.208  13.656  69.716  1.00  0.00    -0.321 OA 
ATOM     36  OE2 GLU A   1     -12.329  15.744  70.571  1.00  0.00    -0.402 OA 
ENDBRANCH  32  33
ENDBRANCH  28  32
ENDBRANCH  26  28
ENDBRANCH  21  24
ENDBRANCH  17  18
ENDBRANCH  16  17
ENDBRANCH  15  16
TORSDOF 7
ENDMDL
MODEL       14
REMARK 921   NORMALIZED FREE ENERGY PREDICTED BY IDOCK:   -6.17 KCAL/MOL
REMARK 922        TOTAL FREE ENERGY PREDICTED BY IDOCK:  -11.34 KCAL/MOL
REMARK 923 INTER-LIGAND FREE ENERGY PREDICTED BY IDOCK:   -9.92 KCAL/MOL
REMARK 924 INTRA-LIGAND FREE ENERGY PREDICTED BY IDOCK:   -1.42 KCAL/MOL
REMARK 927      BINDING AFFINITY PREDICTED BY RF-SCORE:    0.00 PKD
ROOT
HETATM    1  N   UNK A   0     -10.831   6.597  73.884  1.00  0.00    -0.470 NA 
HETATM    2  H1  UNK A   0      -9.903   6.201  74.031  1.00  0.00     0.000 HD 
HETATM    3  C   UNK A   0     -11.030   7.581  72.970  1.00  0.00    -0.390 C  
HETATM    4  H2  UNK A   0     -11.619   6.249  74.430  1.00  0.00     0.000 HD 
HETATM    5  N   UNK A   0     -12.214   8.085  72.782  1.00  0.00    -0.614 N  
HETATM    6  H   UNK A   0     -13.005   7.757  73.337  1.00  0.00     0.000 HD 
HETATM    7  C   UNK A   0     -12.397   9.079  71.818  1.00  0.00    -0.367 C  
HETATM    8  C   UNK A   0     -11.206   9.445  71.045  1.00  0.00    -0.412 A  
HETATM    9  O   UNK A   0     -13.480   9.614  71.616  1.00  0.00    -0.382 OA 
HETATM   10  C   UNK A   0     -10.010   8.848  71.337  1.00  0.00    -0.308 A  
HETATM   11  N   UNK A   0      -9.044   9.292  70.496  1.00  0.00    -0.242 NA 
HETATM   12  N   UNK A   0      -9.885   7.935  72.308  1.00  0.00    -0.197 NA 
HETATM   13  H   UNK A   0      -8.065   9.005  70.501  1.00  0.00     0.000 HD 
HETATM   14  C   UNK A   0      -9.616  10.199  69.635  1.00  0.00    -0.210 A  
HETATM   15  C   UNK A   0     -10.967  10.323  69.945  1.00  0.00    -0.358 A  
ENDROOT
BRANCH  15  16
HETATM   16  C   UNK A   0     -11.965  11.162  69.213  1.00  0.00    -0.421 C  
BRANCH  16  17
HETATM   17  C   UNK A   0     -12.156  12.566  69.811  1.00  0.00    -0.293 C  
BRANCH  17  18
HETATM   18  C   UNK A   0     -11.330  13.636  69.118  1.00  0.00    -0.335 A  
HETATM   19  C   UNK A   0     -10.824  13.446  67.826  1.00  0.00    -0.267 A  
HETATM   20  C   UNK A   0      -9.967  14.382  67.249  1.00  0.00    -0.247 A  
HETATM   21  C   UNK A   0      -9.619  15.542  67.947  1.00  0.00    -0.206 A  
HETATM   22  C   UNK A   0     -10.215  15.808  69.182  1.00  0.00    -0.231 A  
HETATM   23  C   UNK A   0     -11.063  14.856  69.766  1.00  0.00    -0.300 A  
BRANCH  21  24
HETATM   24  C   UNK A   0      -8.569  16.450  67.406  1.00  0.00    -0.178 C  
HETATM   25  O   UNK A   0      -7.839  16.143  66.473  1.00  0.00    -0.260 OA 
ATOM     26  N   GLU A   1      -8.505  17.686  68.018  1.00  0.00    -0.238 N  
ATOM     27  H   GLU A   1      -9.143  17.893  68.787  1.00  0.00     0.000 HD 
BRANCH  26  28
ATOM     28  CA  GLU A   1      -7.553  18.700  67.593  1.00  0.00    -0.230 C  
ATOM     29  C   GLU A   1      -6.662  19.078  68.783  1.00  0.00    -0.287 C  
ATOM     30  O   GLU A   1      -5.554  18.311  68.891  1.00  0.00    -0.191 OA 
ATOM     31  OXT GLU A   1      -6.922  19.979  69.580  1.00  0.00    -0.287 OA 
BRANCH  28  32
ATOM     32  CB  GLU A   1      -8.279  19.940  67.053  1.00  0.00    -0.356 C  
BRANCH  32  33
ATOM     33  CG  GLU A   1      -9.790  19.845  67.255  1.00  0.00    -0.536 C  
ATOM     34  CD  GLU A   1     -10.491  19.579  65.951  1.00  0.00    -0.491 C  
ATOM     35  OE1 GLU A   1     -10.672  18.267  65.692  1.00  0.00    -0.546 OA 
ATOM     36  OE2 GLU A   1     -10.836  20.460  65.178  1.00  0.00    -0.065 OA 
ENDBRANCH  32  33
ENDBRANCH  28  32
ENDBRANCH  26  28
ENDBRANCH  21  24
ENDBRANCH  17  18
ENDBRANCH  16  17
ENDBRANCH  15  16
TORSDOF 7
ENDMDL
MODEL       15
REMARK 921   NORMALIZED FREE ENERGY PREDICTED BY IDOCK:   -6.16 KCAL/MOL
REMARK 922        TOTAL FREE ENERGY PREDICTED BY IDOCK:  -11.33 KCAL/MOL
REMARK 923 INTER-LIGAND FREE ENERGY PREDICTED BY IDOCK:  -10.12 KCAL/MOL
REMARK 924 INTRA-LIGAND FREE ENERGY PREDICTED BY IDOCK:   -1.20 KCAL/MOL
REMARK 927      BINDING AFFINITY PREDICTED BY RF-SCORE:    0.00 PKD
ROOT
HETATM    1  N   UNK A   0     -11.427  16.569  63.758  1.00  0.00    -1.411 NA 
HETATM    2  H1  UNK A   0     -10.980  17.475  63.894  1.00  0.00     0.000 HD 
HETATM    3  C   UNK A   0     -11.404  15.628  64.737  1.00  0.00    -0.343 C  
HETATM    4  H2  UNK A   0     -11.898  16.367  62.876  1.00  0.00     0.000 HD 
HETATM    5  N   UNK A   0     -11.975  14.472  64.564  1.00  0.00    -0.494 N  
HETATM    6  H   UNK A   0     -12.432  14.254  63.678  1.00  0.00     0.000 HD 
HETATM    7  C   UNK A   0     -11.958  13.531  65.596  1.00  0.00    -0.397 C  
HETATM    8  C   UNK A   0     -11.316  13.962  66.841  1.00  0.00    -0.343 A  
HETATM    9  O   UNK A   0     -12.450  12.416  65.483  1.00  0.00    -0.643 OA 
HETATM   10  C   UNK A   0     -10.743  15.203  66.904  1.00  0.00    -0.308 A  
HETATM   11  N   UNK A   0     -10.235  15.426  68.141  1.00  0.00    -0.228 NA 
HETATM   12  N   UNK A   0     -10.747  16.046  65.864  1.00  0.00    -0.309 NA 
HETATM   13  H   UNK A   0      -9.756  16.272  68.450  1.00  0.00     0.000 HD 
HETATM   14  C   UNK A   0     -10.478  14.310  68.906  1.00  0.00    -0.238 A  
HETATM   15  C   UNK A   0     -11.152  13.372  68.131  1.00  0.00    -0.284 A  
ENDROOT
BRANCH  15  16
HETATM   16  C   UNK A   0     -11.657  12.043  68.596  1.00  0.00    -0.372 C  
BRANCH  16  17
HETATM   17  C   UNK A   0     -12.049  12.012  70.083  1.00  0.00    -0.377 C  
BRANCH  17  18
HETATM   18  C   UNK A   0     -11.857  10.652  70.732  1.00  0.00    -0.459 A  
HETATM   19  C   UNK A   0     -10.692   9.903  70.529  1.00  0.00    -0.382 A  
HETATM   20  C   UNK A   0     -10.579   8.607  71.029  1.00  0.00    -0.278 A  
HETATM   21  C   UNK A   0     -11.624   8.044  71.765  1.00  0.00    -0.331 A  
HETATM   22  C   UNK A   0     -12.739   8.821  72.087  1.00  0.00    -0.461 A  
HETATM   23  C   UNK A   0     -12.855  10.119  71.568  1.00  0.00    -0.548 A  
BRANCH  21  24
HETATM   24  C   UNK A   0     -11.576   6.604  72.145  1.00  0.00    -0.298 C  
HETATM   25  O   UNK A   0     -12.525   6.014  72.645  1.00  0.00    -0.021 OA 
ATOM     26  N   GLU A   1     -10.383   5.971  71.856  1.00  0.00    -0.204 N  
ATOM     27  H   GLU A   1      -9.626   6.508  71.432  1.00  0.00     0.000 HD 
BRANCH  26  28
ATOM     28  CA  GLU A   1     -10.179   4.558  72.139  1.00  0.00    -0.188 C  
ATOM     29  C   GLU A   1      -9.478   4.418  73.496  1.00  0.00    -0.117 C  
ATOM     30  O   GLU A   1     -10.334   4.340  74.539  1.00  0.00    -0.210 OA 
ATOM     31  OXT GLU A   1      -8.256   4.392  73.640  1.00  0.00    -0.096 OA 
BRANCH  28  32
ATOM     32  CB  GLU A   1      -9.346   3.894  71.034  1.00  0.00    -0.222 C  
BRANCH  32  33
ATOM     33  CG  GLU A   1      -9.611   4.525  69.668  1.00  0.00    -0.270 C  
ATOM     34  CD  GLU A   1      -8.425   5.331  69.211  1.00  0.00    -0.101 C  
ATOM     35  OE1 GLU A   1      -7.549   4.628  68.464  1.00  0.00    -0.068 OA 
ATOM     36  OE2 GLU A   1      -8.249   6.502  69.513  1.00  0.00    -0.122 OA 
ENDBRANCH  32  33
ENDBRANCH  28  32
ENDBRANCH  26  28
ENDBRANCH  21  24
ENDBRANCH  17  18
ENDBRANCH  16  17
ENDBRANCH  15  16
TORSDOF 7
ENDMDL
MODEL       16
REMARK 921   NORMALIZED FREE ENERGY PREDICTED BY IDOCK:   -6.14 KCAL/MOL
REMARK 922        TOTAL FREE ENERGY PREDICTED BY IDOCK:  -11.30 KCAL/MOL
REMARK 923 INTER-LIGAND FREE ENERGY PREDICTED BY IDOCK:  -10.19 KCAL/MOL
REMARK 924 INTRA-LIGAND FREE ENERGY PREDICTED BY IDOCK:   -1.11 KCAL/MOL
REMARK 927      BINDING AFFINITY PREDICTED BY RF-SCORE:    0.00 PKD
ROOT
HETATM    1  N   UNK A   0     -12.803   6.491  72.268  1.00  0.00    -0.544 NA 
HETATM    2  H1  UNK A   0     -13.476   6.441  73.032  1.00  0.00     0.000 HD 
HETATM    3  C   UNK A   0     -12.526   7.674  71.662  1.00  0.00    -0.335 C  
HETATM    4  H2  UNK A   0     -12.331   5.642  71.956  1.00  0.00     0.000 HD 
HETATM    5  N   UNK A   0     -11.666   7.738  70.687  1.00  0.00    -0.438 N  
HETATM    6  H   UNK A   0     -11.203   6.891  70.356  1.00  0.00     0.000 HD 
HETATM    7  C   UNK A   0     -11.381   8.971  70.097  1.00  0.00    -0.121 C  
HETATM    8  C   UNK A   0     -12.065  10.130  70.679  1.00  0.00    -0.411 A  
HETATM    9  O   UNK A   0     -10.605   9.092  69.157  1.00  0.00    -0.227 OA 
HETATM   10  C   UNK A   0     -12.954   9.939  71.701  1.00  0.00    -0.434 A  
HETATM   11  N   UNK A   0     -13.452  11.127  72.121  1.00  0.00    -0.526 NA 
HETATM   12  N   UNK A   0     -13.225   8.724  72.195  1.00  0.00    -0.387 NA 
HETATM   13  H   UNK A   0     -14.132  11.262  72.869  1.00  0.00     0.000 HD 
HETATM   14  C   UNK A   0     -12.880  12.119  71.360  1.00  0.00    -0.276 A  
HETATM   15  C   UNK A   0     -12.006  11.538  70.447  1.00  0.00    -0.459 A  
ENDROOT
BRANCH  15  16
HETATM   16  C   UNK A   0     -11.136  12.266  69.473  1.00  0.00    -0.101 C  
BRANCH  16  17
HETATM   17  C   UNK A   0     -11.916  12.981  68.356  1.00  0.00    -0.309 C  
BRANCH  17  18
HETATM   18  C   UNK A   0     -11.189  14.186  67.785  1.00  0.00    -0.307 A  
HETATM   19  C   UNK A   0     -10.402  15.015  68.595  1.00  0.00    -0.236 A  
HETATM   20  C   UNK A   0      -9.841  16.186  68.087  1.00  0.00    -0.227 A  
HETATM   21  C   UNK A   0     -10.037  16.536  66.748  1.00  0.00    -0.290 A  
HETATM   22  C   UNK A   0     -10.709  15.658  65.896  1.00  0.00    -0.336 A  
HETATM   23  C   UNK A   0     -11.287  14.490  66.416  1.00  0.00    -0.349 A  
BRANCH  21  24
HETATM   24  C   UNK A   0      -9.588  17.868  66.254  1.00  0.00    -0.241 C  
HETATM   25  O   UNK A   0     -10.331  18.648  65.671  1.00  0.00    -0.572 OA 
ATOM     26  N   GLU A   1      -8.272  18.175  66.537  1.00  0.00    -0.262 N  
ATOM     27  H   GLU A   1      -7.698  17.492  67.033  1.00  0.00     0.000 HD 
BRANCH  26  28
ATOM     28  CA  GLU A   1      -7.683  19.447  66.148  1.00  0.00    -0.303 C  
ATOM     29  C   GLU A   1      -6.315  19.188  65.505  1.00  0.00    -0.255 C  
ATOM     30  O   GLU A   1      -6.377  18.989  64.169  1.00  0.00    -0.367 OA 
ATOM     31  OXT GLU A   1      -5.256  19.147  66.131  1.00  0.00    -0.153 OA 
BRANCH  28  32
ATOM     32  CB  GLU A   1      -7.538  20.377  67.360  1.00  0.00    -0.364 C  
BRANCH  32  33
ATOM     33  CG  GLU A   1      -7.848  19.653  68.669  1.00  0.00    -0.349 C  
ATOM     34  CD  GLU A   1      -6.601  19.468  69.489  1.00  0.00    -0.329 C  
ATOM     35  OE1 GLU A   1      -6.372  20.471  70.362  1.00  0.00    -0.455 OA 
ATOM     36  OE2 GLU A   1      -5.842  18.518  69.359  1.00  0.00    -0.226 OA 
ENDBRANCH  32  33
ENDBRANCH  28  32
ENDBRANCH  26  28
ENDBRANCH  21  24
ENDBRANCH  17  18
ENDBRANCH  16  17
ENDBRANCH  15  16
TORSDOF 7
ENDMDL
MODEL       17
REMARK 921   NORMALIZED FREE ENERGY PREDICTED BY IDOCK:   -6.12 KCAL/MOL
REMARK 922        TOTAL FREE ENERGY PREDICTED BY IDOCK:  -11.27 KCAL/MOL
REMARK 923 INTER-LIGAND FREE ENERGY PREDICTED BY IDOCK:  -10.00 KCAL/MOL
REMARK 924 INTRA-LIGAND FREE ENERGY PREDICTED BY IDOCK:   -1.27 KCAL/MOL
REMARK 927      BINDING AFFINITY PREDICTED BY RF-SCORE:    0.00 PKD
ROOT
HETATM    1  N   UNK A   0     -11.642  16.565  63.744  1.00  0.00    -1.433 NA 
HETATM    2  H1  UNK A   0     -11.026  17.362  63.901  1.00  0.00     0.000 HD 
HETATM    3  C   UNK A   0     -11.587  15.474  64.550  1.00  0.00    -0.283 C  
HETATM    4  H2  UNK A   0     -12.309  16.588  62.972  1.00  0.00     0.000 HD 
HETATM    5  N   UNK A   0     -12.374  14.457  64.350  1.00  0.00    -0.638 N  
HETATM    6  H   UNK A   0     -13.030  14.463  63.569  1.00  0.00     0.000 HD 
HETATM    7  C   UNK A   0     -12.314  13.358  65.210  1.00  0.00    -0.469 C  
HETATM    8  C   UNK A   0     -11.371  13.471  66.326  1.00  0.00    -0.327 A  
HETATM    9  O   UNK A   0     -13.006  12.359  65.055  1.00  0.00    -0.705 OA 
HETATM   10  C   UNK A   0     -10.590  14.590  66.431  1.00  0.00    -0.302 A  
HETATM   11  N   UNK A   0      -9.813  14.520  67.540  1.00  0.00    -0.221 NA 
HETATM   12  N   UNK A   0     -10.656  15.593  65.548  1.00  0.00    -0.379 NA 
HETATM   13  H   UNK A   0      -9.143  15.224  67.848  1.00  0.00     0.000 HD 
HETATM   14  C   UNK A   0     -10.089  13.333  68.176  1.00  0.00    -0.241 A  
HETATM   15  C   UNK A   0     -11.057  12.648  67.449  1.00  0.00    -0.315 A  
ENDROOT
BRANCH  15  16
HETATM   16  C   UNK A   0     -11.682  11.342  67.825  1.00  0.00    -0.254 C  
BRANCH  16  17
HETATM   17  C   UNK A   0     -12.155  11.277  69.287  1.00  0.00    -0.372 C  
BRANCH  17  18
HETATM   18  C   UNK A   0     -11.347  10.317  70.144  1.00  0.00    -0.388 A  
HETATM   19  C   UNK A   0     -11.896   9.716  71.284  1.00  0.00    -0.460 A  
HETATM   20  C   UNK A   0     -11.110   8.934  72.129  1.00  0.00    -0.355 A  
HETATM   21  C   UNK A   0      -9.761   8.719  71.834  1.00  0.00    -0.386 A  
HETATM   22  C   UNK A   0      -9.230   9.204  70.636  1.00  0.00    -0.310 A  
HETATM   23  C   UNK A   0     -10.021  10.003  69.798  1.00  0.00    -0.276 A  
BRANCH  21  24
HETATM   24  C   UNK A   0      -8.882   8.036  72.825  1.00  0.00    -0.214 C  
HETATM   25  O   UNK A   0      -8.507   8.568  73.862  1.00  0.00    -0.320 OA 
ATOM     26  N   GLU A   1      -8.549   6.736  72.500  1.00  0.00    -0.123 N  
ATOM     27  H   GLU A   1      -8.894   6.338  71.626  1.00  0.00     0.000 HD 
BRANCH  26  28
ATOM     28  CA  GLU A   1      -7.719   5.919  73.373  1.00  0.00    -0.101 C  
ATOM     29  C   GLU A   1      -6.338   5.747  72.729  1.00  0.00    -0.061 C  
ATOM     30  O   GLU A   1      -5.461   6.718  73.069  1.00  0.00    -0.037 OA 
ATOM     31  OXT GLU A   1      -6.044   4.829  71.964  1.00  0.00    -0.016 OA 
BRANCH  28  32
ATOM     32  CB  GLU A   1      -8.369   4.551  73.621  1.00  0.00    -0.101 C  
BRANCH  32  33
ATOM     33  CG  GLU A   1      -9.471   4.254  72.605  1.00  0.00    -0.165 C  
ATOM     34  CD  GLU A   1     -10.812   4.163  73.280  1.00  0.00    -0.228 C  
ATOM     35  OE1 GLU A   1     -11.479   5.336  73.319  1.00  0.00    -0.294 OA 
ATOM     36  OE2 GLU A   1     -11.249   3.136  73.778  1.00  0.00    -0.221 OA 
ENDBRANCH  32  33
ENDBRANCH  28  32
ENDBRANCH  26  28
ENDBRANCH  21  24
ENDBRANCH  17  18
ENDBRANCH  16  17
ENDBRANCH  15  16
TORSDOF 7
ENDMDL
MODEL       18
REMARK 921   NORMALIZED FREE ENERGY PREDICTED BY IDOCK:   -6.11 KCAL/MOL
REMARK 922        TOTAL FREE ENERGY PREDICTED BY IDOCK:  -11.26 KCAL/MOL
REMARK 923 INTER-LIGAND FREE ENERGY PREDICTED BY IDOCK:  -10.16 KCAL/MOL
REMARK 924 INTRA-LIGAND FREE ENERGY PREDICTED BY IDOCK:   -1.10 KCAL/MOL
REMARK 927      BINDING AFFINITY PREDICTED BY RF-SCORE:    0.00 PKD
ROOT
HETATM    1  N   UNK A   0      -7.786   3.538  68.895  1.00  0.00    -0.052 NA 
HETATM    2  H1  UNK A   0      -7.228   2.948  69.511  1.00  0.00     0.000 HD 
HETATM    3  C   UNK A   0      -8.834   4.253  69.380  1.00  0.00    -0.092 C  
HETATM    4  H2  UNK A   0      -7.554   3.593  67.903  1.00  0.00     0.000 HD 
HETATM    5  N   UNK A   0      -9.546   5.007  68.594  1.00  0.00    -0.139 N  
HETATM    6  H   UNK A   0      -9.334   5.053  67.598  1.00  0.00     0.000 HD 
HETATM    7  C   UNK A   0     -10.603   5.751  69.123  1.00  0.00    -0.294 C  
HETATM    8  C   UNK A   0     -10.793   5.649  70.573  1.00  0.00    -0.315 A  
HETATM    9  O   UNK A   0     -11.328   6.454  68.430  1.00  0.00    -0.280 OA 
HETATM   10  C   UNK A   0      -9.983   4.818  71.297  1.00  0.00    -0.200 A  
HETATM   11  N   UNK A   0     -10.293   4.888  72.615  1.00  0.00    -0.190 NA 
HETATM   12  N   UNK A   0      -9.015   4.089  70.728  1.00  0.00    -0.087 NA 
HETATM   13  H   UNK A   0      -9.840   4.368  73.366  1.00  0.00     0.000 HD 
HETATM   14  C   UNK A   0     -11.327   5.782  72.759  1.00  0.00    -0.282 A  
HETATM   15  C   UNK A   0     -11.669   6.281  71.507  1.00  0.00    -0.329 A  
ENDROOT
BRANCH  15  16
HETATM   16  C   UNK A   0     -12.705   7.323  71.226  1.00  0.00    -0.400 C  
BRANCH  16  17
HETATM   17  C   UNK A   0     -12.666   8.516  72.196  1.00  0.00    -0.423 C  
BRANCH  17  18
HETATM   18  C   UNK A   0     -12.421   9.848  71.508  1.00  0.00    -0.506 A  
HETATM   19  C   UNK A   0     -13.046  11.022  71.946  1.00  0.00    -0.525 A  
HETATM   20  C   UNK A   0     -12.909  12.213  71.234  1.00  0.00    -0.349 A  
HETATM   21  C   UNK A   0     -12.122  12.256  70.081  1.00  0.00    -0.364 A  
HETATM   22  C   UNK A   0     -11.389  11.129  69.703  1.00  0.00    -0.366 A  
HETATM   23  C   UNK A   0     -11.543   9.929  70.412  1.00  0.00    -0.356 A  
BRANCH  21  24
HETATM   24  C   UNK A   0     -12.120  13.476  69.226  1.00  0.00    -0.288 C  
HETATM   25  O   UNK A   0     -12.359  14.596  69.661  1.00  0.00    -0.298 OA 
ATOM     26  N   GLU A   1     -11.790  13.254  67.904  1.00  0.00    -0.352 N  
ATOM     27  H   GLU A   1     -11.592  12.302  67.594  1.00  0.00     0.000 HD 
BRANCH  26  28
ATOM     28  CA  GLU A   1     -11.717  14.342  66.941  1.00  0.00    -0.402 C  
ATOM     29  C   GLU A   1     -12.217  13.839  65.581  1.00  0.00    -0.454 C  
ATOM     30  O   GLU A   1     -13.549  13.989  65.408  1.00  0.00    -0.593 OA 
ATOM     31  OXT GLU A   1     -11.492  13.334  64.725  1.00  0.00    -0.309 OA 
BRANCH  28  32
ATOM     32  CB  GLU A   1     -10.281  14.871  66.822  1.00  0.00    -0.259 C  
BRANCH  32  33
ATOM     33  CG  GLU A   1     -10.197  16.361  67.151  1.00  0.00    -0.282 C  
ATOM     34  CD  GLU A   1      -9.703  17.145  65.967  1.00  0.00    -0.189 C  
ATOM     35  OE1 GLU A   1     -10.692  17.609  65.174  1.00  0.00    -0.658 OA 
ATOM     36  OE2 GLU A   1      -8.519  17.322  65.720  1.00  0.00    -0.532 OA 
ENDBRANCH  32  33
ENDBRANCH  28  32
ENDBRANCH  26  28
ENDBRANCH  21  24
ENDBRANCH  17  18
ENDBRANCH  16  17
ENDBRANCH  15  16
TORSDOF 7
ENDMDL
MODEL       19
REMARK 921   NORMALIZED FREE ENERGY PREDICTED BY IDOCK:   -6.10 KCAL/MOL
REMARK 922        TOTAL FREE ENERGY PREDICTED BY IDOCK:  -11.24 KCAL/MOL
REMARK 923 INTER-LIGAND FREE ENERGY PREDICTED BY IDOCK:   -9.71 KCAL/MOL
REMARK 924 INTRA-LIGAND FREE ENERGY PREDICTED BY IDOCK:   -1.53 KCAL/MOL
REMARK 927      BINDING AFFINITY PREDICTED BY RF-SCORE:    0.00 PKD
ROOT
HETATM    1  N   UNK A   0     -14.070   7.987  72.435  1.00  0.00    -0.585 NA 
HETATM    2  H1  UNK A   0     -14.126   8.536  73.292  1.00  0.00     0.000 HD 
HETATM    3  C   UNK A   0     -12.881   7.794  71.809  1.00  0.00    -0.327 C  
HETATM    4  H2  UNK A   0     -14.919   7.578  72.043  1.00  0.00     0.000 HD 
HETATM    5  N   UNK A   0     -12.810   7.093  70.715  1.00  0.00    -0.591 N  
HETATM    6  H   UNK A   0     -13.655   6.695  70.306  1.00  0.00     0.000 HD 
HETATM    7  C   UNK A   0     -11.570   6.888  70.105  1.00  0.00    -0.289 C  
HETATM    8  C   UNK A   0     -10.414   7.463  70.800  1.00  0.00    -0.221 A  
HETATM    9  O   UNK A   0     -11.442   6.265  69.059  1.00  0.00    -0.363 OA 
HETATM   10  C   UNK A   0     -10.614   8.187  71.944  1.00  0.00    -0.260 A  
HETATM   11  N   UNK A   0      -9.427   8.602  72.452  1.00  0.00    -0.284 NA 
HETATM   12  N   UNK A   0     -11.833   8.391  72.457  1.00  0.00    -0.388 NA 
HETATM   13  H   UNK A   0      -9.298   9.158  73.297  1.00  0.00     0.000 HD 
HETATM   14  C   UNK A   0      -8.429   8.142  71.625  1.00  0.00    -0.136 A  
HETATM   15  C   UNK A   0      -9.004   7.426  70.581  1.00  0.00    -0.155 A  
ENDROOT
BRANCH  15  16
HETATM   16  C   UNK A   0      -8.268   6.708  69.495  1.00  0.00    -0.130 C  
BRANCH  16  17
HETATM   17  C   UNK A   0      -7.647   7.641  68.442  1.00  0.00    -0.113 C  
BRANCH  17  18
HETATM   18  C   UNK A   0      -8.455   8.905  68.201  1.00  0.00    -0.129 A  
HETATM   19  C   UNK A   0      -8.004  10.156  68.642  1.00  0.00    -0.103 A  
HETATM   20  C   UNK A   0      -8.809  11.288  68.524  1.00  0.00    -0.159 A  
HETATM   21  C   UNK A   0     -10.075  11.193  67.939  1.00  0.00    -0.195 A  
HETATM   22  C   UNK A   0     -10.487   9.982  67.378  1.00  0.00    -0.316 A  
HETATM   23  C   UNK A   0      -9.681   8.843  67.514  1.00  0.00    -0.216 A  
BRANCH  21  24
HETATM   24  C   UNK A   0     -11.000  12.360  67.975  1.00  0.00    -0.225 C  
HETATM   25  O   UNK A   0     -11.950  12.481  67.212  1.00  0.00    -0.474 OA 
ATOM     26  N   GLU A   1     -10.725  13.285  68.963  1.00  0.00    -0.407 N  
ATOM     27  H   GLU A   1      -9.924  13.132  69.577  1.00  0.00     0.000 HD 
BRANCH  26  28
ATOM     28  CA  GLU A   1     -11.547  14.470  69.151  1.00  0.00    -0.298 C  
ATOM     29  C   GLU A   1     -10.787  15.693  68.623  1.00  0.00    -0.273 C  
ATOM     30  O   GLU A   1     -11.011  15.942  67.313  1.00  0.00    -0.310 OA 
ATOM     31  OXT GLU A   1     -10.033  16.384  69.308  1.00  0.00    -0.260 OA 
BRANCH  28  32
ATOM     32  CB  GLU A   1     -11.903  14.659  70.632  1.00  0.00    -0.367 C  
BRANCH  32  33
ATOM     33  CG  GLU A   1     -13.405  14.855  70.833  1.00  0.00    -0.393 C  
ATOM     34  CD  GLU A   1     -13.779  14.683  72.280  1.00  0.00    -0.460 C  
ATOM     35  OE1 GLU A   1     -13.765  15.834  72.984  1.00  0.00    -0.570 OA 
ATOM     36  OE2 GLU A   1     -14.040  13.601  72.785  1.00  0.00    -0.711 OA 
ENDBRANCH  32  33
ENDBRANCH  28  32
ENDBRANCH  26  28
ENDBRANCH  21  24
ENDBRANCH  17  18
ENDBRANCH  16  17
ENDBRANCH  15  16
TORSDOF 7
ENDMDL
MODEL       20
REMARK 921   NORMALIZED FREE ENERGY PREDICTED BY IDOCK:   -6.08 KCAL/MOL
REMARK 922        TOTAL FREE ENERGY PREDICTED BY IDOCK:  -11.21 KCAL/MOL
REMARK 923 INTER-LIGAND FREE ENERGY PREDICTED BY IDOCK:   -9.52 KCAL/MOL
REMARK 924 INTRA-LIGAND FREE ENERGY PREDICTED BY IDOCK:   -1.69 KCAL/MOL
REMARK 927      BINDING AFFINITY PREDICTED BY RF-SCORE:    0.00 PKD
ROOT
HETATM    1  N   UNK A   0     -12.650  13.954  62.971  1.00  0.00    -0.908 NA 
HETATM    2  H1  UNK A   0     -12.324  14.004  62.006  1.00  0.00     0.000 HD 
HETATM    3  C   UNK A   0     -12.026  13.158  63.876  1.00  0.00    -0.488 C  
HETATM    4  H2  UNK A   0     -13.455  14.510  63.259  1.00  0.00     0.000 HD 
HETATM    5  N   UNK A   0     -12.443  13.095  65.107  1.00  0.00    -0.492 N  
HETATM    6  H   UNK A   0     -13.259  13.633  65.400  1.00  0.00     0.000 HD 
HETATM    7  C   UNK A   0     -11.768  12.286  66.025  1.00  0.00    -0.388 C  
HETATM    8  C   UNK A   0     -10.582  11.593  65.513  1.00  0.00    -0.329 A  
HETATM    9  O   UNK A   0     -12.130  12.161  67.188  1.00  0.00    -0.575 OA 
HETATM   10  C   UNK A   0     -10.243  11.731  64.194  1.00  0.00    -0.322 A  
HETATM   11  N   UNK A   0      -9.106  11.045  63.925  1.00  0.00    -0.350 NA 
HETATM   12  N   UNK A   0     -10.957  12.483  63.348  1.00  0.00    -0.420 NA 
HETATM   13  H   UNK A   0      -8.641  10.985  63.019  1.00  0.00     0.000 HD 
HETATM   14  C   UNK A   0      -8.690  10.443  65.089  1.00  0.00    -0.181 A  
HETATM   15  C   UNK A   0      -9.585  10.761  66.105  1.00  0.00    -0.236 A  
ENDROOT
BRANCH  15  16
HETATM   16  C   UNK A   0      -9.469  10.357  67.540  1.00  0.00    -0.167 C  
BRANCH  16  17
HETATM   17  C   UNK A   0      -8.286  11.010  68.276  1.00  0.00    -0.130 C  
BRANCH  17  18
HETATM   18  C   UNK A   0      -8.236  12.520  68.123  1.00  0.00    -0.170 A  
HETATM   19  C   UNK A   0      -7.141  13.158  67.527  1.00  0.00    -0.156 A  
HETATM   20  C   UNK A   0      -7.050  14.550  67.502  1.00  0.00    -0.199 A  
HETATM   21  C   UNK A   0      -8.071  15.330  68.053  1.00  0.00    -0.141 A  
HETATM   22  C   UNK A   0      -9.228  14.714  68.534  1.00  0.00    -0.193 A  
HETATM   23  C   UNK A   0      -9.306  13.314  68.572  1.00  0.00    -0.091 A  
BRANCH  21  24
HETATM   24  C   UNK A   0      -7.891  16.803  68.185  1.00  0.00    -0.182 C  
HETATM   25  O   UNK A   0      -7.003  17.309  68.858  1.00  0.00    -0.213 OA 
ATOM     26  N   GLU A   1      -8.788  17.560  67.457  1.00  0.00    -0.228 N  
ATOM     27  H   GLU A   1      -9.505  17.088  66.906  1.00  0.00     0.000 HD 
BRANCH  26  28
ATOM     28  CA  GLU A   1      -8.735  19.014  67.455  1.00  0.00    -0.290 C  
ATOM     29  C   GLU A   1     -10.067  19.562  67.980  1.00  0.00    -0.420 C  
ATOM     30  O   GLU A   1     -10.092  19.725  69.322  1.00  0.00    -0.417 OA 
ATOM     31  OXT GLU A   1     -11.036  19.822  67.265  1.00  0.00    -0.414 OA 
BRANCH  28  32
ATOM     32  CB  GLU A   1      -8.454  19.549  66.044  1.00  0.00    -0.247 C  
BRANCH  32  33
ATOM     33  CG  GLU A   1      -7.038  20.108  65.921  1.00  0.00    -0.312 C  
ATOM     34  CD  GLU A   1      -6.117  19.102  65.287  1.00  0.00    -0.262 C  
ATOM     35  OE1 GLU A   1      -6.033  19.216  63.945  1.00  0.00    -0.450 OA 
ATOM     36  OE2 GLU A   1      -5.523  18.239  65.917  1.00  0.00    -0.149 OA 
ENDBRANCH  32  33
ENDBRANCH  28  32
ENDBRANCH  26  28
ENDBRANCH  21  24
ENDBRANCH  17  18
ENDBRANCH  16  17
ENDBRANCH  15  16
TORSDOF 7
ENDMDL
MODEL       21
REMARK 921   NORMALIZED FREE ENERGY PREDICTED BY IDOCK:   -6.05 KCAL/MOL
REMARK 922        TOTAL FREE ENERGY PREDICTED BY IDOCK:  -11.17 KCAL/MOL
REMARK 923 INTER-LIGAND FREE ENERGY PREDICTED BY IDOCK:   -9.31 KCAL/MOL
REMARK 924 INTRA-LIGAND FREE ENERGY PREDICTED BY IDOCK:   -1.86 KCAL/MOL
REMARK 927      BINDING AFFINITY PREDICTED BY RF-SCORE:    0.00 PKD
ROOT
HETATM    1  N   UNK A   0     -13.325   8.806  72.853  1.00  0.00    -0.837 NA 
HETATM    2  H1  UNK A   0     -14.240   8.411  72.637  1.00  0.00     0.000 HD 
HETATM    3  C   UNK A   0     -12.213   8.383  72.199  1.00  0.00    -0.374 C  
HETATM    4  H2  UNK A   0     -13.244   9.528  73.569  1.00  0.00     0.000 HD 
HETATM    5  N   UNK A   0     -11.046   8.887  72.474  1.00  0.00    -0.058 N  
HETATM    6  H   UNK A   0     -10.953   9.596  73.201  1.00  0.00     0.000 HD 
HETATM    7  C   UNK A   0      -9.922   8.451  71.768  1.00  0.00    -0.241 C  
HETATM    8  C   UNK A   0     -10.173   7.465  70.714  1.00  0.00    -0.200 A  
HETATM    9  O   UNK A   0      -8.793   8.864  72.002  1.00  0.00    -0.367 OA 
HETATM   10  C   UNK A   0     -11.446   7.002  70.519  1.00  0.00    -0.319 A  
HETATM   11  N   UNK A   0     -11.477   6.128  69.483  1.00  0.00    -0.442 NA 
HETATM   12  N   UNK A   0     -12.480   7.421  71.260  1.00  0.00    -0.349 NA 
HETATM   13  H   UNK A   0     -12.303   5.642  69.134  1.00  0.00     0.000 HD 
HETATM   14  C   UNK A   0     -10.200   6.014  68.988  1.00  0.00    -0.193 A  
HETATM   15  C   UNK A   0      -9.355   6.833  69.729  1.00  0.00    -0.145 A  
ENDROOT
BRANCH  15  16
HETATM   16  C   UNK A   0      -7.895   7.047  69.482  1.00  0.00    -0.119 C  
BRANCH  16  17
HETATM   17  C   UNK A   0      -7.576   7.601  68.083  1.00  0.00    -0.114 C  
BRANCH  17  18
HETATM   18  C   UNK A   0      -8.380   8.839  67.724  1.00  0.00    -0.118 A  
HETATM   19  C   UNK A   0      -8.383   9.972  68.547  1.00  0.00    -0.113 A  
HETATM   20  C   UNK A   0      -9.219  11.054  68.271  1.00  0.00    -0.165 A  
HETATM   21  C   UNK A   0     -10.052  11.030  67.149  1.00  0.00    -0.227 A  
HETATM   22  C   UNK A   0      -9.967   9.966  66.249  1.00  0.00    -0.322 A  
HETATM   23  C   UNK A   0      -9.138   8.873  66.540  1.00  0.00    -0.206 A  
BRANCH  21  24
HETATM   24  C   UNK A   0     -11.068  12.102  66.955  1.00  0.00    -0.297 C  
HETATM   25  O   UNK A   0     -12.268  11.875  66.865  1.00  0.00    -0.493 OA 
ATOM     26  N   GLU A   1     -10.555  13.383  66.918  1.00  0.00    -0.271 N  
ATOM     27  H   GLU A   1      -9.547  13.518  67.004  1.00  0.00     0.000 HD 
BRANCH  26  28
ATOM     28  CA  GLU A   1     -11.415  14.547  66.760  1.00  0.00    -0.367 C  
ATOM     29  C   GLU A   1     -11.391  14.988  65.292  1.00  0.00    -0.349 C  
ATOM     30  O   GLU A   1     -12.335  14.387  64.533  1.00  0.00    -0.535 OA 
ATOM     31  OXT GLU A   1     -10.589  15.799  64.829  1.00  0.00    -0.504 OA 
BRANCH  28  32
ATOM     32  CB  GLU A   1     -10.957  15.693  67.671  1.00  0.00    -0.315 C  
BRANCH  32  33
ATOM     33  CG  GLU A   1     -10.536  15.187  69.050  1.00  0.00    -0.248 C  
ATOM     34  CD  GLU A   1     -11.736  14.961  69.928  1.00  0.00    -0.305 C  
ATOM     35  OE1 GLU A   1     -12.223  13.703  69.866  1.00  0.00    -0.321 OA 
ATOM     36  OE2 GLU A   1     -12.248  15.836  70.610  1.00  0.00    -0.392 OA 
ENDBRANCH  32  33
ENDBRANCH  28  32
ENDBRANCH  26  28
ENDBRANCH  21  24
ENDBRANCH  17  18
ENDBRANCH  16  17
ENDBRANCH  15  16
TORSDOF 7
ENDMDL
MODEL       22
REMARK 921   NORMALIZED FREE ENERGY PREDICTED BY IDOCK:   -6.04 KCAL/MOL
REMARK 922        TOTAL FREE ENERGY PREDICTED BY IDOCK:  -11.16 KCAL/MOL
REMARK 923 INTER-LIGAND FREE ENERGY PREDICTED BY IDOCK:   -9.94 KCAL/MOL
REMARK 924 INTRA-LIGAND FREE ENERGY PREDICTED BY IDOCK:   -1.21 KCAL/MOL
REMARK 927      BINDING AFFINITY PREDICTED BY RF-SCORE:    0.00 PKD
ROOT
HETATM    1  N   UNK A   0      -9.752  20.540  67.125  1.00  0.00    -0.531 NA 
HETATM    2  H1  UNK A   0      -9.160  20.821  67.906  1.00  0.00     0.000 HD 
HETATM    3  C   UNK A   0      -9.809  19.242  66.728  1.00  0.00    -0.352 C  
HETATM    4  H2  UNK A   0     -10.309  21.241  66.636  1.00  0.00     0.000 HD 
HETATM    5  N   UNK A   0     -10.565  18.883  65.732  1.00  0.00    -0.421 N  
HETATM    6  H   UNK A   0     -11.110  19.580  65.226  1.00  0.00     0.000 HD 
HETATM    7  C   UNK A   0     -10.625  17.538  65.360  1.00  0.00     0.003 C  
HETATM    8  C   UNK A   0      -9.839  16.613  66.183  1.00  0.00    -0.340 A  
HETATM    9  O   UNK A   0     -11.292  17.143  64.413  1.00  0.00    -1.115 OA 
HETATM   10  C   UNK A   0      -9.076  17.109  67.205  1.00  0.00    -0.228 A  
HETATM   11  N   UNK A   0      -8.456  16.100  67.863  1.00  0.00    -0.162 NA 
HETATM   12  N   UNK A   0      -9.020  18.417  67.485  1.00  0.00    -0.263 NA 
HETATM   13  H   UNK A   0      -7.831  16.200  68.663  1.00  0.00     0.000 HD 
HETATM   14  C   UNK A   0      -8.818  14.917  67.263  1.00  0.00    -0.201 A  
HETATM   15  C   UNK A   0      -9.682  15.195  66.208  1.00  0.00    -0.315 A  
ENDROOT
BRANCH  15  16
HETATM   16  C   UNK A   0     -10.355  14.186  65.333  1.00  0.00    -0.384 C  
BRANCH  16  17
HETATM   17  C   UNK A   0     -11.642  13.598  65.936  1.00  0.00    -0.346 C  
BRANCH  17  18
HETATM   18  C   UNK A   0     -11.390  12.454  66.902  1.00  0.00    -0.392 A  
HETATM   19  C   UNK A   0     -10.810  11.252  66.476  1.00  0.00    -0.319 A  
HETATM   20  C   UNK A   0     -10.696  10.166  67.342  1.00  0.00    -0.336 A  
HETATM   21  C   UNK A   0     -11.139  10.271  68.664  1.00  0.00    -0.290 A  
HETATM   22  C   UNK A   0     -11.599  11.500  69.141  1.00  0.00    -0.382 A  
HETATM   23  C   UNK A   0     -11.728  12.585  68.261  1.00  0.00    -0.390 A  
BRANCH  21  24
HETATM   24  C   UNK A   0     -11.180   9.063  69.534  1.00  0.00     0.070 C  
HETATM   25  O   UNK A   0     -10.541   8.046  69.294  1.00  0.00    -0.222 OA 
ATOM     26  N   GLU A   1     -11.972   9.188  70.658  1.00  0.00    -0.461 N  
ATOM     27  H   GLU A   1     -12.478  10.060  70.814  1.00  0.00     0.000 HD 
BRANCH  26  28
ATOM     28  CA  GLU A   1     -12.102   8.109  71.625  1.00  0.00    -0.304 C  
ATOM     29  C   GLU A   1     -13.536   8.096  72.168  1.00  0.00    -0.215 C  
ATOM     30  O   GLU A   1     -14.380   7.330  71.440  1.00  0.00    -0.431 OA 
ATOM     31  OXT GLU A   1     -13.903   8.725  73.160  1.00  0.00    -0.222 OA 
BRANCH  28  32
ATOM     32  CB  GLU A   1     -11.096   8.279  72.772  1.00  0.00    -0.319 C  
BRANCH  32  33
ATOM     33  CG  GLU A   1      -9.782   7.555  72.486  1.00  0.00    -0.218 C  
ATOM     34  CD  GLU A   1      -8.618   8.505  72.561  1.00  0.00    -0.134 C  
ATOM     35  OE1 GLU A   1      -8.052   8.572  73.784  1.00  0.00    -0.378 OA 
ATOM     36  OE2 GLU A   1      -8.237   9.182  71.617  1.00  0.00    -0.343 OA 
ENDBRANCH  32  33
ENDBRANCH  28  32
ENDBRANCH  26  28
ENDBRANCH  21  24
ENDBRANCH  17  18
ENDBRANCH  16  17
ENDBRANCH  15  16
TORSDOF 7
ENDMDL
MODEL       23
REMARK 921   NORMALIZED FREE ENERGY PREDICTED BY IDOCK:   -6.00 KCAL/MOL
REMARK 922        TOTAL FREE ENERGY PREDICTED BY IDOCK:  -11.10 KCAL/MOL
REMARK 923 INTER-LIGAND FREE ENERGY PREDICTED BY IDOCK:  -10.12 KCAL/MOL
REMARK 924 INTRA-LIGAND FREE ENERGY PREDICTED BY IDOCK:   -0.98 KCAL/MOL
REMARK 927      BINDING AFFINITY PREDICTED BY RF-SCORE:    0.00 PKD
ROOT
HETATM    1  N   UNK A   0      -7.040  21.380  66.989  1.00  0.00    -0.835 NA 
HETATM    2  H1  UNK A   0      -6.035  21.332  67.152  1.00  0.00     0.000 HD 
HETATM    3  C   UNK A   0      -7.846  20.334  67.303  1.00  0.00    -0.327 C  
HETATM    4  H2  UNK A   0      -7.445  22.225  66.586  1.00  0.00     0.000 HD 
HETATM    5  N   UNK A   0      -9.128  20.395  67.096  1.00  0.00    -0.464 N  
HETATM    6  H   UNK A   0      -9.540  21.229  66.676  1.00  0.00     0.000 HD 
HETATM    7  C   UNK A   0      -9.939  19.314  67.451  1.00  0.00    -0.368 C  
HETATM    8  C   UNK A   0      -9.253  18.187  68.090  1.00  0.00    -0.298 A  
HETATM    9  O   UNK A   0     -11.147  19.300  67.253  1.00  0.00    -0.442 OA 
HETATM   10  C   UNK A   0      -7.895  18.233  68.251  1.00  0.00    -0.298 A  
HETATM   11  N   UNK A   0      -7.458  17.119  68.887  1.00  0.00    -0.249 NA 
HETATM   12  N   UNK A   0      -7.163  19.278  67.846  1.00  0.00    -0.248 NA 
HETATM   13  H   UNK A   0      -6.490  16.907  69.129  1.00  0.00     0.000 HD 
HETATM   14  C   UNK A   0      -8.549  16.325  69.149  1.00  0.00    -0.212 A  
HETATM   15  C   UNK A   0      -9.691  16.956  68.666  1.00  0.00    -0.267 A  
ENDROOT
BRANCH  15  16
HETATM   16  C   UNK A   0     -11.095  16.459  68.799  1.00  0.00    -0.337 C  
BRANCH  16  17
HETATM   17  C   UNK A   0     -11.475  16.039  70.229  1.00  0.00    -0.369 C  
BRANCH  17  18
HETATM   18  C   UNK A   0     -11.883  14.581  70.344  1.00  0.00    -0.378 A  
HETATM   19  C   UNK A   0     -12.661  14.123  71.415  1.00  0.00    -0.439 A  
HETATM   20  C   UNK A   0     -12.926  12.763  71.576  1.00  0.00    -0.388 A  
HETATM   21  C   UNK A   0     -12.437  11.837  70.650  1.00  0.00    -0.364 A  
HETATM   22  C   UNK A   0     -11.771  12.289  69.509  1.00  0.00    -0.398 A  
HETATM   23  C   UNK A   0     -11.492  13.655  69.361  1.00  0.00    -0.343 A  
BRANCH  21  24
HETATM   24  C   UNK A   0     -12.569  10.378  70.918  1.00  0.00    -0.383 C  
HETATM   25  O   UNK A   0     -13.599   9.867  71.340  1.00  0.00    -0.324 OA 
ATOM     26  N   GLU A   1     -11.446   9.633  70.617  1.00  0.00    -0.286 N  
ATOM     27  H   GLU A   1     -10.616  10.107  70.260  1.00  0.00     0.000 HD 
BRANCH  26  28
ATOM     28  CA  GLU A   1     -11.416   8.189  70.795  1.00  0.00    -0.261 C  
ATOM     29  C   GLU A   1     -10.665   7.862  72.092  1.00  0.00    -0.257 C  
ATOM     30  O   GLU A   1     -11.465   7.820  73.181  1.00  0.00    -0.330 OA 
ATOM     31  OXT GLU A   1      -9.451   7.668  72.155  1.00  0.00    -0.146 OA 
BRANCH  28  32
ATOM     32  CB  GLU A   1     -10.742   7.504  69.599  1.00  0.00    -0.236 C  
BRANCH  32  33
ATOM     33  CG  GLU A   1     -11.231   6.068  69.418  1.00  0.00    -0.397 C  
ATOM     34  CD  GLU A   1     -10.455   5.369  68.335  1.00  0.00    -0.121 C  
ATOM     35  OE1 GLU A   1      -9.373   4.703  68.788  1.00  0.00    -0.121 OA 
ATOM     36  OE2 GLU A   1     -10.752   5.423  67.151  1.00  0.00    -0.235 OA 
ENDBRANCH  32  33
ENDBRANCH  28  32
ENDBRANCH  26  28
ENDBRANCH  21  24
ENDBRANCH  17  18
ENDBRANCH  16  17
ENDBRANCH  15  16
TORSDOF 7
ENDMDL
MODEL       24
REMARK 921   NORMALIZED FREE ENERGY PREDICTED BY IDOCK:   -5.99 KCAL/MOL
REMARK 922        TOTAL FREE ENERGY PREDICTED BY IDOCK:  -11.08 KCAL/MOL
REMARK 923 INTER-LIGAND FREE ENERGY PREDICTED BY IDOCK:   -9.89 KCAL/MOL
REMARK 924 INTRA-LIGAND FREE ENERGY PREDICTED BY IDOCK:   -1.19 KCAL/MOL
REMARK 927      BINDING AFFINITY PREDICTED BY RF-SCORE:    0.00 PKD
ROOT
HETATM    1  N   UNK A   0     -11.209   4.762  74.202  1.00  0.00    -0.310 NA 
HETATM    2  H1  UNK A   0     -10.632   3.986  74.525  1.00  0.00     0.000 HD 
HETATM    3  C   UNK A   0     -11.124   5.206  72.922  1.00  0.00    -0.295 C  
HETATM    4  H2  UNK A   0     -11.857   5.211  74.850  1.00  0.00     0.000 HD 
HETATM    5  N   UNK A   0     -11.860   6.196  72.510  1.00  0.00    -0.501 N  
HETATM    6  H   UNK A   0     -12.499   6.663  73.155  1.00  0.00     0.000 HD 
HETATM    7  C   UNK A   0     -11.772   6.617  71.181  1.00  0.00    -0.346 C  
HETATM    8  C   UNK A   0     -10.861   5.849  70.328  1.00  0.00    -0.391 A  
HETATM    9  O   UNK A   0     -12.416   7.562  70.742  1.00  0.00    -0.181 OA 
HETATM   10  C   UNK A   0     -10.132   4.829  70.876  1.00  0.00    -0.205 A  
HETATM   11  N   UNK A   0      -9.379   4.224  69.924  1.00  0.00    -0.144 NA 
HETATM   12  N   UNK A   0     -10.222   4.501  72.170  1.00  0.00    -0.193 NA 
HETATM   13  H   UNK A   0      -8.747   3.437  70.070  1.00  0.00     0.000 HD 
HETATM   14  C   UNK A   0      -9.617   4.860  68.729  1.00  0.00    -0.156 A  
HETATM   15  C   UNK A   0     -10.537   5.882  68.938  1.00  0.00    -0.357 A  
ENDROOT
BRANCH  15  16
HETATM   16  C   UNK A   0     -11.112   6.778  67.888  1.00  0.00    -0.262 C  
BRANCH  16  17
HETATM   17  C   UNK A   0     -10.072   7.683  67.205  1.00  0.00    -0.323 C  
BRANCH  17  18
HETATM   18  C   UNK A   0     -10.330   9.165  67.412  1.00  0.00    -0.330 A  
HETATM   19  C   UNK A   0     -10.633   9.684  68.677  1.00  0.00    -0.246 A  
HETATM   20  C   UNK A   0     -10.988  11.024  68.834  1.00  0.00    -0.277 A  
HETATM   21  C   UNK A   0     -11.020  11.877  67.728  1.00  0.00    -0.278 A  
HETATM   22  C   UNK A   0     -10.596  11.408  66.482  1.00  0.00    -0.309 A  
HETATM   23  C   UNK A   0     -10.257  10.056  66.326  1.00  0.00    -0.285 A  
BRANCH  21  24
HETATM   24  C   UNK A   0     -11.567  13.255  67.867  1.00  0.00    -0.334 C  
HETATM   25  O   UNK A   0     -12.355  13.744  67.068  1.00  0.00    -0.378 OA 
ATOM     26  N   GLU A   1     -11.143  13.933  68.993  1.00  0.00    -0.262 N  
ATOM     27  H   GLU A   1     -10.491  13.477  69.631  1.00  0.00     0.000 HD 
BRANCH  26  28
ATOM     28  CA  GLU A   1     -11.603  15.280  69.293  1.00  0.00    -0.332 C  
ATOM     29  C   GLU A   1     -10.592  16.288  68.734  1.00  0.00    -0.298 C  
ATOM     30  O   GLU A   1     -10.847  16.657  67.458  1.00  0.00    -0.305 OA 
ATOM     31  OXT GLU A   1      -9.628  16.720  69.366  1.00  0.00    -0.157 OA 
BRANCH  28  32
ATOM     32  CB  GLU A   1     -11.775  15.476  70.805  1.00  0.00    -0.397 C  
BRANCH  32  33
ATOM     33  CG  GLU A   1     -13.213  15.220  71.250  1.00  0.00    -0.563 C  
ATOM     34  CD  GLU A   1     -13.266  14.151  72.308  1.00  0.00    -0.447 C  
ATOM     35  OE1 GLU A   1     -13.202  14.633  73.567  1.00  0.00    -0.546 OA 
ATOM     36  OE2 GLU A   1     -13.325  12.957  72.058  1.00  0.00    -0.479 OA 
ENDBRANCH  32  33
ENDBRANCH  28  32
ENDBRANCH  26  28
ENDBRANCH  21  24
ENDBRANCH  17  18
ENDBRANCH  16  17
ENDBRANCH  15  16
TORSDOF 7
ENDMDL
MODEL       25
REMARK 921   NORMALIZED FREE ENERGY PREDICTED BY IDOCK:   -5.98 KCAL/MOL
REMARK 922        TOTAL FREE ENERGY PREDICTED BY IDOCK:  -11.07 KCAL/MOL
REMARK 923 INTER-LIGAND FREE ENERGY PREDICTED BY IDOCK:   -8.73 KCAL/MOL
REMARK 924 INTRA-LIGAND FREE ENERGY PREDICTED BY IDOCK:   -2.33 KCAL/MOL
REMARK 927      BINDING AFFINITY PREDICTED BY RF-SCORE:    0.00 PKD
ROOT
HETATM    1  N   UNK A   0     -11.440  15.226  70.497  1.00  0.00    -0.284 NA 
HETATM    2  H1  UNK A   0     -11.173  16.184  70.718  1.00  0.00     0.000 HD 
HETATM    3  C   UNK A   0     -11.496  14.799  69.209  1.00  0.00    -0.296 C  
HETATM    4  H2  UNK A   0     -11.667  14.579  71.252  1.00  0.00     0.000 HD 
HETATM    5  N   UNK A   0     -11.836  13.576  68.927  1.00  0.00    -0.329 N  
HETATM    6  H   UNK A   0     -12.083  12.927  69.674  1.00  0.00     0.000 HD 
HETATM    7  C   UNK A   0     -11.861  13.155  67.595  1.00  0.00    -0.359 C  
HETATM    8  C   UNK A   0     -11.443  14.151  66.604  1.00  0.00    -0.378 A  
HETATM    9  O   UNK A   0     -12.202  12.027  67.264  1.00  0.00    -0.496 OA 
HETATM   10  C   UNK A   0     -11.111  15.411  67.020  1.00  0.00    -0.273 A  
HETATM   11  N   UNK A   0     -10.723  16.169  65.965  1.00  0.00    -0.282 NA 
HETATM   12  N   UNK A   0     -11.152  15.772  68.308  1.00  0.00    -0.326 NA 
HETATM   13  H   UNK A   0     -10.425  17.144  66.004  1.00  0.00     0.000 HD 
HETATM   14  C   UNK A   0     -10.801  15.392  64.834  1.00  0.00    -0.425 A  
HETATM   15  C   UNK A   0     -11.247  14.124  65.190  1.00  0.00    -0.337 A  
ENDROOT
BRANCH  15  16
HETATM   16  C   UNK A   0     -11.414  12.957  64.268  1.00  0.00    -0.427 C  
BRANCH  16  17
HETATM   17  C   UNK A   0     -10.106  12.204  63.974  1.00  0.00    -0.357 C  
BRANCH  17  18
HETATM   18  C   UNK A   0      -9.667  11.288  65.103  1.00  0.00    -0.285 A  
HETATM   19  C   UNK A   0     -10.140   9.973  65.202  1.00  0.00    -0.268 A  
HETATM   20  C   UNK A   0      -9.828   9.182  66.307  1.00  0.00    -0.359 A  
HETATM   21  C   UNK A   0      -9.014   9.687  67.325  1.00  0.00    -0.146 A  
HETATM   22  C   UNK A   0      -8.430  10.947  67.181  1.00  0.00    -0.128 A  
HETATM   23  C   UNK A   0      -8.760  11.745  66.076  1.00  0.00     0.002 A  
BRANCH  21  24
HETATM   24  C   UNK A   0      -8.827   8.910  68.582  1.00  0.00    -0.137 C  
HETATM   25  O   UNK A   0      -7.756   8.842  69.172  1.00  0.00    -0.088 OA 
ATOM     26  N   GLU A   1      -9.970   8.296  69.056  1.00  0.00    -0.184 N  
ATOM     27  H   GLU A   1     -10.839   8.391  68.529  1.00  0.00     0.000 HD 
BRANCH  26  28
ATOM     28  CA  GLU A   1      -9.967   7.520  70.286  1.00  0.00    -0.192 C  
ATOM     29  C   GLU A   1      -9.800   6.036  69.939  1.00  0.00    -0.170 C  
ATOM     30  O   GLU A   1      -8.509   5.640  69.874  1.00  0.00    -0.117 OA 
ATOM     31  OXT GLU A   1     -10.738   5.269  69.723  1.00  0.00    -0.286 OA 
BRANCH  28  32
ATOM     32  CB  GLU A   1     -11.264   7.742  71.077  1.00  0.00    -0.282 C  
BRANCH  32  33
ATOM     33  CG  GLU A   1     -11.204   9.017  71.917  1.00  0.00    -0.438 C  
ATOM     34  CD  GLU A   1     -11.953  10.137  71.248  1.00  0.00    -0.382 C  
ATOM     35  OE1 GLU A   1     -13.247  10.222  71.623  1.00  0.00    -0.395 OA 
ATOM     36  OE2 GLU A   1     -11.454  10.881  70.417  1.00  0.00    -0.307 OA 
ENDBRANCH  32  33
ENDBRANCH  28  32
ENDBRANCH  26  28
ENDBRANCH  21  24
ENDBRANCH  17  18
ENDBRANCH  16  17
ENDBRANCH  15  16
TORSDOF 7
ENDMDL
MODEL       26
REMARK 921   NORMALIZED FREE ENERGY PREDICTED BY IDOCK:   -5.97 KCAL/MOL
REMARK 922        TOTAL FREE ENERGY PREDICTED BY IDOCK:  -11.06 KCAL/MOL
REMARK 923 INTER-LIGAND FREE ENERGY PREDICTED BY IDOCK:   -9.56 KCAL/MOL
REMARK 924 INTRA-LIGAND FREE ENERGY PREDICTED BY IDOCK:   -1.50 KCAL/MOL
REMARK 927      BINDING AFFINITY PREDICTED BY RF-SCORE:    0.00 PKD
ROOT
HETATM    1  N   UNK A   0     -11.198  16.455  63.831  1.00  0.00    -1.354 NA 
HETATM    2  H1  UNK A   0     -11.557  16.098  62.946  1.00  0.00     0.000 HD 
HETATM    3  C   UNK A   0     -11.242  15.697  64.957  1.00  0.00    -0.329 C  
HETATM    4  H2  UNK A   0     -10.801  17.394  63.871  1.00  0.00     0.000 HD 
HETATM    5  N   UNK A   0     -10.784  16.153  66.085  1.00  0.00    -0.266 N  
HETATM    6  H   UNK A   0     -10.402  17.098  66.139  1.00  0.00     0.000 HD 
HETATM    7  C   UNK A   0     -10.819  15.344  67.223  1.00  0.00    -0.316 C  
HETATM    8  C   UNK A   0     -11.344  13.990  67.026  1.00  0.00    -0.346 A  
HETATM    9  O   UNK A   0     -10.431  15.727  68.320  1.00  0.00    -0.246 OA 
HETATM   10  C   UNK A   0     -11.804  13.623  65.791  1.00  0.00    -0.371 A  
HETATM   11  N   UNK A   0     -12.215  12.331  65.805  1.00  0.00    -0.603 NA 
HETATM   12  N   UNK A   0     -11.791  14.460  64.746  1.00  0.00    -0.411 NA 
HETATM   13  H   UNK A   0     -12.600  11.815  65.013  1.00  0.00     0.000 HD 
HETATM   14  C   UNK A   0     -12.022  11.839  67.074  1.00  0.00     0.150 A  
HETATM   15  C   UNK A   0     -11.480  12.844  67.868  1.00  0.00    -0.362 A  
ENDROOT
BRANCH  15  16
HETATM   16  C   UNK A   0     -11.063  12.709  69.298  1.00  0.00    -0.193 C  
BRANCH  16  17
HETATM   17  C   UNK A   0     -12.130  12.062  70.199  1.00  0.00    -0.377 C  
BRANCH  17  18
HETATM   18  C   UNK A   0     -11.785  10.646  70.624  1.00  0.00    -0.454 A  
HETATM   19  C   UNK A   0     -10.577  10.043  70.249  1.00  0.00    -0.354 A  
HETATM   20  C   UNK A   0     -10.326   8.703  70.540  1.00  0.00    -0.234 A  
HETATM   21  C   UNK A   0     -11.271   7.946  71.237  1.00  0.00    -0.283 A  
HETATM   22  C   UNK A   0     -12.423   8.564  71.731  1.00  0.00    -0.388 A  
HETATM   23  C   UNK A   0     -12.679   9.907  71.420  1.00  0.00    -0.503 A  
BRANCH  21  24
HETATM   24  C   UNK A   0     -11.080   6.477  71.392  1.00  0.00    -0.268 C  
HETATM   25  O   UNK A   0     -11.801   5.781  72.095  1.00  0.00    -0.242 OA 
ATOM     26  N   GLU A   1     -10.043   5.949  70.648  1.00  0.00    -0.188 N  
ATOM     27  H   GLU A   1      -9.477   6.572  70.072  1.00  0.00     0.000 HD 
BRANCH  26  28
ATOM     28  CA  GLU A   1      -9.737   4.526  70.665  1.00  0.00    -0.212 C  
ATOM     29  C   GLU A   1      -8.565   4.280  71.622  1.00  0.00    -0.108 C  
ATOM     30  O   GLU A   1      -8.949   4.049  72.897  1.00  0.00    -0.104 OA 
ATOM     31  OXT GLU A   1      -7.382   4.300  71.282  1.00  0.00    -0.048 OA 
BRANCH  28  32
ATOM     32  CB  GLU A   1      -9.394   4.024  69.256  1.00  0.00    -0.238 C  
BRANCH  32  33
ATOM     33  CG  GLU A   1      -9.152   5.179  68.286  1.00  0.00    -0.128 C  
ATOM     34  CD  GLU A   1     -10.318   5.348  67.350  1.00  0.00    -0.204 C  
ATOM     35  OE1 GLU A   1     -11.249   6.217  67.797  1.00  0.00    -0.294 OA 
ATOM     36  OE2 GLU A   1     -10.435   4.733  66.300  1.00  0.00    -0.288 OA 
ENDBRANCH  32  33
ENDBRANCH  28  32
ENDBRANCH  26  28
ENDBRANCH  21  24
ENDBRANCH  17  18
ENDBRANCH  16  17
ENDBRANCH  15  16
TORSDOF 7
ENDMDL
MODEL       27
REMARK 921   NORMALIZED FREE ENERGY PREDICTED BY IDOCK:   -5.94 KCAL/MOL
REMARK 922        TOTAL FREE ENERGY PREDICTED BY IDOCK:  -11.02 KCAL/MOL
REMARK 923 INTER-LIGAND FREE ENERGY PREDICTED BY IDOCK:   -9.07 KCAL/MOL
REMARK 924 INTRA-LIGAND FREE ENERGY PREDICTED BY IDOCK:   -1.95 KCAL/MOL
REMARK 927      BINDING AFFINITY PREDICTED BY RF-SCORE:    0.00 PKD
ROOT
HETATM    1  N   UNK A   0     -14.386   7.963  72.114  1.00  0.00    -0.614 NA 
HETATM    2  H1  UNK A   0     -14.917   7.096  72.185  1.00  0.00     0.000 HD 
HETATM    3  C   UNK A   0     -13.150   7.977  71.553  1.00  0.00    -0.296 C  
HETATM    4  H2  UNK A   0     -14.788   8.831  72.469  1.00  0.00     0.000 HD 
HETATM    5  N   UNK A   0     -12.472   9.083  71.461  1.00  0.00    -0.317 N  
HETATM    6  H   UNK A   0     -12.858   9.952  71.830  1.00  0.00     0.000 HD 
HETATM    7  C   UNK A   0     -11.212   9.074  70.857  1.00  0.00    -0.287 C  
HETATM    8  C   UNK A   0     -10.772   7.783  70.320  1.00  0.00    -0.237 A  
HETATM    9  O   UNK A   0     -10.514  10.076  70.769  1.00  0.00    -0.257 OA 
HETATM   10  C   UNK A   0     -11.571   6.684  70.481  1.00  0.00    -0.390 A  
HETATM   11  N   UNK A   0     -11.008   5.602  69.889  1.00  0.00    -0.313 NA 
HETATM   12  N   UNK A   0     -12.749   6.743  71.113  1.00  0.00    -0.286 NA 
HETATM   13  H   UNK A   0     -11.399   4.660  69.864  1.00  0.00     0.000 HD 
HETATM   14  C   UNK A   0      -9.816   5.998  69.330  1.00  0.00    -0.152 A  
HETATM   15  C   UNK A   0      -9.631   7.354  69.576  1.00  0.00    -0.155 A  
ENDROOT
BRANCH  15  16
HETATM   16  C   UNK A   0      -8.491   8.191  69.090  1.00  0.00    -0.135 C  
BRANCH  16  17
HETATM   17  C   UNK A   0      -8.624   8.629  67.621  1.00  0.00    -0.136 C  
BRANCH  17  18
HETATM   18  C   UNK A   0      -9.302   9.977  67.450  1.00  0.00    -0.167 A  
HETATM   19  C   UNK A   0      -8.569  11.171  67.464  1.00  0.00    -0.129 A  
HETATM   20  C   UNK A   0      -9.214  12.406  67.430  1.00  0.00    -0.184 A  
HETATM   21  C   UNK A   0     -10.608  12.470  67.354  1.00  0.00    -0.242 A  
HETATM   22  C   UNK A   0     -11.346  11.293  67.208  1.00  0.00    -0.329 A  
HETATM   23  C   UNK A   0     -10.693  10.052  67.261  1.00  0.00    -0.309 A  
BRANCH  21  24
HETATM   24  C   UNK A   0     -11.302  13.780  67.495  1.00  0.00    -0.309 C  
HETATM   25  O   UNK A   0     -12.070  14.223  66.650  1.00  0.00    -0.426 OA 
ATOM     26  N   GLU A   1     -11.040  14.447  68.676  1.00  0.00    -0.241 N  
ATOM     27  H   GLU A   1     -10.398  14.030  69.350  1.00  0.00     0.000 HD 
BRANCH  26  28
ATOM     28  CA  GLU A   1     -11.657  15.728  68.983  1.00  0.00    -0.400 C  
ATOM     29  C   GLU A   1     -10.671  16.851  68.641  1.00  0.00    -0.345 C  
ATOM     30  O   GLU A   1     -10.774  17.289  67.366  1.00  0.00    -0.329 OA 
ATOM     31  OXT GLU A   1      -9.850  17.313  69.434  1.00  0.00    -0.127 OA 
BRANCH  28  32
ATOM     32  CB  GLU A   1     -12.060  15.800  70.463  1.00  0.00    -0.407 C  
BRANCH  32  33
ATOM     33  CG  GLU A   1     -13.299  14.956  70.755  1.00  0.00    -0.338 C  
ATOM     34  CD  GLU A   1     -12.945  13.755  71.589  1.00  0.00    -0.364 C  
ATOM     35  OE1 GLU A   1     -13.056  13.967  72.917  1.00  0.00    -0.481 OA 
ATOM     36  OE2 GLU A   1     -12.561  12.695  71.117  1.00  0.00    -0.366 OA 
ENDBRANCH  32  33
ENDBRANCH  28  32
ENDBRANCH  26  28
ENDBRANCH  21  24
ENDBRANCH  17  18
ENDBRANCH  16  17
ENDBRANCH  15  16
TORSDOF 7
ENDMDL
MODEL       28
REMARK 921   NORMALIZED FREE ENERGY PREDICTED BY IDOCK:   -5.93 KCAL/MOL
REMARK 922        TOTAL FREE ENERGY PREDICTED BY IDOCK:  -11.00 KCAL/MOL
REMARK 923 INTER-LIGAND FREE ENERGY PREDICTED BY IDOCK:  -10.17 KCAL/MOL
REMARK 924 INTRA-LIGAND FREE ENERGY PREDICTED BY IDOCK:   -0.83 KCAL/MOL
REMARK 927      BINDING AFFINITY PREDICTED BY RF-SCORE:    0.00 PKD
ROOT
HETATM    1  N   UNK A   0     -10.278   4.846  71.650  1.00  0.00    -0.204 NA 
HETATM    2  H1  UNK A   0     -10.610   4.310  72.451  1.00  0.00     0.000 HD 
HETATM    3  C   UNK A   0     -10.778   6.080  71.383  1.00  0.00    -0.259 C  
HETATM    4  H2  UNK A   0      -9.561   4.450  71.042  1.00  0.00     0.000 HD 
HETATM    5  N   UNK A   0     -10.353   6.764  70.361  1.00  0.00    -0.195 N  
HETATM    6  H   UNK A   0      -9.650   6.369  69.737  1.00  0.00     0.000 HD 
HETATM    7  C   UNK A   0     -10.866   8.042  70.124  1.00  0.00    -0.242 C  
HETATM    8  C   UNK A   0     -11.836   8.533  71.107  1.00  0.00    -0.322 A  
HETATM    9  O   UNK A   0     -10.529   8.721  69.163  1.00  0.00    -0.222 OA 
HETATM   10  C   UNK A   0     -12.211   7.719  72.141  1.00  0.00    -0.285 A  
HETATM   11  N   UNK A   0     -13.084   8.362  72.954  1.00  0.00    -0.646 NA 
HETATM   12  N   UNK A   0     -11.721   6.482  72.291  1.00  0.00    -0.295 NA 
HETATM   13  H   UNK A   0     -13.515   7.978  73.796  1.00  0.00     0.000 HD 
HETATM   14  C   UNK A   0     -13.287   9.623  72.445  1.00  0.00    -0.338 A  
HETATM   15  C   UNK A   0     -12.525   9.769  71.291  1.00  0.00    -0.461 A  
ENDROOT
BRANCH  15  16
HETATM   16  C   UNK A   0     -12.411  11.009  70.462  1.00  0.00    -0.462 C  
BRANCH  16  17
HETATM   17  C   UNK A   0     -12.663  12.308  71.246  1.00  0.00    -0.351 C  
BRANCH  17  18
HETATM   18  C   UNK A   0     -12.187  13.555  70.522  1.00  0.00    -0.433 A  
HETATM   19  C   UNK A   0     -12.030  13.577  69.130  1.00  0.00    -0.378 A  
HETATM   20  C   UNK A   0     -11.477  14.685  68.491  1.00  0.00    -0.327 A  
HETATM   21  C   UNK A   0     -11.092  15.806  69.232  1.00  0.00    -0.297 A  
HETATM   22  C   UNK A   0     -11.360  15.852  70.602  1.00  0.00    -0.421 A  
HETATM   23  C   UNK A   0     -11.901  14.728  71.243  1.00  0.00    -0.390 A  
BRANCH  21  24
HETATM   24  C   UNK A   0     -10.342  16.912  68.574  1.00  0.00    -0.336 C  
HETATM   25  O   UNK A   0     -10.889  17.901  68.103  1.00  0.00    -0.322 OA 
ATOM     26  N   GLU A   1      -8.970  16.753  68.566  1.00  0.00    -0.236 N  
ATOM     27  H   GLU A   1      -8.565  15.912  68.978  1.00  0.00     0.000 HD 
BRANCH  26  28
ATOM     28  CA  GLU A   1      -8.089  17.754  67.984  1.00  0.00    -0.243 C  
ATOM     29  C   GLU A   1      -7.547  17.227  66.651  1.00  0.00    -0.258 C  
ATOM     30  O   GLU A   1      -8.330  17.534  65.592  1.00  0.00    -0.479 OA 
ATOM     31  OXT GLU A   1      -6.509  16.575  66.538  1.00  0.00    -0.262 OA 
BRANCH  28  32
ATOM     32  CB  GLU A   1      -6.934  18.085  68.939  1.00  0.00    -0.263 C  
BRANCH  32  33
ATOM     33  CG  GLU A   1      -6.923  19.563  69.325  1.00  0.00    -0.385 C  
ATOM     34  CD  GLU A   1      -6.435  20.413  68.184  1.00  0.00    -0.304 C  
ATOM     35  OE1 GLU A   1      -7.422  20.863  67.383  1.00  0.00    -0.353 OA 
ATOM     36  OE2 GLU A   1      -5.254  20.649  67.976  1.00  0.00    -0.205 OA 
ENDBRANCH  32  33
ENDBRANCH  28  32
ENDBRANCH  26  28
ENDBRANCH  21  24
ENDBRANCH  17  18
ENDBRANCH  16  17
ENDBRANCH  15  16
TORSDOF 7
ENDMDL
MODEL       29
REMARK 921   NORMALIZED FREE ENERGY PREDICTED BY IDOCK:   -5.90 KCAL/MOL
REMARK 922        TOTAL FREE ENERGY PREDICTED BY IDOCK:  -10.95 KCAL/MOL
REMARK 923 INTER-LIGAND FREE ENERGY PREDICTED BY IDOCK:   -8.89 KCAL/MOL
REMARK 924 INTRA-LIGAND FREE ENERGY PREDICTED BY IDOCK:   -2.06 KCAL/MOL
REMARK 927      BINDING AFFINITY PREDICTED BY RF-SCORE:    0.00 PKD
ROOT
HETATM    1  N   UNK A   0     -12.497  14.443  63.916  1.00  0.00    -1.005 NA 
HETATM    2  H1  UNK A   0     -12.415  14.881  62.999  1.00  0.00     0.000 HD 
HETATM    3  C   UNK A   0     -11.879  13.264  64.181  1.00  0.00    -0.443 C  
HETATM    4  H2  UNK A   0     -13.049  14.897  64.643  1.00  0.00     0.000 HD 
HETATM    5  N   UNK A   0     -11.982  12.705  65.351  1.00  0.00    -0.424 N  
HETATM    6  H   UNK A   0     -12.548  13.143  66.079  1.00  0.00     0.000 HD 
HETATM    7  C   UNK A   0     -11.316  11.504  65.605  1.00  0.00    -0.085 C  
HETATM    8  C   UNK A   0     -10.494  10.986  64.508  1.00  0.00    -0.411 A  
HETATM    9  O   UNK A   0     -11.399  10.915  66.675  1.00  0.00    -0.238 OA 
HETATM   10  C   UNK A   0     -10.467  11.659  63.317  1.00  0.00    -0.383 A  
HETATM   11  N   UNK A   0      -9.629  11.044  62.447  1.00  0.00    -0.579 NA 
HETATM   12  N   UNK A   0     -11.166  12.783  63.114  1.00  0.00    -0.123 NA 
HETATM   13  H   UNK A   0      -9.429  11.343  61.492  1.00  0.00     0.000 HD 
HETATM   14  C   UNK A   0      -9.095   9.945  63.078  1.00  0.00    -0.269 A  
HETATM   15  C   UNK A   0      -9.611   9.873  64.368  1.00  0.00    -0.257 A  
ENDROOT
BRANCH  15  16
HETATM   16  C   UNK A   0      -9.245   8.863  65.408  1.00  0.00    -0.202 C  
BRANCH  16  17
HETATM   17  C   UNK A   0      -7.940   9.185  66.157  1.00  0.00    -0.103 C  
BRANCH  17  18
HETATM   18  C   UNK A   0      -8.010  10.464  66.974  1.00  0.00    -0.116 A  
HETATM   19  C   UNK A   0      -8.804  10.553  68.124  1.00  0.00    -0.134 A  
HETATM   20  C   UNK A   0      -8.957  11.766  68.795  1.00  0.00     0.015 A  
HETATM   21  C   UNK A   0      -8.295  12.909  68.340  1.00  0.00    -0.116 A  
HETATM   22  C   UNK A   0      -7.399  12.810  67.273  1.00  0.00    -0.095 A  
HETATM   23  C   UNK A   0      -7.262  11.592  66.591  1.00  0.00    -0.068 A  
BRANCH  21  24
HETATM   24  C   UNK A   0      -8.597  14.235  68.948  1.00  0.00    -0.030 C  
HETATM   25  O   UNK A   0      -7.730  14.984  69.380  1.00  0.00    -0.188 OA 
ATOM     26  N   GLU A   1      -9.935  14.575  68.955  1.00  0.00    -0.334 N  
ATOM     27  H   GLU A   1     -10.617  13.917  68.576  1.00  0.00     0.000 HD 
BRANCH  26  28
ATOM     28  CA  GLU A   1     -10.398  15.846  69.490  1.00  0.00    -0.277 C  
ATOM     29  C   GLU A   1     -11.507  15.582  70.516  1.00  0.00    -0.347 C  
ATOM     30  O   GLU A   1     -11.045  15.404  71.774  1.00  0.00    -0.366 OA 
ATOM     31  OXT GLU A   1     -12.704  15.522  70.236  1.00  0.00    -0.391 OA 
BRANCH  28  32
ATOM     32  CB  GLU A   1     -10.914  16.757  68.366  1.00  0.00    -0.325 C  
BRANCH  32  33
ATOM     33  CG  GLU A   1      -9.806  17.122  67.380  1.00  0.00    -0.264 C  
ATOM     34  CD  GLU A   1     -10.002  16.417  66.066  1.00  0.00    -0.345 C  
ATOM     35  OE1 GLU A   1     -10.720  17.128  65.172  1.00  0.00    -0.680 OA 
ATOM     36  OE2 GLU A   1      -9.583  15.292  65.835  1.00  0.00    -0.313 OA 
ENDBRANCH  32  33
ENDBRANCH  28  32
ENDBRANCH  26  28
ENDBRANCH  21  24
ENDBRANCH  17  18
ENDBRANCH  16  17
ENDBRANCH  15  16
TORSDOF 7
ENDMDL
MODEL       30
REMARK 921   NORMALIZED FREE ENERGY PREDICTED BY IDOCK:   -5.89 KCAL/MOL
REMARK 922        TOTAL FREE ENERGY PREDICTED BY IDOCK:  -10.95 KCAL/MOL
REMARK 923 INTER-LIGAND FREE ENERGY PREDICTED BY IDOCK:   -9.67 KCAL/MOL
REMARK 924 INTRA-LIGAND FREE ENERGY PREDICTED BY IDOCK:   -1.28 KCAL/MOL
REMARK 927      BINDING AFFINITY PREDICTED BY RF-SCORE:    0.00 PKD
ROOT
HETATM    1  N   UNK A   0     -12.975  16.342  74.441  1.00  0.00    -0.946 NA 
HETATM    2  H1  UNK A   0     -12.615  17.292  74.524  1.00  0.00     0.000 HD 
HETATM    3  C   UNK A   0     -12.804  15.629  73.298  1.00  0.00    -0.527 C  
HETATM    4  H2  UNK A   0     -13.470  15.921  75.228  1.00  0.00     0.000 HD 
HETATM    5  N   UNK A   0     -13.264  14.417  73.194  1.00  0.00    -0.459 N  
HETATM    6  H   UNK A   0     -13.776  13.995  73.968  1.00  0.00     0.000 HD 
HETATM    7  C   UNK A   0     -13.053  13.697  72.015  1.00  0.00    -0.393 C  
HETATM    8  C   UNK A   0     -12.265  14.379  70.984  1.00  0.00    -0.422 A  
HETATM    9  O   UNK A   0     -13.487  12.565  71.845  1.00  0.00    -0.433 OA 
HETATM   10  C   UNK A   0     -11.839  15.660  71.205  1.00  0.00    -0.419 A  
HETATM   11  N   UNK A   0     -11.103  16.100  70.155  1.00  0.00    -0.359 NA 
HETATM   12  N   UNK A   0     -12.113  16.319  72.337  1.00  0.00    -0.529 NA 
HETATM   13  H   UNK A   0     -10.669  17.019  70.069  1.00  0.00     0.000 HD 
HETATM   14  C   UNK A   0     -11.046  15.088  69.225  1.00  0.00    -0.272 A  
HETATM   15  C   UNK A   0     -11.760  13.996  69.705  1.00  0.00    -0.368 A  
ENDROOT
BRANCH  15  16
HETATM   16  C   UNK A   0     -11.899  12.668  69.029  1.00  0.00    -0.341 C  
BRANCH  16  17
HETATM   17  C   UNK A   0     -11.686  12.719  67.507  1.00  0.00    -0.422 C  
BRANCH  17  18
HETATM   18  C   UNK A   0     -11.062  11.456  66.939  1.00  0.00    -0.356 A  
HETATM   19  C   UNK A   0     -11.121  10.239  67.629  1.00  0.00    -0.319 A  
HETATM   20  C   UNK A   0     -10.440   9.117  67.158  1.00  0.00    -0.325 A  
HETATM   21  C   UNK A   0      -9.706   9.187  65.971  1.00  0.00    -0.358 A  
HETATM   22  C   UNK A   0      -9.742  10.354  65.205  1.00  0.00    -0.339 A  
HETATM   23  C   UNK A   0     -10.414  11.485  65.692  1.00  0.00    -0.317 A  
BRANCH  21  24
HETATM   24  C   UNK A   0      -8.839   8.046  65.565  1.00  0.00    -0.061 C  
HETATM   25  O   UNK A   0      -7.992   8.132  64.685  1.00  0.00    -0.135 OA 
ATOM     26  N   GLU A   1      -9.039   6.884  66.284  1.00  0.00    -0.195 N  
ATOM     27  H   GLU A   1      -9.754   6.867  67.012  1.00  0.00     0.000 HD 
BRANCH  26  28
ATOM     28  CA  GLU A   1      -8.257   5.684  66.030  1.00  0.00    -0.113 C  
ATOM     29  C   GLU A   1      -9.081   4.726  65.161  1.00  0.00    -0.155 C  
ATOM     30  O   GLU A   1      -8.913   4.923  63.834  1.00  0.00    -0.123 OA 
ATOM     31  OXT GLU A   1      -9.838   3.865  65.611  1.00  0.00    -0.184 OA 
BRANCH  28  32
ATOM     32  CB  GLU A   1      -7.858   5.003  67.347  1.00  0.00    -0.095 C  
BRANCH  32  33
ATOM     33  CG  GLU A   1      -8.439   5.729  68.559  1.00  0.00    -0.110 C  
ATOM     34  CD  GLU A   1      -9.807   5.201  68.896  1.00  0.00    -0.172 C  
ATOM     35  OE1 GLU A   1      -9.793   4.193  69.792  1.00  0.00    -0.215 OA 
ATOM     36  OE2 GLU A   1     -10.836   5.618  68.384  1.00  0.00    -0.204 OA 
ENDBRANCH  32  33
ENDBRANCH  28  32
ENDBRANCH  26  28
ENDBRANCH  21  24
ENDBRANCH  17  18
ENDBRANCH  16  17
ENDBRANCH  15  16
TORSDOF 7
ENDMDL
MODEL       31
REMARK 921   NORMALIZED FREE ENERGY PREDICTED BY IDOCK:   -5.84 KCAL/MOL
REMARK 922        TOTAL FREE ENERGY PREDICTED BY IDOCK:  -10.88 KCAL/MOL
REMARK 923 INTER-LIGAND FREE ENERGY PREDICTED BY IDOCK:   -9.18 KCAL/MOL
REMARK 924 INTRA-LIGAND FREE ENERGY PREDICTED BY IDOCK:   -1.70 KCAL/MOL
REMARK 927      BINDING AFFINITY PREDICTED BY RF-SCORE:    0.00 PKD
ROOT
HETATM    1  N   UNK A   0     -13.021  13.444  65.267  1.00  0.00    -0.677 NA 
HETATM    2  H1  UNK A   0     -13.464  13.797  64.419  1.00  0.00     0.000 HD 
HETATM    3  C   UNK A   0     -12.048  12.499  65.201  1.00  0.00    -0.446 C  
HETATM    4  H2  UNK A   0     -13.313  13.806  66.175  1.00  0.00     0.000 HD 
HETATM    5  N   UNK A   0     -11.483  12.049  66.283  1.00  0.00    -0.360 N  
HETATM    6  H   UNK A   0     -11.780  12.391  67.197  1.00  0.00     0.000 HD 
HETATM    7  C   UNK A   0     -10.467  11.095  66.186  1.00  0.00    -0.253 C  
HETATM    8  C   UNK A   0     -10.084  10.707  64.825  1.00  0.00    -0.412 A  
HETATM    9  O   UNK A   0      -9.918  10.611  67.168  1.00  0.00    -0.184 OA 
HETATM   10  C   UNK A   0     -10.756  11.246  63.762  1.00  0.00    -0.379 A  
HETATM   11  N   UNK A   0     -10.235  10.791  62.596  1.00  0.00    -0.774 NA 
HETATM   12  N   UNK A   0     -11.756  12.121  63.917  1.00  0.00    -0.421 NA 
HETATM   13  H   UNK A   0     -10.554  11.038  61.659  1.00  0.00     0.000 HD 
HETATM   14  C   UNK A   0      -9.201   9.937  62.899  1.00  0.00    -0.261 A  
HETATM   15  C   UNK A   0      -9.074   9.857  64.282  1.00  0.00    -0.297 A  
ENDROOT
BRANCH  15  16
HETATM   16  C   UNK A   0      -8.034   9.083  65.028  1.00  0.00    -0.123 C  
BRANCH  16  17
HETATM   17  C   UNK A   0      -8.280   7.565  65.043  1.00  0.00    -0.105 C  
BRANCH  17  18
HETATM   18  C   UNK A   0      -8.957   7.073  66.310  1.00  0.00    -0.175 A  
HETATM   19  C   UNK A   0     -10.352   7.024  66.421  1.00  0.00     0.045 A  
HETATM   20  C   UNK A   0     -10.962   6.688  67.629  1.00  0.00    -0.392 A  
HETATM   21  C   UNK A   0     -10.183   6.369  68.745  1.00  0.00    -0.206 A  
HETATM   22  C   UNK A   0      -8.795   6.287  68.617  1.00  0.00    -0.119 A  
HETATM   23  C   UNK A   0      -8.186   6.643  67.405  1.00  0.00    -0.121 A  
BRANCH  21  24
HETATM   24  C   UNK A   0     -10.829   6.185  70.075  1.00  0.00    -0.341 C  
HETATM   25  O   UNK A   0     -10.860   5.108  70.657  1.00  0.00    -0.138 OA 
ATOM     26  N   GLU A   1     -11.363   7.335  70.621  1.00  0.00    -0.277 N  
ATOM     27  H   GLU A   1     -11.303   8.208  70.096  1.00  0.00     0.000 HD 
BRANCH  26  28
ATOM     28  CA  GLU A   1     -12.007   7.334  71.926  1.00  0.00    -0.306 C  
ATOM     29  C   GLU A   1     -13.417   7.920  71.786  1.00  0.00    -0.335 C  
ATOM     30  O   GLU A   1     -14.359   6.994  71.498  1.00  0.00    -0.362 OA 
ATOM     31  OXT GLU A   1     -13.681   9.116  71.908  1.00  0.00    -0.396 OA 
BRANCH  28  32
ATOM     32  CB  GLU A   1     -11.188   8.144  72.940  1.00  0.00    -0.312 C  
BRANCH  32  33
ATOM     33  CG  GLU A   1     -10.107   7.293  73.605  1.00  0.00    -0.387 C  
ATOM     34  CD  GLU A   1      -8.746   7.636  73.064  1.00  0.00    -0.163 C  
ATOM     35  OE1 GLU A   1      -8.107   8.592  73.771  1.00  0.00    -0.400 OA 
ATOM     36  OE2 GLU A   1      -8.270   7.126  72.060  1.00  0.00    -0.100 OA 
ENDBRANCH  32  33
ENDBRANCH  28  32
ENDBRANCH  26  28
ENDBRANCH  21  24
ENDBRANCH  17  18
ENDBRANCH  16  17
ENDBRANCH  15  16
TORSDOF 7
ENDMDL
MODEL       32
REMARK 921   NORMALIZED FREE ENERGY PREDICTED BY IDOCK:   -5.84 KCAL/MOL
REMARK 922        TOTAL FREE ENERGY PREDICTED BY IDOCK:  -10.87 KCAL/MOL
REMARK 923 INTER-LIGAND FREE ENERGY PREDICTED BY IDOCK:   -9.60 KCAL/MOL
REMARK 924 INTRA-LIGAND FREE ENERGY PREDICTED BY IDOCK:   -1.27 KCAL/MOL
REMARK 927      BINDING AFFINITY PREDICTED BY RF-SCORE:    0.00 PKD
ROOT
HETATM    1  N   UNK A   0      -7.201   1.507  71.974  1.00  0.00    -0.030 NA 
HETATM    2  H1  UNK A   0      -6.778   1.248  71.083  1.00  0.00     0.000 HD 
HETATM    3  C   UNK A   0      -8.085   2.534  72.052  1.00  0.00    -0.054 C  
HETATM    4  H2  UNK A   0      -6.956   0.987  72.817  1.00  0.00     0.000 HD 
HETATM    5  N   UNK A   0      -8.624   2.864  73.189  1.00  0.00    -0.079 N  
HETATM    6  H   UNK A   0      -8.371   2.363  74.041  1.00  0.00     0.000 HD 
HETATM    7  C   UNK A   0      -9.550   3.909  73.238  1.00  0.00    -0.112 C  
HETATM    8  C   UNK A   0      -9.877   4.531  71.951  1.00  0.00    -0.246 A  
HETATM    9  O   UNK A   0     -10.068   4.286  74.281  1.00  0.00    -0.153 OA 
HETATM   10  C   UNK A   0      -9.240   4.102  70.819  1.00  0.00    -0.127 A  
HETATM   11  N   UNK A   0      -9.702   4.773  69.735  1.00  0.00    -0.183 NA 
HETATM   12  N   UNK A   0      -8.324   3.127  70.840  1.00  0.00    -0.063 NA 
HETATM   13  H   UNK A   0      -9.392   4.643  68.772  1.00  0.00     0.000 HD 
HETATM   14  C   UNK A   0     -10.660   5.661  70.164  1.00  0.00    -0.309 A  
HETATM   15  C   UNK A   0     -10.800   5.541  71.542  1.00  0.00    -0.263 A  
ENDROOT
BRANCH  15  16
HETATM   16  C   UNK A   0     -11.778   6.283  72.397  1.00  0.00    -0.301 C  
BRANCH  16  17
HETATM   17  C   UNK A   0     -11.259   7.641  72.901  1.00  0.00    -0.426 C  
BRANCH  17  18
HETATM   18  C   UNK A   0     -11.444   8.769  71.902  1.00  0.00    -0.428 A  
HETATM   19  C   UNK A   0     -10.432   9.120  71.000  1.00  0.00    -0.368 A  
HETATM   20  C   UNK A   0     -10.566  10.235  70.173  1.00  0.00    -0.303 A  
HETATM   21  C   UNK A   0     -11.731  11.005  70.215  1.00  0.00    -0.445 A  
HETATM   22  C   UNK A   0     -12.801  10.596  71.014  1.00  0.00    -0.496 A  
HETATM   23  C   UNK A   0     -12.655   9.484  71.856  1.00  0.00    -0.479 A  
BRANCH  21  24
HETATM   24  C   UNK A   0     -11.801  12.290  69.464  1.00  0.00    -0.315 C  
HETATM   25  O   UNK A   0     -12.155  12.360  68.294  1.00  0.00    -0.313 OA 
ATOM     26  N   GLU A   1     -11.469  13.409  70.203  1.00  0.00    -0.513 N  
ATOM     27  H   GLU A   1     -11.187  13.295  71.177  1.00  0.00     0.000 HD 
BRANCH  26  28
ATOM     28  CA  GLU A   1     -11.509  14.744  69.628  1.00  0.00    -0.292 C  
ATOM     29  C   GLU A   1     -10.098  15.135  69.172  1.00  0.00    -0.245 C  
ATOM     30  O   GLU A   1      -9.822  14.769  67.900  1.00  0.00    -0.209 OA 
ATOM     31  OXT GLU A   1      -9.279  15.712  69.887  1.00  0.00    -0.192 OA 
BRANCH  28  32
ATOM     32  CB  GLU A   1     -12.045  15.761  70.645  1.00  0.00    -0.424 C  
BRANCH  32  33
ATOM     33  CG  GLU A   1     -13.467  15.424  71.089  1.00  0.00    -0.565 C  
ATOM     34  CD  GLU A   1     -13.499  15.050  72.546  1.00  0.00    -0.444 C  
ATOM     35  OE1 GLU A   1     -13.734  16.095  73.368  1.00  0.00    -0.601 OA 
ATOM     36  OE2 GLU A   1     -13.299  13.917  72.957  1.00  0.00    -0.623 OA 
ENDBRANCH  32  33
ENDBRANCH  28  32
ENDBRANCH  26  28
ENDBRANCH  21  24
ENDBRANCH  17  18
ENDBRANCH  16  17
ENDBRANCH  15  16
TORSDOF 7
ENDMDL
MODEL       33
REMARK 921   NORMALIZED FREE ENERGY PREDICTED BY IDOCK:   -5.84 KCAL/MOL
REMARK 922        TOTAL FREE ENERGY PREDICTED BY IDOCK:  -10.87 KCAL/MOL
REMARK 923 INTER-LIGAND FREE ENERGY PREDICTED BY IDOCK:   -9.54 KCAL/MOL
REMARK 924 INTRA-LIGAND FREE ENERGY PREDICTED BY IDOCK:   -1.33 KCAL/MOL
REMARK 927      BINDING AFFINITY PREDICTED BY RF-SCORE:    0.00 PKD
ROOT
HETATM    1  N   UNK A   0     -10.061  18.772  65.585  1.00  0.00    -0.436 NA 
HETATM    2  H1  UNK A   0      -9.854  19.670  66.020  1.00  0.00     0.000 HD 
HETATM    3  C   UNK A   0     -10.344  17.680  66.341  1.00  0.00    -0.345 C  
HETATM    4  H2  UNK A   0     -10.055  18.693  64.567  1.00  0.00     0.000 HD 
HETATM    5  N   UNK A   0     -10.608  16.535  65.785  1.00  0.00    -0.333 N  
HETATM    6  H   UNK A   0     -10.587  16.442  64.769  1.00  0.00     0.000 HD 
HETATM    7  C   UNK A   0     -10.920  15.433  66.585  1.00  0.00    -0.275 C  
HETATM    8  C   UNK A   0     -10.969  15.687  68.028  1.00  0.00    -0.318 A  
HETATM    9  O   UNK A   0     -11.148  14.323  66.123  1.00  0.00    -0.314 OA 
HETATM   10  C   UNK A   0     -10.666  16.936  68.499  1.00  0.00    -0.359 A  
HETATM   11  N   UNK A   0     -10.800  16.977  69.847  1.00  0.00    -0.311 NA 
HETATM   12  N   UNK A   0     -10.325  17.943  67.685  1.00  0.00    -0.365 NA 
HETATM   13  H   UNK A   0     -10.634  17.788  70.442  1.00  0.00     0.000 HD 
HETATM   14  C   UNK A   0     -11.199  15.731  70.270  1.00  0.00    -0.366 A  
HETATM   15  C   UNK A   0     -11.316  14.896  69.165  1.00  0.00    -0.309 A  
ENDROOT
BRANCH  15  16
HETATM   16  C   UNK A   0     -11.782  13.475  69.179  1.00  0.00    -0.374 C  
BRANCH  16  17
HETATM   17  C   UNK A   0     -12.518  13.074  70.469  1.00  0.00    -0.306 C  
BRANCH  17  18
HETATM   18  C   UNK A   0     -12.325  11.616  70.849  1.00  0.00    -0.436 A  
HETATM   19  C   UNK A   0     -11.318  10.837  70.265  1.00  0.00    -0.374 A  
HETATM   20  C   UNK A   0     -11.228   9.471  70.530  1.00  0.00    -0.345 A  
HETATM   21  C   UNK A   0     -12.131   8.863  71.406  1.00  0.00    -0.381 A  
HETATM   22  C   UNK A   0     -13.058   9.648  72.095  1.00  0.00    -0.520 A  
HETATM   23  C   UNK A   0     -13.156  11.018  71.812  1.00  0.00    -0.554 A  
BRANCH  21  24
HETATM   24  C   UNK A   0     -12.146   7.381  71.550  1.00  0.00    -0.327 C  
HETATM   25  O   UNK A   0     -13.177   6.733  71.678  1.00  0.00    -0.314 OA 
ATOM     26  N   GLU A   1     -10.902   6.784  71.493  1.00  0.00    -0.230 N  
ATOM     27  H   GLU A   1     -10.074   7.369  71.378  1.00  0.00     0.000 HD 
BRANCH  26  28
ATOM     28  CA  GLU A   1     -10.741   5.341  71.591  1.00  0.00    -0.156 C  
ATOM     29  C   GLU A   1     -10.164   4.996  72.969  1.00  0.00    -0.176 C  
ATOM     30  O   GLU A   1     -11.109   4.795  73.915  1.00  0.00    -0.294 OA 
ATOM     31  OXT GLU A   1      -8.959   4.920  73.212  1.00  0.00    -0.110 OA 
BRANCH  28  32
ATOM     32  CB  GLU A   1      -9.823   4.816  70.479  1.00  0.00    -0.301 C  
BRANCH  32  33
ATOM     33  CG  GLU A   1      -9.225   5.953  69.653  1.00  0.00    -0.151 C  
ATOM     34  CD  GLU A   1      -9.898   6.054  68.311  1.00  0.00    -0.132 C  
ATOM     35  OE1 GLU A   1     -10.950   6.899  68.295  1.00  0.00    -0.202 OA 
ATOM     36  OE2 GLU A   1      -9.551   5.409  67.333  1.00  0.00    -0.119 OA 
ENDBRANCH  32  33
ENDBRANCH  28  32
ENDBRANCH  26  28
ENDBRANCH  21  24
ENDBRANCH  17  18
ENDBRANCH  16  17
ENDBRANCH  15  16
TORSDOF 7
ENDMDL
MODEL       34
REMARK 921   NORMALIZED FREE ENERGY PREDICTED BY IDOCK:   -5.83 KCAL/MOL
REMARK 922        TOTAL FREE ENERGY PREDICTED BY IDOCK:  -10.86 KCAL/MOL
REMARK 923 INTER-LIGAND FREE ENERGY PREDICTED BY IDOCK:   -9.60 KCAL/MOL
REMARK 924 INTRA-LIGAND FREE ENERGY PREDICTED BY IDOCK:   -1.26 KCAL/MOL
REMARK 927      BINDING AFFINITY PREDICTED BY RF-SCORE:    0.00 PKD
ROOT
HETATM    1  N   UNK A   0     -11.889   6.352  72.633  1.00  0.00    -0.502 NA 
HETATM    2  H1  UNK A   0     -12.439   6.291  73.489  1.00  0.00     0.000 HD 
HETATM    3  C   UNK A   0     -11.864   7.496  71.902  1.00  0.00    -0.296 C  
HETATM    4  H2  UNK A   0     -11.349   5.544  72.323  1.00  0.00     0.000 HD 
HETATM    5  N   UNK A   0     -11.162   7.574  70.811  1.00  0.00    -0.266 N  
HETATM    6  H   UNK A   0     -10.634   6.765  70.482  1.00  0.00     0.000 HD 
HETATM    7  C   UNK A   0     -11.134   8.771  70.091  1.00  0.00    -0.202 C  
HETATM    8  C   UNK A   0     -11.888   9.884  70.674  1.00  0.00    -0.386 A  
HETATM    9  O   UNK A   0     -10.517   8.897  69.041  1.00  0.00    -0.220 OA 
HETATM   10  C   UNK A   0     -12.596   9.681  71.827  1.00  0.00    -0.409 A  
HETATM   11  N   UNK A   0     -13.195  10.831  72.222  1.00  0.00    -0.567 NA 
HETATM   12  N   UNK A   0     -12.625   8.496  72.449  1.00  0.00    -0.377 NA 
HETATM   13  H   UNK A   0     -13.780  10.950  73.049  1.00  0.00     0.000 HD 
HETATM   14  C   UNK A   0     -12.874  11.809  71.311  1.00  0.00    -0.308 A  
HETATM   15  C   UNK A   0     -12.059  11.258  70.328  1.00  0.00    -0.459 A  
ENDROOT
BRANCH  15  16
HETATM   16  C   UNK A   0     -11.439  11.994  69.182  1.00  0.00    -0.357 C  
BRANCH  16  17
HETATM   17  C   UNK A   0     -11.827  13.481  69.115  1.00  0.00    -0.386 C  
BRANCH  17  18
HETATM   18  C   UNK A   0     -10.647  14.403  68.860  1.00  0.00    -0.250 A  
HETATM   19  C   UNK A   0      -9.417  13.908  68.409  1.00  0.00    -0.211 A  
HETATM   20  C   UNK A   0      -8.308  14.746  68.296  1.00  0.00    -0.148 A  
HETATM   21  C   UNK A   0      -8.417  16.103  68.609  1.00  0.00    -0.216 A  
HETATM   22  C   UNK A   0      -9.665  16.638  68.935  1.00  0.00    -0.255 A  
HETATM   23  C   UNK A   0     -10.774  15.789  69.064  1.00  0.00    -0.235 A  
BRANCH  21  24
HETATM   24  C   UNK A   0      -7.196  16.956  68.658  1.00  0.00    -0.215 C  
HETATM   25  O   UNK A   0      -6.062  16.504  68.557  1.00  0.00    -0.124 OA 
ATOM     26  N   GLU A   1      -7.442  18.308  68.793  1.00  0.00    -0.295 N  
ATOM     27  H   GLU A   1      -8.407  18.633  68.866  1.00  0.00     0.000 HD 
BRANCH  26  28
ATOM     28  CA  GLU A   1      -6.361  19.281  68.832  1.00  0.00    -0.258 C  
ATOM     29  C   GLU A   1      -6.085  19.660  70.291  1.00  0.00    -0.257 C  
ATOM     30  O   GLU A   1      -5.173  18.862  70.892  1.00  0.00    -0.230 OA 
ATOM     31  OXT GLU A   1      -6.639  20.589  70.879  1.00  0.00    -0.440 OA 
BRANCH  28  32
ATOM     32  CB  GLU A   1      -6.719  20.529  68.013  1.00  0.00    -0.331 C  
BRANCH  32  33
ATOM     33  CG  GLU A   1      -7.781  20.228  66.956  1.00  0.00    -0.360 C  
ATOM     34  CD  GLU A   1      -7.143  19.868  65.642  1.00  0.00    -0.315 C  
ATOM     35  OE1 GLU A   1      -6.937  18.543  65.485  1.00  0.00    -0.469 OA 
ATOM     36  OE2 GLU A   1      -6.809  20.694  64.805  1.00  0.00    -0.257 OA 
ENDBRANCH  32  33
ENDBRANCH  28  32
ENDBRANCH  26  28
ENDBRANCH  21  24
ENDBRANCH  17  18
ENDBRANCH  16  17
ENDBRANCH  15  16
TORSDOF 7
ENDMDL
MODEL       35
REMARK 921   NORMALIZED FREE ENERGY PREDICTED BY IDOCK:   -5.82 KCAL/MOL
REMARK 922        TOTAL FREE ENERGY PREDICTED BY IDOCK:  -10.85 KCAL/MOL
REMARK 923 INTER-LIGAND FREE ENERGY PREDICTED BY IDOCK:   -9.49 KCAL/MOL
REMARK 924 INTRA-LIGAND FREE ENERGY PREDICTED BY IDOCK:   -1.36 KCAL/MOL
REMARK 927      BINDING AFFINITY PREDICTED BY RF-SCORE:    0.00 PKD
ROOT
HETATM    1  N   UNK A   0      -8.432   6.290  64.486  1.00  0.00    -0.340 NA 
HETATM    2  H1  UNK A   0      -9.155   5.922  63.869  1.00  0.00     0.000 HD 
HETATM    3  C   UNK A   0      -8.706   6.578  65.785  1.00  0.00    -0.120 C  
HETATM    4  H2  UNK A   0      -7.490   6.444  64.124  1.00  0.00     0.000 HD 
HETATM    5  N   UNK A   0      -7.783   7.047  66.572  1.00  0.00    -0.102 N  
HETATM    6  H   UNK A   0      -6.844   7.222  66.214  1.00  0.00     0.000 HD 
HETATM    7  C   UNK A   0      -8.085   7.311  67.910  1.00  0.00    -0.119 C  
HETATM    8  C   UNK A   0      -9.449   6.980  68.333  1.00  0.00    -0.133 A  
HETATM    9  O   UNK A   0      -7.269   7.782  68.692  1.00  0.00    -0.081 OA 
HETATM   10  C   UNK A   0     -10.337   6.496  67.412  1.00  0.00    -0.208 A  
HETATM   11  N   UNK A   0     -11.526   6.221  68.001  1.00  0.00    -0.495 NA 
HETATM   12  N   UNK A   0     -10.004   6.308  66.129  1.00  0.00     0.034 NA 
HETATM   13  H   UNK A   0     -12.355   5.850  67.537  1.00  0.00     0.000 HD 
HETATM   14  C   UNK A   0     -11.418   6.532  69.336  1.00  0.00    -0.281 A  
HETATM   15  C   UNK A   0     -10.136   7.010  69.585  1.00  0.00    -0.194 A  
ENDROOT
BRANCH  15  16
HETATM   16  C   UNK A   0      -9.585   7.404  70.918  1.00  0.00    -0.166 C  
BRANCH  16  17
HETATM   17  C   UNK A   0     -10.405   8.492  71.633  1.00  0.00    -0.333 C  
BRANCH  17  18
HETATM   18  C   UNK A   0     -10.678   9.711  70.769  1.00  0.00    -0.401 A  
HETATM   19  C   UNK A   0     -11.868  10.439  70.888  1.00  0.00    -0.475 A  
HETATM   20  C   UNK A   0     -12.161  11.480  70.008  1.00  0.00    -0.354 A  
HETATM   21  C   UNK A   0     -11.254  11.828  69.004  1.00  0.00    -0.324 A  
HETATM   22  C   UNK A   0     -10.008  11.198  68.951  1.00  0.00    -0.188 A  
HETATM   23  C   UNK A   0      -9.725  10.141  69.828  1.00  0.00    -0.232 A  
BRANCH  21  24
HETATM   24  C   UNK A   0     -11.643  12.815  67.958  1.00  0.00    -0.341 C  
HETATM   25  O   UNK A   0     -12.178  13.886  68.218  1.00  0.00    -0.332 OA 
ATOM     26  N   GLU A   1     -11.321  12.445  66.667  1.00  0.00    -0.319 N  
ATOM     27  H   GLU A   1     -10.870  11.545  66.506  1.00  0.00     0.000 HD 
BRANCH  26  28
ATOM     28  CA  GLU A   1     -11.609  13.308  65.531  1.00  0.00    -0.326 C  
ATOM     29  C   GLU A   1     -11.992  12.437  64.329  1.00  0.00    -0.410 C  
ATOM     30  O   GLU A   1     -13.316  12.169  64.257  1.00  0.00    -0.761 OA 
ATOM     31  OXT GLU A   1     -11.185  12.003  63.507  1.00  0.00    -0.417 OA 
BRANCH  28  32
ATOM     32  CB  GLU A   1     -10.398  14.187  65.192  1.00  0.00    -0.429 C  
BRANCH  32  33
ATOM     33  CG  GLU A   1     -10.798  15.647  64.986  1.00  0.00    -0.468 C  
ATOM     34  CD  GLU A   1     -10.224  16.519  66.069  1.00  0.00    -0.356 C  
ATOM     35  OE1 GLU A   1      -9.019  17.043  65.761  1.00  0.00    -0.526 OA 
ATOM     36  OE2 GLU A   1     -10.774  16.712  67.143  1.00  0.00    -0.294 OA 
ENDBRANCH  32  33
ENDBRANCH  28  32
ENDBRANCH  26  28
ENDBRANCH  21  24
ENDBRANCH  17  18
ENDBRANCH  16  17
ENDBRANCH  15  16
TORSDOF 7
ENDMDL
MODEL       36
REMARK 921   NORMALIZED FREE ENERGY PREDICTED BY IDOCK:   -5.79 KCAL/MOL
REMARK 922        TOTAL FREE ENERGY PREDICTED BY IDOCK:  -10.80 KCAL/MOL
REMARK 923 INTER-LIGAND FREE ENERGY PREDICTED BY IDOCK:   -9.73 KCAL/MOL
REMARK 924 INTRA-LIGAND FREE ENERGY PREDICTED BY IDOCK:   -1.06 KCAL/MOL
REMARK 927      BINDING AFFINITY PREDICTED BY RF-SCORE:    0.00 PKD
ROOT
HETATM    1  N   UNK A   0      -9.114   4.794  67.288  1.00  0.00    -0.116 NA 
HETATM    2  H1  UNK A   0      -8.189   4.845  66.861  1.00  0.00     0.000 HD 
HETATM    3  C   UNK A   0      -9.490   5.684  68.242  1.00  0.00    -0.114 C  
HETATM    4  H2  UNK A   0      -9.765   4.066  66.993  1.00  0.00     0.000 HD 
HETATM    5  N   UNK A   0     -10.670   5.619  68.786  1.00  0.00    -0.229 N  
HETATM    6  H   UNK A   0     -11.320   4.883  68.511  1.00  0.00     0.000 HD 
HETATM    7  C   UNK A   0     -11.041   6.562  69.748  1.00  0.00    -0.370 C  
HETATM    8  C   UNK A   0     -10.050   7.603  70.034  1.00  0.00    -0.204 A  
HETATM    9  O   UNK A   0     -12.124   6.535  70.317  1.00  0.00    -0.348 OA 
HETATM   10  C   UNK A   0      -8.837   7.566  69.403  1.00  0.00    -0.136 A  
HETATM   11  N   UNK A   0      -8.079   8.626  69.774  1.00  0.00    -0.111 NA 
HETATM   12  N   UNK A   0      -8.518   6.608  68.524  1.00  0.00    -0.122 NA 
HETATM   13  H   UNK A   0      -7.134   8.832  69.448  1.00  0.00     0.000 HD 
HETATM   14  C   UNK A   0      -8.807   9.375  70.668  1.00  0.00    -0.220 A  
HETATM   15  C   UNK A   0     -10.045   8.770  70.858  1.00  0.00    -0.276 A  
ENDROOT
BRANCH  15  16
HETATM   16  C   UNK A   0     -11.160   9.292  71.707  1.00  0.00    -0.398 C  
BRANCH  16  17
HETATM   17  C   UNK A   0     -12.371   9.796  70.902  1.00  0.00    -0.379 C  
BRANCH  17  18
HETATM   18  C   UNK A   0     -12.068  11.022  70.057  1.00  0.00    -0.441 A  
HETATM   19  C   UNK A   0     -12.189  12.316  70.579  1.00  0.00    -0.387 A  
HETATM   20  C   UNK A   0     -12.028  13.434  69.761  1.00  0.00    -0.396 A  
HETATM   21  C   UNK A   0     -11.717  13.277  68.408  1.00  0.00    -0.389 A  
HETATM   22  C   UNK A   0     -11.466  11.999  67.901  1.00  0.00    -0.396 A  
HETATM   23  C   UNK A   0     -11.646  10.877  68.724  1.00  0.00    -0.378 A  
BRANCH  21  24
HETATM   24  C   UNK A   0     -11.721  14.458  67.501  1.00  0.00    -0.387 C  
HETATM   25  O   UNK A   0     -12.506  14.582  66.569  1.00  0.00    -0.294 OA 
ATOM     26  N   GLU A   1     -10.789  15.428  67.814  1.00  0.00    -0.294 N  
ATOM     27  H   GLU A   1     -10.163  15.279  68.606  1.00  0.00     0.000 HD 
BRANCH  26  28
ATOM     28  CA  GLU A   1     -10.678  16.658  67.044  1.00  0.00    -0.174 C  
ATOM     29  C   GLU A   1      -9.707  16.430  65.878  1.00  0.00    -0.294 C  
ATOM     30  O   GLU A   1     -10.310  15.971  64.758  1.00  0.00    -0.510 OA 
ATOM     31  OXT GLU A   1      -8.494  16.627  65.943  1.00  0.00    -0.451 OA 
BRANCH  28  32
ATOM     32  CB  GLU A   1     -10.191  17.814  67.928  1.00  0.00    -0.362 C  
BRANCH  32  33
ATOM     33  CG  GLU A   1     -11.032  19.074  67.727  1.00  0.00    -0.263 C  
ATOM     34  CD  GLU A   1     -10.364  20.017  66.764  1.00  0.00    -0.436 C  
ATOM     35  OE1 GLU A   1     -10.739  19.837  65.480  1.00  0.00    -0.479 OA 
ATOM     36  OE2 GLU A   1      -9.534  20.848  67.100  1.00  0.00    -0.379 OA 
ENDBRANCH  32  33
ENDBRANCH  28  32
ENDBRANCH  26  28
ENDBRANCH  21  24
ENDBRANCH  17  18
ENDBRANCH  16  17
ENDBRANCH  15  16
TORSDOF 7
ENDMDL
MODEL       37
REMARK 921   NORMALIZED FREE ENERGY PREDICTED BY IDOCK:   -5.77 KCAL/MOL
REMARK 922        TOTAL FREE ENERGY PREDICTED BY IDOCK:  -10.78 KCAL/MOL
REMARK 923 INTER-LIGAND FREE ENERGY PREDICTED BY IDOCK:   -9.55 KCAL/MOL
REMARK 924 INTRA-LIGAND FREE ENERGY PREDICTED BY IDOCK:   -1.22 KCAL/MOL
REMARK 927      BINDING AFFINITY PREDICTED BY RF-SCORE:    0.00 PKD
ROOT
HETATM    1  N   UNK A   0     -10.149  20.312  65.915  1.00  0.00    -0.579 NA 
HETATM    2  H1  UNK A   0     -10.517  20.840  65.124  1.00  0.00     0.000 HD 
HETATM    3  C   UNK A   0     -10.301  18.964  65.982  1.00  0.00    -0.429 C  
HETATM    4  H2  UNK A   0      -9.660  20.802  66.664  1.00  0.00     0.000 HD 
HETATM    5  N   UNK A   0      -9.831  18.291  66.991  1.00  0.00    -0.311 N  
HETATM    6  H   UNK A   0      -9.358  18.775  67.754  1.00  0.00     0.000 HD 
HETATM    7  C   UNK A   0      -9.979  16.902  67.024  1.00  0.00    -0.279 C  
HETATM    8  C   UNK A   0     -10.633  16.303  65.857  1.00  0.00    -0.307 A  
HETATM    9  O   UNK A   0      -9.586  16.217  67.960  1.00  0.00    -0.221 OA 
HETATM   10  C   UNK A   0     -11.092  17.115  64.856  1.00  0.00     0.272 A  
HETATM   11  N   UNK A   0     -11.631  16.374  63.857  1.00  0.00    -1.602 NA 
HETATM   12  N   UNK A   0     -10.965  18.446  64.902  1.00  0.00    -0.311 NA 
HETATM   13  H   UNK A   0     -12.044  16.735  62.997  1.00  0.00     0.000 HD 
HETATM   14  C   UNK A   0     -11.524  15.049  64.209  1.00  0.00    -0.128 A  
HETATM   15  C   UNK A   0     -10.906  14.961  65.452  1.00  0.00    -0.379 A  
ENDROOT
BRANCH  15  16
HETATM   16  C   UNK A   0     -10.546  13.700  66.170  1.00  0.00    -0.291 C  
BRANCH  16  17
HETATM   17  C   UNK A   0     -11.756  12.817  66.523  1.00  0.00    -0.463 C  
BRANCH  17  18
HETATM   18  C   UNK A   0     -11.489  11.854  67.667  1.00  0.00    -0.387 A  
HETATM   19  C   UNK A   0     -10.945  10.584  67.440  1.00  0.00    -0.352 A  
HETATM   20  C   UNK A   0     -10.820   9.664  68.481  1.00  0.00    -0.202 A  
HETATM   21  C   UNK A   0     -11.215  10.009  69.776  1.00  0.00    -0.307 A  
HETATM   22  C   UNK A   0     -11.638  11.313  70.044  1.00  0.00    -0.404 A  
HETATM   23  C   UNK A   0     -11.779  12.229  68.991  1.00  0.00    -0.376 A  
BRANCH  21  24
HETATM   24  C   UNK A   0     -11.247   8.973  70.845  1.00  0.00    -0.287 C  
HETATM   25  O   UNK A   0     -11.890   9.101  71.879  1.00  0.00    -0.354 OA 
ATOM     26  N   GLU A   1     -10.519   7.833  70.565  1.00  0.00    -0.213 N  
ATOM     27  H   GLU A   1     -10.006   7.774  69.685  1.00  0.00     0.000 HD 
BRANCH  26  28
ATOM     28  CA  GLU A   1     -10.465   6.713  71.493  1.00  0.00    -0.215 C  
ATOM     29  C   GLU A   1      -9.147   6.775  72.274  1.00  0.00    -0.132 C  
ATOM     30  O   GLU A   1      -9.227   7.505  73.409  1.00  0.00    -0.181 OA 
ATOM     31  OXT GLU A   1      -8.104   6.231  71.910  1.00  0.00    -0.108 OA 
BRANCH  28  32
ATOM     32  CB  GLU A   1     -10.583   5.378  70.746  1.00  0.00    -0.293 C  
BRANCH  32  33
ATOM     33  CG  GLU A   1     -10.526   5.569  69.231  1.00  0.00    -0.336 C  
ATOM     34  CD  GLU A   1      -9.254   4.997  68.666  1.00  0.00    -0.122 C  
ATOM     35  OE1 GLU A   1      -9.368   3.711  68.271  1.00  0.00    -0.154 OA 
ATOM     36  OE2 GLU A   1      -8.205   5.620  68.599  1.00  0.00    -0.102 OA 
ENDBRANCH  32  33
ENDBRANCH  28  32
ENDBRANCH  26  28
ENDBRANCH  21  24
ENDBRANCH  17  18
ENDBRANCH  16  17
ENDBRANCH  15  16
TORSDOF 7
ENDMDL
MODEL       38
REMARK 921   NORMALIZED FREE ENERGY PREDICTED BY IDOCK:   -5.77 KCAL/MOL
REMARK 922        TOTAL FREE ENERGY PREDICTED BY IDOCK:  -10.77 KCAL/MOL
REMARK 923 INTER-LIGAND FREE ENERGY PREDICTED BY IDOCK:   -9.65 KCAL/MOL
REMARK 924 INTRA-LIGAND FREE ENERGY PREDICTED BY IDOCK:   -1.12 KCAL/MOL
REMARK 927      BINDING AFFINITY PREDICTED BY RF-SCORE:    0.00 PKD
ROOT
HETATM    1  N   UNK A   0     -13.546   9.046  73.083  1.00  0.00    -0.975 NA 
HETATM    2  H1  UNK A   0     -13.297   8.068  72.940  1.00  0.00     0.000 HD 
HETATM    3  C   UNK A   0     -13.157   9.999  72.198  1.00  0.00    -0.386 C  
HETATM    4  H2  UNK A   0     -14.094   9.311  73.901  1.00  0.00     0.000 HD 
HETATM    5  N   UNK A   0     -13.475  11.247  72.380  1.00  0.00    -0.442 N  
HETATM    6  H   UNK A   0     -14.007  11.525  73.204  1.00  0.00     0.000 HD 
HETATM    7  C   UNK A   0     -13.083  12.204  71.441  1.00  0.00    -0.187 C  
HETATM    8  C   UNK A   0     -12.364  11.692  70.271  1.00  0.00    -0.339 A  
HETATM    9  O   UNK A   0     -13.325  13.397  71.572  1.00  0.00    -0.337 OA 
HETATM   10  C   UNK A   0     -12.080  10.356  70.191  1.00  0.00    -0.256 A  
HETATM   11  N   UNK A   0     -11.444  10.078  69.026  1.00  0.00    -0.475 NA 
HETATM   12  N   UNK A   0     -12.439   9.491  71.147  1.00  0.00    -0.319 NA 
HETATM   13  H   UNK A   0     -11.124   9.158  68.722  1.00  0.00     0.000 HD 
HETATM   14  C   UNK A   0     -11.307  11.254  68.328  1.00  0.00    -0.289 A  
HETATM   15  C   UNK A   0     -11.868  12.287  69.071  1.00  0.00    -0.358 A  
ENDROOT
BRANCH  15  16
HETATM   16  C   UNK A   0     -11.982  13.717  68.647  1.00  0.00    -0.395 C  
BRANCH  16  17
HETATM   17  C   UNK A   0     -11.707  13.946  67.151  1.00  0.00    -0.419 C  
BRANCH  17  18
HETATM   18  C   UNK A   0     -10.431  14.724  66.882  1.00  0.00    -0.277 A  
HETATM   19  C   UNK A   0      -9.177  14.222  67.251  1.00  0.00    -0.218 A  
HETATM   20  C   UNK A   0      -8.027  14.997  67.111  1.00  0.00    -0.238 A  
HETATM   21  C   UNK A   0      -8.108  16.284  66.573  1.00  0.00    -0.337 A  
HETATM   22  C   UNK A   0      -9.328  16.751  66.081  1.00  0.00    -0.288 A  
HETATM   23  C   UNK A   0     -10.485  15.975  66.240  1.00  0.00    -0.326 A  
BRANCH  21  24
HETATM   24  C   UNK A   0      -6.912  17.174  66.588  1.00  0.00    -0.250 C  
HETATM   25  O   UNK A   0      -5.806  16.810  66.210  1.00  0.00    -0.273 OA 
ATOM     26  N   GLU A   1      -7.156  18.459  67.030  1.00  0.00    -0.191 N  
ATOM     27  H   GLU A   1      -8.098  18.712  67.327  1.00  0.00     0.000 HD 
BRANCH  26  28
ATOM     28  CA  GLU A   1      -6.102  19.461  67.083  1.00  0.00    -0.182 C  
ATOM     29  C   GLU A   1      -5.995  19.997  68.515  1.00  0.00    -0.253 C  
ATOM     30  O   GLU A   1      -5.142  19.291  69.292  1.00  0.00    -0.183 OA 
ATOM     31  OXT GLU A   1      -6.626  20.965  68.938  1.00  0.00    -0.084 OA 
BRANCH  28  32
ATOM     32  CB  GLU A   1      -6.388  20.607  66.102  1.00  0.00    -0.286 C  
BRANCH  32  33
ATOM     33  CG  GLU A   1      -5.261  20.776  65.084  1.00  0.00    -0.224 C  
ATOM     34  CD  GLU A   1      -5.673  20.251  63.736  1.00  0.00    -0.265 C  
ATOM     35  OE1 GLU A   1      -6.228  21.187  62.937  1.00  0.00    -0.270 OA 
ATOM     36  OE2 GLU A   1      -5.551  19.082  63.401  1.00  0.00    -0.329 OA 
ENDBRANCH  32  33
ENDBRANCH  28  32
ENDBRANCH  26  28
ENDBRANCH  21  24
ENDBRANCH  17  18
ENDBRANCH  16  17
ENDBRANCH  15  16
TORSDOF 7
ENDMDL
MODEL       39
REMARK 921   NORMALIZED FREE ENERGY PREDICTED BY IDOCK:   -5.77 KCAL/MOL
REMARK 922        TOTAL FREE ENERGY PREDICTED BY IDOCK:  -10.77 KCAL/MOL
REMARK 923 INTER-LIGAND FREE ENERGY PREDICTED BY IDOCK:   -9.33 KCAL/MOL
REMARK 924 INTRA-LIGAND FREE ENERGY PREDICTED BY IDOCK:   -1.44 KCAL/MOL
REMARK 927      BINDING AFFINITY PREDICTED BY RF-SCORE:    0.00 PKD
ROOT
HETATM    1  N   UNK A   0     -11.160   5.575  73.715  1.00  0.00    -0.410 NA 
HETATM    2  H1  UNK A   0     -10.877   4.655  74.051  1.00  0.00     0.000 HD 
HETATM    3  C   UNK A   0     -11.013   5.914  72.409  1.00  0.00    -0.264 C  
HETATM    4  H2  UNK A   0     -11.559   6.249  74.369  1.00  0.00     0.000 HD 
HETATM    5  N   UNK A   0     -11.375   7.088  71.980  1.00  0.00    -0.256 N  
HETATM    6  H   UNK A   0     -11.757   7.775  72.630  1.00  0.00     0.000 HD 
HETATM    7  C   UNK A   0     -11.236   7.402  70.626  1.00  0.00    -0.270 C  
HETATM    8  C   UNK A   0     -10.721   6.328  69.772  1.00  0.00    -0.358 A  
HETATM    9  O   UNK A   0     -11.529   8.499  70.168  1.00  0.00    -0.154 OA 
HETATM   10  C   UNK A   0     -10.368   5.133  70.338  1.00  0.00    -0.256 A  
HETATM   11  N   UNK A   0      -9.950   4.265  69.384  1.00  0.00    -0.129 NA 
HETATM   12  N   UNK A   0     -10.478   4.905  71.652  1.00  0.00    -0.167 NA 
HETATM   13  H   UNK A   0      -9.632   3.309  69.542  1.00  0.00     0.000 HD 
HETATM   14  C   UNK A   0     -10.029   4.902  68.168  1.00  0.00    -0.108 A  
HETATM   15  C   UNK A   0     -10.506   6.193  68.367  1.00  0.00    -0.280 A  
ENDROOT
BRANCH  15  16
HETATM   16  C   UNK A   0     -10.796   7.199  67.299  1.00  0.00    -0.382 C  
BRANCH  16  17
HETATM   17  C   UNK A   0      -9.570   8.024  66.872  1.00  0.00    -0.265 C  
BRANCH  17  18
HETATM   18  C   UNK A   0      -9.869   9.501  66.684  1.00  0.00    -0.293 A  
HETATM   19  C   UNK A   0     -10.062  10.352  67.779  1.00  0.00    -0.212 A  
HETATM   20  C   UNK A   0     -10.457  11.677  67.595  1.00  0.00    -0.219 A  
HETATM   21  C   UNK A   0     -10.641  12.182  66.305  1.00  0.00    -0.285 A  
HETATM   22  C   UNK A   0     -10.329  11.386  65.200  1.00  0.00    -0.344 A  
HETATM   23  C   UNK A   0      -9.949  10.050  65.391  1.00  0.00    -0.364 A  
BRANCH  21  24
HETATM   24  C   UNK A   0     -11.231  13.536  66.114  1.00  0.00    -0.295 C  
HETATM   25  O   UNK A   0     -12.166  13.756  65.353  1.00  0.00    -0.388 OA 
ATOM     26  N   GLU A   1     -10.664  14.527  66.890  1.00  0.00    -0.284 N  
ATOM     27  H   GLU A   1      -9.891  14.289  67.513  1.00  0.00     0.000 HD 
BRANCH  26  28
ATOM     28  CA  GLU A   1     -11.140  15.901  66.843  1.00  0.00    -0.082 C  
ATOM     29  C   GLU A   1     -10.320  16.678  65.806  1.00  0.00    -0.321 C  
ATOM     30  O   GLU A   1     -10.840  16.624  64.559  1.00  0.00    -0.847 OA 
ATOM     31  OXT GLU A   1      -9.281  17.285  66.063  1.00  0.00    -0.478 OA 
BRANCH  28  32
ATOM     32  CB  GLU A   1     -11.027  16.566  68.222  1.00  0.00    -0.346 C  
BRANCH  32  33
ATOM     33  CG  GLU A   1     -10.682  15.554  69.313  1.00  0.00    -0.245 C  
ATOM     34  CD  GLU A   1     -11.923  15.081  70.019  1.00  0.00    -0.332 C  
ATOM     35  OE1 GLU A   1     -12.465  13.970  69.477  1.00  0.00    -0.299 OA 
ATOM     36  OE2 GLU A   1     -12.420  15.662  70.973  1.00  0.00    -0.400 OA 
ENDBRANCH  32  33
ENDBRANCH  28  32
ENDBRANCH  26  28
ENDBRANCH  21  24
ENDBRANCH  17  18
ENDBRANCH  16  17
ENDBRANCH  15  16
TORSDOF 7
ENDMDL
MODEL       40
REMARK 921   NORMALIZED FREE ENERGY PREDICTED BY IDOCK:   -5.75 KCAL/MOL
REMARK 922        TOTAL FREE ENERGY PREDICTED BY IDOCK:  -10.75 KCAL/MOL
REMARK 923 INTER-LIGAND FREE ENERGY PREDICTED BY IDOCK:   -8.93 KCAL/MOL
REMARK 924 INTRA-LIGAND FREE ENERGY PREDICTED BY IDOCK:   -1.82 KCAL/MOL
REMARK 927      BINDING AFFINITY PREDICTED BY RF-SCORE:    0.00 PKD
ROOT
HETATM    1  N   UNK A   0     -13.742   8.560  72.480  1.00  0.00    -0.633 NA 
HETATM    2  H1  UNK A   0     -14.577   8.062  72.173  1.00  0.00     0.000 HD 
HETATM    3  C   UNK A   0     -12.506   8.144  72.101  1.00  0.00    -0.322 C  
HETATM    4  H2  UNK A   0     -13.836   9.381  73.078  1.00  0.00     0.000 HD 
HETATM    5  N   UNK A   0     -11.441   8.780  72.491  1.00  0.00    -0.232 N  
HETATM    6  H   UNK A   0     -11.524   9.591  73.105  1.00  0.00     0.000 HD 
HETATM    7  C   UNK A   0     -10.182   8.347  72.067  1.00  0.00    -0.294 C  
HETATM    8  C   UNK A   0     -10.178   7.203  71.150  1.00  0.00    -0.200 A  
HETATM    9  O   UNK A   0      -9.142   8.884  72.425  1.00  0.00    -0.372 OA 
HETATM   10  C   UNK A   0     -11.364   6.610  70.813  1.00  0.00    -0.336 A  
HETATM   11  N   UNK A   0     -11.154   5.598  69.936  1.00  0.00    -0.254 NA 
HETATM   12  N   UNK A   0     -12.539   7.040  71.291  1.00  0.00    -0.384 NA 
HETATM   13  H   UNK A   0     -11.871   4.998  69.529  1.00  0.00     0.000 HD 
HETATM   14  C   UNK A   0      -9.802   5.524  69.692  1.00  0.00    -0.193 A  
HETATM   15  C   UNK A   0      -9.157   6.509  70.432  1.00  0.00    -0.156 A  
ENDROOT
BRANCH  15  16
HETATM   16  C   UNK A   0      -7.692   6.810  70.410  1.00  0.00    -0.100 C  
BRANCH  16  17
HETATM   17  C   UNK A   0      -7.213   7.474  69.108  1.00  0.00    -0.084 C  
BRANCH  17  18
HETATM   18  C   UNK A   0      -8.156   8.547  68.592  1.00  0.00    -0.121 A  
HETATM   19  C   UNK A   0      -8.258   9.794  69.221  1.00  0.00    -0.132 A  
HETATM   20  C   UNK A   0      -9.214  10.724  68.814  1.00  0.00    -0.192 A  
HETATM   21  C   UNK A   0     -10.071  10.431  67.750  1.00  0.00    -0.212 A  
HETATM   22  C   UNK A   0      -9.898   9.247  67.030  1.00  0.00    -0.257 A  
HETATM   23  C   UNK A   0      -8.947   8.308  67.454  1.00  0.00    -0.142 A  
BRANCH  21  24
HETATM   24  C   UNK A   0     -11.203  11.347  67.433  1.00  0.00    -0.305 C  
HETATM   25  O   UNK A   0     -12.212  11.425  68.123  1.00  0.00    -0.602 OA 
ATOM     26  N   GLU A   1     -11.013  12.133  66.313  1.00  0.00    -0.282 N  
ATOM     27  H   GLU A   1     -10.150  12.033  65.777  1.00  0.00     0.000 HD 
BRANCH  26  28
ATOM     28  CA  GLU A   1     -12.010  13.099  65.879  1.00  0.00    -0.427 C  
ATOM     29  C   GLU A   1     -12.458  12.747  64.456  1.00  0.00    -0.428 C  
ATOM     30  O   GLU A   1     -13.504  11.890  64.416  1.00  0.00    -0.447 OA 
ATOM     31  OXT GLU A   1     -11.922  13.183  63.437  1.00  0.00    -0.538 OA 
BRANCH  28  32
ATOM     32  CB  GLU A   1     -11.446  14.525  65.927  1.00  0.00    -0.345 C  
BRANCH  32  33
ATOM     33  CG  GLU A   1      -9.919  14.531  65.920  1.00  0.00    -0.352 C  
ATOM     34  CD  GLU A   1      -9.379  15.058  67.222  1.00  0.00    -0.202 C  
ATOM     35  OE1 GLU A   1      -9.144  14.097  68.139  1.00  0.00    -0.179 OA 
ATOM     36  OE2 GLU A   1      -9.199  16.246  67.446  1.00  0.00    -0.209 OA 
ENDBRANCH  32  33
ENDBRANCH  28  32
ENDBRANCH  26  28
ENDBRANCH  21  24
ENDBRANCH  17  18
ENDBRANCH  16  17
ENDBRANCH  15  16
TORSDOF 7
ENDMDL
MODEL       41
REMARK 921   NORMALIZED FREE ENERGY PREDICTED BY IDOCK:   -5.75 KCAL/MOL
REMARK 922        TOTAL FREE ENERGY PREDICTED BY IDOCK:  -10.75 KCAL/MOL
REMARK 923 INTER-LIGAND FREE ENERGY PREDICTED BY IDOCK:   -9.49 KCAL/MOL
REMARK 924 INTRA-LIGAND FREE ENERGY PREDICTED BY IDOCK:   -1.26 KCAL/MOL
REMARK 927      BINDING AFFINITY PREDICTED BY RF-SCORE:    0.00 PKD
ROOT
HETATM    1  N   UNK A   0     -10.313   5.206  72.293  1.00  0.00    -0.205 NA 
HETATM    2  H1  UNK A   0     -10.692   4.821  73.158  1.00  0.00     0.000 HD 
HETATM    3  C   UNK A   0     -10.766   6.387  71.800  1.00  0.00    -0.233 C  
HETATM    4  H2  UNK A   0      -9.583   4.697  71.793  1.00  0.00     0.000 HD 
HETATM    5  N   UNK A   0     -10.282   6.878  70.697  1.00  0.00    -0.195 N  
HETATM    6  H   UNK A   0      -9.566   6.367  70.180  1.00  0.00     0.000 HD 
HETATM    7  C   UNK A   0     -10.749   8.107  70.224  1.00  0.00    -0.235 C  
HETATM    8  C   UNK A   0     -11.743   8.778  71.067  1.00  0.00    -0.329 A  
HETATM    9  O   UNK A   0     -10.355   8.605  69.178  1.00  0.00    -0.211 OA 
HETATM   10  C   UNK A   0     -12.182   8.160  72.206  1.00  0.00    -0.346 A  
HETATM   11  N   UNK A   0     -13.068   8.950  72.859  1.00  0.00    -0.749 NA 
HETATM   12  N   UNK A   0     -11.734   6.957  72.584  1.00  0.00    -0.149 NA 
HETATM   13  H   UNK A   0     -13.543   8.725  73.733  1.00  0.00     0.000 HD 
HETATM   14  C   UNK A   0     -13.214  10.110  72.136  1.00  0.00    -0.362 A  
HETATM   15  C   UNK A   0     -12.403  10.042  71.008  1.00  0.00    -0.458 A  
ENDROOT
BRANCH  15  16
HETATM   16  C   UNK A   0     -12.221  11.120  69.987  1.00  0.00    -0.402 C  
BRANCH  16  17
HETATM   17  C   UNK A   0     -12.405  12.542  70.544  1.00  0.00    -0.345 C  
BRANCH  17  18
HETATM   18  C   UNK A   0     -11.513  13.574  69.876  1.00  0.00    -0.194 A  
HETATM   19  C   UNK A   0     -10.996  13.371  68.591  1.00  0.00    -0.288 A  
HETATM   20  C   UNK A   0     -10.081  14.266  68.038  1.00  0.00    -0.227 A  
HETATM   21  C   UNK A   0      -9.685  15.399  68.755  1.00  0.00    -0.210 A  
HETATM   22  C   UNK A   0     -10.287  15.684  69.982  1.00  0.00    -0.309 A  
HETATM   23  C   UNK A   0     -11.194  14.772  70.541  1.00  0.00    -0.192 A  
BRANCH  21  24
HETATM   24  C   UNK A   0      -8.580  16.255  68.242  1.00  0.00    -0.196 C  
HETATM   25  O   UNK A   0      -7.628  15.810  67.612  1.00  0.00    -0.133 OA 
ATOM     26  N   GLU A   1      -8.728  17.604  68.500  1.00  0.00    -0.286 N  
ATOM     27  H   GLU A   1      -9.544  17.923  69.022  1.00  0.00     0.000 HD 
BRANCH  26  28
ATOM     28  CA  GLU A   1      -7.751  18.581  68.045  1.00  0.00    -0.265 C  
ATOM     29  C   GLU A   1      -6.799  18.909  69.201  1.00  0.00    -0.296 C  
ATOM     30  O   GLU A   1      -5.720  18.095  69.259  1.00  0.00    -0.203 OA 
ATOM     31  OXT GLU A   1      -6.989  19.814  70.014  1.00  0.00    -0.233 OA 
BRANCH  28  32
ATOM     32  CB  GLU A   1      -8.444  19.855  67.543  1.00  0.00    -0.378 C  
BRANCH  32  33
ATOM     33  CG  GLU A   1      -9.960  19.683  67.469  1.00  0.00    -0.513 C  
ATOM     34  CD  GLU A   1     -10.394  19.349  66.068  1.00  0.00    -0.497 C  
ATOM     35  OE1 GLU A   1     -10.460  18.024  65.823  1.00  0.00    -0.573 OA 
ATOM     36  OE2 GLU A   1     -10.633  20.192  65.216  1.00  0.00    -0.272 OA 
ENDBRANCH  32  33
ENDBRANCH  28  32
ENDBRANCH  26  28
ENDBRANCH  21  24
ENDBRANCH  17  18
ENDBRANCH  16  17
ENDBRANCH  15  16
TORSDOF 7
ENDMDL
MODEL       42
REMARK 921   NORMALIZED FREE ENERGY PREDICTED BY IDOCK:   -5.72 KCAL/MOL
REMARK 922        TOTAL FREE ENERGY PREDICTED BY IDOCK:  -10.70 KCAL/MOL
REMARK 923 INTER-LIGAND FREE ENERGY PREDICTED BY IDOCK:   -9.37 KCAL/MOL
REMARK 924 INTRA-LIGAND FREE ENERGY PREDICTED BY IDOCK:   -1.33 KCAL/MOL
REMARK 927      BINDING AFFINITY PREDICTED BY RF-SCORE:    0.00 PKD
ROOT
HETATM    1  N   UNK A   0      -9.528  20.483  66.940  1.00  0.00    -0.615 NA 
HETATM    2  H1  UNK A   0      -9.414  21.061  67.772  1.00  0.00     0.000 HD 
HETATM    3  C   UNK A   0      -9.913  19.185  67.042  1.00  0.00    -0.347 C  
HETATM    4  H2  UNK A   0      -9.350  20.885  66.019  1.00  0.00     0.000 HD 
HETATM    5  N   UNK A   0     -10.059  18.448  65.980  1.00  0.00    -0.330 N  
HETATM    6  H   UNK A   0      -9.866  18.836  65.057  1.00  0.00     0.000 HD 
HETATM    7  C   UNK A   0     -10.481  17.123  66.111  1.00  0.00    -0.275 C  
HETATM    8  C   UNK A   0     -10.776  16.680  67.477  1.00  0.00    -0.278 A  
HETATM    9  O   UNK A   0     -10.607  16.371  65.153  1.00  0.00    -0.610 OA 
HETATM   10  C   UNK A   0     -10.580  17.545  68.518  1.00  0.00    -0.312 A  
HETATM   11  N   UNK A   0     -10.939  16.963  69.689  1.00  0.00    -0.365 NA 
HETATM   12  N   UNK A   0     -10.126  18.791  68.337  1.00  0.00    -0.382 NA 
HETATM   13  H   UNK A   0     -10.891  17.393  70.613  1.00  0.00     0.000 HD 
HETATM   14  C   UNK A   0     -11.380  15.691  69.411  1.00  0.00    -0.330 A  
HETATM   15  C   UNK A   0     -11.294  15.474  68.040  1.00  0.00    -0.332 A  
ENDROOT
BRANCH  15  16
HETATM   16  C   UNK A   0     -11.729  14.242  67.313  1.00  0.00    -0.422 C  
BRANCH  16  17
HETATM   17  C   UNK A   0     -10.609  13.205  67.121  1.00  0.00    -0.259 C  
BRANCH  17  18
HETATM   18  C   UNK A   0     -10.664  12.062  68.121  1.00  0.00    -0.246 A  
HETATM   19  C   UNK A   0     -11.789  11.851  68.928  1.00  0.00    -0.366 A  
HETATM   20  C   UNK A   0     -11.780  10.877  69.926  1.00  0.00    -0.418 A  
HETATM   21  C   UNK A   0     -10.650  10.077  70.118  1.00  0.00    -0.350 A  
HETATM   22  C   UNK A   0      -9.570  10.187  69.240  1.00  0.00    -0.239 A  
HETATM   23  C   UNK A   0      -9.577  11.179  68.249  1.00  0.00    -0.185 A  
BRANCH  21  24
HETATM   24  C   UNK A   0     -10.576   9.164  71.293  1.00  0.00    -0.329 C  
HETATM   25  O   UNK A   0     -11.510   8.995  72.066  1.00  0.00    -0.365 OA 
ATOM     26  N   GLU A   1      -9.377   8.491  71.424  1.00  0.00    -0.189 N  
ATOM     27  H   GLU A   1      -8.634   8.663  70.748  1.00  0.00     0.000 HD 
BRANCH  26  28
ATOM     28  CA  GLU A   1      -9.149   7.541  72.503  1.00  0.00    -0.146 C  
ATOM     29  C   GLU A   1      -7.867   7.931  73.248  1.00  0.00    -0.148 C  
ATOM     30  O   GLU A   1      -8.077   8.795  74.267  1.00  0.00    -0.341 OA 
ATOM     31  OXT GLU A   1      -6.745   7.519  72.951  1.00  0.00    -0.062 OA 
BRANCH  28  32
ATOM     32  CB  GLU A   1      -9.038   6.111  71.958  1.00  0.00    -0.143 C  
BRANCH  32  33
ATOM     33  CG  GLU A   1      -9.001   6.088  70.431  1.00  0.00    -0.153 C  
ATOM     34  CD  GLU A   1     -10.117   5.243  69.879  1.00  0.00    -0.263 C  
ATOM     35  OE1 GLU A   1     -11.242   5.939  69.615  1.00  0.00    -0.395 OA 
ATOM     36  OE2 GLU A   1     -10.031   4.035  69.716  1.00  0.00    -0.180 OA 
ENDBRANCH  32  33
ENDBRANCH  28  32
ENDBRANCH  26  28
ENDBRANCH  21  24
ENDBRANCH  17  18
ENDBRANCH  16  17
ENDBRANCH  15  16
TORSDOF 7
ENDMDL
MODEL       43
REMARK 921   NORMALIZED FREE ENERGY PREDICTED BY IDOCK:   -5.72 KCAL/MOL
REMARK 922        TOTAL FREE ENERGY PREDICTED BY IDOCK:  -10.70 KCAL/MOL
REMARK 923 INTER-LIGAND FREE ENERGY PREDICTED BY IDOCK:   -9.80 KCAL/MOL
REMARK 924 INTRA-LIGAND FREE ENERGY PREDICTED BY IDOCK:   -0.89 KCAL/MOL
REMARK 927      BINDING AFFINITY PREDICTED BY RF-SCORE:    0.00 PKD
ROOT
HETATM    1  N   UNK A   0     -12.724   6.684  72.396  1.00  0.00    -0.520 NA 
HETATM    2  H1  UNK A   0     -12.733   7.149  73.303  1.00  0.00     0.000 HD 
HETATM    3  C   UNK A   0     -11.876   7.088  71.415  1.00  0.00    -0.320 C  
HETATM    4  H2  UNK A   0     -13.360   5.905  72.224  1.00  0.00     0.000 HD 
HETATM    5  N   UNK A   0     -11.865   6.494  70.258  1.00  0.00    -0.513 N  
HETATM    6  H   UNK A   0     -12.510   5.727  70.070  1.00  0.00     0.000 HD 
HETATM    7  C   UNK A   0     -10.966   6.913  69.275  1.00  0.00    -0.221 C  
HETATM    8  C   UNK A   0     -10.053   7.992  69.664  1.00  0.00    -0.198 A  
HETATM    9  O   UNK A   0     -10.928   6.415  68.157  1.00  0.00    -0.290 OA 
HETATM   10  C   UNK A   0     -10.162   8.545  70.911  1.00  0.00    -0.200 A  
HETATM   11  N   UNK A   0      -9.214   9.496  71.090  1.00  0.00    -0.336 NA 
HETATM   12  N   UNK A   0     -11.078   8.134  71.797  1.00  0.00    -0.256 NA 
HETATM   13  H   UNK A   0      -9.078  10.058  71.930  1.00  0.00     0.000 HD 
HETATM   14  C   UNK A   0      -8.467   9.571  69.938  1.00  0.00    -0.187 A  
HETATM   15  C   UNK A   0      -8.958   8.647  69.022  1.00  0.00    -0.142 A  
ENDROOT
BRANCH  15  16
HETATM   16  C   UNK A   0      -8.394   8.364  67.666  1.00  0.00    -0.130 C  
BRANCH  16  17
HETATM   17  C   UNK A   0      -9.432   8.437  66.533  1.00  0.00    -0.284 C  
BRANCH  17  18
HETATM   18  C   UNK A   0     -10.080   9.804  66.392  1.00  0.00    -0.313 A  
HETATM   19  C   UNK A   0      -9.822  10.624  65.286  1.00  0.00    -0.334 A  
HETATM   20  C   UNK A   0     -10.325  11.923  65.228  1.00  0.00    -0.316 A  
HETATM   21  C   UNK A   0     -11.118  12.418  66.266  1.00  0.00    -0.344 A  
HETATM   22  C   UNK A   0     -11.491  11.572  67.313  1.00  0.00    -0.338 A  
HETATM   23  C   UNK A   0     -10.968  10.272  67.376  1.00  0.00    -0.317 A  
BRANCH  21  24
HETATM   24  C   UNK A   0     -11.504  13.857  66.287  1.00  0.00    -0.339 C  
HETATM   25  O   UNK A   0     -12.599  14.258  65.913  1.00  0.00    -0.450 OA 
ATOM     26  N   GLU A   1     -10.541  14.705  66.797  1.00  0.00    -0.284 N  
ATOM     27  H   GLU A   1      -9.648  14.317  67.101  1.00  0.00     0.000 HD 
BRANCH  26  28
ATOM     28  CA  GLU A   1     -10.768  16.138  66.911  1.00  0.00    -0.247 C  
ATOM     29  C   GLU A   1     -10.199  16.833  65.669  1.00  0.00    -0.236 C  
ATOM     30  O   GLU A   1     -11.087  16.935  64.654  1.00  0.00    -0.934 OA 
ATOM     31  OXT GLU A   1      -9.045  17.252  65.581  1.00  0.00    -0.487 OA 
BRANCH  28  32
ATOM     32  CB  GLU A   1     -10.116  16.695  68.183  1.00  0.00    -0.267 C  
BRANCH  32  33
ATOM     33  CG  GLU A   1      -9.641  15.579  69.112  1.00  0.00    -0.253 C  
ATOM     34  CD  GLU A   1     -10.706  15.223  70.112  1.00  0.00    -0.271 C  
ATOM     35  OE1 GLU A   1     -11.521  14.227  69.705  1.00  0.00    -0.263 OA 
ATOM     36  OE2 GLU A   1     -10.849  15.799  71.181  1.00  0.00    -0.218 OA 
ENDBRANCH  32  33
ENDBRANCH  28  32
ENDBRANCH  26  28
ENDBRANCH  21  24
ENDBRANCH  17  18
ENDBRANCH  16  17
ENDBRANCH  15  16
TORSDOF 7
ENDMDL
MODEL       44
REMARK 921   NORMALIZED FREE ENERGY PREDICTED BY IDOCK:   -5.72 KCAL/MOL
REMARK 922        TOTAL FREE ENERGY PREDICTED BY IDOCK:  -10.70 KCAL/MOL
REMARK 923 INTER-LIGAND FREE ENERGY PREDICTED BY IDOCK:   -9.26 KCAL/MOL
REMARK 924 INTRA-LIGAND FREE ENERGY PREDICTED BY IDOCK:   -1.43 KCAL/MOL
REMARK 927      BINDING AFFINITY PREDICTED BY RF-SCORE:    0.00 PKD
ROOT
HETATM    1  N   UNK A   0      -9.203  18.903  66.687  1.00  0.00    -0.320 NA 
HETATM    2  H1  UNK A   0      -9.150  19.553  65.903  1.00  0.00     0.000 HD 
HETATM    3  C   UNK A   0      -9.891  17.737  66.579  1.00  0.00    -0.329 C  
HETATM    4  H2  UNK A   0      -8.733  19.131  67.563  1.00  0.00     0.000 HD 
HETATM    5  N   UNK A   0      -9.958  16.908  67.579  1.00  0.00    -0.261 N  
HETATM    6  H   UNK A   0      -9.507  17.137  68.465  1.00  0.00     0.000 HD 
HETATM    7  C   UNK A   0     -10.651  15.704  67.433  1.00  0.00    -0.301 C  
HETATM    8  C   UNK A   0     -11.222  15.453  66.106  1.00  0.00    -0.161 A  
HETATM    9  O   UNK A   0     -10.776  14.898  68.346  1.00  0.00    -0.235 OA 
HETATM   10  C   UNK A   0     -11.092  16.404  65.131  1.00  0.00    -0.170 A  
HETATM   11  N   UNK A   0     -11.653  15.974  63.975  1.00  0.00    -1.278 NA 
HETATM   12  N   UNK A   0     -10.456  17.563  65.343  1.00  0.00    -0.636 NA 
HETATM   13  H   UNK A   0     -11.691  16.491  63.097  1.00  0.00     0.000 HD 
HETATM   14  C   UNK A   0     -12.162  14.715  64.194  1.00  0.00    -0.315 A  
HETATM   15  C   UNK A   0     -11.913  14.354  65.514  1.00  0.00    -0.358 A  
ENDROOT
BRANCH  15  16
HETATM   16  C   UNK A   0     -12.250  13.041  66.147  1.00  0.00    -0.428 C  
BRANCH  16  17
HETATM   17  C   UNK A   0     -11.112  12.008  66.080  1.00  0.00    -0.364 C  
BRANCH  17  18
HETATM   18  C   UNK A   0     -11.042  11.104  67.299  1.00  0.00    -0.366 A  
HETATM   19  C   UNK A   0     -11.498  11.532  68.552  1.00  0.00    -0.354 A  
HETATM   20  C   UNK A   0     -11.316  10.742  69.687  1.00  0.00    -0.362 A  
HETATM   21  C   UNK A   0     -10.696   9.494  69.582  1.00  0.00    -0.257 A  
HETATM   22  C   UNK A   0     -10.353   8.997  68.323  1.00  0.00    -0.252 A  
HETATM   23  C   UNK A   0     -10.522   9.803  67.188  1.00  0.00    -0.316 A  
BRANCH  21  24
HETATM   24  C   UNK A   0     -10.344   8.733  70.814  1.00  0.00    -0.213 C  
HETATM   25  O   UNK A   0     -11.076   8.676  71.794  1.00  0.00    -0.278 OA 
ATOM     26  N   GLU A   1      -9.139   8.063  70.753  1.00  0.00    -0.143 N  
ATOM     27  H   GLU A   1      -8.570   8.138  69.908  1.00  0.00     0.000 HD 
BRANCH  26  28
ATOM     28  CA  GLU A   1      -8.658   7.251  71.861  1.00  0.00    -0.114 C  
ATOM     29  C   GLU A   1      -7.692   8.087  72.709  1.00  0.00    -0.128 C  
ATOM     30  O   GLU A   1      -8.304   8.784  73.693  1.00  0.00    -0.339 OA 
ATOM     31  OXT GLU A   1      -6.478   8.142  72.518  1.00  0.00    -0.068 OA 
BRANCH  28  32
ATOM     32  CB  GLU A   1      -7.961   5.983  71.348  1.00  0.00    -0.113 C  
BRANCH  32  33
ATOM     33  CG  GLU A   1      -8.470   5.577  69.966  1.00  0.00    -0.120 C  
ATOM     34  CD  GLU A   1      -9.704   4.724  70.078  1.00  0.00    -0.210 C  
ATOM     35  OE1 GLU A   1     -10.854   5.428  70.043  1.00  0.00    -0.293 OA 
ATOM     36  OE2 GLU A   1      -9.675   3.510  70.221  1.00  0.00    -0.183 OA 
ENDBRANCH  32  33
ENDBRANCH  28  32
ENDBRANCH  26  28
ENDBRANCH  21  24
ENDBRANCH  17  18
ENDBRANCH  16  17
ENDBRANCH  15  16
TORSDOF 7
ENDMDL
MODEL       45
REMARK 921   NORMALIZED FREE ENERGY PREDICTED BY IDOCK:   -5.69 KCAL/MOL
REMARK 922        TOTAL FREE ENERGY PREDICTED BY IDOCK:  -10.66 KCAL/MOL
REMARK 923 INTER-LIGAND FREE ENERGY PREDICTED BY IDOCK:   -9.25 KCAL/MOL
REMARK 924 INTRA-LIGAND FREE ENERGY PREDICTED BY IDOCK:   -1.41 KCAL/MOL
REMARK 927      BINDING AFFINITY PREDICTED BY RF-SCORE:    0.00 PKD
ROOT
HETATM    1  N   UNK A   0      -9.620  20.900  67.021  1.00  0.00    -0.688 NA 
HETATM    2  H1  UNK A   0      -9.284  21.269  67.910  1.00  0.00     0.000 HD 
HETATM    3  C   UNK A   0      -9.957  19.591  66.894  1.00  0.00    -0.386 C  
HETATM    4  H2  UNK A   0      -9.703  21.522  66.217  1.00  0.00     0.000 HD 
HETATM    5  N   UNK A   0     -10.386  19.120  65.760  1.00  0.00    -0.362 N  
HETATM    6  H   UNK A   0     -10.455  19.731  64.945  1.00  0.00     0.000 HD 
HETATM    7  C   UNK A   0     -10.751  17.775  65.663  1.00  0.00    -0.064 C  
HETATM    8  C   UNK A   0     -10.658  16.999  66.903  1.00  0.00    -0.208 A  
HETATM    9  O   UNK A   0     -11.132  17.267  64.617  1.00  0.00    -1.052 OA 
HETATM   10  C   UNK A   0     -10.186  17.602  68.037  1.00  0.00    -0.362 A  
HETATM   11  N   UNK A   0     -10.208  16.733  69.077  1.00  0.00    -0.292 NA 
HETATM   12  N   UNK A   0      -9.805  18.885  68.058  1.00  0.00    -0.334 NA 
HETATM   13  H   UNK A   0      -9.910  16.932  70.032  1.00  0.00     0.000 HD 
HETATM   14  C   UNK A   0     -10.704  15.536  68.618  1.00  0.00    -0.252 A  
HETATM   15  C   UNK A   0     -10.997  15.660  67.264  1.00  0.00    -0.275 A  
ENDROOT
BRANCH  15  16
HETATM   16  C   UNK A   0     -11.610  14.608  66.395  1.00  0.00    -0.343 C  
BRANCH  16  17
HETATM   17  C   UNK A   0     -10.593  13.847  65.527  1.00  0.00    -0.318 C  
BRANCH  17  18
HETATM   18  C   UNK A   0     -10.447  12.384  65.909  1.00  0.00    -0.284 A  
HETATM   19  C   UNK A   0     -10.696  11.940  67.214  1.00  0.00    -0.276 A  
HETATM   20  C   UNK A   0     -10.440  10.620  67.581  1.00  0.00    -0.267 A  
HETATM   21  C   UNK A   0      -9.953   9.710  66.639  1.00  0.00    -0.301 A  
HETATM   22  C   UNK A   0      -9.822  10.101  65.305  1.00  0.00    -0.388 A  
HETATM   23  C   UNK A   0     -10.064  11.435  64.944  1.00  0.00    -0.323 A  
BRANCH  21  24
HETATM   24  C   UNK A   0      -9.514   8.354  67.072  1.00  0.00    -0.174 C  
HETATM   25  O   UNK A   0      -8.986   7.550  66.315  1.00  0.00    -0.159 OA 
ATOM     26  N   GLU A   1      -9.718   8.082  68.411  1.00  0.00    -0.154 N  
ATOM     27  H   GLU A   1     -10.156   8.790  69.001  1.00  0.00     0.000 HD 
BRANCH  26  28
ATOM     28  CA  GLU A   1      -9.322   6.813  69.002  1.00  0.00    -0.134 C  
ATOM     29  C   GLU A   1     -10.554   5.905  69.103  1.00  0.00    -0.299 C  
ATOM     30  O   GLU A   1     -10.756   5.147  68.002  1.00  0.00    -0.024 OA 
ATOM     31  OXT GLU A   1     -11.304   5.867  70.079  1.00  0.00    -0.352 OA 
BRANCH  28  32
ATOM     32  CB  GLU A   1      -8.698   7.026  70.388  1.00  0.00    -0.147 C  
BRANCH  32  33
ATOM     33  CG  GLU A   1      -8.854   8.469  70.864  1.00  0.00    -0.203 C  
ATOM     34  CD  GLU A   1      -9.815   8.552  72.018  1.00  0.00    -0.312 C  
ATOM     35  OE1 GLU A   1      -9.220   8.458  73.226  1.00  0.00    -0.222 OA 
ATOM     36  OE2 GLU A   1     -11.025   8.660  71.883  1.00  0.00    -0.293 OA 
ENDBRANCH  32  33
ENDBRANCH  28  32
ENDBRANCH  26  28
ENDBRANCH  21  24
ENDBRANCH  17  18
ENDBRANCH  16  17
ENDBRANCH  15  16
TORSDOF 7
ENDMDL
MODEL       46
REMARK 921   NORMALIZED FREE ENERGY PREDICTED BY IDOCK:   -5.68 KCAL/MOL
REMARK 922        TOTAL FREE ENERGY PREDICTED BY IDOCK:  -10.64 KCAL/MOL
REMARK 923 INTER-LIGAND FREE ENERGY PREDICTED BY IDOCK:   -9.16 KCAL/MOL
REMARK 924 INTRA-LIGAND FREE ENERGY PREDICTED BY IDOCK:   -1.49 KCAL/MOL
REMARK 927      BINDING AFFINITY PREDICTED BY RF-SCORE:    0.00 PKD
ROOT
HETATM    1  N   UNK A   0     -13.554   8.694  72.898  1.00  0.00    -0.814 NA 
HETATM    2  H1  UNK A   0     -14.440   8.214  72.745  1.00  0.00     0.000 HD 
HETATM    3  C   UNK A   0     -12.474   8.425  72.120  1.00  0.00    -0.370 C  
HETATM    4  H2  UNK A   0     -13.478   9.385  73.645  1.00  0.00     0.000 HD 
HETATM    5  N   UNK A   0     -11.344   9.038  72.315  1.00  0.00    -0.238 N  
HETATM    6  H   UNK A   0     -11.253   9.716  73.071  1.00  0.00     0.000 HD 
HETATM    7  C   UNK A   0     -10.255   8.761  71.485  1.00  0.00    -0.300 C  
HETATM    8  C   UNK A   0     -10.506   7.806  70.401  1.00  0.00    -0.221 A  
HETATM    9  O   UNK A   0      -9.157   9.281  71.637  1.00  0.00    -0.315 OA 
HETATM   10  C   UNK A   0     -11.738   7.219  70.298  1.00  0.00    -0.126 A  
HETATM   11  N   UNK A   0     -11.781   6.399  69.220  1.00  0.00    -0.537 NA 
HETATM   12  N   UNK A   0     -12.731   7.487  71.155  1.00  0.00    -0.282 NA 
HETATM   13  H   UNK A   0     -12.582   5.843  68.920  1.00  0.00     0.000 HD 
HETATM   14  C   UNK A   0     -10.553   6.446  68.603  1.00  0.00    -0.253 A  
HETATM   15  C   UNK A   0      -9.728   7.314  69.310  1.00  0.00    -0.161 A  
ENDROOT
BRANCH  15  16
HETATM   16  C   UNK A   0      -8.329   7.696  68.942  1.00  0.00    -0.129 C  
BRANCH  16  17
HETATM   17  C   UNK A   0      -8.219   8.432  67.596  1.00  0.00    -0.126 C  
BRANCH  17  18
HETATM   18  C   UNK A   0      -9.050   9.702  67.530  1.00  0.00    -0.142 A  
HETATM   19  C   UNK A   0     -10.160   9.806  66.683  1.00  0.00    -0.303 A  
HETATM   20  C   UNK A   0     -10.840  11.015  66.540  1.00  0.00    -0.269 A  
HETATM   21  C   UNK A   0     -10.435  12.139  67.264  1.00  0.00    -0.238 A  
HETATM   22  C   UNK A   0      -9.412  12.021  68.208  1.00  0.00    -0.199 A  
HETATM   23  C   UNK A   0      -8.721  10.807  68.336  1.00  0.00    -0.142 A  
BRANCH  21  24
HETATM   24  C   UNK A   0     -11.046  13.468  66.979  1.00  0.00    -0.296 C  
HETATM   25  O   UNK A   0     -12.195  13.601  66.576  1.00  0.00    -0.419 OA 
ATOM     26  N   GLU A   1     -10.226  14.548  67.239  1.00  0.00    -0.254 N  
ATOM     27  H   GLU A   1      -9.279  14.381  67.581  1.00  0.00     0.000 HD 
BRANCH  26  28
ATOM     28  CA  GLU A   1     -10.677  15.916  67.039  1.00  0.00    -0.292 C  
ATOM     29  C   GLU A   1     -10.149  16.424  65.692  1.00  0.00    -0.286 C  
ATOM     30  O   GLU A   1     -10.980  16.167  64.656  1.00  0.00    -0.642 OA 
ATOM     31  OXT GLU A   1      -9.070  16.998  65.548  1.00  0.00    -0.380 OA 
BRANCH  28  32
ATOM     32  CB  GLU A   1     -10.196  16.823  68.180  1.00  0.00    -0.301 C  
BRANCH  32  33
ATOM     33  CG  GLU A   1     -10.769  18.234  68.062  1.00  0.00    -0.290 C  
ATOM     34  CD  GLU A   1      -9.794  19.255  68.584  1.00  0.00    -0.431 C  
ATOM     35  OE1 GLU A   1      -8.974  19.754  67.635  1.00  0.00    -0.313 OA 
ATOM     36  OE2 GLU A   1      -9.723  19.581  69.759  1.00  0.00    -0.085 OA 
ENDBRANCH  32  33
ENDBRANCH  28  32
ENDBRANCH  26  28
ENDBRANCH  21  24
ENDBRANCH  17  18
ENDBRANCH  16  17
ENDBRANCH  15  16
TORSDOF 7
ENDMDL
MODEL       47
REMARK 921   NORMALIZED FREE ENERGY PREDICTED BY IDOCK:   -5.66 KCAL/MOL
REMARK 922        TOTAL FREE ENERGY PREDICTED BY IDOCK:  -10.62 KCAL/MOL
REMARK 923 INTER-LIGAND FREE ENERGY PREDICTED BY IDOCK:   -9.26 KCAL/MOL
REMARK 924 INTRA-LIGAND FREE ENERGY PREDICTED BY IDOCK:   -1.36 KCAL/MOL
REMARK 927      BINDING AFFINITY PREDICTED BY RF-SCORE:    0.00 PKD
ROOT
HETATM    1  N   UNK A   0      -7.737   2.750  69.678  1.00  0.00    -0.043 NA 
HETATM    2  H1  UNK A   0      -7.169   2.160  70.285  1.00  0.00     0.000 HD 
HETATM    3  C   UNK A   0      -8.683   3.575  70.196  1.00  0.00    -0.067 C  
HETATM    4  H2  UNK A   0      -7.594   2.719  68.668  1.00  0.00     0.000 HD 
HETATM    5  N   UNK A   0      -9.408   4.327  69.421  1.00  0.00    -0.149 N  
HETATM    6  H   UNK A   0      -9.285   4.289  68.409  1.00  0.00     0.000 HD 
HETATM    7  C   UNK A   0     -10.357   5.185  69.982  1.00  0.00    -0.276 C  
HETATM    8  C   UNK A   0     -10.420   5.196  71.446  1.00  0.00    -0.249 A  
HETATM    9  O   UNK A   0     -11.090   5.894  69.304  1.00  0.00    -0.360 OA 
HETATM   10  C   UNK A   0      -9.609   4.355  72.158  1.00  0.00    -0.151 A  
HETATM   11  N   UNK A   0      -9.792   4.538  73.489  1.00  0.00    -0.134 NA 
HETATM   12  N   UNK A   0      -8.751   3.517  71.563  1.00  0.00    -0.086 NA 
HETATM   13  H   UNK A   0      -9.310   4.036  74.235  1.00  0.00     0.000 HD 
HETATM   14  C   UNK A   0     -10.742   5.517  73.655  1.00  0.00    -0.282 A  
HETATM   15  C   UNK A   0     -11.160   5.955  72.403  1.00  0.00    -0.328 A  
ENDROOT
BRANCH  15  16
HETATM   16  C   UNK A   0     -12.140   7.053  72.135  1.00  0.00    -0.281 C  
BRANCH  16  17
HETATM   17  C   UNK A   0     -11.589   8.461  72.416  1.00  0.00    -0.450 C  
BRANCH  17  18
HETATM   18  C   UNK A   0     -11.725   9.411  71.238  1.00  0.00    -0.432 A  
HETATM   19  C   UNK A   0     -11.183   9.102  69.984  1.00  0.00    -0.168 A  
HETATM   20  C   UNK A   0     -11.207  10.033  68.946  1.00  0.00    -0.179 A  
HETATM   21  C   UNK A   0     -11.798  11.284  69.138  1.00  0.00    -0.423 A  
HETATM   22  C   UNK A   0     -12.456  11.561  70.338  1.00  0.00    -0.324 A  
HETATM   23  C   UNK A   0     -12.414  10.628  71.385  1.00  0.00    -0.496 A  
BRANCH  21  24
HETATM   24  C   UNK A   0     -11.667  12.337  68.092  1.00  0.00    -0.349 C  
HETATM   25  O   UNK A   0     -11.655  13.534  68.349  1.00  0.00    -0.297 OA 
ATOM     26  N   GLU A   1     -11.523  11.857  66.805  1.00  0.00    -0.335 N  
ATOM     27  H   GLU A   1     -11.533  10.849  66.647  1.00  0.00     0.000 HD 
BRANCH  26  28
ATOM     28  CA  GLU A   1     -11.358  12.751  65.670  1.00  0.00    -0.319 C  
ATOM     29  C   GLU A   1     -12.722  12.974  65.007  1.00  0.00    -0.410 C  
ATOM     30  O   GLU A   1     -13.409  14.017  65.525  1.00  0.00    -0.673 OA 
ATOM     31  OXT GLU A   1     -13.171  12.272  64.100  1.00  0.00    -0.745 OA 
BRANCH  28  32
ATOM     32  CB  GLU A   1     -10.359  12.172  64.658  1.00  0.00    -0.328 C  
BRANCH  32  33
ATOM     33  CG  GLU A   1      -9.282  11.332  65.343  1.00  0.00    -0.202 C  
ATOM     34  CD  GLU A   1      -9.544   9.863  65.149  1.00  0.00    -0.300 C  
ATOM     35  OE1 GLU A   1      -8.937   9.343  64.062  1.00  0.00    -0.213 OA 
ATOM     36  OE2 GLU A   1     -10.265   9.203  65.883  1.00  0.00    -0.209 OA 
ENDBRANCH  32  33
ENDBRANCH  28  32
ENDBRANCH  26  28
ENDBRANCH  21  24
ENDBRANCH  17  18
ENDBRANCH  16  17
ENDBRANCH  15  16
TORSDOF 7
ENDMDL
MODEL       48
REMARK 921   NORMALIZED FREE ENERGY PREDICTED BY IDOCK:   -5.66 KCAL/MOL
REMARK 922        TOTAL FREE ENERGY PREDICTED BY IDOCK:  -10.62 KCAL/MOL
REMARK 923 INTER-LIGAND FREE ENERGY PREDICTED BY IDOCK:   -9.74 KCAL/MOL
REMARK 924 INTRA-LIGAND FREE ENERGY PREDICTED BY IDOCK:   -0.87 KCAL/MOL
REMARK 927      BINDING AFFINITY PREDICTED BY RF-SCORE:    0.00 PKD
ROOT
HETATM    1  N   UNK A   0      -9.847   3.973  70.620  1.00  0.00    -0.194 NA 
HETATM    2  H1  UNK A   0      -9.963   3.428  71.473  1.00  0.00     0.000 HD 
HETATM    3  C   UNK A   0     -10.347   5.233  70.526  1.00  0.00    -0.266 C  
HETATM    4  H2  UNK A   0      -9.350   3.568  69.827  1.00  0.00     0.000 HD 
HETATM    5  N   UNK A   0     -10.198   5.928  69.437  1.00  0.00    -0.199 N  
HETATM    6  H   UNK A   0      -9.718   5.525  68.632  1.00  0.00     0.000 HD 
HETATM    7  C   UNK A   0     -10.700   7.231  69.375  1.00  0.00    -0.225 C  
HETATM    8  C   UNK A   0     -11.330   7.730  70.601  1.00  0.00    -0.275 A  
HETATM    9  O   UNK A   0     -10.619   7.924  68.369  1.00  0.00    -0.188 OA 
HETATM   10  C   UNK A   0     -11.434   6.902  71.685  1.00  0.00    -0.275 A  
HETATM   11  N   UNK A   0     -12.011   7.555  72.723  1.00  0.00    -0.575 NA 
HETATM   12  N   UNK A   0     -10.977   5.644  71.671  1.00  0.00    -0.240 NA 
HETATM   13  H   UNK A   0     -12.204   7.165  73.646  1.00  0.00     0.000 HD 
HETATM   14  C   UNK A   0     -12.293   8.837  72.313  1.00  0.00    -0.378 A  
HETATM   15  C   UNK A   0     -11.883   8.987  70.992  1.00  0.00    -0.339 A  
ENDROOT
BRANCH  15  16
HETATM   16  C   UNK A   0     -11.953  10.244  70.185  1.00  0.00    -0.313 C  
BRANCH  16  17
HETATM   17  C   UNK A   0     -12.571  11.434  70.939  1.00  0.00    -0.453 C  
BRANCH  17  18
HETATM   18  C   UNK A   0     -12.158  12.785  70.380  1.00  0.00    -0.382 A  
HETATM   19  C   UNK A   0     -11.644  12.913  69.084  1.00  0.00    -0.375 A  
HETATM   20  C   UNK A   0     -11.156  14.137  68.627  1.00  0.00    -0.283 A  
HETATM   21  C   UNK A   0     -11.196  15.263  69.453  1.00  0.00    -0.291 A  
HETATM   22  C   UNK A   0     -11.822  15.183  70.698  1.00  0.00    -0.371 A  
HETATM   23  C   UNK A   0     -12.297  13.947  71.161  1.00  0.00    -0.440 A  
BRANCH  21  24
HETATM   24  C   UNK A   0     -10.516  16.520  69.031  1.00  0.00    -0.303 C  
HETATM   25  O   UNK A   0     -10.318  17.459  69.792  1.00  0.00    -0.065 OA 
ATOM     26  N   GLU A   1     -10.090  16.532  67.718  1.00  0.00    -0.257 N  
ATOM     27  H   GLU A   1     -10.273  15.720  67.128  1.00  0.00     0.000 HD 
BRANCH  26  28
ATOM     28  CA  GLU A   1      -9.385  17.673  67.154  1.00  0.00    -0.245 C  
ATOM     29  C   GLU A   1     -10.361  18.488  66.297  1.00  0.00    -0.427 C  
ATOM     30  O   GLU A   1     -11.021  19.442  66.993  1.00  0.00    -0.467 OA 
ATOM     31  OXT GLU A   1     -10.549  18.297  65.096  1.00  0.00    -0.456 OA 
BRANCH  28  32
ATOM     32  CB  GLU A   1      -8.187  17.214  66.311  1.00  0.00    -0.306 C  
BRANCH  32  33
ATOM     33  CG  GLU A   1      -6.964  18.102  66.533  1.00  0.00    -0.252 C  
ATOM     34  CD  GLU A   1      -7.001  19.303  65.629  1.00  0.00    -0.270 C  
ATOM     35  OE1 GLU A   1      -7.600  20.379  66.182  1.00  0.00    -0.229 OA 
ATOM     36  OE2 GLU A   1      -6.564  19.303  64.487  1.00  0.00    -0.403 OA 
ENDBRANCH  32  33
ENDBRANCH  28  32
ENDBRANCH  26  28
ENDBRANCH  21  24
ENDBRANCH  17  18
ENDBRANCH  16  17
ENDBRANCH  15  16
TORSDOF 7
ENDMDL
MODEL       49
REMARK 921   NORMALIZED FREE ENERGY PREDICTED BY IDOCK:   -5.66 KCAL/MOL
REMARK 922        TOTAL FREE ENERGY PREDICTED BY IDOCK:  -10.62 KCAL/MOL
REMARK 923 INTER-LIGAND FREE ENERGY PREDICTED BY IDOCK:   -9.47 KCAL/MOL
REMARK 924 INTRA-LIGAND FREE ENERGY PREDICTED BY IDOCK:   -1.14 KCAL/MOL
REMARK 927      BINDING AFFINITY PREDICTED BY RF-SCORE:    0.00 PKD
ROOT
HETATM    1  N   UNK A   0      -9.126   3.204  74.450  1.00  0.00    -0.082 NA 
HETATM    2  H1  UNK A   0      -9.381   3.489  75.395  1.00  0.00     0.000 HD 
HETATM    3  C   UNK A   0      -9.642   3.841  73.368  1.00  0.00    -0.107 C  
HETATM    4  H2  UNK A   0      -8.474   2.430  74.316  1.00  0.00     0.000 HD 
HETATM    5  N   UNK A   0      -9.316   3.477  72.163  1.00  0.00    -0.112 N  
HETATM    6  H   UNK A   0      -8.680   2.693  72.019  1.00  0.00     0.000 HD 
HETATM    7  C   UNK A   0      -9.842   4.166  71.067  1.00  0.00    -0.177 C  
HETATM    8  C   UNK A   0     -10.708   5.305  71.385  1.00  0.00    -0.203 A  
HETATM    9  O   UNK A   0      -9.597   3.852  69.909  1.00  0.00    -0.188 OA 
HETATM   10  C   UNK A   0     -10.985   5.590  72.695  1.00  0.00    -0.270 A  
HETATM   11  N   UNK A   0     -11.769   6.692  72.782  1.00  0.00    -0.485 NA 
HETATM   12  N   UNK A   0     -10.490   4.863  73.704  1.00  0.00    -0.215 NA 
HETATM   13  H   UNK A   0     -12.118   7.114  73.642  1.00  0.00     0.000 HD 
HETATM   14  C   UNK A   0     -12.013   7.139  71.505  1.00  0.00    -0.326 A  
HETATM   15  C   UNK A   0     -11.368   6.300  70.603  1.00  0.00    -0.409 A  
ENDROOT
BRANCH  15  16
HETATM   16  C   UNK A   0     -11.328   6.467  69.117  1.00  0.00    -0.366 C  
BRANCH  16  17
HETATM   17  C   UNK A   0     -10.069   7.186  68.605  1.00  0.00    -0.177 C  
BRANCH  17  18
HETATM   18  C   UNK A   0     -10.322   8.623  68.181  1.00  0.00    -0.267 A  
HETATM   19  C   UNK A   0     -10.670   9.609  69.112  1.00  0.00    -0.237 A  
HETATM   20  C   UNK A   0     -11.019  10.893  68.697  1.00  0.00    -0.274 A  
HETATM   21  C   UNK A   0     -11.002  11.222  67.339  1.00  0.00    -0.337 A  
HETATM   22  C   UNK A   0     -10.533  10.291  66.409  1.00  0.00    -0.233 A  
HETATM   23  C   UNK A   0     -10.200   8.995  66.830  1.00  0.00    -0.339 A  
BRANCH  21  24
HETATM   24  C   UNK A   0     -11.543  12.533  66.883  1.00  0.00    -0.370 C  
HETATM   25  O   UNK A   0     -12.297  12.647  65.925  1.00  0.00    -0.593 OA 
ATOM     26  N   GLU A   1     -11.156  13.614  67.650  1.00  0.00    -0.266 N  
ATOM     27  H   GLU A   1     -10.531  13.463  68.442  1.00  0.00     0.000 HD 
BRANCH  26  28
ATOM     28  CA  GLU A   1     -11.616  14.963  67.357  1.00  0.00    -0.332 C  
ATOM     29  C   GLU A   1     -10.616  15.636  66.409  1.00  0.00    -0.308 C  
ATOM     30  O   GLU A   1     -10.890  15.430  65.101  1.00  0.00    -0.378 OA 
ATOM     31  OXT GLU A   1      -9.644  16.292  66.785  1.00  0.00    -0.223 OA 
BRANCH  28  32
ATOM     32  CB  GLU A   1     -11.767  15.782  68.646  1.00  0.00    -0.353 C  
BRANCH  32  33
ATOM     33  CG  GLU A   1     -11.933  14.884  69.871  1.00  0.00    -0.376 C  
ATOM     34  CD  GLU A   1     -12.566  15.639  71.008  1.00  0.00    -0.459 C  
ATOM     35  OE1 GLU A   1     -13.912  15.543  71.038  1.00  0.00    -0.535 OA 
ATOM     36  OE2 GLU A   1     -11.932  16.305  71.812  1.00  0.00    -0.478 OA 
ENDBRANCH  32  33
ENDBRANCH  28  32
ENDBRANCH  26  28
ENDBRANCH  21  24
ENDBRANCH  17  18
ENDBRANCH  16  17
ENDBRANCH  15  16
TORSDOF 7
ENDMDL
MODEL       50
REMARK 921   NORMALIZED FREE ENERGY PREDICTED BY IDOCK:   -5.66 KCAL/MOL
REMARK 922        TOTAL FREE ENERGY PREDICTED BY IDOCK:  -10.62 KCAL/MOL
REMARK 923 INTER-LIGAND FREE ENERGY PREDICTED BY IDOCK:   -9.28 KCAL/MOL
REMARK 924 INTRA-LIGAND FREE ENERGY PREDICTED BY IDOCK:   -1.34 KCAL/MOL
REMARK 927      BINDING AFFINITY PREDICTED BY RF-SCORE:    0.00 PKD
ROOT
HETATM    1  N   UNK A   0     -14.056   9.054  72.894  1.00  0.00    -1.110 NA 
HETATM    2  H1  UNK A   0     -14.249   8.421  73.670  1.00  0.00     0.000 HD 
HETATM    3  C   UNK A   0     -12.832   9.082  72.307  1.00  0.00    -0.406 C  
HETATM    4  H2  UNK A   0     -14.793   9.673  72.554  1.00  0.00     0.000 HD 
HETATM    5  N   UNK A   0     -12.586   9.889  71.317  1.00  0.00    -0.352 N  
HETATM    6  H   UNK A   0     -13.311  10.525  70.983  1.00  0.00     0.000 HD 
HETATM    7  C   UNK A   0     -11.326   9.880  70.715  1.00  0.00    -0.353 C  
HETATM    8  C   UNK A   0     -10.375   8.897  71.241  1.00  0.00    -0.355 A  
HETATM    9  O   UNK A   0     -11.024  10.636  69.801  1.00  0.00    -0.257 OA 
HETATM   10  C   UNK A   0     -10.745   8.103  72.292  1.00  0.00    -0.313 A  
HETATM   11  N   UNK A   0      -9.746   7.242  72.608  1.00  0.00    -0.152 NA 
HETATM   12  N   UNK A   0     -11.953   8.189  72.862  1.00  0.00    -0.232 NA 
HETATM   13  H   UNK A   0      -9.768   6.545  73.352  1.00  0.00     0.000 HD 
HETATM   14  C   UNK A   0      -8.699   7.476  71.749  1.00  0.00    -0.115 A  
HETATM   15  C   UNK A   0      -9.051   8.502  70.879  1.00  0.00    -0.208 A  
ENDROOT
BRANCH  15  16
HETATM   16  C   UNK A   0      -8.220   9.025  69.750  1.00  0.00    -0.122 C  
BRANCH  16  17
HETATM   17  C   UNK A   0      -7.195  10.090  70.174  1.00  0.00    -0.167 C  
BRANCH  17  18
HETATM   18  C   UNK A   0      -7.222  11.337  69.307  1.00  0.00    -0.094 A  
HETATM   19  C   UNK A   0      -6.526  12.496  69.672  1.00  0.00    -0.057 A  
HETATM   20  C   UNK A   0      -6.658  13.672  68.934  1.00  0.00    -0.105 A  
HETATM   21  C   UNK A   0      -7.472  13.701  67.799  1.00  0.00    -0.172 A  
HETATM   22  C   UNK A   0      -8.071  12.523  67.348  1.00  0.00    -0.180 A  
HETATM   23  C   UNK A   0      -7.949  11.347  68.103  1.00  0.00    -0.133 A  
BRANCH  21  24
HETATM   24  C   UNK A   0      -7.751  14.996  67.117  1.00  0.00    -0.167 C  
HETATM   25  O   UNK A   0      -6.870  15.782  66.791  1.00  0.00    -0.229 OA 
ATOM     26  N   GLU A   1      -9.085  15.230  66.847  1.00  0.00    -0.223 N  
ATOM     27  H   GLU A   1      -9.779  14.539  67.134  1.00  0.00     0.000 HD 
BRANCH  26  28
ATOM     28  CA  GLU A   1      -9.526  16.436  66.163  1.00  0.00    -0.329 C  
ATOM     29  C   GLU A   1      -9.957  17.472  67.207  1.00  0.00    -0.312 C  
ATOM     30  O   GLU A   1      -8.947  18.270  67.622  1.00  0.00    -0.262 OA 
ATOM     31  OXT GLU A   1     -11.102  17.574  67.647  1.00  0.00    -0.209 OA 
BRANCH  28  32
ATOM     32  CB  GLU A   1     -10.685  16.127  65.205  1.00  0.00    -0.391 C  
BRANCH  32  33
ATOM     33  CG  GLU A   1     -10.872  14.624  65.006  1.00  0.00    -0.431 C  
ATOM     34  CD  GLU A   1     -12.317  14.291  64.752  1.00  0.00    -0.426 C  
ATOM     35  OE1 GLU A   1     -12.647  14.275  63.444  1.00  0.00    -0.777 OA 
ATOM     36  OE2 GLU A   1     -13.129  14.087  65.643  1.00  0.00    -0.639 OA 
ENDBRANCH  32  33
ENDBRANCH  28  32
ENDBRANCH  26  28
ENDBRANCH  21  24
ENDBRANCH  17  18
ENDBRANCH  16  17
ENDBRANCH  15  16
TORSDOF 7
ENDMDL
MODEL       51
REMARK 921   NORMALIZED FREE ENERGY PREDICTED BY IDOCK:   -5.66 KCAL/MOL
REMARK 922        TOTAL FREE ENERGY PREDICTED BY IDOCK:  -10.61 KCAL/MOL
REMARK 923 INTER-LIGAND FREE ENERGY PREDICTED BY IDOCK:   -9.20 KCAL/MOL
REMARK 924 INTRA-LIGAND FREE ENERGY PREDICTED BY IDOCK:   -1.41 KCAL/MOL
REMARK 927      BINDING AFFINITY PREDICTED BY RF-SCORE:    0.00 PKD
ROOT
HETATM    1  N   UNK A   0     -12.790  16.319  74.547  1.00  0.00    -0.971 NA 
HETATM    2  H1  UNK A   0     -12.366  17.236  74.679  1.00  0.00     0.000 HD 
HETATM    3  C   UNK A   0     -12.665  15.658  73.367  1.00  0.00    -0.542 C  
HETATM    4  H2  UNK A   0     -13.315  15.892  75.310  1.00  0.00     0.000 HD 
HETATM    5  N   UNK A   0     -13.206  14.487  73.199  1.00  0.00    -0.481 N  
HETATM    6  H   UNK A   0     -13.749  14.061  73.950  1.00  0.00     0.000 HD 
HETATM    7  C   UNK A   0     -13.041  13.818  71.984  1.00  0.00    -0.396 C  
HETATM    8  C   UNK A   0     -12.206  14.497  70.990  1.00  0.00    -0.407 A  
HETATM    9  O   UNK A   0     -13.551  12.729  71.755  1.00  0.00    -0.324 OA 
HETATM   10  C   UNK A   0     -11.692  15.732  71.279  1.00  0.00    -0.440 A  
HETATM   11  N   UNK A   0     -10.925  16.175  70.253  1.00  0.00    -0.353 NA 
HETATM   12  N   UNK A   0     -11.925  16.348  72.444  1.00  0.00    -0.529 NA 
HETATM   13  H   UNK A   0     -10.429  17.066  70.216  1.00  0.00     0.000 HD 
HETATM   14  C   UNK A   0     -10.935  15.213  69.271  1.00  0.00    -0.258 A  
HETATM   15  C   UNK A   0     -11.723  14.148  69.692  1.00  0.00    -0.372 A  
ENDROOT
BRANCH  15  16
HETATM   16  C   UNK A   0     -11.951  12.871  68.948  1.00  0.00    -0.291 C  
BRANCH  16  17
HETATM   17  C   UNK A   0     -10.699  11.983  68.839  1.00  0.00    -0.222 C  
BRANCH  17  18
HETATM   18  C   UNK A   0     -10.848  10.638  69.529  1.00  0.00    -0.303 A  
HETATM   19  C   UNK A   0     -11.655  10.485  70.663  1.00  0.00    -0.445 A  
HETATM   20  C   UNK A   0     -11.688   9.277  71.359  1.00  0.00    -0.431 A  
HETATM   21  C   UNK A   0     -10.930   8.190  70.917  1.00  0.00    -0.266 A  
HETATM   22  C   UNK A   0     -10.221   8.285  69.717  1.00  0.00    -0.204 A  
HETATM   23  C   UNK A   0     -10.178   9.507  69.030  1.00  0.00    -0.211 A  
BRANCH  21  24
HETATM   24  C   UNK A   0     -10.827   6.964  71.756  1.00  0.00    -0.225 C  
HETATM   25  O   UNK A   0     -11.569   6.741  72.705  1.00  0.00    -0.232 OA 
ATOM     26  N   GLU A   1      -9.849   6.074  71.360  1.00  0.00    -0.171 N  
ATOM     27  H   GLU A   1      -9.262   6.305  70.558  1.00  0.00     0.000 HD 
BRANCH  26  28
ATOM     28  CA  GLU A   1      -9.633   4.815  72.056  1.00  0.00    -0.149 C  
ATOM     29  C   GLU A   1      -8.293   4.879  72.799  1.00  0.00    -0.112 C  
ATOM     30  O   GLU A   1      -8.395   5.371  74.054  1.00  0.00    -0.113 OA 
ATOM     31  OXT GLU A   1      -7.217   4.533  72.310  1.00  0.00    -0.066 OA 
BRANCH  28  32
ATOM     32  CB  GLU A   1      -9.645   3.637  71.073  1.00  0.00    -0.246 C  
BRANCH  32  33
ATOM     33  CG  GLU A   1      -9.841   4.104  69.631  1.00  0.00    -0.208 C  
ATOM     34  CD  GLU A   1      -8.519   4.237  68.926  1.00  0.00    -0.082 C  
ATOM     35  OE1 GLU A   1      -8.139   3.119  68.272  1.00  0.00    -0.068 OA 
ATOM     36  OE2 GLU A   1      -7.831   5.247  68.965  1.00  0.00    -0.080 OA 
ENDBRANCH  32  33
ENDBRANCH  28  32
ENDBRANCH  26  28
ENDBRANCH  21  24
ENDBRANCH  17  18
ENDBRANCH  16  17
ENDBRANCH  15  16
TORSDOF 7
ENDMDL
MODEL       52
REMARK 921   NORMALIZED FREE ENERGY PREDICTED BY IDOCK:   -5.63 KCAL/MOL
REMARK 922        TOTAL FREE ENERGY PREDICTED BY IDOCK:  -10.58 KCAL/MOL
REMARK 923 INTER-LIGAND FREE ENERGY PREDICTED BY IDOCK:   -9.29 KCAL/MOL
REMARK 924 INTRA-LIGAND FREE ENERGY PREDICTED BY IDOCK:   -1.29 KCAL/MOL
REMARK 927      BINDING AFFINITY PREDICTED BY RF-SCORE:    0.00 PKD
ROOT
HETATM    1  N   UNK A   0     -11.484   4.914  73.079  1.00  0.00    -0.281 NA 
HETATM    2  H1  UNK A   0     -10.532   4.591  73.248  1.00  0.00     0.000 HD 
HETATM    3  C   UNK A   0     -11.720   6.139  72.545  1.00  0.00    -0.214 C  
HETATM    4  H2  UNK A   0     -12.270   4.307  73.314  1.00  0.00     0.000 HD 
HETATM    5  N   UNK A   0     -12.935   6.550  72.329  1.00  0.00    -0.531 N  
HETATM    6  H   UNK A   0     -13.727   5.958  72.579  1.00  0.00     0.000 HD 
HETATM    7  C   UNK A   0     -13.149   7.806  71.756  1.00  0.00    -0.322 C  
HETATM    8  C   UNK A   0     -11.942   8.555  71.393  1.00  0.00    -0.345 A  
HETATM    9  O   UNK A   0     -14.268   8.260  71.557  1.00  0.00    -0.412 OA 
HETATM   10  C   UNK A   0     -10.713   8.022  71.674  1.00  0.00    -0.232 A  
HETATM   11  N   UNK A   0      -9.730   8.845  71.234  1.00  0.00    -0.262 NA 
HETATM   12  N   UNK A   0     -10.570   6.832  72.270  1.00  0.00    -0.209 NA 
HETATM   13  H   UNK A   0      -8.727   8.681  71.319  1.00  0.00     0.000 HD 
HETATM   14  C   UNK A   0     -10.324   9.940  70.653  1.00  0.00    -0.187 A  
HETATM   15  C   UNK A   0     -11.706   9.798  70.731  1.00  0.00    -0.407 A  
ENDROOT
BRANCH  15  16
HETATM   16  C   UNK A   0     -12.722  10.738  70.167  1.00  0.00    -0.232 C  
BRANCH  16  17
HETATM   17  C   UNK A   0     -12.972  11.981  71.038  1.00  0.00    -0.175 C  
BRANCH  17  18
HETATM   18  C   UNK A   0     -12.185  13.202  70.592  1.00  0.00    -0.402 A  
HETATM   19  C   UNK A   0     -12.126  14.360  71.377  1.00  0.00    -0.397 A  
HETATM   20  C   UNK A   0     -11.504  15.514  70.902  1.00  0.00    -0.410 A  
HETATM   21  C   UNK A   0     -10.907  15.522  69.639  1.00  0.00    -0.285 A  
HETATM   22  C   UNK A   0     -10.844  14.340  68.898  1.00  0.00    -0.272 A  
HETATM   23  C   UNK A   0     -11.485  13.187  69.372  1.00  0.00    -0.321 A  
BRANCH  21  24
HETATM   24  C   UNK A   0     -10.402  16.800  69.063  1.00  0.00    -0.326 C  
HETATM   25  O   UNK A   0     -10.391  17.854  69.686  1.00  0.00    -0.020 OA 
ATOM     26  N   GLU A   1      -9.912  16.699  67.776  1.00  0.00    -0.256 N  
ATOM     27  H   GLU A   1      -9.938  15.794  67.304  1.00  0.00     0.000 HD 
BRANCH  26  28
ATOM     28  CA  GLU A   1      -9.358  17.848  67.076  1.00  0.00    -0.267 C  
ATOM     29  C   GLU A   1     -10.487  18.569  66.331  1.00  0.00    -0.406 C  
ATOM     30  O   GLU A   1     -11.101  19.519  67.073  1.00  0.00    -0.424 OA 
ATOM     31  OXT GLU A   1     -10.824  18.313  65.175  1.00  0.00    -0.656 OA 
BRANCH  28  32
ATOM     32  CB  GLU A   1      -8.260  17.413  66.095  1.00  0.00    -0.237 C  
BRANCH  32  33
ATOM     33  CG  GLU A   1      -7.681  16.048  66.461  1.00  0.00    -0.167 C  
ATOM     34  CD  GLU A   1      -6.473  16.197  67.346  1.00  0.00    -0.182 C  
ATOM     35  OE1 GLU A   1      -6.762  16.175  68.664  1.00  0.00    -0.120 OA 
ATOM     36  OE2 GLU A   1      -5.340  16.358  66.919  1.00  0.00    -0.330 OA 
ENDBRANCH  32  33
ENDBRANCH  28  32
ENDBRANCH  26  28
ENDBRANCH  21  24
ENDBRANCH  17  18
ENDBRANCH  16  17
ENDBRANCH  15  16
TORSDOF 7
ENDMDL
MODEL       53
REMARK 921   NORMALIZED FREE ENERGY PREDICTED BY IDOCK:   -5.62 KCAL/MOL
REMARK 922        TOTAL FREE ENERGY PREDICTED BY IDOCK:  -10.56 KCAL/MOL
REMARK 923 INTER-LIGAND FREE ENERGY PREDICTED BY IDOCK:   -9.20 KCAL/MOL
REMARK 924 INTRA-LIGAND FREE ENERGY PREDICTED BY IDOCK:   -1.36 KCAL/MOL
REMARK 927      BINDING AFFINITY PREDICTED BY RF-SCORE:    0.00 PKD
ROOT
HETATM    1  N   UNK A   0      -7.641   3.520  69.216  1.00  0.00    -0.052 NA 
HETATM    2  H1  UNK A   0      -7.027   2.962  69.809  1.00  0.00     0.000 HD 
HETATM    3  C   UNK A   0      -8.695   4.194  69.745  1.00  0.00    -0.074 C  
HETATM    4  H2  UNK A   0      -7.461   3.573  68.213  1.00  0.00     0.000 HD 
HETATM    5  N   UNK A   0      -9.478   4.906  68.989  1.00  0.00    -0.132 N  
HETATM    6  H   UNK A   0      -9.317   4.950  67.983  1.00  0.00     0.000 HD 
HETATM    7  C   UNK A   0     -10.540   5.609  69.563  1.00  0.00    -0.314 C  
HETATM    8  C   UNK A   0     -10.653   5.516  71.021  1.00  0.00    -0.300 A  
HETATM    9  O   UNK A   0     -11.329   6.271  68.901  1.00  0.00    -0.373 OA 
HETATM   10  C   UNK A   0      -9.772   4.729  71.712  1.00  0.00    -0.166 A  
HETATM   11  N   UNK A   0     -10.019   4.801  73.043  1.00  0.00    -0.148 NA 
HETATM   12  N   UNK A   0      -8.801   4.038  71.102  1.00  0.00    -0.089 NA 
HETATM   13  H   UNK A   0      -9.506   4.311  73.776  1.00  0.00     0.000 HD 
HETATM   14  C   UNK A   0     -11.084   5.651  73.230  1.00  0.00    -0.242 A  
HETATM   15  C   UNK A   0     -11.509   6.119  71.992  1.00  0.00    -0.366 A  
ENDROOT
BRANCH  15  16
HETATM   16  C   UNK A   0     -12.603   7.110  71.752  1.00  0.00    -0.381 C  
BRANCH  16  17
HETATM   17  C   UNK A   0     -12.303   8.513  72.307  1.00  0.00    -0.450 C  
BRANCH  17  18
HETATM   18  C   UNK A   0     -11.731   9.465  71.269  1.00  0.00    -0.432 A  
HETATM   19  C   UNK A   0     -12.469  10.556  70.793  1.00  0.00    -0.472 A  
HETATM   20  C   UNK A   0     -11.983  11.349  69.755  1.00  0.00    -0.422 A  
HETATM   21  C   UNK A   0     -10.735  11.079  69.188  1.00  0.00    -0.274 A  
HETATM   22  C   UNK A   0      -9.931  10.076  69.736  1.00  0.00    -0.276 A  
HETATM   23  C   UNK A   0     -10.431   9.271  70.770  1.00  0.00    -0.343 A  
BRANCH  21  24
HETATM   24  C   UNK A   0     -10.297  11.811  67.967  1.00  0.00    -0.198 C  
HETATM   25  O   UNK A   0      -9.607  11.300  67.094  1.00  0.00    -0.175 OA 
ATOM     26  N   GLU A   1     -10.761  13.109  67.876  1.00  0.00    -0.231 N  
ATOM     27  H   GLU A   1     -11.339  13.484  68.628  1.00  0.00     0.000 HD 
BRANCH  26  28
ATOM     28  CA  GLU A   1     -10.447  13.954  66.734  1.00  0.00    -0.270 C  
ATOM     29  C   GLU A   1      -9.396  14.989  67.154  1.00  0.00    -0.215 C  
ATOM     30  O   GLU A   1      -8.124  14.563  66.986  1.00  0.00    -0.191 OA 
ATOM     31  OXT GLU A   1      -9.667  16.098  67.614  1.00  0.00    -0.229 OA 
BRANCH  28  32
ATOM     32  CB  GLU A   1     -11.708  14.653  66.209  1.00  0.00    -0.325 C  
BRANCH  32  33
ATOM     33  CG  GLU A   1     -12.694  13.660  65.596  1.00  0.00    -0.505 C  
ATOM     34  CD  GLU A   1     -12.209  13.182  64.254  1.00  0.00    -0.396 C  
ATOM     35  OE1 GLU A   1     -11.466  12.058  64.315  1.00  0.00    -0.338 OA 
ATOM     36  OE2 GLU A   1     -12.436  13.770  63.206  1.00  0.00    -0.819 OA 
ENDBRANCH  32  33
ENDBRANCH  28  32
ENDBRANCH  26  28
ENDBRANCH  21  24
ENDBRANCH  17  18
ENDBRANCH  16  17
ENDBRANCH  15  16
TORSDOF 7
ENDMDL
MODEL       54
REMARK 921   NORMALIZED FREE ENERGY PREDICTED BY IDOCK:   -5.57 KCAL/MOL
REMARK 922        TOTAL FREE ENERGY PREDICTED BY IDOCK:  -10.50 KCAL/MOL
REMARK 923 INTER-LIGAND FREE ENERGY PREDICTED BY IDOCK:   -9.16 KCAL/MOL
REMARK 924 INTRA-LIGAND FREE ENERGY PREDICTED BY IDOCK:   -1.33 KCAL/MOL
REMARK 927      BINDING AFFINITY PREDICTED BY RF-SCORE:    0.00 PKD
ROOT
HETATM    1  N   UNK A   0      -9.820  20.268  67.326  1.00  0.00    -0.433 NA 
HETATM    2  H1  UNK A   0      -9.569  20.523  68.280  1.00  0.00     0.000 HD 
HETATM    3  C   UNK A   0     -10.165  18.993  67.014  1.00  0.00    -0.386 C  
HETATM    4  H2  UNK A   0      -9.811  20.981  66.596  1.00  0.00     0.000 HD 
HETATM    5  N   UNK A   0     -10.485  18.668  65.796  1.00  0.00    -0.375 N  
HETATM    6  H   UNK A   0     -10.462  19.370  65.056  1.00  0.00     0.000 HD 
HETATM    7  C   UNK A   0     -10.861  17.354  65.506  1.00  0.00     0.001 C  
HETATM    8  C   UNK A   0     -10.906  16.438  66.649  1.00  0.00    -0.086 A  
HETATM    9  O   UNK A   0     -11.143  16.980  64.375  1.00  0.00    -1.144 OA 
HETATM   10  C   UNK A   0     -10.541  16.892  67.887  1.00  0.00    -0.361 A  
HETATM   11  N   UNK A   0     -10.682  15.911  68.811  1.00  0.00    -0.250 NA 
HETATM   12  N   UNK A   0     -10.142  18.153  68.096  1.00  0.00    -0.357 NA 
HETATM   13  H   UNK A   0     -10.477  15.990  69.807  1.00  0.00     0.000 HD 
HETATM   14  C   UNK A   0     -11.148  14.788  68.168  1.00  0.00    -0.278 A  
HETATM   15  C   UNK A   0     -11.302  15.076  66.816  1.00  0.00    -0.293 A  
ENDROOT
BRANCH  15  16
HETATM   16  C   UNK A   0     -11.842  14.149  65.774  1.00  0.00    -0.385 C  
BRANCH  16  17
HETATM   17  C   UNK A   0     -10.764  13.552  64.853  1.00  0.00    -0.391 C  
BRANCH  17  18
HETATM   18  C   UNK A   0     -10.417  12.110  65.182  1.00  0.00    -0.317 A  
HETATM   19  C   UNK A   0     -10.638  11.579  66.459  1.00  0.00    -0.301 A  
HETATM   20  C   UNK A   0     -10.203  10.294  66.784  1.00  0.00    -0.286 A  
HETATM   21  C   UNK A   0      -9.561   9.506  65.825  1.00  0.00    -0.337 A  
HETATM   22  C   UNK A   0      -9.449   9.970  64.513  1.00  0.00    -0.359 A  
HETATM   23  C   UNK A   0      -9.872  11.269  64.196  1.00  0.00    -0.323 A  
BRANCH  21  24
HETATM   24  C   UNK A   0      -8.943   8.210  66.221  1.00  0.00    -0.177 C  
HETATM   25  O   UNK A   0      -7.768   8.105  66.553  1.00  0.00    -0.090 OA 
ATOM     26  N   GLU A   1      -9.808   7.134  66.220  1.00  0.00    -0.431 N  
ATOM     27  H   GLU A   1     -10.779   7.277  65.942  1.00  0.00     0.000 HD 
BRANCH  26  28
ATOM     28  CA  GLU A   1      -9.371   5.801  66.605  1.00  0.00    -0.146 C  
ATOM     29  C   GLU A   1      -9.368   4.899  65.366  1.00  0.00    -0.140 C  
ATOM     30  O   GLU A   1      -8.196   4.914  64.691  1.00  0.00    -0.111 OA 
ATOM     31  OXT GLU A   1     -10.333   4.230  64.998  1.00  0.00    -0.232 OA 
BRANCH  28  32
ATOM     32  CB  GLU A   1     -10.286   5.218  67.690  1.00  0.00    -0.208 C  
BRANCH  32  33
ATOM     33  CG  GLU A   1     -11.107   6.304  68.383  1.00  0.00    -0.371 C  
ATOM     34  CD  GLU A   1     -10.415   6.788  69.627  1.00  0.00    -0.214 C  
ATOM     35  OE1 GLU A   1      -9.608   7.850  69.419  1.00  0.00    -0.160 OA 
ATOM     36  OE2 GLU A   1     -10.540   6.256  70.720  1.00  0.00    -0.221 OA 
ENDBRANCH  32  33
ENDBRANCH  28  32
ENDBRANCH  26  28
ENDBRANCH  21  24
ENDBRANCH  17  18
ENDBRANCH  16  17
ENDBRANCH  15  16
TORSDOF 7
ENDMDL
MODEL       55
REMARK 921   NORMALIZED FREE ENERGY PREDICTED BY IDOCK:   -5.53 KCAL/MOL
REMARK 922        TOTAL FREE ENERGY PREDICTED BY IDOCK:  -10.43 KCAL/MOL
REMARK 923 INTER-LIGAND FREE ENERGY PREDICTED BY IDOCK:   -9.07 KCAL/MOL
REMARK 924 INTRA-LIGAND FREE ENERGY PREDICTED BY IDOCK:   -1.36 KCAL/MOL
REMARK 927      BINDING AFFINITY PREDICTED BY RF-SCORE:    0.00 PKD
ROOT
HETATM    1  N   UNK A   0      -7.965   2.445  71.494  1.00  0.00    -0.047 NA 
HETATM    2  H1  UNK A   0      -8.147   2.497  72.496  1.00  0.00     0.000 HD 
HETATM    3  C   UNK A   0      -8.645   3.234  70.622  1.00  0.00    -0.070 C  
HETATM    4  H2  UNK A   0      -7.264   1.793  71.143  1.00  0.00     0.000 HD 
HETATM    5  N   UNK A   0      -8.412   3.168  69.344  1.00  0.00    -0.059 N  
HETATM    6  H   UNK A   0      -7.726   2.506  68.982  1.00  0.00     0.000 HD 
HETATM    7  C   UNK A   0      -9.107   4.008  68.471  1.00  0.00    -0.137 C  
HETATM    8  C   UNK A   0     -10.035   4.954  69.099  1.00  0.00    -0.252 A  
HETATM    9  O   UNK A   0      -8.956   3.972  67.257  1.00  0.00    -0.116 OA 
HETATM   10  C   UNK A   0     -10.201   4.927  70.457  1.00  0.00    -0.218 A  
HETATM   11  N   UNK A   0     -11.068   5.893  70.846  1.00  0.00    -0.271 NA 
HETATM   12  N   UNK A   0      -9.542   4.064  71.241  1.00  0.00    -0.164 NA 
HETATM   13  H   UNK A   0     -11.363   6.086  71.803  1.00  0.00     0.000 HD 
HETATM   14  C   UNK A   0     -11.481   6.568  69.721  1.00  0.00    -0.379 A  
HETATM   15  C   UNK A   0     -10.858   6.012  68.609  1.00  0.00    -0.379 A  
ENDROOT
BRANCH  15  16
HETATM   16  C   UNK A   0     -10.986   6.488  67.197  1.00  0.00    -0.480 C  
BRANCH  16  17
HETATM   17  C   UNK A   0      -9.806   7.354  66.723  1.00  0.00    -0.290 C  
BRANCH  17  18
HETATM   18  C   UNK A   0     -10.132   8.836  66.655  1.00  0.00    -0.358 A  
HETATM   19  C   UNK A   0     -10.683   9.514  67.750  1.00  0.00    -0.302 A  
HETATM   20  C   UNK A   0     -11.090  10.843  67.636  1.00  0.00    -0.376 A  
HETATM   21  C   UNK A   0     -10.930  11.527  66.428  1.00  0.00    -0.336 A  
HETATM   22  C   UNK A   0     -10.265  10.908  65.367  1.00  0.00    -0.339 A  
HETATM   23  C   UNK A   0      -9.873   9.566  65.481  1.00  0.00    -0.304 A  
BRANCH  21  24
HETATM   24  C   UNK A   0     -11.524  12.882  66.256  1.00  0.00    -0.348 C  
HETATM   25  O   UNK A   0     -12.618  13.070  65.739  1.00  0.00    -0.500 OA 
ATOM     26  N   GLU A   1     -10.759  13.916  66.758  1.00  0.00    -0.280 N  
ATOM     27  H   GLU A   1      -9.857  13.704  67.186  1.00  0.00     0.000 HD 
BRANCH  26  28
ATOM     28  CA  GLU A   1     -11.206  15.299  66.694  1.00  0.00    -0.232 C  
ATOM     29  C   GLU A   1     -10.438  16.020  65.580  1.00  0.00    -0.405 C  
ATOM     30  O   GLU A   1     -11.038  15.937  64.371  1.00  0.00    -0.486 OA 
ATOM     31  OXT GLU A   1      -9.370  16.609  65.748  1.00  0.00    -0.501 OA 
BRANCH  28  32
ATOM     32  CB  GLU A   1     -10.988  16.007  68.039  1.00  0.00    -0.341 C  
BRANCH  32  33
ATOM     33  CG  GLU A   1     -12.081  15.656  69.046  1.00  0.00    -0.227 C  
ATOM     34  CD  GLU A   1     -11.596  14.623  70.027  1.00  0.00    -0.284 C  
ATOM     35  OE1 GLU A   1     -11.052  15.151  71.144  1.00  0.00    -0.311 OA 
ATOM     36  OE2 GLU A   1     -11.654  13.419  69.824  1.00  0.00    -0.278 OA 
ENDBRANCH  32  33
ENDBRANCH  28  32
ENDBRANCH  26  28
ENDBRANCH  21  24
ENDBRANCH  17  18
ENDBRANCH  16  17
ENDBRANCH  15  16
TORSDOF 7
ENDMDL
MODEL       56
REMARK 921   NORMALIZED FREE ENERGY PREDICTED BY IDOCK:   -5.52 KCAL/MOL
REMARK 922        TOTAL FREE ENERGY PREDICTED BY IDOCK:  -10.43 KCAL/MOL
REMARK 923 INTER-LIGAND FREE ENERGY PREDICTED BY IDOCK:   -9.22 KCAL/MOL
REMARK 924 INTRA-LIGAND FREE ENERGY PREDICTED BY IDOCK:   -1.21 KCAL/MOL
REMARK 927      BINDING AFFINITY PREDICTED BY RF-SCORE:    0.00 PKD
ROOT
HETATM    1  N   UNK A   0      -9.634   2.954  67.030  1.00  0.00    -0.407 NA 
HETATM    2  H1  UNK A   0     -10.310   2.648  67.729  1.00  0.00     0.000 HD 
HETATM    3  C   UNK A   0      -9.526   4.265  66.694  1.00  0.00    -0.187 C  
HETATM    4  H2  UNK A   0      -9.031   2.267  66.578  1.00  0.00     0.000 HD 
HETATM    5  N   UNK A   0      -8.664   4.655  65.802  1.00  0.00    -0.121 N  
HETATM    6  H   UNK A   0      -8.069   3.973  65.332  1.00  0.00     0.000 HD 
HETATM    7  C   UNK A   0      -8.556   6.013  65.492  1.00  0.00    -0.143 C  
HETATM    8  C   UNK A   0      -9.423   6.913  66.259  1.00  0.00    -0.122 A  
HETATM    9  O   UNK A   0      -7.786   6.439  64.641  1.00  0.00    -0.093 OA 
HETATM   10  C   UNK A   0     -10.297   6.385  67.170  1.00  0.00    -0.232 A  
HETATM   11  N   UNK A   0     -10.981   7.374  67.795  1.00  0.00    -0.504 NA 
HETATM   12  N   UNK A   0     -10.391   5.068  67.391  1.00  0.00    -0.151 NA 
HETATM   13  H   UNK A   0     -11.691   7.249  68.517  1.00  0.00     0.000 HD 
HETATM   14  C   UNK A   0     -10.548   8.576  67.286  1.00  0.00    -0.245 A  
HETATM   15  C   UNK A   0      -9.575   8.331  66.323  1.00  0.00    -0.266 A  
ENDROOT
BRANCH  15  16
HETATM   16  C   UNK A   0      -8.803   9.366  65.567  1.00  0.00    -0.220 C  
BRANCH  16  17
HETATM   17  C   UNK A   0      -9.621  10.079  64.477  1.00  0.00    -0.346 C  
BRANCH  17  18
HETATM   18  C   UNK A   0      -9.983  11.511  64.831  1.00  0.00    -0.303 A  
HETATM   19  C   UNK A   0     -10.696  12.326  63.943  1.00  0.00    -0.463 A  
HETATM   20  C   UNK A   0     -10.916  13.673  64.227  1.00  0.00    -0.317 A  
HETATM   21  C   UNK A   0     -10.446  14.225  65.421  1.00  0.00    -0.382 A  
HETATM   22  C   UNK A   0      -9.847  13.399  66.375  1.00  0.00    -0.299 A  
HETATM   23  C   UNK A   0      -9.613  12.049  66.077  1.00  0.00    -0.247 A  
BRANCH  21  24
HETATM   24  C   UNK A   0     -10.524  15.697  65.642  1.00  0.00    -0.382 C  
HETATM   25  O   UNK A   0     -10.946  16.476  64.797  1.00  0.00    -0.688 OA 
ATOM     26  N   GLU A   1     -10.115  16.114  66.893  1.00  0.00    -0.265 N  
ATOM     27  H   GLU A   1      -9.779  15.422  67.563  1.00  0.00     0.000 HD 
BRANCH  26  28
ATOM     28  CA  GLU A   1     -10.153  17.516  67.281  1.00  0.00    -0.327 C  
ATOM     29  C   GLU A   1      -8.785  18.148  67.000  1.00  0.00    -0.258 C  
ATOM     30  O   GLU A   1      -8.674  18.661  65.753  1.00  0.00    -0.420 OA 
ATOM     31  OXT GLU A   1      -7.861  18.182  67.813  1.00  0.00    -0.228 OA 
BRANCH  28  32
ATOM     32  CB  GLU A   1     -10.517  17.663  68.765  1.00  0.00    -0.287 C  
BRANCH  32  33
ATOM     33  CG  GLU A   1     -10.262  16.373  69.541  1.00  0.00    -0.244 C  
ATOM     34  CD  GLU A   1     -11.492  15.949  70.297  1.00  0.00    -0.366 C  
ATOM     35  OE1 GLU A   1     -12.289  15.108  69.606  1.00  0.00    -0.281 OA 
ATOM     36  OE2 GLU A   1     -11.767  16.352  71.417  1.00  0.00    -0.425 OA 
ENDBRANCH  32  33
ENDBRANCH  28  32
ENDBRANCH  26  28
ENDBRANCH  21  24
ENDBRANCH  17  18
ENDBRANCH  16  17
ENDBRANCH  15  16
TORSDOF 7
ENDMDL
MODEL       57
REMARK 921   NORMALIZED FREE ENERGY PREDICTED BY IDOCK:   -5.50 KCAL/MOL
REMARK 922        TOTAL FREE ENERGY PREDICTED BY IDOCK:  -10.40 KCAL/MOL
REMARK 923 INTER-LIGAND FREE ENERGY PREDICTED BY IDOCK:   -9.22 KCAL/MOL
REMARK 924 INTRA-LIGAND FREE ENERGY PREDICTED BY IDOCK:   -1.18 KCAL/MOL
REMARK 927      BINDING AFFINITY PREDICTED BY RF-SCORE:    0.00 PKD
ROOT
HETATM    1  N   UNK A   0      -5.163   6.347  69.029  1.00  0.00    -0.011 NA 
HETATM    2  H1  UNK A   0      -5.029   5.408  68.657  1.00  0.00     0.000 HD 
HETATM    3  C   UNK A   0      -6.264   6.654  69.763  1.00  0.00    -0.041 C  
HETATM    4  H2  UNK A   0      -4.462   7.066  68.849  1.00  0.00     0.000 HD 
HETATM    5  N   UNK A   0      -6.435   7.853  70.239  1.00  0.00    -0.037 N  
HETATM    6  H   UNK A   0      -5.748   8.582  70.048  1.00  0.00     0.000 HD 
HETATM    7  C   UNK A   0      -7.563   8.135  71.012  1.00  0.00    -0.083 C  
HETATM    8  C   UNK A   0      -8.462   7.005  71.265  1.00  0.00    -0.118 A  
HETATM    9  O   UNK A   0      -7.795   9.250  71.461  1.00  0.00    -0.336 OA 
HETATM   10  C   UNK A   0      -8.181   5.788  70.706  1.00  0.00    -0.123 A  
HETATM   11  N   UNK A   0      -9.106   4.871  71.083  1.00  0.00    -0.137 NA 
HETATM   12  N   UNK A   0      -7.108   5.588  69.932  1.00  0.00    -0.061 NA 
HETATM   13  H   UNK A   0      -9.126   3.890  70.806  1.00  0.00     0.000 HD 
HETATM   14  C   UNK A   0     -10.012   5.498  71.906  1.00  0.00    -0.180 A  
HETATM   15  C   UNK A   0      -9.645   6.833  72.045  1.00  0.00    -0.151 A  
ENDROOT
BRANCH  15  16
HETATM   16  C   UNK A   0     -10.330   7.850  72.902  1.00  0.00    -0.413 C  
BRANCH  16  17
HETATM   17  C   UNK A   0     -11.789   8.123  72.498  1.00  0.00    -0.438 C  
BRANCH  17  18
HETATM   18  C   UNK A   0     -11.951   9.337  71.599  1.00  0.00    -0.448 A  
HETATM   19  C   UNK A   0     -11.169   9.504  70.449  1.00  0.00    -0.323 A  
HETATM   20  C   UNK A   0     -11.241  10.678  69.701  1.00  0.00    -0.351 A  
HETATM   21  C   UNK A   0     -12.118  11.699  70.077  1.00  0.00    -0.395 A  
HETATM   22  C   UNK A   0     -12.996  11.497  71.143  1.00  0.00    -0.329 A  
HETATM   23  C   UNK A   0     -12.908  10.321  71.903  1.00  0.00    -0.528 A  
BRANCH  21  24
HETATM   24  C   UNK A   0     -12.066  13.017  69.384  1.00  0.00    -0.212 C  
HETATM   25  O   UNK A   0     -12.104  14.086  69.981  1.00  0.00    -0.307 OA 
ATOM     26  N   GLU A   1     -11.936  12.943  68.011  1.00  0.00    -0.328 N  
ATOM     27  H   GLU A   1     -11.902  12.026  67.565  1.00  0.00     0.000 HD 
BRANCH  26  28
ATOM     28  CA  GLU A   1     -11.845  14.138  67.186  1.00  0.00    -0.423 C  
ATOM     29  C   GLU A   1     -12.213  13.776  65.743  1.00  0.00    -0.462 C  
ATOM     30  O   GLU A   1     -13.534  13.889  65.479  1.00  0.00    -0.657 OA 
ATOM     31  OXT GLU A   1     -11.400  13.404  64.896  1.00  0.00    -0.311 OA 
BRANCH  28  32
ATOM     32  CB  GLU A   1     -10.432  14.736  67.245  1.00  0.00    -0.264 C  
BRANCH  32  33
ATOM     33  CG  GLU A   1     -10.462  16.263  67.197  1.00  0.00    -0.297 C  
ATOM     34  CD  GLU A   1      -9.945  16.768  65.877  1.00  0.00    -0.276 C  
ATOM     35  OE1 GLU A   1     -10.910  16.947  64.951  1.00  0.00    -0.715 OA 
ATOM     36  OE2 GLU A   1      -8.762  16.967  65.647  1.00  0.00    -0.468 OA 
ENDBRANCH  32  33
ENDBRANCH  28  32
ENDBRANCH  26  28
ENDBRANCH  21  24
ENDBRANCH  17  18
ENDBRANCH  16  17
ENDBRANCH  15  16
TORSDOF 7
ENDMDL
MODEL       58
REMARK 921   NORMALIZED FREE ENERGY PREDICTED BY IDOCK:   -5.50 KCAL/MOL
REMARK 922        TOTAL FREE ENERGY PREDICTED BY IDOCK:  -10.39 KCAL/MOL
REMARK 923 INTER-LIGAND FREE ENERGY PREDICTED BY IDOCK:   -9.06 KCAL/MOL
REMARK 924 INTRA-LIGAND FREE ENERGY PREDICTED BY IDOCK:   -1.33 KCAL/MOL
REMARK 927      BINDING AFFINITY PREDICTED BY RF-SCORE:    0.00 PKD
ROOT
HETATM    1  N   UNK A   0     -13.428  16.104  73.798  1.00  0.00    -0.898 NA 
HETATM    2  H1  UNK A   0     -13.300  17.115  73.764  1.00  0.00     0.000 HD 
HETATM    3  C   UNK A   0     -13.175  15.334  72.708  1.00  0.00    -0.482 C  
HETATM    4  H2  UNK A   0     -13.751  15.666  74.661  1.00  0.00     0.000 HD 
HETATM    5  N   UNK A   0     -13.338  14.045  72.752  1.00  0.00    -0.543 N  
HETATM    6  H   UNK A   0     -13.678  13.599  73.604  1.00  0.00     0.000 HD 
HETATM    7  C   UNK A   0     -13.046  13.273  71.624  1.00  0.00    -0.363 C  
HETATM    8  C   UNK A   0     -12.520  14.005  70.469  1.00  0.00    -0.429 A  
HETATM    9  O   UNK A   0     -13.208  12.060  71.593  1.00  0.00    -0.410 OA 
HETATM   10  C   UNK A   0     -12.396  15.366  70.539  1.00  0.00    -0.408 A  
HETATM   11  N   UNK A   0     -11.864  15.851  69.390  1.00  0.00    -0.351 NA 
HETATM   12  N   UNK A   0     -12.738  16.060  71.631  1.00  0.00    -0.385 NA 
HETATM   13  H   UNK A   0     -11.669  16.831  69.186  1.00  0.00     0.000 HD 
HETATM   14  C   UNK A   0     -11.634  14.788  68.549  1.00  0.00    -0.321 A  
HETATM   15  C   UNK A   0     -12.030  13.617  69.185  1.00  0.00    -0.394 A  
ENDROOT
BRANCH  15  16
HETATM   16  C   UNK A   0     -11.896  12.230  68.642  1.00  0.00    -0.354 C  
BRANCH  16  17
HETATM   17  C   UNK A   0     -10.555  11.556  68.980  1.00  0.00    -0.207 C  
BRANCH  17  18
HETATM   18  C   UNK A   0     -10.679  10.069  69.264  1.00  0.00    -0.249 A  
HETATM   19  C   UNK A   0     -11.093   9.597  70.516  1.00  0.00    -0.369 A  
HETATM   20  C   UNK A   0     -11.085   8.232  70.804  1.00  0.00    -0.280 A  
HETATM   21  C   UNK A   0     -10.685   7.311  69.832  1.00  0.00    -0.257 A  
HETATM   22  C   UNK A   0     -10.393   7.754  68.540  1.00  0.00    -0.226 A  
HETATM   23  C   UNK A   0     -10.386   9.128  68.261  1.00  0.00    -0.256 A  
BRANCH  21  24
HETATM   24  C   UNK A   0     -10.508   5.877  70.195  1.00  0.00    -0.262 C  
HETATM   25  O   UNK A   0     -11.089   5.350  71.134  1.00  0.00    -0.135 OA 
ATOM     26  N   GLU A   1      -9.659   5.173  69.364  1.00  0.00    -0.146 N  
ATOM     27  H   GLU A   1      -9.205   5.659  68.590  1.00  0.00     0.000 HD 
BRANCH  26  28
ATOM     28  CA  GLU A   1      -9.396   3.756  69.563  1.00  0.00    -0.179 C  
ATOM     29  C   GLU A   1      -8.150   3.599  70.442  1.00  0.00    -0.053 C  
ATOM     30  O   GLU A   1      -8.424   3.570  71.766  1.00  0.00    -0.081 OA 
ATOM     31  OXT GLU A   1      -7.002   3.519  70.003  1.00  0.00    -0.040 OA 
BRANCH  28  32
ATOM     32  CB  GLU A   1      -9.197   3.043  68.218  1.00  0.00    -0.244 C  
BRANCH  32  33
ATOM     33  CG  GLU A   1      -8.734   4.007  67.128  1.00  0.00    -0.118 C  
ATOM     34  CD  GLU A   1      -9.790   4.168  66.069  1.00  0.00    -0.196 C  
ATOM     35  OE1 GLU A   1     -10.636   5.194  66.299  1.00  0.00    -0.292 OA 
ATOM     36  OE2 GLU A   1      -9.898   3.423  65.106  1.00  0.00    -0.136 OA 
ENDBRANCH  32  33
ENDBRANCH  28  32
ENDBRANCH  26  28
ENDBRANCH  21  24
ENDBRANCH  17  18
ENDBRANCH  16  17
ENDBRANCH  15  16
TORSDOF 7
ENDMDL
MODEL       59
REMARK 921   NORMALIZED FREE ENERGY PREDICTED BY IDOCK:   -5.48 KCAL/MOL
REMARK 922        TOTAL FREE ENERGY PREDICTED BY IDOCK:  -10.37 KCAL/MOL
REMARK 923 INTER-LIGAND FREE ENERGY PREDICTED BY IDOCK:   -7.64 KCAL/MOL
REMARK 924 INTRA-LIGAND FREE ENERGY PREDICTED BY IDOCK:   -2.74 KCAL/MOL
REMARK 927      BINDING AFFINITY PREDICTED BY RF-SCORE:    0.00 PKD
ROOT
HETATM    1  N   UNK A   0     -13.226  10.474  72.167  1.00  0.00    -0.573 NA 
HETATM    2  H1  UNK A   0     -13.448  10.905  73.064  1.00  0.00     0.000 HD 
HETATM    3  C   UNK A   0     -12.800  11.226  71.120  1.00  0.00    -0.352 C  
HETATM    4  H2  UNK A   0     -13.325   9.464  72.055  1.00  0.00     0.000 HD 
HETATM    5  N   UNK A   0     -12.517  10.675  69.976  1.00  0.00    -0.478 N  
HETATM    6  H   UNK A   0     -12.631   9.669  69.849  1.00  0.00     0.000 HD 
HETATM    7  C   UNK A   0     -12.056  11.468  68.922  1.00  0.00    -0.206 C  
HETATM    8  C   UNK A   0     -11.883  12.892  69.224  1.00  0.00    -0.363 A  
HETATM    9  O   UNK A   0     -11.803  11.014  67.814  1.00  0.00    -0.605 OA 
HETATM   10  C   UNK A   0     -12.221  13.359  70.466  1.00  0.00    -0.352 A  
HETATM   11  N   UNK A   0     -11.958  14.686  70.558  1.00  0.00    -0.291 NA 
HETATM   12  N   UNK A   0     -12.704  12.558  71.423  1.00  0.00    -0.312 NA 
HETATM   13  H   UNK A   0     -12.118  15.274  71.376  1.00  0.00     0.000 HD 
HETATM   14  C   UNK A   0     -11.440  15.099  69.353  1.00  0.00    -0.306 A  
HETATM   15  C   UNK A   0     -11.376  14.009  68.493  1.00  0.00    -0.308 A  
ENDROOT
BRANCH  15  16
HETATM   16  C   UNK A   0     -10.819  14.012  67.105  1.00  0.00    -0.288 C  
BRANCH  16  17
HETATM   17  C   UNK A   0      -9.290  13.856  67.048  1.00  0.00    -0.255 C  
BRANCH  17  18
HETATM   18  C   UNK A   0      -8.818  12.431  67.280  1.00  0.00    -0.192 A  
HETATM   19  C   UNK A   0      -8.932  11.452  66.284  1.00  0.00    -0.205 A  
HETATM   20  C   UNK A   0      -8.609  10.122  66.549  1.00  0.00    -0.132 A  
HETATM   21  C   UNK A   0      -8.142   9.750  67.812  1.00  0.00    -0.113 A  
HETATM   22  C   UNK A   0      -7.900  10.732  68.776  1.00  0.00    -0.129 A  
HETATM   23  C   UNK A   0      -8.242  12.066  68.510  1.00  0.00    -0.113 A  
BRANCH  21  24
HETATM   24  C   UNK A   0      -7.968   8.309  68.147  1.00  0.00    -0.123 C  
HETATM   25  O   UNK A   0      -6.875   7.802  68.365  1.00  0.00    -0.063 OA 
ATOM     26  N   GLU A   1      -9.144   7.589  68.227  1.00  0.00    -0.133 N  
ATOM     27  H   GLU A   1     -10.029   8.062  68.042  1.00  0.00     0.000 HD 
BRANCH  26  28
ATOM     28  CA  GLU A   1      -9.153   6.175  68.569  1.00  0.00    -0.117 C  
ATOM     29  C   GLU A   1      -9.413   5.357  67.298  1.00  0.00    -0.123 C  
ATOM     30  O   GLU A   1      -8.285   5.025  66.631  1.00  0.00    -0.108 OA 
ATOM     31  OXT GLU A   1     -10.534   5.037  66.902  1.00  0.00    -0.234 OA 
BRANCH  28  32
ATOM     32  CB  GLU A   1     -10.223   5.875  69.627  1.00  0.00    -0.281 C  
BRANCH  32  33
ATOM     33  CG  GLU A   1      -9.878   6.505  70.976  1.00  0.00    -0.196 C  
ATOM     34  CD  GLU A   1     -10.648   7.780  71.186  1.00  0.00    -0.217 C  
ATOM     35  OE1 GLU A   1     -11.823   7.603  71.826  1.00  0.00    -0.271 OA 
ATOM     36  OE2 GLU A   1     -10.269   8.871  70.787  1.00  0.00    -0.197 OA 
ENDBRANCH  32  33
ENDBRANCH  28  32
ENDBRANCH  26  28
ENDBRANCH  21  24
ENDBRANCH  17  18
ENDBRANCH  16  17
ENDBRANCH  15  16
TORSDOF 7
ENDMDL
MODEL       60
REMARK 921   NORMALIZED FREE ENERGY PREDICTED BY IDOCK:   -5.48 KCAL/MOL
REMARK 922        TOTAL FREE ENERGY PREDICTED BY IDOCK:  -10.37 KCAL/MOL
REMARK 923 INTER-LIGAND FREE ENERGY PREDICTED BY IDOCK:   -8.98 KCAL/MOL
REMARK 924 INTRA-LIGAND FREE ENERGY PREDICTED BY IDOCK:   -1.39 KCAL/MOL
REMARK 927      BINDING AFFINITY PREDICTED BY RF-SCORE:    0.00 PKD
ROOT
HETATM    1  N   UNK A   0     -10.541  15.024  70.616  1.00  0.00    -0.527 NA 
HETATM    2  H1  UNK A   0     -10.160  15.962  70.740  1.00  0.00     0.000 HD 
HETATM    3  C   UNK A   0     -10.919  14.584  69.389  1.00  0.00    -0.249 C  
HETATM    4  H2  UNK A   0     -10.638  14.409  71.424  1.00  0.00     0.000 HD 
HETATM    5  N   UNK A   0     -11.405  13.388  69.230  1.00  0.00    -0.324 N  
HETATM    6  H   UNK A   0     -11.524  12.773  70.035  1.00  0.00     0.000 HD 
HETATM    7  C   UNK A   0     -11.763  12.951  67.953  1.00  0.00    -0.357 C  
HETATM    8  C   UNK A   0     -11.508  13.896  66.861  1.00  0.00    -0.370 A  
HETATM    9  O   UNK A   0     -12.254  11.849  67.744  1.00  0.00    -0.508 OA 
HETATM   10  C   UNK A   0     -10.997  15.132  67.151  1.00  0.00    -0.326 A  
HETATM   11  N   UNK A   0     -10.803  15.840  66.012  1.00  0.00    -0.294 NA 
HETATM   12  N   UNK A   0     -10.718  15.514  68.403  1.00  0.00    -0.254 NA 
HETATM   13  H   UNK A   0     -10.432  16.788  65.951  1.00  0.00     0.000 HD 
HETATM   14  C   UNK A   0     -11.194  15.055  64.953  1.00  0.00    -0.416 A  
HETATM   15  C   UNK A   0     -11.641  13.832  65.441  1.00  0.00    -0.330 A  
ENDROOT
BRANCH  15  16
HETATM   16  C   UNK A   0     -12.100  12.669  64.619  1.00  0.00    -0.484 C  
BRANCH  16  17
HETATM   17  C   UNK A   0     -11.045  12.157  63.624  1.00  0.00    -0.528 C  
BRANCH  17  18
HETATM   18  C   UNK A   0     -10.200  11.018  64.169  1.00  0.00    -0.419 A  
HETATM   19  C   UNK A   0      -9.223  10.392  63.385  1.00  0.00    -0.311 A  
HETATM   20  C   UNK A   0      -8.540   9.271  63.854  1.00  0.00    -0.208 A  
HETATM   21  C   UNK A   0      -8.806   8.769  65.130  1.00  0.00    -0.177 A  
HETATM   22  C   UNK A   0      -9.682   9.456  65.974  1.00  0.00    -0.345 A  
HETATM   23  C   UNK A   0     -10.379  10.573  65.491  1.00  0.00    -0.287 A  
BRANCH  21  24
HETATM   24  C   UNK A   0      -8.209   7.473  65.559  1.00  0.00    -0.135 C  
HETATM   25  O   UNK A   0      -7.021   7.343  65.829  1.00  0.00    -0.058 OA 
ATOM     26  N   GLU A   1      -9.108   6.431  65.665  1.00  0.00    -0.366 N  
ATOM     27  H   GLU A   1     -10.088   6.595  65.435  1.00  0.00     0.000 HD 
BRANCH  26  28
ATOM     28  CA  GLU A   1      -8.693   5.104  66.097  1.00  0.00    -0.123 C  
ATOM     29  C   GLU A   1      -8.958   4.106  64.964  1.00  0.00    -0.137 C  
ATOM     30  O   GLU A   1      -7.921   3.976  64.106  1.00  0.00    -0.084 OA 
ATOM     31  OXT GLU A   1     -10.012   3.484  64.826  1.00  0.00    -0.170 OA 
BRANCH  28  32
ATOM     32  CB  GLU A   1      -9.443   4.684  67.368  1.00  0.00    -0.177 C  
BRANCH  32  33
ATOM     33  CG  GLU A   1     -10.641   5.590  67.645  1.00  0.00    -0.239 C  
ATOM     34  CD  GLU A   1     -10.547   6.200  69.017  1.00  0.00    -0.279 C  
ATOM     35  OE1 GLU A   1      -9.925   7.398  69.035  1.00  0.00    -0.168 OA 
ATOM     36  OE2 GLU A   1     -10.960   5.654  70.029  1.00  0.00    -0.328 OA 
ENDBRANCH  32  33
ENDBRANCH  28  32
ENDBRANCH  26  28
ENDBRANCH  21  24
ENDBRANCH  17  18
ENDBRANCH  16  17
ENDBRANCH  15  16
TORSDOF 7
ENDMDL
MODEL       61
REMARK 921   NORMALIZED FREE ENERGY PREDICTED BY IDOCK:   -5.46 KCAL/MOL
REMARK 922        TOTAL FREE ENERGY PREDICTED BY IDOCK:  -10.34 KCAL/MOL
REMARK 923 INTER-LIGAND FREE ENERGY PREDICTED BY IDOCK:   -8.96 KCAL/MOL
REMARK 924 INTRA-LIGAND FREE ENERGY PREDICTED BY IDOCK:   -1.38 KCAL/MOL
REMARK 927      BINDING AFFINITY PREDICTED BY RF-SCORE:    0.00 PKD
ROOT
HETATM    1  N   UNK A   0      -7.407  19.619  69.092  1.00  0.00    -0.346 NA 
HETATM    2  H1  UNK A   0      -7.614  20.588  68.854  1.00  0.00     0.000 HD 
HETATM    3  C   UNK A   0      -8.044  18.597  68.464  1.00  0.00    -0.341 C  
HETATM    4  H2  UNK A   0      -6.713  19.414  69.811  1.00  0.00     0.000 HD 
HETATM    5  N   UNK A   0      -7.780  17.361  68.768  1.00  0.00    -0.270 N  
HETATM    6  H   UNK A   0      -7.101  17.146  69.498  1.00  0.00     0.000 HD 
HETATM    7  C   UNK A   0      -8.432  16.328  68.089  1.00  0.00    -0.174 C  
HETATM    8  C   UNK A   0      -9.352  16.744  67.027  1.00  0.00    -0.244 A  
HETATM    9  O   UNK A   0      -8.249  15.146  68.351  1.00  0.00    -0.135 OA 
HETATM   10  C   UNK A   0      -9.554  18.079  66.801  1.00  0.00    -0.303 A  
HETATM   11  N   UNK A   0     -10.408  18.257  65.764  1.00  0.00    -0.618 NA 
HETATM   12  N   UNK A   0      -8.937  19.026  67.517  1.00  0.00    -0.290 NA 
HETATM   13  H   UNK A   0     -10.723  19.154  65.393  1.00  0.00     0.000 HD 
HETATM   14  C   UNK A   0     -10.775  17.016  65.299  1.00  0.00    -0.096 A  
HETATM   15  C   UNK A   0     -10.137  16.044  66.062  1.00  0.00    -0.362 A  
ENDROOT
BRANCH  15  16
HETATM   16  C   UNK A   0     -10.217  14.565  65.850  1.00  0.00    -0.339 C  
BRANCH  16  17
HETATM   17  C   UNK A   0     -11.614  13.975  66.104  1.00  0.00    -0.374 C  
BRANCH  17  18
HETATM   18  C   UNK A   0     -11.634  12.911  67.188  1.00  0.00    -0.421 A  
HETATM   19  C   UNK A   0     -11.963  13.224  68.513  1.00  0.00    -0.340 A  
HETATM   20  C   UNK A   0     -11.859  12.266  69.521  1.00  0.00    -0.380 A  
HETATM   21  C   UNK A   0     -11.447  10.966  69.215  1.00  0.00    -0.372 A  
HETATM   22  C   UNK A   0     -11.240  10.603  67.883  1.00  0.00    -0.376 A  
HETATM   23  C   UNK A   0     -11.330  11.574  66.875  1.00  0.00    -0.324 A  
BRANCH  21  24
HETATM   24  C   UNK A   0     -11.166   9.997  70.312  1.00  0.00    -0.313 C  
HETATM   25  O   UNK A   0     -11.538  10.170  71.466  1.00  0.00    -0.319 OA 
ATOM     26  N   GLU A   1     -10.481   8.865  69.919  1.00  0.00    -0.209 N  
ATOM     27  H   GLU A   1     -10.200   8.767  68.943  1.00  0.00     0.000 HD 
BRANCH  26  28
ATOM     28  CA  GLU A   1     -10.149   7.807  70.862  1.00  0.00    -0.187 C  
ATOM     29  C   GLU A   1      -8.689   7.969  71.300  1.00  0.00    -0.138 C  
ATOM     30  O   GLU A   1      -8.536   8.764  72.383  1.00  0.00    -0.395 OA 
ATOM     31  OXT GLU A   1      -7.734   7.446  70.724  1.00  0.00    -0.085 OA 
BRANCH  28  32
ATOM     32  CB  GLU A   1     -10.369   6.425  70.232  1.00  0.00    -0.252 C  
BRANCH  32  33
ATOM     33  CG  GLU A   1     -11.374   6.479  69.083  1.00  0.00    -0.330 C  
ATOM     34  CD  GLU A   1     -10.687   6.288  67.759  1.00  0.00    -0.306 C  
ATOM     35  OE1 GLU A   1     -10.639   5.001  67.355  1.00  0.00    -0.118 OA 
ATOM     36  OE2 GLU A   1     -10.187   7.201  67.120  1.00  0.00    -0.204 OA 
ENDBRANCH  32  33
ENDBRANCH  28  32
ENDBRANCH  26  28
ENDBRANCH  21  24
ENDBRANCH  17  18
ENDBRANCH  16  17
ENDBRANCH  15  16
TORSDOF 7
ENDMDL
MODEL       62
REMARK 921   NORMALIZED FREE ENERGY PREDICTED BY IDOCK:   -5.46 KCAL/MOL
REMARK 922        TOTAL FREE ENERGY PREDICTED BY IDOCK:  -10.34 KCAL/MOL
REMARK 923 INTER-LIGAND FREE ENERGY PREDICTED BY IDOCK:   -9.20 KCAL/MOL
REMARK 924 INTRA-LIGAND FREE ENERGY PREDICTED BY IDOCK:   -1.14 KCAL/MOL
REMARK 927      BINDING AFFINITY PREDICTED BY RF-SCORE:    0.00 PKD
ROOT
HETATM    1  N   UNK A   0      -9.009   7.582  74.504  1.00  0.00    -0.433 NA 
HETATM    2  H1  UNK A   0      -8.060   7.543  74.875  1.00  0.00     0.000 HD 
HETATM    3  C   UNK A   0      -9.231   7.606  73.164  1.00  0.00    -0.216 C  
HETATM    4  H2  UNK A   0      -9.801   7.604  75.146  1.00  0.00     0.000 HD 
HETATM    5  N   UNK A   0     -10.441   7.656  72.690  1.00  0.00    -0.259 N  
HETATM    6  H   UNK A   0     -11.239   7.697  73.325  1.00  0.00     0.000 HD 
HETATM    7  C   UNK A   0     -10.643   7.655  71.308  1.00  0.00    -0.219 C  
HETATM    8  C   UNK A   0      -9.433   7.547  70.487  1.00  0.00    -0.164 A  
HETATM    9  O   UNK A   0     -11.755   7.731  70.802  1.00  0.00    -0.284 OA 
HETATM   10  C   UNK A   0      -8.210   7.506  71.100  1.00  0.00    -0.101 A  
HETATM   11  N   UNK A   0      -7.225   7.373  70.178  1.00  0.00    -0.068 NA 
HETATM   12  N   UNK A   0      -8.075   7.560  72.430  1.00  0.00    -0.099 NA 
HETATM   13  H   UNK A   0      -6.226   7.318  70.371  1.00  0.00     0.000 HD 
HETATM   14  C   UNK A   0      -7.813   7.325  68.935  1.00  0.00    -0.118 A  
HETATM   15  C   UNK A   0      -9.191   7.431  69.085  1.00  0.00    -0.147 A  
ENDROOT
BRANCH  15  16
HETATM   16  C   UNK A   0     -10.205   7.363  67.987  1.00  0.00    -0.234 C  
BRANCH  16  17
HETATM   17  C   UNK A   0      -9.906   8.302  66.806  1.00  0.00    -0.333 C  
BRANCH  17  18
HETATM   18  C   UNK A   0     -10.544   9.673  66.945  1.00  0.00    -0.241 A  
HETATM   19  C   UNK A   0     -10.649  10.544  65.854  1.00  0.00    -0.149 A  
HETATM   20  C   UNK A   0     -11.124  11.845  66.020  1.00  0.00    -0.369 A  
HETATM   21  C   UNK A   0     -11.528  12.290  67.282  1.00  0.00    -0.426 A  
HETATM   22  C   UNK A   0     -11.552  11.395  68.354  1.00  0.00    -0.385 A  
HETATM   23  C   UNK A   0     -11.057  10.094  68.185  1.00  0.00    -0.290 A  
BRANCH  21  24
HETATM   24  C   UNK A   0     -11.866  13.725  67.491  1.00  0.00    -0.387 C  
HETATM   25  O   UNK A   0     -12.381  14.422  66.627  1.00  0.00    -0.409 OA 
ATOM     26  N   GLU A   1     -11.583  14.205  68.755  1.00  0.00    -0.304 N  
ATOM     27  H   GLU A   1     -11.160  13.580  69.441  1.00  0.00     0.000 HD 
BRANCH  26  28
ATOM     28  CA  GLU A   1     -11.875  15.580  69.133  1.00  0.00    -0.354 C  
ATOM     29  C   GLU A   1     -10.697  16.471  68.723  1.00  0.00    -0.339 C  
ATOM     30  O   GLU A   1     -10.804  16.962  67.468  1.00  0.00    -0.304 OA 
ATOM     31  OXT GLU A   1      -9.732  16.714  69.448  1.00  0.00    -0.199 OA 
BRANCH  28  32
ATOM     32  CB  GLU A   1     -12.130  15.689  70.643  1.00  0.00    -0.443 C  
BRANCH  32  33
ATOM     33  CG  GLU A   1     -13.529  15.203  71.018  1.00  0.00    -0.493 C  
ATOM     34  CD  GLU A   1     -13.457  14.094  72.032  1.00  0.00    -0.431 C  
ATOM     35  OE1 GLU A   1     -13.511  14.524  73.310  1.00  0.00    -0.581 OA 
ATOM     36  OE2 GLU A   1     -13.329  12.915  71.735  1.00  0.00    -0.420 OA 
ENDBRANCH  32  33
ENDBRANCH  28  32
ENDBRANCH  26  28
ENDBRANCH  21  24
ENDBRANCH  17  18
ENDBRANCH  16  17
ENDBRANCH  15  16
TORSDOF 7
ENDMDL
MODEL       63
REMARK 921   NORMALIZED FREE ENERGY PREDICTED BY IDOCK:   -5.45 KCAL/MOL
REMARK 922        TOTAL FREE ENERGY PREDICTED BY IDOCK:  -10.32 KCAL/MOL
REMARK 923 INTER-LIGAND FREE ENERGY PREDICTED BY IDOCK:   -8.46 KCAL/MOL
REMARK 924 INTRA-LIGAND FREE ENERGY PREDICTED BY IDOCK:   -1.86 KCAL/MOL
REMARK 927      BINDING AFFINITY PREDICTED BY RF-SCORE:    0.00 PKD
ROOT
HETATM    1  N   UNK A   0     -13.149  14.031  65.344  1.00  0.00    -0.739 NA 
HETATM    2  H1  UNK A   0     -13.775  14.161  64.550  1.00  0.00     0.000 HD 
HETATM    3  C   UNK A   0     -12.112  13.157  65.277  1.00  0.00    -0.429 C  
HETATM    4  H2  UNK A   0     -13.304  14.565  66.200  1.00  0.00     0.000 HD 
HETATM    5  N   UNK A   0     -11.314  12.992  66.290  1.00  0.00    -0.305 N  
HETATM    6  H   UNK A   0     -11.471  13.507  67.156  1.00  0.00     0.000 HD 
HETATM    7  C   UNK A   0     -10.240  12.105  66.187  1.00  0.00    -0.227 C  
HETATM    8  C   UNK A   0     -10.076  11.451  64.885  1.00  0.00    -0.323 A  
HETATM    9  O   UNK A   0      -9.472  11.883  67.114  1.00  0.00    -0.174 OA 
HETATM   10  C   UNK A   0     -10.985  11.699  63.892  1.00  0.00    -0.407 A  
HETATM   11  N   UNK A   0     -10.644  11.032  62.763  1.00  0.00    -0.778 NA 
HETATM   12  N   UNK A   0     -12.025  12.524  64.065  1.00  0.00    -0.415 NA 
HETATM   13  H   UNK A   0     -11.154  11.046  61.880  1.00  0.00     0.000 HD 
HETATM   14  C   UNK A   0      -9.489  10.331  63.018  1.00  0.00    -0.296 A  
HETATM   15  C   UNK A   0      -9.101  10.566  64.333  1.00  0.00    -0.254 A  
ENDROOT
BRANCH  15  16
HETATM   16  C   UNK A   0      -7.867  10.041  64.995  1.00  0.00    -0.137 C  
BRANCH  16  17
HETATM   17  C   UNK A   0      -7.909   8.530  65.281  1.00  0.00    -0.106 C  
BRANCH  17  18
HETATM   18  C   UNK A   0      -8.255   8.196  66.722  1.00  0.00    -0.107 A  
HETATM   19  C   UNK A   0      -9.585   8.121  67.155  1.00  0.00    -0.227 A  
HETATM   20  C   UNK A   0      -9.888   7.935  68.503  1.00  0.00    -0.186 A  
HETATM   21  C   UNK A   0      -8.863   7.795  69.442  1.00  0.00    -0.139 A  
HETATM   22  C   UNK A   0      -7.535   7.739  69.011  1.00  0.00    -0.095 A  
HETATM   23  C   UNK A   0      -7.235   7.943  67.656  1.00  0.00    -0.088 A  
BRANCH  21  24
HETATM   24  C   UNK A   0      -9.183   7.775  70.897  1.00  0.00    -0.152 C  
HETATM   25  O   UNK A   0      -8.341   7.956  71.768  1.00  0.00    -0.105 OA 
ATOM     26  N   GLU A   1     -10.517   7.571  71.191  1.00  0.00    -0.206 N  
ATOM     27  H   GLU A   1     -11.178   7.433  70.426  1.00  0.00     0.000 HD 
BRANCH  26  28
ATOM     28  CA  GLU A   1     -11.002   7.549  72.562  1.00  0.00    -0.313 C  
ATOM     29  C   GLU A   1     -11.179   6.092  73.005  1.00  0.00    -0.197 C  
ATOM     30  O   GLU A   1     -10.066   5.559  73.559  1.00  0.00    -0.169 OA 
ATOM     31  OXT GLU A   1     -12.220   5.450  72.865  1.00  0.00    -0.112 OA 
BRANCH  28  32
ATOM     32  CB  GLU A   1     -12.329   8.311  72.685  1.00  0.00    -0.256 C  
BRANCH  32  33
ATOM     33  CG  GLU A   1     -12.767   8.905  71.347  1.00  0.00    -0.350 C  
ATOM     34  CD  GLU A   1     -12.379  10.355  71.251  1.00  0.00    -0.401 C  
ATOM     35  OE1 GLU A   1     -11.170  10.556  70.686  1.00  0.00    -0.316 OA 
ATOM     36  OE2 GLU A   1     -13.072  11.269  71.674  1.00  0.00    -0.451 OA 
ENDBRANCH  32  33
ENDBRANCH  28  32
ENDBRANCH  26  28
ENDBRANCH  21  24
ENDBRANCH  17  18
ENDBRANCH  16  17
ENDBRANCH  15  16
TORSDOF 7
ENDMDL
MODEL       64
REMARK 921   NORMALIZED FREE ENERGY PREDICTED BY IDOCK:   -5.45 KCAL/MOL
REMARK 922        TOTAL FREE ENERGY PREDICTED BY IDOCK:  -10.32 KCAL/MOL
REMARK 923 INTER-LIGAND FREE ENERGY PREDICTED BY IDOCK:   -9.04 KCAL/MOL
REMARK 924 INTRA-LIGAND FREE ENERGY PREDICTED BY IDOCK:   -1.27 KCAL/MOL
REMARK 927      BINDING AFFINITY PREDICTED BY RF-SCORE:    0.00 PKD
ROOT
HETATM    1  N   UNK A   0     -13.652   8.810  72.964  1.00  0.00    -0.959 NA 
HETATM    2  H1  UNK A   0     -14.441   9.026  72.357  1.00  0.00     0.000 HD 
HETATM    3  C   UNK A   0     -12.654   7.991  72.544  1.00  0.00    -0.101 C  
HETATM    4  H2  UNK A   0     -13.611   9.216  73.900  1.00  0.00     0.000 HD 
HETATM    5  N   UNK A   0     -11.646   7.716  73.320  1.00  0.00    -0.498 N  
HETATM    6  H   UNK A   0     -11.606   8.102  74.263  1.00  0.00     0.000 HD 
HETATM    7  C   UNK A   0     -10.621   6.890  72.854  1.00  0.00    -0.261 C  
HETATM    8  C   UNK A   0     -10.753   6.428  71.469  1.00  0.00    -0.282 A  
HETATM    9  O   UNK A   0      -9.663   6.571  73.546  1.00  0.00    -0.157 OA 
HETATM   10  C   UNK A   0     -11.864   6.778  70.750  1.00  0.00    -0.392 A  
HETATM   11  N   UNK A   0     -11.784   6.284  69.490  1.00  0.00    -0.473 NA 
HETATM   12  N   UNK A   0     -12.840   7.534  71.266  1.00  0.00    -0.319 NA 
HETATM   13  H   UNK A   0     -12.481   6.402  68.755  1.00  0.00     0.000 HD 
HETATM   14  C   UNK A   0     -10.599   5.596  69.379  1.00  0.00    -0.304 A  
HETATM   15  C   UNK A   0      -9.925   5.662  70.594  1.00  0.00    -0.260 A  
ENDROOT
BRANCH  15  16
HETATM   16  C   UNK A   0      -8.572   5.095  70.883  1.00  0.00    -0.129 C  
BRANCH  16  17
HETATM   17  C   UNK A   0      -7.510   6.158  71.214  1.00  0.00    -0.093 C  
BRANCH  17  18
HETATM   18  C   UNK A   0      -7.662   7.438  70.410  1.00  0.00    -0.093 A  
HETATM   19  C   UNK A   0      -8.007   8.649  71.022  1.00  0.00    -0.153 A  
HETATM   20  C   UNK A   0      -8.263   9.788  70.260  1.00  0.00    -0.178 A  
HETATM   21  C   UNK A   0      -8.154   9.741  68.868  1.00  0.00    -0.101 A  
HETATM   22  C   UNK A   0      -7.687   8.579  68.251  1.00  0.00    -0.102 A  
HETATM   23  C   UNK A   0      -7.447   7.431  69.020  1.00  0.00    -0.100 A  
BRANCH  21  24
HETATM   24  C   UNK A   0      -8.599  10.903  68.047  1.00  0.00    -0.131 C  
HETATM   25  O   UNK A   0      -8.099  11.185  66.966  1.00  0.00    -0.135 OA 
ATOM     26  N   GLU A   1      -9.648  11.621  68.586  1.00  0.00    -0.317 N  
ATOM     27  H   GLU A   1     -10.033  11.339  69.487  1.00  0.00     0.000 HD 
BRANCH  26  28
ATOM     28  CA  GLU A   1     -10.219  12.770  67.899  1.00  0.00    -0.229 C  
ATOM     29  C   GLU A   1     -10.675  13.798  68.942  1.00  0.00    -0.227 C  
ATOM     30  O   GLU A   1      -9.711  14.683  69.283  1.00  0.00    -0.156 OA 
ATOM     31  OXT GLU A   1     -11.801  13.821  69.440  1.00  0.00    -0.297 OA 
BRANCH  28  32
ATOM     32  CB  GLU A   1     -11.398  12.346  67.013  1.00  0.00    -0.388 C  
BRANCH  32  33
ATOM     33  CG  GLU A   1     -11.240  12.852  65.580  1.00  0.00    -0.319 C  
ATOM     34  CD  GLU A   1     -12.582  13.079  64.940  1.00  0.00    -0.428 C  
ATOM     35  OE1 GLU A   1     -13.048  14.336  65.090  1.00  0.00    -0.704 OA 
ATOM     36  OE2 GLU A   1     -13.213  12.204  64.365  1.00  0.00    -0.758 OA 
ENDBRANCH  32  33
ENDBRANCH  28  32
ENDBRANCH  26  28
ENDBRANCH  21  24
ENDBRANCH  17  18
ENDBRANCH  16  17
ENDBRANCH  15  16
TORSDOF 7
ENDMDL
MODEL       65
REMARK 921   NORMALIZED FREE ENERGY PREDICTED BY IDOCK:   -5.44 KCAL/MOL
REMARK 922        TOTAL FREE ENERGY PREDICTED BY IDOCK:  -10.31 KCAL/MOL
REMARK 923 INTER-LIGAND FREE ENERGY PREDICTED BY IDOCK:   -9.88 KCAL/MOL
REMARK 924 INTRA-LIGAND FREE ENERGY PREDICTED BY IDOCK:   -0.43 KCAL/MOL
REMARK 927      BINDING AFFINITY PREDICTED BY RF-SCORE:    0.00 PKD
ROOT
HETATM    1  N   UNK A   0      -7.726   2.754  71.839  1.00  0.00    -0.051 NA 
HETATM    2  H1  UNK A   0      -7.276   2.386  71.001  1.00  0.00     0.000 HD 
HETATM    3  C   UNK A   0      -8.671   3.724  71.751  1.00  0.00    -0.094 C  
HETATM    4  H2  UNK A   0      -7.462   2.388  72.754  1.00  0.00     0.000 HD 
HETATM    5  N   UNK A   0      -9.245   4.194  72.819  1.00  0.00    -0.114 N  
HETATM    6  H   UNK A   0      -8.975   3.847  73.740  1.00  0.00     0.000 HD 
HETATM    7  C   UNK A   0     -10.233   5.174  72.700  1.00  0.00    -0.186 C  
HETATM    8  C   UNK A   0     -10.578   5.567  71.330  1.00  0.00    -0.310 A  
HETATM    9  O   UNK A   0     -10.788   5.677  73.669  1.00  0.00    -0.276 OA 
HETATM   10  C   UNK A   0      -9.900   5.007  70.282  1.00  0.00    -0.234 A  
HETATM   11  N   UNK A   0     -10.385   5.472  69.104  1.00  0.00    -0.239 NA 
HETATM   12  N   UNK A   0      -8.927   4.105  70.460  1.00  0.00    -0.089 NA 
HETATM   13  H   UNK A   0     -10.055   5.213  68.175  1.00  0.00     0.000 HD 
HETATM   14  C   UNK A   0     -11.401   6.355  69.384  1.00  0.00    -0.377 A  
HETATM   15  C   UNK A   0     -11.554   6.443  70.764  1.00  0.00    -0.402 A  
ENDROOT
BRANCH  15  16
HETATM   16  C   UNK A   0     -12.587   7.247  71.487  1.00  0.00    -0.415 C  
BRANCH  16  17
HETATM   17  C   UNK A   0     -12.020   8.481  72.210  1.00  0.00    -0.454 C  
BRANCH  17  18
HETATM   18  C   UNK A   0     -11.990   9.729  71.345  1.00  0.00    -0.493 A  
HETATM   19  C   UNK A   0     -11.105   9.849  70.266  1.00  0.00    -0.368 A  
HETATM   20  C   UNK A   0     -11.001  11.044  69.556  1.00  0.00    -0.297 A  
HETATM   21  C   UNK A   0     -11.801  12.138  69.899  1.00  0.00    -0.392 A  
HETATM   22  C   UNK A   0     -12.779  11.995  70.886  1.00  0.00    -0.291 A  
HETATM   23  C   UNK A   0     -12.868  10.796  71.609  1.00  0.00    -0.562 A  
BRANCH  21  24
HETATM   24  C   UNK A   0     -11.564  13.462  69.260  1.00  0.00    -0.310 C  
HETATM   25  O   UNK A   0     -12.385  14.371  69.284  1.00  0.00    -0.273 OA 
ATOM     26  N   GLU A   1     -10.326  13.602  68.664  1.00  0.00    -0.279 N  
ATOM     27  H   GLU A   1      -9.676  12.816  68.679  1.00  0.00     0.000 HD 
BRANCH  26  28
ATOM     28  CA  GLU A   1      -9.925  14.842  68.017  1.00  0.00    -0.220 C  
ATOM     29  C   GLU A   1      -9.595  15.882  69.094  1.00  0.00    -0.253 C  
ATOM     30  O   GLU A   1      -8.302  15.857  69.488  1.00  0.00    -0.223 OA 
ATOM     31  OXT GLU A   1     -10.417  16.663  69.574  1.00  0.00    -0.305 OA 
BRANCH  28  32
ATOM     32  CB  GLU A   1     -11.037  15.361  67.094  1.00  0.00    -0.291 C  
BRANCH  32  33
ATOM     33  CG  GLU A   1     -11.060  14.616  65.761  1.00  0.00    -0.331 C  
ATOM     34  CD  GLU A   1     -12.185  13.619  65.722  1.00  0.00    -0.464 C  
ATOM     35  OE1 GLU A   1     -13.330  14.114  65.205  1.00  0.00    -0.715 OA 
ATOM     36  OE2 GLU A   1     -12.091  12.477  66.147  1.00  0.00    -0.571 OA 
ENDBRANCH  32  33
ENDBRANCH  28  32
ENDBRANCH  26  28
ENDBRANCH  21  24
ENDBRANCH  17  18
ENDBRANCH  16  17
ENDBRANCH  15  16
TORSDOF 7
ENDMDL
MODEL       66
REMARK 921   NORMALIZED FREE ENERGY PREDICTED BY IDOCK:   -5.41 KCAL/MOL
REMARK 922        TOTAL FREE ENERGY PREDICTED BY IDOCK:  -10.27 KCAL/MOL
REMARK 923 INTER-LIGAND FREE ENERGY PREDICTED BY IDOCK:   -9.23 KCAL/MOL
REMARK 924 INTRA-LIGAND FREE ENERGY PREDICTED BY IDOCK:   -1.04 KCAL/MOL
REMARK 927      BINDING AFFINITY PREDICTED BY RF-SCORE:    0.00 PKD
ROOT
HETATM    1  N   UNK A   0     -10.305  18.522  65.373  1.00  0.00    -0.390 NA 
HETATM    2  H1  UNK A   0     -10.408  18.931  64.445  1.00  0.00     0.000 HD 
HETATM    3  C   UNK A   0     -10.728  17.257  65.626  1.00  0.00    -0.120 C  
HETATM    4  H2  UNK A   0      -9.880  19.071  66.121  1.00  0.00     0.000 HD 
HETATM    5  N   UNK A   0     -10.597  16.735  66.810  1.00  0.00    -0.253 N  
HETATM    6  H   UNK A   0     -10.190  17.282  67.569  1.00  0.00     0.000 HD 
HETATM    7  C   UNK A   0     -11.017  15.423  67.038  1.00  0.00    -0.306 C  
HETATM    8  C   UNK A   0     -11.544  14.711  65.870  1.00  0.00    -0.327 A  
HETATM    9  O   UNK A   0     -10.949  14.887  68.137  1.00  0.00    -0.256 OA 
HETATM   10  C   UNK A   0     -11.640  15.366  64.673  1.00  0.00    -0.311 A  
HETATM   11  N   UNK A   0     -12.115  14.533  63.715  1.00  0.00    -0.956 NA 
HETATM   12  N   UNK A   0     -11.265  16.643  64.526  1.00  0.00    -0.982 NA 
HETATM   13  H   UNK A   0     -12.280  14.774  62.738  1.00  0.00     0.000 HD 
HETATM   14  C   UNK A   0     -12.338  13.306  64.295  1.00  0.00    -0.340 A  
HETATM   15  C   UNK A   0     -11.993  13.375  65.640  1.00  0.00    -0.439 A  
ENDROOT
BRANCH  15  16
HETATM   16  C   UNK A   0     -12.028  12.243  66.618  1.00  0.00    -0.257 C  
BRANCH  16  17
HETATM   17  C   UNK A   0     -10.636  11.760  67.060  1.00  0.00    -0.267 C  
BRANCH  17  18
HETATM   18  C   UNK A   0     -10.663  10.435  67.802  1.00  0.00    -0.327 A  
HETATM   19  C   UNK A   0     -10.910  10.373  69.179  1.00  0.00    -0.274 A  
HETATM   20  C   UNK A   0     -10.810   9.166  69.870  1.00  0.00    -0.242 A  
HETATM   21  C   UNK A   0     -10.486   7.991  69.188  1.00  0.00    -0.217 A  
HETATM   22  C   UNK A   0     -10.364   8.011  67.797  1.00  0.00    -0.294 A  
HETATM   23  C   UNK A   0     -10.448   9.230  67.109  1.00  0.00    -0.319 A  
BRANCH  21  24
HETATM   24  C   UNK A   0     -10.207   6.741  69.950  1.00  0.00    -0.190 C  
HETATM   25  O   UNK A   0     -10.215   5.630  69.436  1.00  0.00    -0.199 OA 
ATOM     26  N   GLU A   1      -9.901   6.935  71.283  1.00  0.00    -0.176 N  
ATOM     27  H   GLU A   1      -9.901   7.883  71.660  1.00  0.00     0.000 HD 
BRANCH  26  28
ATOM     28  CA  GLU A   1      -9.578   5.822  72.162  1.00  0.00    -0.149 C  
ATOM     29  C   GLU A   1     -10.612   5.764  73.293  1.00  0.00    -0.254 C  
ATOM     30  O   GLU A   1     -11.693   5.008  72.997  1.00  0.00    -0.297 OA 
ATOM     31  OXT GLU A   1     -10.492   6.353  74.368  1.00  0.00    -0.304 OA 
BRANCH  28  32
ATOM     32  CB  GLU A   1      -8.163   5.972  72.737  1.00  0.00    -0.118 C  
BRANCH  32  33
ATOM     33  CG  GLU A   1      -7.502   7.272  72.283  1.00  0.00    -0.083 C  
ATOM     34  CD  GLU A   1      -7.037   8.079  73.465  1.00  0.00    -0.125 C  
ATOM     35  OE1 GLU A   1      -5.762   7.823  73.827  1.00  0.00    -0.055 OA 
ATOM     36  OE2 GLU A   1      -7.751   8.868  74.067  1.00  0.00    -0.402 OA 
ENDBRANCH  32  33
ENDBRANCH  28  32
ENDBRANCH  26  28
ENDBRANCH  21  24
ENDBRANCH  17  18
ENDBRANCH  16  17
ENDBRANCH  15  16
TORSDOF 7
ENDMDL
MODEL       67
REMARK 921   NORMALIZED FREE ENERGY PREDICTED BY IDOCK:   -5.40 KCAL/MOL
REMARK 922        TOTAL FREE ENERGY PREDICTED BY IDOCK:  -10.25 KCAL/MOL
REMARK 923 INTER-LIGAND FREE ENERGY PREDICTED BY IDOCK:   -9.42 KCAL/MOL
REMARK 924 INTRA-LIGAND FREE ENERGY PREDICTED BY IDOCK:   -0.82 KCAL/MOL
REMARK 927      BINDING AFFINITY PREDICTED BY RF-SCORE:    0.00 PKD
ROOT
HETATM    1  N   UNK A   0     -12.956   8.713  73.163  1.00  0.00    -0.625 NA 
HETATM    2  H1  UNK A   0     -13.780   8.120  73.259  1.00  0.00     0.000 HD 
HETATM    3  C   UNK A   0     -12.054   8.496  72.171  1.00  0.00    -0.383 C  
HETATM    4  H2  UNK A   0     -12.807   9.479  73.820  1.00  0.00     0.000 HD 
HETATM    5  N   UNK A   0     -11.004   9.253  72.048  1.00  0.00    -0.221 N  
HETATM    6  H   UNK A   0     -10.837  10.010  72.712  1.00  0.00     0.000 HD 
HETATM    7  C   UNK A   0     -10.105   9.024  71.004  1.00  0.00    -0.282 C  
HETATM    8  C   UNK A   0     -10.463   7.943  70.080  1.00  0.00    -0.231 A  
HETATM    9  O   UNK A   0      -9.083   9.682  70.854  1.00  0.00    -0.182 OA 
HETATM   10  C   UNK A   0     -11.593   7.209  70.315  1.00  0.00    -0.217 A  
HETATM   11  N   UNK A   0     -11.767   6.286  69.338  1.00  0.00    -0.450 NA 
HETATM   12  N   UNK A   0     -12.393   7.443  71.362  1.00  0.00    -0.345 NA 
HETATM   13  H   UNK A   0     -12.532   5.614  69.276  1.00  0.00     0.000 HD 
HETATM   14  C   UNK A   0     -10.730   6.415  68.444  1.00  0.00    -0.286 A  
HETATM   15  C   UNK A   0      -9.893   7.439  68.872  1.00  0.00    -0.157 A  
ENDROOT
BRANCH  15  16
HETATM   16  C   UNK A   0      -8.680   7.943  68.156  1.00  0.00    -0.126 C  
BRANCH  16  17
HETATM   17  C   UNK A   0      -8.992   8.656  66.829  1.00  0.00    -0.167 C  
BRANCH  17  18
HETATM   18  C   UNK A   0      -9.469  10.087  67.007  1.00  0.00    -0.197 A  
HETATM   19  C   UNK A   0      -8.563  11.148  67.134  1.00  0.00    -0.139 A  
HETATM   20  C   UNK A   0      -9.008  12.438  67.419  1.00  0.00    -0.185 A  
HETATM   21  C   UNK A   0     -10.375  12.695  67.559  1.00  0.00    -0.220 A  
HETATM   22  C   UNK A   0     -11.298  11.677  67.309  1.00  0.00    -0.372 A  
HETATM   23  C   UNK A   0     -10.844  10.378  67.039  1.00  0.00    -0.269 A  
BRANCH  21  24
HETATM   24  C   UNK A   0     -10.836  14.029  68.037  1.00  0.00    -0.246 C  
HETATM   25  O   UNK A   0     -11.795  14.616  67.552  1.00  0.00    -0.380 OA 
ATOM     26  N   GLU A   1     -10.117  14.541  69.098  1.00  0.00    -0.372 N  
ATOM     27  H   GLU A   1      -9.330  14.008  69.469  1.00  0.00     0.000 HD 
BRANCH  26  28
ATOM     28  CA  GLU A   1     -10.452  15.822  69.701  1.00  0.00    -0.289 C  
ATOM     29  C   GLU A   1     -11.581  15.614  70.718  1.00  0.00    -0.382 C  
ATOM     30  O   GLU A   1     -11.139  15.325  71.962  1.00  0.00    -0.369 OA 
ATOM     31  OXT GLU A   1     -12.779  15.686  70.442  1.00  0.00    -0.425 OA 
BRANCH  28  32
ATOM     32  CB  GLU A   1     -10.876  16.836  68.630  1.00  0.00    -0.336 C  
BRANCH  32  33
ATOM     33  CG  GLU A   1      -9.669  17.505  67.974  1.00  0.00    -0.287 C  
ATOM     34  CD  GLU A   1      -9.883  17.666  66.494  1.00  0.00    -0.319 C  
ATOM     35  OE1 GLU A   1     -10.437  18.848  66.152  1.00  0.00    -0.438 OA 
ATOM     36  OE2 GLU A   1      -9.614  16.799  65.676  1.00  0.00    -0.527 OA 
ENDBRANCH  32  33
ENDBRANCH  28  32
ENDBRANCH  26  28
ENDBRANCH  21  24
ENDBRANCH  17  18
ENDBRANCH  16  17
ENDBRANCH  15  16
TORSDOF 7
ENDMDL
MODEL       68
REMARK 921   NORMALIZED FREE ENERGY PREDICTED BY IDOCK:   -5.39 KCAL/MOL
REMARK 922        TOTAL FREE ENERGY PREDICTED BY IDOCK:  -10.25 KCAL/MOL
REMARK 923 INTER-LIGAND FREE ENERGY PREDICTED BY IDOCK:  -10.27 KCAL/MOL
REMARK 924 INTRA-LIGAND FREE ENERGY PREDICTED BY IDOCK:    0.03 KCAL/MOL
REMARK 927      BINDING AFFINITY PREDICTED BY RF-SCORE:    0.00 PKD
ROOT
HETATM    1  N   UNK A   0     -13.841   9.152  73.159  1.00  0.00    -1.136 NA 
HETATM    2  H1  UNK A   0     -14.479   9.802  73.617  1.00  0.00     0.000 HD 
HETATM    3  C   UNK A   0     -13.076   9.551  72.111  1.00  0.00    -0.436 C  
HETATM    4  H2  UNK A   0     -13.776   8.190  73.493  1.00  0.00     0.000 HD 
HETATM    5  N   UNK A   0     -12.261   8.722  71.528  1.00  0.00    -0.313 N  
HETATM    6  H   UNK A   0     -12.203   7.754  71.842  1.00  0.00     0.000 HD 
HETATM    7  C   UNK A   0     -11.466   9.165  70.467  1.00  0.00    -0.229 C  
HETATM    8  C   UNK A   0     -11.592  10.585  70.126  1.00  0.00    -0.408 A  
HETATM    9  O   UNK A   0     -10.704   8.426  69.859  1.00  0.00    -0.232 OA 
HETATM   10  C   UNK A   0     -12.490  11.360  70.809  1.00  0.00    -0.365 A  
HETATM   11  N   UNK A   0     -12.433  12.642  70.371  1.00  0.00    -0.202 NA 
HETATM   12  N   UNK A   0     -13.261  10.869  71.786  1.00  0.00    -0.438 NA 
HETATM   13  H   UNK A   0     -12.998  13.419  70.715  1.00  0.00     0.000 HD 
HETATM   14  C   UNK A   0     -11.481  12.710  69.382  1.00  0.00    -0.266 A  
HETATM   15  C   UNK A   0     -10.932  11.446  69.198  1.00  0.00    -0.289 A  
ENDROOT
BRANCH  15  16
HETATM   16  C   UNK A   0      -9.822  11.095  68.259  1.00  0.00    -0.195 C  
BRANCH  16  17
HETATM   17  C   UNK A   0     -10.009  11.655  66.838  1.00  0.00    -0.225 C  
BRANCH  17  18
HETATM   18  C   UNK A   0      -9.529  13.088  66.685  1.00  0.00    -0.256 A  
HETATM   19  C   UNK A   0      -8.356  13.537  67.306  1.00  0.00    -0.188 A  
HETATM   20  C   UNK A   0      -7.991  14.882  67.259  1.00  0.00    -0.237 A  
HETATM   21  C   UNK A   0      -8.784  15.801  66.566  1.00  0.00    -0.354 A  
HETATM   22  C   UNK A   0      -9.885  15.350  65.835  1.00  0.00    -0.387 A  
HETATM   23  C   UNK A   0     -10.257  14.000  65.899  1.00  0.00    -0.332 A  
BRANCH  21  24
HETATM   24  C   UNK A   0      -8.491  17.258  66.665  1.00  0.00    -0.260 C  
HETATM   25  O   UNK A   0      -8.235  17.955  65.691  1.00  0.00    -0.476 OA 
ATOM     26  N   GLU A   1      -8.566  17.776  67.943  1.00  0.00    -0.245 N  
ATOM     27  H   GLU A   1      -8.790  17.153  68.720  1.00  0.00     0.000 HD 
BRANCH  26  28
ATOM     28  CA  GLU A   1      -8.334  19.187  68.211  1.00  0.00    -0.335 C  
ATOM     29  C   GLU A   1      -9.651  19.951  68.037  1.00  0.00    -0.370 C  
ATOM     30  O   GLU A   1     -10.387  20.022  69.170  1.00  0.00    -0.350 OA 
ATOM     31  OXT GLU A   1     -10.025  20.447  66.974  1.00  0.00    -0.450 OA 
BRANCH  28  32
ATOM     32  CB  GLU A   1      -7.258  19.752  67.273  1.00  0.00    -0.262 C  
BRANCH  32  33
ATOM     33  CG  GLU A   1      -5.854  19.565  67.843  1.00  0.00    -0.224 C  
ATOM     34  CD  GLU A   1      -5.898  19.410  69.339  1.00  0.00    -0.250 C  
ATOM     35  OE1 GLU A   1      -5.987  18.127  69.747  1.00  0.00    -0.237 OA 
ATOM     36  OE2 GLU A   1      -5.888  20.354  70.116  1.00  0.00    -0.327 OA 
ENDBRANCH  32  33
ENDBRANCH  28  32
ENDBRANCH  26  28
ENDBRANCH  21  24
ENDBRANCH  17  18
ENDBRANCH  16  17
ENDBRANCH  15  16
TORSDOF 7
ENDMDL
MODEL       69
REMARK 921   NORMALIZED FREE ENERGY PREDICTED BY IDOCK:   -5.39 KCAL/MOL
REMARK 922        TOTAL FREE ENERGY PREDICTED BY IDOCK:  -10.24 KCAL/MOL
REMARK 923 INTER-LIGAND FREE ENERGY PREDICTED BY IDOCK:   -8.70 KCAL/MOL
REMARK 924 INTRA-LIGAND FREE ENERGY PREDICTED BY IDOCK:   -1.54 KCAL/MOL
REMARK 927      BINDING AFFINITY PREDICTED BY RF-SCORE:    0.00 PKD
ROOT
HETATM    1  N   UNK A   0     -11.646  15.726  70.737  1.00  0.00    -0.364 NA 
HETATM    2  H1  UNK A   0     -11.418  16.700  70.936  1.00  0.00     0.000 HD 
HETATM    3  C   UNK A   0     -11.612  15.249  69.466  1.00  0.00    -0.322 C  
HETATM    4  H2  UNK A   0     -11.902  15.103  71.503  1.00  0.00     0.000 HD 
HETATM    5  N   UNK A   0     -11.903  14.007  69.213  1.00  0.00    -0.322 N  
HETATM    6  H   UNK A   0     -12.179  13.381  69.970  1.00  0.00     0.000 HD 
HETATM    7  C   UNK A   0     -11.837  13.535  67.900  1.00  0.00    -0.362 C  
HETATM    8  C   UNK A   0     -11.385  14.504  66.897  1.00  0.00    -0.355 A  
HETATM    9  O   UNK A   0     -12.128  12.386  67.594  1.00  0.00    -0.470 OA 
HETATM   10  C   UNK A   0     -11.112  15.788  67.282  1.00  0.00    -0.211 A  
HETATM   11  N   UNK A   0     -10.679  16.516  66.223  1.00  0.00    -0.210 NA 
HETATM   12  N   UNK A   0     -11.240  16.197  68.550  1.00  0.00    -0.354 NA 
HETATM   13  H   UNK A   0     -10.410  17.499  66.240  1.00  0.00     0.000 HD 
HETATM   14  C   UNK A   0     -10.669  15.694  65.121  1.00  0.00    -0.443 A  
HETATM   15  C   UNK A   0     -11.103  14.428  65.499  1.00  0.00    -0.326 A  
ENDROOT
BRANCH  15  16
HETATM   16  C   UNK A   0     -11.184  13.223  64.616  1.00  0.00    -0.370 C  
BRANCH  16  17
HETATM   17  C   UNK A   0      -9.835  12.512  64.409  1.00  0.00    -0.096 C  
BRANCH  17  18
HETATM   18  C   UNK A   0      -9.580  11.396  65.407  1.00  0.00    -0.255 A  
HETATM   19  C   UNK A   0     -10.070  10.101  65.197  1.00  0.00    -0.329 A  
HETATM   20  C   UNK A   0      -9.934   9.118  66.176  1.00  0.00    -0.338 A  
HETATM   21  C   UNK A   0      -9.281   9.407  67.377  1.00  0.00    -0.145 A  
HETATM   22  C   UNK A   0      -8.674  10.652  67.550  1.00  0.00    -0.125 A  
HETATM   23  C   UNK A   0      -8.828  11.644  66.570  1.00  0.00    -0.188 A  
BRANCH  21  24
HETATM   24  C   UNK A   0      -9.293   8.414  68.487  1.00  0.00    -0.139 C  
HETATM   25  O   UNK A   0      -8.560   7.433  68.513  1.00  0.00    -0.128 OA 
ATOM     26  N   GLU A   1     -10.174   8.704  69.511  1.00  0.00    -0.204 N  
ATOM     27  H   GLU A   1     -10.757   9.538  69.443  1.00  0.00     0.000 HD 
BRANCH  26  28
ATOM     28  CA  GLU A   1     -10.292   7.850  70.683  1.00  0.00    -0.202 C  
ATOM     29  C   GLU A   1     -11.498   6.921  70.504  1.00  0.00    -0.342 C  
ATOM     30  O   GLU A   1     -11.196   5.758  69.885  1.00  0.00    -0.346 OA 
ATOM     31  OXT GLU A   1     -12.641   7.197  70.870  1.00  0.00    -0.329 OA 
BRANCH  28  32
ATOM     32  CB  GLU A   1     -10.446   8.690  71.958  1.00  0.00    -0.422 C  
BRANCH  32  33
ATOM     33  CG  GLU A   1      -9.910   7.959  73.187  1.00  0.00    -0.357 C  
ATOM     34  CD  GLU A   1      -8.406   7.918  73.174  1.00  0.00    -0.179 C  
ATOM     35  OE1 GLU A   1      -7.830   8.953  73.820  1.00  0.00    -0.380 OA 
ATOM     36  OE2 GLU A   1      -7.760   7.051  72.604  1.00  0.00    -0.089 OA 
ENDBRANCH  32  33
ENDBRANCH  28  32
ENDBRANCH  26  28
ENDBRANCH  21  24
ENDBRANCH  17  18
ENDBRANCH  16  17
ENDBRANCH  15  16
TORSDOF 7
ENDMDL
MODEL       70
REMARK 921   NORMALIZED FREE ENERGY PREDICTED BY IDOCK:   -5.39 KCAL/MOL
REMARK 922        TOTAL FREE ENERGY PREDICTED BY IDOCK:  -10.24 KCAL/MOL
REMARK 923 INTER-LIGAND FREE ENERGY PREDICTED BY IDOCK:   -9.33 KCAL/MOL
REMARK 924 INTRA-LIGAND FREE ENERGY PREDICTED BY IDOCK:   -0.91 KCAL/MOL
REMARK 927      BINDING AFFINITY PREDICTED BY RF-SCORE:    0.00 PKD
ROOT
HETATM    1  N   UNK A   0      -9.174   5.571  66.528  1.00  0.00    -0.136 NA 
HETATM    2  H1  UNK A   0      -9.466   4.595  66.486  1.00  0.00     0.000 HD 
HETATM    3  C   UNK A   0      -9.675   6.406  67.475  1.00  0.00    -0.121 C  
HETATM    4  H2  UNK A   0      -8.498   5.924  65.851  1.00  0.00     0.000 HD 
HETATM    5  N   UNK A   0      -9.303   7.651  67.529  1.00  0.00    -0.137 N  
HETATM    6  H   UNK A   0      -8.641   8.018  66.845  1.00  0.00     0.000 HD 
HETATM    7  C   UNK A   0      -9.814   8.482  68.528  1.00  0.00    -0.173 C  
HETATM    8  C   UNK A   0     -10.720   7.844  69.487  1.00  0.00    -0.195 A  
HETATM    9  O   UNK A   0      -9.526   9.669  68.612  1.00  0.00    -0.143 OA 
HETATM   10  C   UNK A   0     -11.045   6.525  69.325  1.00  0.00    -0.334 A  
HETATM   11  N   UNK A   0     -11.862   6.114  70.326  1.00  0.00    -0.103 NA 
HETATM   12  N   UNK A   0     -10.560   5.788  68.318  1.00  0.00    -0.225 NA 
HETATM   13  H   UNK A   0     -12.248   5.176  70.439  1.00  0.00     0.000 HD 
HETATM   14  C   UNK A   0     -12.079   7.184  71.161  1.00  0.00    -0.358 A  
HETATM   15  C   UNK A   0     -11.384   8.285  70.672  1.00  0.00    -0.257 A  
ENDROOT
BRANCH  15  16
HETATM   16  C   UNK A   0     -11.304   9.633  71.314  1.00  0.00    -0.458 C  
BRANCH  16  17
HETATM   17  C   UNK A   0     -12.600  10.454  71.201  1.00  0.00    -0.512 C  
BRANCH  17  18
HETATM   18  C   UNK A   0     -12.385  11.854  70.654  1.00  0.00    -0.405 A  
HETATM   19  C   UNK A   0     -11.795  12.066  69.402  1.00  0.00    -0.384 A  
HETATM   20  C   UNK A   0     -11.491  13.355  68.963  1.00  0.00    -0.348 A  
HETATM   21  C   UNK A   0     -11.797  14.459  69.763  1.00  0.00    -0.375 A  
HETATM   22  C   UNK A   0     -12.501  14.275  70.955  1.00  0.00    -0.424 A  
HETATM   23  C   UNK A   0     -12.789  12.977  71.399  1.00  0.00    -0.385 A  
BRANCH  21  24
HETATM   24  C   UNK A   0     -11.314  15.814  69.376  1.00  0.00    -0.348 C  
HETATM   25  O   UNK A   0     -11.399  16.789  70.113  1.00  0.00    -0.056 OA 
ATOM     26  N   GLU A   1     -10.726  15.882  68.128  1.00  0.00    -0.290 N  
ATOM     27  H   GLU A   1     -10.675  15.039  67.556  1.00  0.00     0.000 HD 
BRANCH  26  28
ATOM     28  CA  GLU A   1     -10.179  17.126  67.607  1.00  0.00    -0.329 C  
ATOM     29  C   GLU A   1      -9.823  16.934  66.128  1.00  0.00    -0.297 C  
ATOM     30  O   GLU A   1     -10.843  17.217  65.287  1.00  0.00    -0.576 OA 
ATOM     31  OXT GLU A   1      -8.725  16.547  65.729  1.00  0.00    -0.460 OA 
BRANCH  28  32
ATOM     32  CB  GLU A   1      -8.940  17.554  68.406  1.00  0.00    -0.276 C  
BRANCH  32  33
ATOM     33  CG  GLU A   1      -8.872  19.071  68.576  1.00  0.00    -0.398 C  
ATOM     34  CD  GLU A   1      -7.527  19.598  68.158  1.00  0.00    -0.304 C  
ATOM     35  OE1 GLU A   1      -7.469  19.969  66.862  1.00  0.00    -0.243 OA 
ATOM     36  OE2 GLU A   1      -6.563  19.656  68.907  1.00  0.00    -0.281 OA 
ENDBRANCH  32  33
ENDBRANCH  28  32
ENDBRANCH  26  28
ENDBRANCH  21  24
ENDBRANCH  17  18
ENDBRANCH  16  17
ENDBRANCH  15  16
TORSDOF 7
ENDMDL
MODEL       71
REMARK 921   NORMALIZED FREE ENERGY PREDICTED BY IDOCK:   -5.38 KCAL/MOL
REMARK 922        TOTAL FREE ENERGY PREDICTED BY IDOCK:  -10.22 KCAL/MOL
REMARK 923 INTER-LIGAND FREE ENERGY PREDICTED BY IDOCK:   -8.74 KCAL/MOL
REMARK 924 INTRA-LIGAND FREE ENERGY PREDICTED BY IDOCK:   -1.48 KCAL/MOL
REMARK 927      BINDING AFFINITY PREDICTED BY RF-SCORE:    0.00 PKD
ROOT
HETATM    1  N   UNK A   0     -10.735   3.791  63.949  1.00  0.00    -0.338 NA 
HETATM    2  H1  UNK A   0     -10.214   3.026  63.521  1.00  0.00     0.000 HD 
HETATM    3  C   UNK A   0     -10.418   4.239  65.191  1.00  0.00    -0.173 C  
HETATM    4  H2  UNK A   0     -11.504   4.225  63.437  1.00  0.00     0.000 HD 
HETATM    5  N   UNK A   0     -11.083   5.214  65.736  1.00  0.00    -0.808 N  
HETATM    6  H   UNK A   0     -11.865   5.642  65.240  1.00  0.00     0.000 HD 
HETATM    7  C   UNK A   0     -10.720   5.673  67.005  1.00  0.00    -0.250 C  
HETATM    8  C   UNK A   0      -9.554   5.022  67.609  1.00  0.00    -0.173 A  
HETATM    9  O   UNK A   0     -11.326   6.566  67.584  1.00  0.00    -0.268 OA 
HETATM   10  C   UNK A   0      -8.937   3.999  66.941  1.00  0.00    -0.132 A  
HETATM   11  N   UNK A   0      -7.867   3.554  67.644  1.00  0.00    -0.077 NA 
HETATM   12  N   UNK A   0      -9.360   3.569  65.746  1.00  0.00    -0.160 NA 
HETATM   13  H   UNK A   0      -7.238   2.801  67.367  1.00  0.00     0.000 HD 
HETATM   14  C   UNK A   0      -7.780   4.298  68.797  1.00  0.00    -0.066 A  
HETATM   15  C   UNK A   0      -8.815   5.226  68.814  1.00  0.00    -0.104 A  
ENDROOT
BRANCH  15  16
HETATM   16  C   UNK A   0      -9.049   6.268  69.862  1.00  0.00    -0.145 C  
BRANCH  16  17
HETATM   17  C   UNK A   0      -8.108   7.480  69.754  1.00  0.00    -0.126 C  
BRANCH  17  18
HETATM   18  C   UNK A   0      -8.767   8.707  69.150  1.00  0.00    -0.136 A  
HETATM   19  C   UNK A   0      -9.515   9.595  69.933  1.00  0.00    -0.260 A  
HETATM   20  C   UNK A   0     -10.216  10.649  69.348  1.00  0.00    -0.218 A  
HETATM   21  C   UNK A   0     -10.161  10.848  67.966  1.00  0.00    -0.202 A  
HETATM   22  C   UNK A   0      -9.319  10.052  67.187  1.00  0.00    -0.173 A  
HETATM   23  C   UNK A   0      -8.629   8.983  67.778  1.00  0.00    -0.121 A  
BRANCH  21  24
HETATM   24  C   UNK A   0     -11.047  11.859  67.324  1.00  0.00    -0.288 C  
HETATM   25  O   UNK A   0     -12.114  12.214  67.809  1.00  0.00    -0.508 OA 
ATOM     26  N   GLU A   1     -10.555  12.395  66.151  1.00  0.00    -0.249 N  
ATOM     27  H   GLU A   1      -9.657  12.069  65.794  1.00  0.00     0.000 HD 
BRANCH  26  28
ATOM     28  CA  GLU A   1     -11.285  13.414  65.411  1.00  0.00    -0.288 C  
ATOM     29  C   GLU A   1     -12.040  12.747  64.256  1.00  0.00    -0.425 C  
ATOM     30  O   GLU A   1     -13.281  12.330  64.593  1.00  0.00    -0.763 OA 
ATOM     31  OXT GLU A   1     -11.572  12.585  63.129  1.00  0.00    -0.419 OA 
BRANCH  28  32
ATOM     32  CB  GLU A   1     -10.330  14.490  64.877  1.00  0.00    -0.401 C  
BRANCH  32  33
ATOM     33  CG  GLU A   1      -9.431  15.049  65.978  1.00  0.00    -0.337 C  
ATOM     34  CD  GLU A   1      -9.855  16.440  66.363  1.00  0.00    -0.294 C  
ATOM     35  OE1 GLU A   1     -10.740  16.475  67.381  1.00  0.00    -0.315 OA 
ATOM     36  OE2 GLU A   1      -9.465  17.447  65.789  1.00  0.00    -0.523 OA 
ENDBRANCH  32  33
ENDBRANCH  28  32
ENDBRANCH  26  28
ENDBRANCH  21  24
ENDBRANCH  17  18
ENDBRANCH  16  17
ENDBRANCH  15  16
TORSDOF 7
ENDMDL
MODEL       72
REMARK 921   NORMALIZED FREE ENERGY PREDICTED BY IDOCK:   -5.38 KCAL/MOL
REMARK 922        TOTAL FREE ENERGY PREDICTED BY IDOCK:  -10.22 KCAL/MOL
REMARK 923 INTER-LIGAND FREE ENERGY PREDICTED BY IDOCK:   -8.71 KCAL/MOL
REMARK 924 INTRA-LIGAND FREE ENERGY PREDICTED BY IDOCK:   -1.51 KCAL/MOL
REMARK 927      BINDING AFFINITY PREDICTED BY RF-SCORE:    0.00 PKD
ROOT
HETATM    1  N   UNK A   0      -9.715   3.973  69.681  1.00  0.00    -0.209 NA 
HETATM    2  H1  UNK A   0     -10.090   3.047  69.479  1.00  0.00     0.000 HD 
HETATM    3  C   UNK A   0      -9.150   4.724  68.701  1.00  0.00    -0.113 C  
HETATM    4  H2  UNK A   0      -9.766   4.341  70.632  1.00  0.00     0.000 HD 
HETATM    5  N   UNK A   0      -8.672   5.905  68.959  1.00  0.00    -0.114 N  
HETATM    6  H   UNK A   0      -8.701   6.274  69.909  1.00  0.00     0.000 HD 
HETATM    7  C   UNK A   0      -8.118   6.667  67.927  1.00  0.00    -0.113 C  
HETATM    8  C   UNK A   0      -8.169   6.065  66.591  1.00  0.00    -0.106 A  
HETATM    9  O   UNK A   0      -7.625   7.772  68.111  1.00  0.00    -0.110 OA 
HETATM   10  C   UNK A   0      -8.693   4.809  66.443  1.00  0.00    -0.112 A  
HETATM   11  N   UNK A   0      -8.681   4.445  65.137  1.00  0.00    -0.125 NA 
HETATM   12  N   UNK A   0      -9.166   4.105  67.479  1.00  0.00    -0.144 NA 
HETATM   13  H   UNK A   0      -9.015   3.559  64.759  1.00  0.00     0.000 HD 
HETATM   14  C   UNK A   0      -8.139   5.480  64.414  1.00  0.00    -0.124 A  
HETATM   15  C   UNK A   0      -7.806   6.512  65.285  1.00  0.00    -0.109 A  
ENDROOT
BRANCH  15  16
HETATM   16  C   UNK A   0      -7.245   7.844  64.900  1.00  0.00    -0.066 C  
BRANCH  16  17
HETATM   17  C   UNK A   0      -7.881   8.446  63.636  1.00  0.00    -0.152 C  
BRANCH  17  18
HETATM   18  C   UNK A   0      -8.947   9.487  63.931  1.00  0.00    -0.217 A  
HETATM   19  C   UNK A   0      -9.423  10.348  62.935  1.00  0.00    -0.354 A  
HETATM   20  C   UNK A   0     -10.310  11.379  63.244  1.00  0.00    -0.422 A  
HETATM   21  C   UNK A   0     -10.758  11.551  64.557  1.00  0.00    -0.390 A  
HETATM   22  C   UNK A   0     -10.396  10.623  65.536  1.00  0.00    -0.297 A  
HETATM   23  C   UNK A   0      -9.490   9.599  65.224  1.00  0.00    -0.342 A  
BRANCH  21  24
HETATM   24  C   UNK A   0     -11.560  12.753  64.918  1.00  0.00    -0.330 C  
HETATM   25  O   UNK A   0     -12.751  12.864  64.653  1.00  0.00    -0.654 OA 
ATOM     26  N   GLU A   1     -10.864  13.724  65.610  1.00  0.00    -0.283 N  
ATOM     27  H   GLU A   1      -9.875  13.578  65.812  1.00  0.00     0.000 HD 
BRANCH  26  28
ATOM     28  CA  GLU A   1     -11.506  14.949  66.060  1.00  0.00    -0.275 C  
ATOM     29  C   GLU A   1     -10.904  16.136  65.299  1.00  0.00    -0.336 C  
ATOM     30  O   GLU A   1     -11.544  16.415  64.141  1.00  0.00    -0.962 OA 
ATOM     31  OXT GLU A   1      -9.924  16.776  65.683  1.00  0.00    -0.538 OA 
BRANCH  28  32
ATOM     32  CB  GLU A   1     -11.328  15.136  67.573  1.00  0.00    -0.325 C  
BRANCH  32  33
ATOM     33  CG  GLU A   1     -10.625  13.940  68.213  1.00  0.00    -0.263 C  
ATOM     34  CD  GLU A   1     -11.610  13.064  68.938  1.00  0.00    -0.311 C  
ATOM     35  OE1 GLU A   1     -12.115  12.071  68.176  1.00  0.00    -0.480 OA 
ATOM     36  OE2 GLU A   1     -11.952  13.249  70.097  1.00  0.00    -0.330 OA 
ENDBRANCH  32  33
ENDBRANCH  28  32
ENDBRANCH  26  28
ENDBRANCH  21  24
ENDBRANCH  17  18
ENDBRANCH  16  17
ENDBRANCH  15  16
TORSDOF 7
ENDMDL
MODEL       73
REMARK 921   NORMALIZED FREE ENERGY PREDICTED BY IDOCK:   -5.36 KCAL/MOL
REMARK 922        TOTAL FREE ENERGY PREDICTED BY IDOCK:  -10.20 KCAL/MOL
REMARK 923 INTER-LIGAND FREE ENERGY PREDICTED BY IDOCK:   -8.98 KCAL/MOL
REMARK 924 INTRA-LIGAND FREE ENERGY PREDICTED BY IDOCK:   -1.21 KCAL/MOL
REMARK 927      BINDING AFFINITY PREDICTED BY RF-SCORE:    0.00 PKD
ROOT
HETATM    1  N   UNK A   0     -14.152   8.889  73.372  1.00  0.00    -1.135 NA 
HETATM    2  H1  UNK A   0     -14.182   7.957  73.783  1.00  0.00     0.000 HD 
HETATM    3  C   UNK A   0     -13.283   9.180  72.370  1.00  0.00    -0.444 C  
HETATM    4  H2  UNK A   0     -14.783   9.612  73.717  1.00  0.00     0.000 HD 
HETATM    5  N   UNK A   0     -13.245  10.369  71.845  1.00  0.00    -0.451 N  
HETATM    6  H   UNK A   0     -13.859  11.104  72.196  1.00  0.00     0.000 HD 
HETATM    7  C   UNK A   0     -12.359  10.635  70.798  1.00  0.00    -0.376 C  
HETATM    8  C   UNK A   0     -11.556   9.498  70.338  1.00  0.00    -0.268 A  
HETATM    9  O   UNK A   0     -12.255  11.741  70.284  1.00  0.00    -0.324 OA 
HETATM   10  C   UNK A   0     -11.678   8.292  70.973  1.00  0.00    -0.270 A  
HETATM   11  N   UNK A   0     -10.883   7.366  70.383  1.00  0.00    -0.239 NA 
HETATM   12  N   UNK A   0     -12.511   8.108  72.005  1.00  0.00    -0.324 NA 
HETATM   13  H   UNK A   0     -10.789   6.390  70.663  1.00  0.00     0.000 HD 
HETATM   14  C   UNK A   0     -10.226   7.976  69.340  1.00  0.00    -0.210 A  
HETATM   15  C   UNK A   0     -10.618   9.308  69.279  1.00  0.00    -0.234 A  
ENDROOT
BRANCH  15  16
HETATM   16  C   UNK A   0     -10.185  10.308  68.254  1.00  0.00    -0.184 C  
BRANCH  16  17
HETATM   17  C   UNK A   0      -8.979  11.160  68.688  1.00  0.00    -0.162 C  
BRANCH  17  18
HETATM   18  C   UNK A   0      -9.168  12.647  68.439  1.00  0.00    -0.135 A  
HETATM   19  C   UNK A   0      -8.214  13.584  68.857  1.00  0.00     0.149 A  
HETATM   20  C   UNK A   0      -8.454  14.952  68.734  1.00  0.00    -0.172 A  
HETATM   21  C   UNK A   0      -9.646  15.408  68.165  1.00  0.00    -0.203 A  
HETATM   22  C   UNK A   0     -10.550  14.489  67.626  1.00  0.00    -0.251 A  
HETATM   23  C   UNK A   0     -10.312  13.114  67.768  1.00  0.00    -0.230 A  
BRANCH  21  24
HETATM   24  C   UNK A   0      -9.978  16.860  68.196  1.00  0.00    -0.285 C  
HETATM   25  O   UNK A   0     -11.077  17.286  68.525  1.00  0.00    -0.226 OA 
ATOM     26  N   GLU A   1      -8.933  17.697  67.856  1.00  0.00    -0.245 N  
ATOM     27  H   GLU A   1      -8.035  17.290  67.596  1.00  0.00     0.000 HD 
BRANCH  26  28
ATOM     28  CA  GLU A   1      -9.082  19.144  67.860  1.00  0.00    -0.302 C  
ATOM     29  C   GLU A   1      -9.190  19.639  66.413  1.00  0.00    -0.381 C  
ATOM     30  O   GLU A   1     -10.459  19.670  65.948  1.00  0.00    -0.494 OA 
ATOM     31  OXT GLU A   1      -8.225  19.966  65.722  1.00  0.00    -0.346 OA 
BRANCH  28  32
ATOM     32  CB  GLU A   1      -7.895  19.813  68.568  1.00  0.00    -0.310 C  
BRANCH  32  33
ATOM     33  CG  GLU A   1      -6.575  19.116  68.243  1.00  0.00    -0.269 C  
ATOM     34  CD  GLU A   1      -5.881  18.670  69.500  1.00  0.00    -0.247 C  
ATOM     35  OE1 GLU A   1      -6.192  17.411  69.872  1.00  0.00    -0.232 OA 
ATOM     36  OE2 GLU A   1      -5.130  19.385  70.147  1.00  0.00    -0.184 OA 
ENDBRANCH  32  33
ENDBRANCH  28  32
ENDBRANCH  26  28
ENDBRANCH  21  24
ENDBRANCH  17  18
ENDBRANCH  16  17
ENDBRANCH  15  16
TORSDOF 7
ENDMDL
MODEL       74
REMARK 921   NORMALIZED FREE ENERGY PREDICTED BY IDOCK:   -5.34 KCAL/MOL
REMARK 922        TOTAL FREE ENERGY PREDICTED BY IDOCK:  -10.17 KCAL/MOL
REMARK 923 INTER-LIGAND FREE ENERGY PREDICTED BY IDOCK:   -9.70 KCAL/MOL
REMARK 924 INTRA-LIGAND FREE ENERGY PREDICTED BY IDOCK:   -0.47 KCAL/MOL
REMARK 927      BINDING AFFINITY PREDICTED BY RF-SCORE:    0.00 PKD
ROOT
HETATM    1  N   UNK A   0     -14.157   8.780  73.366  1.00  0.00    -1.065 NA 
HETATM    2  H1  UNK A   0     -14.759   9.387  73.921  1.00  0.00     0.000 HD 
HETATM    3  C   UNK A   0     -13.417   9.280  72.343  1.00  0.00    -0.459 C  
HETATM    4  H2  UNK A   0     -14.109   7.784  73.584  1.00  0.00     0.000 HD 
HETATM    5  N   UNK A   0     -12.649   8.505  71.636  1.00  0.00    -0.321 N  
HETATM    6  H   UNK A   0     -12.608   7.505  71.834  1.00  0.00     0.000 HD 
HETATM    7  C   UNK A   0     -11.879   9.049  70.605  1.00  0.00    -0.154 C  
HETATM    8  C   UNK A   0     -11.976  10.502  70.436  1.00  0.00    -0.425 A  
HETATM    9  O   UNK A   0     -11.161   8.367  69.885  1.00  0.00    -0.216 OA 
HETATM   10  C   UNK A   0     -12.825  11.214  71.238  1.00  0.00    -0.412 A  
HETATM   11  N   UNK A   0     -12.747  12.537  70.951  1.00  0.00    -0.243 NA 
HETATM   12  N   UNK A   0     -13.576  10.631  72.180  1.00  0.00    -0.182 NA 
HETATM   13  H   UNK A   0     -13.276  13.282  71.405  1.00  0.00     0.000 HD 
HETATM   14  C   UNK A   0     -11.829  12.697  69.940  1.00  0.00    -0.294 A  
HETATM   15  C   UNK A   0     -11.324  11.449  69.590  1.00  0.00    -0.347 A  
ENDROOT
BRANCH  15  16
HETATM   16  C   UNK A   0     -10.259  11.183  68.574  1.00  0.00    -0.209 C  
BRANCH  16  17
HETATM   17  C   UNK A   0     -10.468  11.927  67.244  1.00  0.00    -0.248 C  
BRANCH  17  18
HETATM   18  C   UNK A   0      -9.514  13.092  67.045  1.00  0.00    -0.242 A  
HETATM   19  C   UNK A   0      -8.180  13.025  67.467  1.00  0.00    -0.181 A  
HETATM   20  C   UNK A   0      -7.349  14.142  67.391  1.00  0.00    -0.143 A  
HETATM   21  C   UNK A   0      -7.832  15.344  66.866  1.00  0.00    -0.196 A  
HETATM   22  C   UNK A   0      -9.118  15.392  66.323  1.00  0.00    -0.355 A  
HETATM   23  C   UNK A   0      -9.956  14.271  66.418  1.00  0.00    -0.302 A  
BRANCH  21  24
HETATM   24  C   UNK A   0      -7.003  16.578  66.949  1.00  0.00    -0.223 C  
HETATM   25  O   UNK A   0      -5.804  16.595  66.700  1.00  0.00    -0.320 OA 
ATOM     26  N   GLU A   1      -7.700  17.719  67.297  1.00  0.00    -0.203 N  
ATOM     27  H   GLU A   1      -8.700  17.651  67.488  1.00  0.00     0.000 HD 
BRANCH  26  28
ATOM     28  CA  GLU A   1      -7.045  19.014  67.398  1.00  0.00    -0.212 C  
ATOM     29  C   GLU A   1      -6.840  19.355  68.878  1.00  0.00    -0.335 C  
ATOM     30  O   GLU A   1      -5.667  18.902  69.378  1.00  0.00    -0.211 OA 
ATOM     31  OXT GLU A   1      -7.658  19.968  69.564  1.00  0.00    -0.087 OA 
BRANCH  28  32
ATOM     32  CB  GLU A   1      -7.878  20.103  66.707  1.00  0.00    -0.342 C  
BRANCH  32  33
ATOM     33  CG  GLU A   1      -9.267  20.234  67.330  1.00  0.00    -0.523 C  
ATOM     34  CD  GLU A   1     -10.284  19.456  66.540  1.00  0.00    -0.450 C  
ATOM     35  OE1 GLU A   1     -10.457  18.191  66.978  1.00  0.00    -0.372 OA 
ATOM     36  OE2 GLU A   1     -10.877  19.908  65.573  1.00  0.00    -0.426 OA 
ENDBRANCH  32  33
ENDBRANCH  28  32
ENDBRANCH  26  28
ENDBRANCH  21  24
ENDBRANCH  17  18
ENDBRANCH  16  17
ENDBRANCH  15  16
TORSDOF 7
ENDMDL
MODEL       75
REMARK 921   NORMALIZED FREE ENERGY PREDICTED BY IDOCK:   -5.32 KCAL/MOL
REMARK 922        TOTAL FREE ENERGY PREDICTED BY IDOCK:  -10.14 KCAL/MOL
REMARK 923 INTER-LIGAND FREE ENERGY PREDICTED BY IDOCK:   -9.17 KCAL/MOL
REMARK 924 INTRA-LIGAND FREE ENERGY PREDICTED BY IDOCK:   -0.97 KCAL/MOL
REMARK 927      BINDING AFFINITY PREDICTED BY RF-SCORE:    0.00 PKD
ROOT
HETATM    1  N   UNK A   0     -10.156  20.328  66.949  1.00  0.00    -0.452 NA 
HETATM    2  H1  UNK A   0     -10.127  20.892  67.797  1.00  0.00     0.000 HD 
HETATM    3  C   UNK A   0     -10.229  18.974  67.015  1.00  0.00    -0.386 C  
HETATM    4  H2  UNK A   0     -10.131  20.788  66.038  1.00  0.00     0.000 HD 
HETATM    5  N   UNK A   0     -10.266  18.255  65.932  1.00  0.00    -0.298 N  
HETATM    6  H   UNK A   0     -10.222  18.704  65.017  1.00  0.00     0.000 HD 
HETATM    7  C   UNK A   0     -10.365  16.865  66.028  1.00  0.00    -0.325 C  
HETATM    8  C   UNK A   0     -10.469  16.326  67.387  1.00  0.00    -0.304 A  
HETATM    9  O   UNK A   0     -10.374  16.133  65.047  1.00  0.00    -0.573 OA 
HETATM   10  C   UNK A   0     -10.413  17.182  68.453  1.00  0.00    -0.376 A  
HETATM   11  N   UNK A   0     -10.559  16.499  69.615  1.00  0.00    -0.320 NA 
HETATM   12  N   UNK A   0     -10.268  18.504  68.301  1.00  0.00    -0.376 NA 
HETATM   13  H   UNK A   0     -10.555  16.901  70.552  1.00  0.00     0.000 HD 
HETATM   14  C   UNK A   0     -10.714  15.168  69.306  1.00  0.00    -0.250 A  
HETATM   15  C   UNK A   0     -10.664  15.017  67.925  1.00  0.00    -0.268 A  
ENDROOT
BRANCH  15  16
HETATM   16  C   UNK A   0     -10.849  13.739  67.170  1.00  0.00    -0.288 C  
BRANCH  16  17
HETATM   17  C   UNK A   0     -11.898  12.799  67.787  1.00  0.00    -0.387 C  
BRANCH  17  18
HETATM   18  C   UNK A   0     -11.317  11.823  68.797  1.00  0.00    -0.325 A  
HETATM   19  C   UNK A   0     -10.027  11.299  68.647  1.00  0.00    -0.210 A  
HETATM   20  C   UNK A   0      -9.552  10.313  69.511  1.00  0.00    -0.225 A  
HETATM   21  C   UNK A   0     -10.352   9.851  70.559  1.00  0.00    -0.298 A  
HETATM   22  C   UNK A   0     -11.589  10.453  70.800  1.00  0.00    -0.450 A  
HETATM   23  C   UNK A   0     -12.069  11.432  69.919  1.00  0.00    -0.404 A  
BRANCH  21  24
HETATM   24  C   UNK A   0      -9.915   8.678  71.368  1.00  0.00    -0.254 C  
HETATM   25  O   UNK A   0      -9.299   8.787  72.420  1.00  0.00    -0.331 OA 
ATOM     26  N   GLU A   1     -10.291   7.452  70.856  1.00  0.00    -0.201 N  
ATOM     27  H   GLU A   1     -10.811   7.418  69.978  1.00  0.00     0.000 HD 
BRANCH  26  28
ATOM     28  CA  GLU A   1      -9.966   6.208  71.536  1.00  0.00    -0.182 C  
ATOM     29  C   GLU A   1      -9.416   5.208  70.512  1.00  0.00    -0.169 C  
ATOM     30  O   GLU A   1      -8.075   5.284  70.352  1.00  0.00    -0.092 OA 
ATOM     31  OXT GLU A   1     -10.113   4.416  69.878  1.00  0.00    -0.222 OA 
BRANCH  28  32
ATOM     32  CB  GLU A   1     -11.203   5.630  72.238  1.00  0.00    -0.317 C  
BRANCH  32  33
ATOM     33  CG  GLU A   1     -10.865   5.088  73.626  1.00  0.00    -0.369 C  
ATOM     34  CD  GLU A   1     -10.597   3.609  73.574  1.00  0.00    -0.195 C  
ATOM     35  OE1 GLU A   1      -9.296   3.301  73.387  1.00  0.00    -0.095 OA 
ATOM     36  OE2 GLU A   1     -11.472   2.760  73.658  1.00  0.00    -0.227 OA 
ENDBRANCH  32  33
ENDBRANCH  28  32
ENDBRANCH  26  28
ENDBRANCH  21  24
ENDBRANCH  17  18
ENDBRANCH  16  17
ENDBRANCH  15  16
TORSDOF 7
ENDMDL
MODEL       76
REMARK 921   NORMALIZED FREE ENERGY PREDICTED BY IDOCK:   -5.32 KCAL/MOL
REMARK 922        TOTAL FREE ENERGY PREDICTED BY IDOCK:  -10.14 KCAL/MOL
REMARK 923 INTER-LIGAND FREE ENERGY PREDICTED BY IDOCK:   -9.17 KCAL/MOL
REMARK 924 INTRA-LIGAND FREE ENERGY PREDICTED BY IDOCK:   -0.98 KCAL/MOL
REMARK 927      BINDING AFFINITY PREDICTED BY RF-SCORE:    0.00 PKD
ROOT
HETATM    1  N   UNK A   0     -10.406   3.509  64.635  1.00  0.00    -0.411 NA 
HETATM    2  H1  UNK A   0     -10.257   2.501  64.604  1.00  0.00     0.000 HD 
HETATM    3  C   UNK A   0     -10.258   4.198  65.796  1.00  0.00    -0.121 C  
HETATM    4  H2  UNK A   0     -10.668   4.006  63.784  1.00  0.00     0.000 HD 
HETATM    5  N   UNK A   0     -10.447   5.484  65.836  1.00  0.00    -0.457 N  
HETATM    6  H   UNK A   0     -10.728   5.987  64.994  1.00  0.00     0.000 HD 
HETATM    7  C   UNK A   0     -10.264   6.173  67.037  1.00  0.00    -0.202 C  
HETATM    8  C   UNK A   0      -9.815   5.364  68.174  1.00  0.00    -0.188 A  
HETATM    9  O   UNK A   0     -10.456   7.377  67.146  1.00  0.00    -0.271 OA 
HETATM   10  C   UNK A   0      -9.655   4.014  68.013  1.00  0.00    -0.136 A  
HETATM   11  N   UNK A   0      -9.205   3.453  69.162  1.00  0.00    -0.147 NA 
HETATM   12  N   UNK A   0      -9.892   3.400  66.848  1.00  0.00     0.062 NA 
HETATM   13  H   UNK A   0      -9.004   2.463  69.308  1.00  0.00     0.000 HD 
HETATM   14  C   UNK A   0      -9.067   4.452  70.096  1.00  0.00    -0.105 A  
HETATM   15  C   UNK A   0      -9.438   5.662  69.519  1.00  0.00    -0.174 A  
ENDROOT
BRANCH  15  16
HETATM   16  C   UNK A   0      -9.380   7.005  70.173  1.00  0.00    -0.162 C  
BRANCH  16  17
HETATM   17  C   UNK A   0     -10.752   7.542  70.615  1.00  0.00    -0.239 C  
BRANCH  17  18
HETATM   18  C   UNK A   0     -10.946   9.021  70.326  1.00  0.00    -0.274 A  
HETATM   19  C   UNK A   0     -11.989   9.749  70.913  1.00  0.00    -0.413 A  
HETATM   20  C   UNK A   0     -12.231  11.072  70.546  1.00  0.00    -0.472 A  
HETATM   21  C   UNK A   0     -11.415  11.700  69.601  1.00  0.00    -0.359 A  
HETATM   22  C   UNK A   0     -10.295  11.032  69.103  1.00  0.00    -0.210 A  
HETATM   23  C   UNK A   0     -10.066   9.696  69.462  1.00  0.00    -0.223 A  
BRANCH  21  24
HETATM   24  C   UNK A   0     -11.780  13.048  69.082  1.00  0.00    -0.326 C  
HETATM   25  O   UNK A   0     -12.317  13.906  69.771  1.00  0.00    -0.329 OA 
ATOM     26  N   GLU A   1     -11.434  13.271  67.764  1.00  0.00    -0.298 N  
ATOM     27  H   GLU A   1     -10.982  12.524  67.236  1.00  0.00     0.000 HD 
BRANCH  26  28
ATOM     28  CA  GLU A   1     -11.696  14.544  67.110  1.00  0.00    -0.399 C  
ATOM     29  C   GLU A   1     -11.878  14.304  65.606  1.00  0.00    -0.373 C  
ATOM     30  O   GLU A   1     -13.157  14.041  65.254  1.00  0.00    -0.782 OA 
ATOM     31  OXT GLU A   1     -10.959  14.330  64.788  1.00  0.00    -0.378 OA 
BRANCH  28  32
ATOM     32  CB  GLU A   1     -10.550  15.534  67.359  1.00  0.00    -0.292 C  
BRANCH  32  33
ATOM     33  CG  GLU A   1     -10.933  16.597  68.387  1.00  0.00    -0.345 C  
ATOM     34  CD  GLU A   1     -10.180  17.876  68.142  1.00  0.00    -0.382 C  
ATOM     35  OE1 GLU A   1     -10.833  18.743  67.339  1.00  0.00    -0.449 OA 
ATOM     36  OE2 GLU A   1      -9.068  18.103  68.595  1.00  0.00    -0.308 OA 
ENDBRANCH  32  33
ENDBRANCH  28  32
ENDBRANCH  26  28
ENDBRANCH  21  24
ENDBRANCH  17  18
ENDBRANCH  16  17
ENDBRANCH  15  16
TORSDOF 7
ENDMDL
MODEL       77
REMARK 921   NORMALIZED FREE ENERGY PREDICTED BY IDOCK:   -5.30 KCAL/MOL
REMARK 922        TOTAL FREE ENERGY PREDICTED BY IDOCK:  -10.11 KCAL/MOL
REMARK 923 INTER-LIGAND FREE ENERGY PREDICTED BY IDOCK:   -8.66 KCAL/MOL
REMARK 924 INTRA-LIGAND FREE ENERGY PREDICTED BY IDOCK:   -1.45 KCAL/MOL
REMARK 927      BINDING AFFINITY PREDICTED BY RF-SCORE:    0.00 PKD
ROOT
HETATM    1  N   UNK A   0     -12.650  15.118  63.870  1.00  0.00    -0.932 NA 
HETATM    2  H1  UNK A   0     -12.744  15.300  62.871  1.00  0.00     0.000 HD 
HETATM    3  C   UNK A   0     -12.048  13.987  64.317  1.00  0.00    -0.445 C  
HETATM    4  H2  UNK A   0     -13.013  15.795  64.541  1.00  0.00     0.000 HD 
HETATM    5  N   UNK A   0     -11.928  13.755  65.592  1.00  0.00    -0.366 N  
HETATM    6  H   UNK A   0     -12.304  14.417  66.270  1.00  0.00     0.000 HD 
HETATM    7  C   UNK A   0     -11.281  12.595  66.026  1.00  0.00    -0.306 C  
HETATM    8  C   UNK A   0     -10.737  11.736  64.970  1.00  0.00    -0.344 A  
HETATM    9  O   UNK A   0     -11.164  12.307  67.209  1.00  0.00    -0.264 OA 
HETATM   10  C   UNK A   0     -10.930  12.081  63.660  1.00  0.00    -0.448 A  
HETATM   11  N   UNK A   0     -10.326  11.184  62.842  1.00  0.00    -0.739 NA 
HETATM   12  N   UNK A   0     -11.601  13.182  63.302  1.00  0.00    -0.275 NA 
HETATM   13  H   UNK A   0     -10.320  11.211  61.823  1.00  0.00     0.000 HD 
HETATM   14  C   UNK A   0      -9.725  10.231  63.630  1.00  0.00    -0.213 A  
HETATM   15  C   UNK A   0      -9.958  10.540  64.966  1.00  0.00    -0.388 A  
ENDROOT
BRANCH  15  16
HETATM   16  C   UNK A   0      -9.429   9.792  66.149  1.00  0.00    -0.261 C  
BRANCH  16  17
HETATM   17  C   UNK A   0     -10.403   8.741  66.707  1.00  0.00    -0.328 C  
BRANCH  17  18
HETATM   18  C   UNK A   0     -10.287   8.543  68.209  1.00  0.00    -0.246 A  
HETATM   19  C   UNK A   0      -9.863   9.579  69.051  1.00  0.00    -0.178 A  
HETATM   20  C   UNK A   0      -9.643   9.352  70.409  1.00  0.00    -0.319 A  
HETATM   21  C   UNK A   0      -9.866   8.085  70.955  1.00  0.00    -0.195 A  
HETATM   22  C   UNK A   0     -10.411   7.076  70.157  1.00  0.00    -0.213 A  
HETATM   23  C   UNK A   0     -10.615   7.305  68.789  1.00  0.00    -0.202 A  
BRANCH  21  24
HETATM   24  C   UNK A   0      -9.463   7.799  72.360  1.00  0.00    -0.178 C  
HETATM   25  O   UNK A   0      -9.150   8.675  73.156  1.00  0.00    -0.270 OA 
ATOM     26  N   GLU A   1      -9.502   6.464  72.710  1.00  0.00    -0.144 N  
ATOM     27  H   GLU A   1      -9.776   5.774  72.010  1.00  0.00     0.000 HD 
BRANCH  26  28
ATOM     28  CA  GLU A   1      -9.162   6.016  74.052  1.00  0.00    -0.131 C  
ATOM     29  C   GLU A   1      -7.742   5.439  74.040  1.00  0.00    -0.097 C  
ATOM     30  O   GLU A   1      -6.783   6.362  74.279  1.00  0.00    -0.077 OA 
ATOM     31  OXT GLU A   1      -7.480   4.255  73.823  1.00  0.00    -0.074 OA 
BRANCH  28  32
ATOM     32  CB  GLU A   1     -10.164   4.963  74.547  1.00  0.00    -0.302 C  
BRANCH  32  33
ATOM     33  CG  GLU A   1     -11.177   4.593  73.466  1.00  0.00    -0.400 C  
ATOM     34  CD  GLU A   1     -10.791   3.307  72.787  1.00  0.00     0.041 C  
ATOM     35  OE1 GLU A   1     -11.337   2.211  73.354  1.00  0.00    -0.197 OA 
ATOM     36  OE2 GLU A   1     -10.029   3.249  71.833  1.00  0.00    -0.168 OA 
ENDBRANCH  32  33
ENDBRANCH  28  32
ENDBRANCH  26  28
ENDBRANCH  21  24
ENDBRANCH  17  18
ENDBRANCH  16  17
ENDBRANCH  15  16
TORSDOF 7
ENDMDL
MODEL       78
REMARK 921   NORMALIZED FREE ENERGY PREDICTED BY IDOCK:   -5.30 KCAL/MOL
REMARK 922        TOTAL FREE ENERGY PREDICTED BY IDOCK:  -10.11 KCAL/MOL
REMARK 923 INTER-LIGAND FREE ENERGY PREDICTED BY IDOCK:   -8.56 KCAL/MOL
REMARK 924 INTRA-LIGAND FREE ENERGY PREDICTED BY IDOCK:   -1.55 KCAL/MOL
REMARK 927      BINDING AFFINITY PREDICTED BY RF-SCORE:    0.00 PKD
ROOT
HETATM    1  N   UNK A   0      -6.399  17.163  69.697  1.00  0.00    -0.237 NA 
HETATM    2  H1  UNK A   0      -6.353  18.137  69.993  1.00  0.00     0.000 HD 
HETATM    3  C   UNK A   0      -7.319  16.756  68.785  1.00  0.00    -0.227 C  
HETATM    4  H2  UNK A   0      -5.746  16.486  70.090  1.00  0.00     0.000 HD 
HETATM    5  N   UNK A   0      -7.378  15.513  68.407  1.00  0.00    -0.112 N  
HETATM    6  H   UNK A   0      -6.741  14.825  68.809  1.00  0.00     0.000 HD 
HETATM    7  C   UNK A   0      -8.318  15.125  67.449  1.00  0.00    -0.186 C  
HETATM    8  C   UNK A   0      -9.151  16.200  66.902  1.00  0.00    -0.241 A  
HETATM    9  O   UNK A   0      -8.442  13.966  67.075  1.00  0.00    -0.199 OA 
HETATM   10  C   UNK A   0      -9.003  17.473  67.382  1.00  0.00    -0.230 A  
HETATM   11  N   UNK A   0      -9.834  18.323  66.731  1.00  0.00    -0.323 NA 
HETATM   12  N   UNK A   0      -8.117  17.777  68.338  1.00  0.00    -0.289 NA 
HETATM   13  H   UNK A   0      -9.919  19.325  66.899  1.00  0.00     0.000 HD 
HETATM   14  C   UNK A   0     -10.544  17.594  65.806  1.00  0.00    -0.177 A  
HETATM   15  C   UNK A   0     -10.147  16.264  65.880  1.00  0.00    -0.381 A  
ENDROOT
BRANCH  15  16
HETATM   16  C   UNK A   0     -10.629  15.150  65.006  1.00  0.00    -0.439 C  
BRANCH  16  17
HETATM   17  C   UNK A   0     -11.984  14.563  65.437  1.00  0.00    -0.332 C  
BRANCH  17  18
HETATM   18  C   UNK A   0     -11.872  13.534  66.549  1.00  0.00    -0.441 A  
HETATM   19  C   UNK A   0     -12.010  13.895  67.896  1.00  0.00    -0.393 A  
HETATM   20  C   UNK A   0     -11.784  12.967  68.912  1.00  0.00    -0.371 A  
HETATM   21  C   UNK A   0     -11.439  11.650  68.597  1.00  0.00    -0.349 A  
HETATM   22  C   UNK A   0     -11.423  11.241  67.262  1.00  0.00    -0.265 A  
HETATM   23  C   UNK A   0     -11.634  12.182  66.243  1.00  0.00    -0.424 A  
BRANCH  21  24
HETATM   24  C   UNK A   0     -11.026  10.711  69.677  1.00  0.00    -0.278 C  
HETATM   25  O   UNK A   0     -11.476  10.763  70.815  1.00  0.00    -0.306 OA 
ATOM     26  N   GLU A   1     -10.116   9.748  69.287  1.00  0.00    -0.186 N  
ATOM     27  H   GLU A   1      -9.778   9.745  68.325  1.00  0.00     0.000 HD 
BRANCH  26  28
ATOM     28  CA  GLU A   1      -9.629   8.738  70.214  1.00  0.00    -0.177 C  
ATOM     29  C   GLU A   1      -8.096   8.727  70.179  1.00  0.00    -0.114 C  
ATOM     30  O   GLU A   1      -7.532   9.581  71.064  1.00  0.00    -0.300 OA 
ATOM     31  OXT GLU A   1      -7.428   8.027  69.418  1.00  0.00    -0.091 OA 
BRANCH  28  32
ATOM     32  CB  GLU A   1     -10.182   7.352  69.852  1.00  0.00    -0.212 C  
BRANCH  32  33
ATOM     33  CG  GLU A   1     -10.465   6.513  71.097  1.00  0.00    -0.257 C  
ATOM     34  CD  GLU A   1     -11.483   7.184  71.977  1.00  0.00    -0.274 C  
ATOM     35  OE1 GLU A   1     -12.754   6.813  71.716  1.00  0.00    -0.362 OA 
ATOM     36  OE2 GLU A   1     -11.198   8.014  72.828  1.00  0.00    -0.384 OA 
ENDBRANCH  32  33
ENDBRANCH  28  32
ENDBRANCH  26  28
ENDBRANCH  21  24
ENDBRANCH  17  18
ENDBRANCH  16  17
ENDBRANCH  15  16
TORSDOF 7
ENDMDL
MODEL       79
REMARK 921   NORMALIZED FREE ENERGY PREDICTED BY IDOCK:   -5.28 KCAL/MOL
REMARK 922        TOTAL FREE ENERGY PREDICTED BY IDOCK:  -10.08 KCAL/MOL
REMARK 923 INTER-LIGAND FREE ENERGY PREDICTED BY IDOCK:   -9.33 KCAL/MOL
REMARK 924 INTRA-LIGAND FREE ENERGY PREDICTED BY IDOCK:   -0.75 KCAL/MOL
REMARK 927      BINDING AFFINITY PREDICTED BY RF-SCORE:    0.00 PKD
ROOT
HETATM    1  N   UNK A   0     -10.200   3.553  63.664  1.00  0.00    -0.197 NA 
HETATM    2  H1  UNK A   0      -9.816   2.665  63.342  1.00  0.00     0.000 HD 
HETATM    3  C   UNK A   0     -10.118   3.913  64.971  1.00  0.00    -0.162 C  
HETATM    4  H2  UNK A   0     -10.650   4.178  62.996  1.00  0.00     0.000 HD 
HETATM    5  N   UNK A   0     -10.607   5.046  65.382  1.00  0.00    -0.474 N  
HETATM    6  H   UNK A   0     -11.076   5.670  64.725  1.00  0.00     0.000 HD 
HETATM    7  C   UNK A   0     -10.487   5.403  66.727  1.00  0.00    -0.289 C  
HETATM    8  C   UNK A   0      -9.755   4.458  67.575  1.00  0.00    -0.211 A  
HETATM    9  O   UNK A   0     -10.953   6.441  67.180  1.00  0.00    -0.354 OA 
HETATM   10  C   UNK A   0      -9.290   3.292  67.031  1.00  0.00    -0.169 A  
HETATM   11  N   UNK A   0      -8.616   2.573  67.962  1.00  0.00    -0.084 NA 
HETATM   12  N   UNK A   0      -9.477   2.980  65.743  1.00  0.00    -0.077 NA 
HETATM   13  H   UNK A   0      -8.171   1.668  67.814  1.00  0.00     0.000 HD 
HETATM   14  C   UNK A   0      -8.640   3.280  69.141  1.00  0.00    -0.071 A  
HETATM   15  C   UNK A   0      -9.342   4.464  68.942  1.00  0.00    -0.216 A  
ENDROOT
BRANCH  15  16
HETATM   16  C   UNK A   0      -9.550   5.546  69.953  1.00  0.00    -0.217 C  
BRANCH  16  17
HETATM   17  C   UNK A   0     -11.030   5.852  70.241  1.00  0.00    -0.390 C  
BRANCH  17  18
HETATM   18  C   UNK A   0     -11.297   7.315  70.550  1.00  0.00    -0.308 A  
HETATM   19  C   UNK A   0     -12.343   7.704  71.396  1.00  0.00    -0.358 A  
HETATM   20  C   UNK A   0     -12.655   9.051  71.574  1.00  0.00    -0.400 A  
HETATM   21  C   UNK A   0     -11.907  10.038  70.926  1.00  0.00    -0.459 A  
HETATM   22  C   UNK A   0     -10.782   9.674  70.183  1.00  0.00    -0.321 A  
HETATM   23  C   UNK A   0     -10.483   8.317  69.993  1.00  0.00    -0.231 A  
BRANCH  21  24
HETATM   24  C   UNK A   0     -12.350  11.459  70.975  1.00  0.00    -0.343 C  
HETATM   25  O   UNK A   0     -13.136  11.885  71.812  1.00  0.00    -0.451 OA 
ATOM     26  N   GLU A   1     -11.775  12.275  70.021  1.00  0.00    -0.503 N  
ATOM     27  H   GLU A   1     -11.120  11.871  69.351  1.00  0.00     0.000 HD 
BRANCH  26  28
ATOM     28  CA  GLU A   1     -12.080  13.696  69.947  1.00  0.00    -0.341 C  
ATOM     29  C   GLU A   1     -11.600  14.239  68.595  1.00  0.00    -0.317 C  
ATOM     30  O   GLU A   1     -12.531  14.152  67.619  1.00  0.00    -0.151 OA 
ATOM     31  OXT GLU A   1     -10.476  14.700  68.398  1.00  0.00    -0.232 OA 
BRANCH  28  32
ATOM     32  CB  GLU A   1     -11.412  14.459  71.098  1.00  0.00     0.008 C  
BRANCH  32  33
ATOM     33  CG  GLU A   1     -12.107  15.791  71.375  1.00  0.00    -0.494 C  
ATOM     34  CD  GLU A   1     -13.266  15.606  72.315  1.00  0.00    -0.472 C  
ATOM     35  OE1 GLU A   1     -12.940  15.767  73.615  1.00  0.00    -0.518 OA 
ATOM     36  OE2 GLU A   1     -14.393  15.305  71.948  1.00  0.00    -0.523 OA 
ENDBRANCH  32  33
ENDBRANCH  28  32
ENDBRANCH  26  28
ENDBRANCH  21  24
ENDBRANCH  17  18
ENDBRANCH  16  17
ENDBRANCH  15  16
TORSDOF 7
ENDMDL
MODEL       80
REMARK 921   NORMALIZED FREE ENERGY PREDICTED BY IDOCK:   -5.27 KCAL/MOL
REMARK 922        TOTAL FREE ENERGY PREDICTED BY IDOCK:  -10.07 KCAL/MOL
REMARK 923 INTER-LIGAND FREE ENERGY PREDICTED BY IDOCK:   -8.79 KCAL/MOL
REMARK 924 INTRA-LIGAND FREE ENERGY PREDICTED BY IDOCK:   -1.29 KCAL/MOL
REMARK 927      BINDING AFFINITY PREDICTED BY RF-SCORE:    0.00 PKD
ROOT
HETATM    1  N   UNK A   0     -12.478  13.778  63.216  1.00  0.00    -1.092 NA 
HETATM    2  H1  UNK A   0     -13.121  14.428  63.667  1.00  0.00     0.000 HD 
HETATM    3  C   UNK A   0     -11.855  12.807  63.932  1.00  0.00    -0.468 C  
HETATM    4  H2  UNK A   0     -12.302  13.857  62.214  1.00  0.00     0.000 HD 
HETATM    5  N   UNK A   0     -11.035  11.977  63.356  1.00  0.00    -0.609 N  
HETATM    6  H   UNK A   0     -10.839  12.060  62.359  1.00  0.00     0.000 HD 
HETATM    7  C   UNK A   0     -10.426  10.971  64.111  1.00  0.00    -0.366 C  
HETATM    8  C   UNK A   0     -10.814  10.911  65.523  1.00  0.00    -0.106 A  
HETATM    9  O   UNK A   0      -9.623  10.180  63.633  1.00  0.00    -0.294 OA 
HETATM   10  C   UNK A   0     -11.683  11.844  66.019  1.00  0.00    -0.135 A  
HETATM   11  N   UNK A   0     -11.941  11.599  67.328  1.00  0.00    -0.602 NA 
HETATM   12  N   UNK A   0     -12.199  12.816  65.258  1.00  0.00    -0.464 NA 
HETATM   13  H   UNK A   0     -12.556  12.146  67.930  1.00  0.00     0.000 HD 
HETATM   14  C   UNK A   0     -11.227  10.485  67.698  1.00  0.00    -0.265 A  
HETATM   15  C   UNK A   0     -10.509  10.024  66.600  1.00  0.00    -0.244 A  
ENDROOT
BRANCH  15  16
HETATM   16  C   UNK A   0      -9.650   8.800  66.558  1.00  0.00    -0.302 C  
BRANCH  16  17
HETATM   17  C   UNK A   0      -8.398   8.888  67.447  1.00  0.00    -0.108 C  
BRANCH  17  18
HETATM   18  C   UNK A   0      -7.820  10.290  67.542  1.00  0.00    -0.102 A  
HETATM   19  C   UNK A   0      -8.223  11.181  68.544  1.00  0.00    -0.149 A  
HETATM   20  C   UNK A   0      -7.778  12.502  68.548  1.00  0.00    -0.113 A  
HETATM   21  C   UNK A   0      -6.898  12.950  67.559  1.00  0.00    -0.155 A  
HETATM   22  C   UNK A   0      -6.385  12.043  66.629  1.00  0.00     0.172 A  
HETATM   23  C   UNK A   0      -6.849  10.720  66.619  1.00  0.00    -0.125 A  
BRANCH  21  24
HETATM   24  C   UNK A   0      -6.565  14.399  67.460  1.00  0.00    -0.076 C  
HETATM   25  O   UNK A   0      -5.415  14.818  67.425  1.00  0.00    -0.338 OA 
ATOM     26  N   GLU A   1      -7.659  15.238  67.376  1.00  0.00    -0.185 N  
ATOM     27  H   GLU A   1      -8.596  14.836  67.403  1.00  0.00     0.000 HD 
BRANCH  26  28
ATOM     28  CA  GLU A   1      -7.508  16.679  67.249  1.00  0.00    -0.166 C  
ATOM     29  C   GLU A   1      -7.623  17.317  68.639  1.00  0.00    -0.260 C  
ATOM     30  O   GLU A   1      -6.440  17.412  69.287  1.00  0.00    -0.228 OA 
ATOM     31  OXT GLU A   1      -8.682  17.699  69.136  1.00  0.00    -0.066 OA 
BRANCH  28  32
ATOM     32  CB  GLU A   1      -8.570  17.259  66.304  1.00  0.00    -0.264 C  
BRANCH  32  33
ATOM     33  CG  GLU A   1      -9.906  16.530  66.439  1.00  0.00    -0.311 C  
ATOM     34  CD  GLU A   1     -10.307  15.897  65.135  1.00  0.00    -0.252 C  
ATOM     35  OE1 GLU A   1      -9.885  14.622  65.000  1.00  0.00    -0.264 OA 
ATOM     36  OE2 GLU A   1     -10.926  16.486  64.261  1.00  0.00    -0.848 OA 
ENDBRANCH  32  33
ENDBRANCH  28  32
ENDBRANCH  26  28
ENDBRANCH  21  24
ENDBRANCH  17  18
ENDBRANCH  16  17
ENDBRANCH  15  16
TORSDOF 7
ENDMDL
MODEL       81
REMARK 921   NORMALIZED FREE ENERGY PREDICTED BY IDOCK:   -5.27 KCAL/MOL
REMARK 922        TOTAL FREE ENERGY PREDICTED BY IDOCK:  -10.07 KCAL/MOL
REMARK 923 INTER-LIGAND FREE ENERGY PREDICTED BY IDOCK:   -8.84 KCAL/MOL
REMARK 924 INTRA-LIGAND FREE ENERGY PREDICTED BY IDOCK:   -1.23 KCAL/MOL
REMARK 927      BINDING AFFINITY PREDICTED BY RF-SCORE:    0.00 PKD
ROOT
HETATM    1  N   UNK A   0     -12.941  16.007  74.433  1.00  0.00    -0.929 NA 
HETATM    2  H1  UNK A   0     -12.651  16.968  74.609  1.00  0.00     0.000 HD 
HETATM    3  C   UNK A   0     -12.759  15.438  73.214  1.00  0.00    -0.508 C  
HETATM    4  H2  UNK A   0     -13.373  15.466  75.183  1.00  0.00     0.000 HD 
HETATM    5  N   UNK A   0     -13.129  14.211  72.989  1.00  0.00    -0.475 N  
HETATM    6  H   UNK A   0     -13.578  13.668  73.727  1.00  0.00     0.000 HD 
HETATM    7  C   UNK A   0     -12.907  13.641  71.733  1.00  0.00    -0.315 C  
HETATM    8  C   UNK A   0     -12.213  14.491  70.761  1.00  0.00    -0.403 A  
HETATM    9  O   UNK A   0     -13.260  12.503  71.452  1.00  0.00    -0.282 OA 
HETATM   10  C   UNK A   0     -11.877  15.770  71.110  1.00  0.00    -0.425 A  
HETATM   11  N   UNK A   0     -11.216  16.378  70.094  1.00  0.00    -0.438 NA 
HETATM   12  N   UNK A   0     -12.158  16.280  72.316  1.00  0.00    -0.516 NA 
HETATM   13  H   UNK A   0     -10.857  17.333  70.098  1.00  0.00     0.000 HD 
HETATM   14  C   UNK A   0     -11.117  15.481  69.057  1.00  0.00    -0.267 A  
HETATM   15  C   UNK A   0     -11.727  14.289  69.434  1.00  0.00    -0.363 A  
ENDROOT
BRANCH  15  16
HETATM   16  C   UNK A   0     -11.789  13.035  68.621  1.00  0.00    -0.353 C  
BRANCH  16  17
HETATM   17  C   UNK A   0     -10.491  12.211  68.648  1.00  0.00    -0.237 C  
BRANCH  17  18
HETATM   18  C   UNK A   0     -10.695  10.774  69.098  1.00  0.00    -0.265 A  
HETATM   19  C   UNK A   0     -10.817  10.443  70.453  1.00  0.00    -0.257 A  
HETATM   20  C   UNK A   0     -10.881   9.112  70.861  1.00  0.00    -0.345 A  
HETATM   21  C   UNK A   0     -10.849   8.084  69.914  1.00  0.00    -0.217 A  
HETATM   22  C   UNK A   0     -10.857   8.399  68.554  1.00  0.00     0.030 A  
HETATM   23  C   UNK A   0     -10.776   9.739  68.149  1.00  0.00    -0.280 A  
BRANCH  21  24
HETATM   24  C   UNK A   0     -10.738   6.667  70.358  1.00  0.00    -0.250 C  
HETATM   25  O   UNK A   0     -11.063   5.719  69.653  1.00  0.00    -0.372 OA 
ATOM     26  N   GLU A   1     -10.204   6.498  71.621  1.00  0.00    -0.193 N  
ATOM     27  H   GLU A   1      -9.943   7.321  72.164  1.00  0.00     0.000 HD 
BRANCH  26  28
ATOM     28  CA  GLU A   1     -10.004   5.176  72.195  1.00  0.00    -0.187 C  
ATOM     29  C   GLU A   1     -10.970   4.993  73.372  1.00  0.00    -0.327 C  
ATOM     30  O   GLU A   1     -12.168   4.479  73.011  1.00  0.00     0.046 OA 
ATOM     31  OXT GLU A   1     -10.703   5.291  74.536  1.00  0.00    -0.323 OA 
BRANCH  28  32
ATOM     32  CB  GLU A   1      -8.553   4.996  72.661  1.00  0.00    -0.119 C  
BRANCH  32  33
ATOM     33  CG  GLU A   1      -7.831   6.336  72.796  1.00  0.00    -0.105 C  
ATOM     34  CD  GLU A   1      -6.416   6.138  73.266  1.00  0.00    -0.069 C  
ATOM     35  OE1 GLU A   1      -5.523   6.017  72.261  1.00  0.00    -0.028 OA 
ATOM     36  OE2 GLU A   1      -6.101   6.059  74.444  1.00  0.00    -0.062 OA 
ENDBRANCH  32  33
ENDBRANCH  28  32
ENDBRANCH  26  28
ENDBRANCH  21  24
ENDBRANCH  17  18
ENDBRANCH  16  17
ENDBRANCH  15  16
TORSDOF 7
ENDMDL
MODEL       82
REMARK 921   NORMALIZED FREE ENERGY PREDICTED BY IDOCK:   -5.26 KCAL/MOL
REMARK 922        TOTAL FREE ENERGY PREDICTED BY IDOCK:  -10.05 KCAL/MOL
REMARK 923 INTER-LIGAND FREE ENERGY PREDICTED BY IDOCK:   -8.52 KCAL/MOL
REMARK 924 INTRA-LIGAND FREE ENERGY PREDICTED BY IDOCK:   -1.53 KCAL/MOL
REMARK 927      BINDING AFFINITY PREDICTED BY RF-SCORE:    0.00 PKD
ROOT
HETATM    1  N   UNK A   0     -10.985   3.768  64.212  1.00  0.00    -0.609 NA 
HETATM    2  H1  UNK A   0     -10.524   2.954  63.808  1.00  0.00     0.000 HD 
HETATM    3  C   UNK A   0     -10.591   4.267  65.412  1.00  0.00    -0.122 C  
HETATM    4  H2  UNK A   0     -11.753   4.214  63.709  1.00  0.00     0.000 HD 
HETATM    5  N   UNK A   0     -11.179   5.306  65.928  1.00  0.00    -0.792 N  
HETATM    6  H   UNK A   0     -11.960   5.747  65.441  1.00  0.00     0.000 HD 
HETATM    7  C   UNK A   0     -10.738   5.814  67.151  1.00  0.00    -0.275 C  
HETATM    8  C   UNK A   0      -9.581   5.136  67.743  1.00  0.00    -0.166 A  
HETATM    9  O   UNK A   0     -11.270   6.769  67.702  1.00  0.00    -0.256 OA 
HETATM   10  C   UNK A   0      -9.047   4.046  67.110  1.00  0.00    -0.150 A  
HETATM   11  N   UNK A   0      -7.971   3.584  67.792  1.00  0.00    -0.080 NA 
HETATM   12  N   UNK A   0      -9.544   3.573  65.960  1.00  0.00    -0.139 NA 
HETATM   13  H   UNK A   0      -7.395   2.783  67.533  1.00  0.00     0.000 HD 
HETATM   14  C   UNK A   0      -7.794   4.385  68.896  1.00  0.00    -0.070 A  
HETATM   15  C   UNK A   0      -8.779   5.367  68.902  1.00  0.00    -0.099 A  
ENDROOT
BRANCH  15  16
HETATM   16  C   UNK A   0      -8.912   6.476  69.896  1.00  0.00    -0.143 C  
BRANCH  16  17
HETATM   17  C   UNK A   0      -8.222   7.782  69.467  1.00  0.00    -0.128 C  
BRANCH  17  18
HETATM   18  C   UNK A   0      -9.196   8.895  69.119  1.00  0.00    -0.144 A  
HETATM   19  C   UNK A   0      -9.247   9.446  67.832  1.00  0.00    -0.139 A  
HETATM   20  C   UNK A   0     -10.056  10.548  67.558  1.00  0.00    -0.225 A  
HETATM   21  C   UNK A   0     -10.851  11.104  68.564  1.00  0.00    -0.243 A  
HETATM   22  C   UNK A   0     -10.910  10.490  69.816  1.00  0.00    -0.335 A  
HETATM   23  C   UNK A   0     -10.081   9.392  70.092  1.00  0.00    -0.273 A  
BRANCH  21  24
HETATM   24  C   UNK A   0     -11.575  12.383  68.318  1.00  0.00    -0.333 C  
HETATM   25  O   UNK A   0     -12.287  12.568  67.338  1.00  0.00    -0.338 OA 
ATOM     26  N   GLU A   1     -11.411  13.337  69.302  1.00  0.00    -0.339 N  
ATOM     27  H   GLU A   1     -10.812  13.129  70.101  1.00  0.00     0.000 HD 
BRANCH  26  28
ATOM     28  CA  GLU A   1     -12.070  14.632  69.228  1.00  0.00    -0.272 C  
ATOM     29  C   GLU A   1     -11.009  15.722  69.033  1.00  0.00    -0.262 C  
ATOM     30  O   GLU A   1     -10.725  15.971  67.735  1.00  0.00    -0.307 OA 
ATOM     31  OXT GLU A   1     -10.450  16.312  69.958  1.00  0.00    -0.255 OA 
BRANCH  28  32
ATOM     32  CB  GLU A   1     -12.888  14.902  70.498  1.00  0.00    -0.376 C  
BRANCH  32  33
ATOM     33  CG  GLU A   1     -12.431  14.026  71.663  1.00  0.00    -0.371 C  
ATOM     34  CD  GLU A   1     -13.500  13.038  72.044  1.00  0.00    -0.492 C  
ATOM     35  OE1 GLU A   1     -13.393  11.853  71.408  1.00  0.00    -0.185 OA 
ATOM     36  OE2 GLU A   1     -14.403  13.289  72.828  1.00  0.00    -0.606 OA 
ENDBRANCH  32  33
ENDBRANCH  28  32
ENDBRANCH  26  28
ENDBRANCH  21  24
ENDBRANCH  17  18
ENDBRANCH  16  17
ENDBRANCH  15  16
TORSDOF 7
ENDMDL
MODEL       83
REMARK 921   NORMALIZED FREE ENERGY PREDICTED BY IDOCK:   -5.24 KCAL/MOL
REMARK 922        TOTAL FREE ENERGY PREDICTED BY IDOCK:  -10.03 KCAL/MOL
REMARK 923 INTER-LIGAND FREE ENERGY PREDICTED BY IDOCK:   -8.71 KCAL/MOL
REMARK 924 INTRA-LIGAND FREE ENERGY PREDICTED BY IDOCK:   -1.32 KCAL/MOL
REMARK 927      BINDING AFFINITY PREDICTED BY RF-SCORE:    0.00 PKD
ROOT
HETATM    1  N   UNK A   0     -13.905  16.081  73.229  1.00  0.00    -0.744 NA 
HETATM    2  H1  UNK A   0     -14.290  15.793  74.128  1.00  0.00     0.000 HD 
HETATM    3  C   UNK A   0     -13.430  15.162  72.349  1.00  0.00    -0.449 C  
HETATM    4  H2  UNK A   0     -13.877  17.072  72.987  1.00  0.00     0.000 HD 
HETATM    5  N   UNK A   0     -12.939  15.530  71.202  1.00  0.00    -0.480 N  
HETATM    6  H   UNK A   0     -12.889  16.520  70.959  1.00  0.00     0.000 HD 
HETATM    7  C   UNK A   0     -12.480  14.563  70.305  1.00  0.00    -0.348 C  
HETATM    8  C   UNK A   0     -12.640  13.170  70.732  1.00  0.00    -0.338 A  
HETATM    9  O   UNK A   0     -11.980  14.847  69.224  1.00  0.00    -0.306 OA 
HETATM   10  C   UNK A   0     -13.166  12.904  71.967  1.00  0.00    -0.448 A  
HETATM   11  N   UNK A   0     -13.263  11.566  72.161  1.00  0.00    -0.559 NA 
HETATM   12  N   UNK A   0     -13.545  13.876  72.806  1.00  0.00    -0.699 NA 
HETATM   13  H   UNK A   0     -13.623  11.105  72.997  1.00  0.00     0.000 HD 
HETATM   14  C   UNK A   0     -12.791  10.940  71.031  1.00  0.00    -0.376 A  
HETATM   15  C   UNK A   0     -12.392  11.906  70.115  1.00  0.00    -0.247 A  
ENDROOT
BRANCH  15  16
HETATM   16  C   UNK A   0     -11.874  11.652  68.735  1.00  0.00    -0.387 C  
BRANCH  16  17
HETATM   17  C   UNK A   0     -10.378  11.298  68.687  1.00  0.00    -0.217 C  
BRANCH  17  18
HETATM   18  C   UNK A   0     -10.061  10.125  67.775  1.00  0.00    -0.216 A  
HETATM   19  C   UNK A   0     -10.668   8.875  67.954  1.00  0.00    -0.185 A  
HETATM   20  C   UNK A   0     -10.279   7.776  67.189  1.00  0.00    -0.365 A  
HETATM   21  C   UNK A   0      -9.291   7.914  66.211  1.00  0.00    -0.225 A  
HETATM   22  C   UNK A   0      -8.768   9.179  65.931  1.00  0.00    -0.184 A  
HETATM   23  C   UNK A   0      -9.150  10.278  66.715  1.00  0.00    -0.161 A  
BRANCH  21  24
HETATM   24  C   UNK A   0      -8.754   6.708  65.521  1.00  0.00    -0.039 C  
HETATM   25  O   UNK A   0      -7.664   6.689  64.962  1.00  0.00    -0.089 OA 
ATOM     26  N   GLU A   1      -9.566   5.594  65.591  1.00  0.00    -0.366 N  
ATOM     27  H   GLU A   1     -10.462   5.661  66.075  1.00  0.00     0.000 HD 
BRANCH  26  28
ATOM     28  CA  GLU A   1      -9.178   4.326  64.991  1.00  0.00    -0.155 C  
ATOM     29  C   GLU A   1     -10.093   4.041  63.793  1.00  0.00    -0.137 C  
ATOM     30  O   GLU A   1      -9.630   4.550  62.629  1.00  0.00    -0.134 OA 
ATOM     31  OXT GLU A   1     -11.154   3.422  63.869  1.00  0.00    -0.296 OA 
BRANCH  28  32
ATOM     32  CB  GLU A   1      -9.266   3.187  66.016  1.00  0.00    -0.138 C  
BRANCH  32  33
ATOM     33  CG  GLU A   1      -9.633   3.703  67.406  1.00  0.00    -0.197 C  
ATOM     34  CD  GLU A   1      -8.407   3.842  68.267  1.00  0.00    -0.090 C  
ATOM     35  OE1 GLU A   1      -7.842   5.066  68.211  1.00  0.00    -0.085 OA 
ATOM     36  OE2 GLU A   1      -7.941   2.928  68.931  1.00  0.00    -0.056 OA 
ENDBRANCH  32  33
ENDBRANCH  28  32
ENDBRANCH  26  28
ENDBRANCH  21  24
ENDBRANCH  17  18
ENDBRANCH  16  17
ENDBRANCH  15  16
TORSDOF 7
ENDMDL
MODEL       84
REMARK 921   NORMALIZED FREE ENERGY PREDICTED BY IDOCK:   -5.22 KCAL/MOL
REMARK 922        TOTAL FREE ENERGY PREDICTED BY IDOCK:  -10.00 KCAL/MOL
REMARK 923 INTER-LIGAND FREE ENERGY PREDICTED BY IDOCK:   -8.53 KCAL/MOL
REMARK 924 INTRA-LIGAND FREE ENERGY PREDICTED BY IDOCK:   -1.47 KCAL/MOL
REMARK 927      BINDING AFFINITY PREDICTED BY RF-SCORE:    0.00 PKD
ROOT
HETATM    1  N   UNK A   0     -11.522  19.872  67.569  1.00  0.00     0.445 NA 
HETATM    2  H1  UNK A   0     -11.654  20.658  68.205  1.00  0.00     0.000 HD 
HETATM    3  C   UNK A   0     -10.293  19.327  67.383  1.00  0.00    -0.438 C  
HETATM    4  H2  UNK A   0     -12.324  19.491  67.067  1.00  0.00     0.000 HD 
HETATM    5  N   UNK A   0     -10.125  18.323  66.572  1.00  0.00    -0.365 N  
HETATM    6  H   UNK A   0     -10.917  17.947  66.052  1.00  0.00     0.000 HD 
HETATM    7  C   UNK A   0      -8.854  17.765  66.418  1.00  0.00    -0.231 C  
HETATM    8  C   UNK A   0      -7.795  18.349  67.247  1.00  0.00    -0.234 A  
HETATM    9  O   UNK A   0      -8.627  16.840  65.648  1.00  0.00    -0.415 OA 
HETATM   10  C   UNK A   0      -8.091  19.409  68.061  1.00  0.00    -0.310 A  
HETATM   11  N   UNK A   0      -6.995  19.782  68.766  1.00  0.00    -0.327 NA 
HETATM   12  N   UNK A   0      -9.320  19.935  68.132  1.00  0.00    -0.333 NA 
HETATM   13  H   UNK A   0      -6.947  20.544  69.442  1.00  0.00     0.000 HD 
HETATM   14  C   UNK A   0      -5.959  18.952  68.407  1.00  0.00    -0.215 A  
HETATM   15  C   UNK A   0      -6.417  18.043  67.460  1.00  0.00    -0.182 A  
ENDROOT
BRANCH  15  16
HETATM   16  C   UNK A   0      -5.626  16.929  66.852  1.00  0.00    -0.190 C  
BRANCH  16  17
HETATM   17  C   UNK A   0      -5.555  15.666  67.727  1.00  0.00    -0.149 C  
BRANCH  17  18
HETATM   18  C   UNK A   0      -6.917  15.143  68.148  1.00  0.00    -0.132 A  
HETATM   19  C   UNK A   0      -7.614  14.210  67.370  1.00  0.00    -0.179 A  
HETATM   20  C   UNK A   0      -8.914  13.830  67.702  1.00  0.00    -0.194 A  
HETATM   21  C   UNK A   0      -9.533  14.361  68.837  1.00  0.00    -0.107 A  
HETATM   22  C   UNK A   0      -8.808  15.192  69.694  1.00  0.00    -0.054 A  
HETATM   23  C   UNK A   0      -7.507  15.584  69.346  1.00  0.00    -0.219 A  
BRANCH  21  24
HETATM   24  C   UNK A   0     -10.976  14.093  69.091  1.00  0.00    -0.251 C  
HETATM   25  O   UNK A   0     -11.818  14.078  68.202  1.00  0.00    -0.338 OA 
ATOM     26  N   GLU A   1     -11.290  13.827  70.409  1.00  0.00    -0.484 N  
ATOM     27  H   GLU A   1     -10.549  13.846  71.110  1.00  0.00     0.000 HD 
BRANCH  26  28
ATOM     28  CA  GLU A   1     -12.650  13.520  70.824  1.00  0.00    -0.309 C  
ATOM     29  C   GLU A   1     -13.155  14.638  71.744  1.00  0.00    -0.341 C  
ATOM     30  O   GLU A   1     -13.757  15.651  71.081  1.00  0.00    -0.591 OA 
ATOM     31  OXT GLU A   1     -13.023  14.635  72.968  1.00  0.00    -0.464 OA 
BRANCH  28  32
ATOM     32  CB  GLU A   1     -12.710  12.165  71.543  1.00  0.00    -0.348 C  
BRANCH  32  33
ATOM     33  CG  GLU A   1     -12.413  11.006  70.594  1.00  0.00    -0.465 C  
ATOM     34  CD  GLU A   1     -12.225   9.723  71.356  1.00  0.00    -0.397 C  
ATOM     35  OE1 GLU A   1     -13.361   9.010  71.507  1.00  0.00    -0.346 OA 
ATOM     36  OE2 GLU A   1     -11.154   9.369  71.827  1.00  0.00    -0.370 OA 
ENDBRANCH  32  33
ENDBRANCH  28  32
ENDBRANCH  26  28
ENDBRANCH  21  24
ENDBRANCH  17  18
ENDBRANCH  16  17
ENDBRANCH  15  16
TORSDOF 7
ENDMDL
MODEL       85
REMARK 921   NORMALIZED FREE ENERGY PREDICTED BY IDOCK:   -5.21 KCAL/MOL
REMARK 922        TOTAL FREE ENERGY PREDICTED BY IDOCK:   -9.99 KCAL/MOL
REMARK 923 INTER-LIGAND FREE ENERGY PREDICTED BY IDOCK:   -8.82 KCAL/MOL
REMARK 924 INTRA-LIGAND FREE ENERGY PREDICTED BY IDOCK:   -1.17 KCAL/MOL
REMARK 927      BINDING AFFINITY PREDICTED BY RF-SCORE:    0.00 PKD
ROOT
HETATM    1  N   UNK A   0      -8.119   8.368  74.185  1.00  0.00    -0.347 NA 
HETATM    2  H1  UNK A   0      -7.145   8.248  74.462  1.00  0.00     0.000 HD 
HETATM    3  C   UNK A   0      -8.498   8.222  72.890  1.00  0.00    -0.194 C  
HETATM    4  H2  UNK A   0      -8.818   8.600  74.892  1.00  0.00     0.000 HD 
HETATM    5  N   UNK A   0      -9.740   8.375  72.537  1.00  0.00    -0.293 N  
HETATM    6  H   UNK A   0     -10.443   8.626  73.233  1.00  0.00     0.000 HD 
HETATM    7  C   UNK A   0     -10.108   8.195  71.202  1.00  0.00    -0.184 C  
HETATM    8  C   UNK A   0      -9.031   7.790  70.293  1.00  0.00    -0.148 A  
HETATM    9  O   UNK A   0     -11.254   8.355  70.803  1.00  0.00    -0.258 OA 
HETATM   10  C   UNK A   0      -7.757   7.665  70.779  1.00  0.00    -0.085 A  
HETATM   11  N   UNK A   0      -6.917   7.253  69.798  1.00  0.00    -0.056 NA 
HETATM   12  N   UNK A   0      -7.455   7.899  72.062  1.00  0.00    -0.076 NA 
HETATM   13  H   UNK A   0      -5.917   7.084  69.897  1.00  0.00     0.000 HD 
HETATM   14  C   UNK A   0      -7.653   7.105  68.646  1.00  0.00    -0.111 A  
HETATM   15  C   UNK A   0      -8.978   7.430  68.913  1.00  0.00    -0.130 A  
ENDROOT
BRANCH  15  16
HETATM   16  C   UNK A   0     -10.118   7.346  67.948  1.00  0.00    -0.220 C  
BRANCH  16  17
HETATM   17  C   UNK A   0      -9.848   8.043  66.604  1.00  0.00    -0.322 C  
BRANCH  17  18
HETATM   18  C   UNK A   0     -10.399   9.457  66.533  1.00  0.00    -0.268 A  
HETATM   19  C   UNK A   0     -10.357  10.198  65.346  1.00  0.00    -0.177 A  
HETATM   20  C   UNK A   0     -10.753  11.535  65.323  1.00  0.00    -0.337 A  
HETATM   21  C   UNK A   0     -11.223  12.148  66.488  1.00  0.00    -0.378 A  
HETATM   22  C   UNK A   0     -11.394  11.389  67.647  1.00  0.00    -0.359 A  
HETATM   23  C   UNK A   0     -10.978  10.050  67.669  1.00  0.00    -0.297 A  
BRANCH  21  24
HETATM   24  C   UNK A   0     -11.476  13.617  66.505  1.00  0.00    -0.335 C  
HETATM   25  O   UNK A   0     -12.548  14.113  66.180  1.00  0.00    -0.465 OA 
ATOM     26  N   GLU A   1     -10.415  14.379  66.952  1.00  0.00    -0.268 N  
ATOM     27  H   GLU A   1      -9.547  13.915  67.218  1.00  0.00     0.000 HD 
BRANCH  26  28
ATOM     28  CA  GLU A   1     -10.505  15.828  67.055  1.00  0.00    -0.309 C  
ATOM     29  C   GLU A   1      -9.923  16.455  65.783  1.00  0.00    -0.302 C  
ATOM     30  O   GLU A   1     -10.837  16.628  64.801  1.00  0.00    -0.732 OA 
ATOM     31  OXT GLU A   1      -8.740  16.764  65.646  1.00  0.00    -0.441 OA 
BRANCH  28  32
ATOM     32  CB  GLU A   1      -9.755  16.335  68.294  1.00  0.00    -0.222 C  
BRANCH  32  33
ATOM     33  CG  GLU A   1     -10.514  17.462  68.994  1.00  0.00    -0.285 C  
ATOM     34  CD  GLU A   1     -10.033  18.807  68.520  1.00  0.00    -0.400 C  
ATOM     35  OE1 GLU A   1     -10.732  19.293  67.473  1.00  0.00    -0.463 OA 
ATOM     36  OE2 GLU A   1      -9.080  19.394  69.010  1.00  0.00    -0.358 OA 
ENDBRANCH  32  33
ENDBRANCH  28  32
ENDBRANCH  26  28
ENDBRANCH  21  24
ENDBRANCH  17  18
ENDBRANCH  16  17
ENDBRANCH  15  16
TORSDOF 7
ENDMDL
MODEL       86
REMARK 921   NORMALIZED FREE ENERGY PREDICTED BY IDOCK:   -5.20 KCAL/MOL
REMARK 922        TOTAL FREE ENERGY PREDICTED BY IDOCK:   -9.97 KCAL/MOL
REMARK 923 INTER-LIGAND FREE ENERGY PREDICTED BY IDOCK:   -8.51 KCAL/MOL
REMARK 924 INTRA-LIGAND FREE ENERGY PREDICTED BY IDOCK:   -1.47 KCAL/MOL
REMARK 927      BINDING AFFINITY PREDICTED BY RF-SCORE:    0.00 PKD
ROOT
HETATM    1  N   UNK A   0     -14.398   8.635  72.331  1.00  0.00    -0.698 NA 
HETATM    2  H1  UNK A   0     -14.531   9.178  73.184  1.00  0.00     0.000 HD 
HETATM    3  C   UNK A   0     -13.203   8.050  72.059  1.00  0.00    -0.253 C  
HETATM    4  H2  UNK A   0     -15.172   8.531  71.674  1.00  0.00     0.000 HD 
HETATM    5  N   UNK A   0     -13.033   7.357  70.972  1.00  0.00    -0.588 N  
HETATM    6  H   UNK A   0     -13.795   7.262  70.300  1.00  0.00     0.000 HD 
HETATM    7  C   UNK A   0     -11.802   6.744  70.729  1.00  0.00    -0.392 C  
HETATM    8  C   UNK A   0     -10.792   6.903  71.779  1.00  0.00    -0.253 A  
HETATM    9  O   UNK A   0     -11.571   6.105  69.710  1.00  0.00    -0.405 OA 
HETATM   10  C   UNK A   0     -11.084   7.661  72.879  1.00  0.00    -0.393 A  
HETATM   11  N   UNK A   0     -10.041   7.659  73.744  1.00  0.00    -0.367 NA 
HETATM   12  N   UNK A   0     -12.268   8.267  73.036  1.00  0.00    -0.099 NA 
HETATM   13  H   UNK A   0     -10.002   8.146  74.640  1.00  0.00     0.000 HD 
HETATM   14  C   UNK A   0      -9.043   6.884  73.201  1.00  0.00    -0.132 A  
HETATM   15  C   UNK A   0      -9.472   6.393  71.973  1.00  0.00    -0.154 A  
ENDROOT
BRANCH  15  16
HETATM   16  C   UNK A   0      -8.714   5.462  71.083  1.00  0.00    -0.135 C  
BRANCH  16  17
HETATM   17  C   UNK A   0      -7.595   6.144  70.277  1.00  0.00    -0.096 C  
BRANCH  17  18
HETATM   18  C   UNK A   0      -8.045   7.406  69.563  1.00  0.00    -0.129 A  
HETATM   19  C   UNK A   0      -8.809   7.349  68.390  1.00  0.00    -0.121 A  
HETATM   20  C   UNK A   0      -9.113   8.508  67.678  1.00  0.00    -0.144 A  
HETATM   21  C   UNK A   0      -8.677   9.753  68.141  1.00  0.00    -0.119 A  
HETATM   22  C   UNK A   0      -8.026   9.841  69.373  1.00  0.00    -0.125 A  
HETATM   23  C   UNK A   0      -7.709   8.671  70.078  1.00  0.00    -0.080 A  
BRANCH  21  24
HETATM   24  C   UNK A   0      -8.847  10.964  67.291  1.00  0.00    -0.134 C  
HETATM   25  O   UNK A   0      -8.058  11.276  66.408  1.00  0.00    -0.165 OA 
ATOM     26  N   GLU A   1      -9.989  11.695  67.551  1.00  0.00    -0.186 N  
ATOM     27  H   GLU A   1     -10.618  11.387  68.294  1.00  0.00     0.000 HD 
BRANCH  26  28
ATOM     28  CA  GLU A   1     -10.320  12.893  66.794  1.00  0.00    -0.245 C  
ATOM     29  C   GLU A   1     -10.776  13.987  67.766  1.00  0.00    -0.243 C  
ATOM     30  O   GLU A   1      -9.763  14.753  68.230  1.00  0.00    -0.207 OA 
ATOM     31  OXT GLU A   1     -11.945  14.158  68.112  1.00  0.00    -0.351 OA 
BRANCH  28  32
ATOM     32  CB  GLU A   1     -11.417  12.602  65.761  1.00  0.00    -0.399 C  
BRANCH  32  33
ATOM     33  CG  GLU A   1     -11.129  13.279  64.423  1.00  0.00    -0.407 C  
ATOM     34  CD  GLU A   1     -11.731  14.657  64.378  1.00  0.00    -0.346 C  
ATOM     35  OE1 GLU A   1     -10.891  15.628  64.792  1.00  0.00    -0.437 OA 
ATOM     36  OE2 GLU A   1     -12.882  14.880  64.034  1.00  0.00    -0.701 OA 
ENDBRANCH  32  33
ENDBRANCH  28  32
ENDBRANCH  26  28
ENDBRANCH  21  24
ENDBRANCH  17  18
ENDBRANCH  16  17
ENDBRANCH  15  16
TORSDOF 7
ENDMDL
MODEL       87
REMARK 921   NORMALIZED FREE ENERGY PREDICTED BY IDOCK:   -5.18 KCAL/MOL
REMARK 922        TOTAL FREE ENERGY PREDICTED BY IDOCK:   -9.94 KCAL/MOL
REMARK 923 INTER-LIGAND FREE ENERGY PREDICTED BY IDOCK:   -8.79 KCAL/MOL
REMARK 924 INTRA-LIGAND FREE ENERGY PREDICTED BY IDOCK:   -1.15 KCAL/MOL
REMARK 927      BINDING AFFINITY PREDICTED BY RF-SCORE:    0.00 PKD
ROOT
HETATM    1  N   UNK A   0     -10.101  18.949  65.890  1.00  0.00    -0.536 NA 
HETATM    2  H1  UNK A   0     -10.423  19.581  65.158  1.00  0.00     0.000 HD 
HETATM    3  C   UNK A   0     -10.434  17.633  65.869  1.00  0.00    -0.246 C  
HETATM    4  H2  UNK A   0      -9.522  19.310  66.648  1.00  0.00     0.000 HD 
HETATM    5  N   UNK A   0     -10.024  16.826  66.802  1.00  0.00    -0.271 N  
HETATM    6  H   UNK A   0      -9.459  17.181  67.575  1.00  0.00     0.000 HD 
HETATM    7  C   UNK A   0     -10.359  15.471  66.743  1.00  0.00    -0.288 C  
HETATM    8  C   UNK A   0     -11.133  15.057  65.569  1.00  0.00    -0.358 A  
HETATM    9  O   UNK A   0     -10.029  14.669  67.607  1.00  0.00    -0.225 OA 
HETATM   10  C   UNK A   0     -11.514  15.999  64.652  1.00  0.00    -0.250 A  
HETATM   11  N   UNK A   0     -12.187  15.417  63.630  1.00  0.00    -0.795 NA 
HETATM   12  N   UNK A   0     -11.204  17.294  64.787  1.00  0.00    -0.832 NA 
HETATM   13  H   UNK A   0     -12.578  15.896  62.819  1.00  0.00     0.000 HD 
HETATM   14  C   UNK A   0     -12.250  14.066  63.879  1.00  0.00    -0.293 A  
HETATM   15  C   UNK A   0     -11.603  13.800  65.082  1.00  0.00    -0.341 A  
ENDROOT
BRANCH  15  16
HETATM   16  C   UNK A   0     -11.393  12.450  65.689  1.00  0.00    -0.387 C  
BRANCH  16  17
HETATM   17  C   UNK A   0     -10.158  11.710  65.148  1.00  0.00    -0.304 C  
BRANCH  17  18
HETATM   18  C   UNK A   0      -9.910  10.371  65.822  1.00  0.00    -0.300 A  
HETATM   19  C   UNK A   0     -10.445  10.078  67.083  1.00  0.00    -0.305 A  
HETATM   20  C   UNK A   0     -10.110   8.897  67.744  1.00  0.00    -0.263 A  
HETATM   21  C   UNK A   0      -9.251   7.974  67.143  1.00  0.00    -0.172 A  
HETATM   22  C   UNK A   0      -8.812   8.189  65.835  1.00  0.00    -0.194 A  
HETATM   23  C   UNK A   0      -9.138   9.387  65.181  1.00  0.00    -0.280 A  
BRANCH  21  24
HETATM   24  C   UNK A   0      -8.756   6.803  67.920  1.00  0.00    -0.120 C  
HETATM   25  O   UNK A   0      -8.141   5.875  67.409  1.00  0.00    -0.102 OA 
ATOM     26  N   GLU A   1      -9.015   6.859  69.275  1.00  0.00    -0.138 N  
ATOM     27  H   GLU A   1      -9.525   7.658  69.651  1.00  0.00     0.000 HD 
BRANCH  26  28
ATOM     28  CA  GLU A   1      -8.576   5.808  70.181  1.00  0.00    -0.128 C  
ATOM     29  C   GLU A   1      -9.732   4.824  70.399  1.00  0.00    -0.219 C  
ATOM     30  O   GLU A   1      -9.758   3.816  69.498  1.00  0.00    -0.189 OA 
ATOM     31  OXT GLU A   1     -10.571   4.933  71.293  1.00  0.00    -0.144 OA 
BRANCH  28  32
ATOM     32  CB  GLU A   1      -8.115   6.398  71.521  1.00  0.00    -0.113 C  
BRANCH  32  33
ATOM     33  CG  GLU A   1      -8.696   7.791  71.756  1.00  0.00    -0.147 C  
ATOM     34  CD  GLU A   1      -9.425   7.854  73.070  1.00  0.00    -0.271 C  
ATOM     35  OE1 GLU A   1      -8.650   8.251  74.101  1.00  0.00    -0.227 OA 
ATOM     36  OE2 GLU A   1     -10.599   7.543  73.206  1.00  0.00    -0.356 OA 
ENDBRANCH  32  33
ENDBRANCH  28  32
ENDBRANCH  26  28
ENDBRANCH  21  24
ENDBRANCH  17  18
ENDBRANCH  16  17
ENDBRANCH  15  16
TORSDOF 7
ENDMDL
MODEL       88
REMARK 921   NORMALIZED FREE ENERGY PREDICTED BY IDOCK:   -5.18 KCAL/MOL
REMARK 922        TOTAL FREE ENERGY PREDICTED BY IDOCK:   -9.94 KCAL/MOL
REMARK 923 INTER-LIGAND FREE ENERGY PREDICTED BY IDOCK:   -8.33 KCAL/MOL
REMARK 924 INTRA-LIGAND FREE ENERGY PREDICTED BY IDOCK:   -1.62 KCAL/MOL
REMARK 927      BINDING AFFINITY PREDICTED BY RF-SCORE:    0.00 PKD
ROOT
HETATM    1  N   UNK A   0      -7.180  17.836  68.393  1.00  0.00    -0.240 NA 
HETATM    2  H1  UNK A   0      -7.282  18.850  68.391  1.00  0.00     0.000 HD 
HETATM    3  C   UNK A   0      -8.008  17.052  67.655  1.00  0.00    -0.176 C  
HETATM    4  H2  UNK A   0      -6.447  17.404  68.956  1.00  0.00     0.000 HD 
HETATM    5  N   UNK A   0      -7.878  15.758  67.658  1.00  0.00    -0.140 N  
HETATM    6  H   UNK A   0      -7.160  15.316  68.232  1.00  0.00     0.000 HD 
HETATM    7  C   UNK A   0      -8.727  14.977  66.870  1.00  0.00    -0.256 C  
HETATM    8  C   UNK A   0      -9.691  15.713  66.048  1.00  0.00    -0.378 A  
HETATM    9  O   UNK A   0      -8.674  13.754  66.853  1.00  0.00    -0.219 OA 
HETATM   10  C   UNK A   0      -9.739  17.078  66.134  1.00  0.00    -0.261 A  
HETATM   11  N   UNK A   0     -10.667  17.571  65.277  1.00  0.00    -0.608 NA 
HETATM   12  N   UNK A   0      -8.932  17.772  66.944  1.00  0.00    -0.248 NA 
HETATM   13  H   UNK A   0     -10.899  18.556  65.146  1.00  0.00     0.000 HD 
HETATM   14  C   UNK A   0     -11.240  16.510  64.616  1.00  0.00    -0.115 A  
HETATM   15  C   UNK A   0     -10.658  15.331  65.069  1.00  0.00    -0.444 A  
ENDROOT
BRANCH  15  16
HETATM   16  C   UNK A   0     -10.952  13.954  64.566  1.00  0.00    -0.379 C  
BRANCH  16  17
HETATM   17  C   UNK A   0     -11.976  13.186  65.419  1.00  0.00    -0.448 C  
BRANCH  17  18
HETATM   18  C   UNK A   0     -11.387  11.984  66.137  1.00  0.00    -0.407 A  
HETATM   19  C   UNK A   0     -11.654  11.737  67.490  1.00  0.00    -0.361 A  
HETATM   20  C   UNK A   0     -11.011  10.703  68.169  1.00  0.00    -0.321 A  
HETATM   21  C   UNK A   0     -10.105   9.878  67.497  1.00  0.00    -0.244 A  
HETATM   22  C   UNK A   0      -9.925  10.027  66.120  1.00  0.00    -0.322 A  
HETATM   23  C   UNK A   0     -10.561  11.080  65.446  1.00  0.00    -0.270 A  
BRANCH  21  24
HETATM   24  C   UNK A   0      -9.290   8.891  68.260  1.00  0.00    -0.143 C  
HETATM   25  O   UNK A   0      -8.277   9.198  68.876  1.00  0.00    -0.108 OA 
ATOM     26  N   GLU A   1      -9.786   7.603  68.250  1.00  0.00    -0.154 N  
ATOM     27  H   GLU A   1     -10.638   7.402  67.726  1.00  0.00     0.000 HD 
BRANCH  26  28
ATOM     28  CA  GLU A   1      -9.124   6.523  68.967  1.00  0.00    -0.132 C  
ATOM     29  C   GLU A   1      -8.433   5.602  67.954  1.00  0.00    -0.102 C  
ATOM     30  O   GLU A   1      -7.165   5.974  67.666  1.00  0.00    -0.073 OA 
ATOM     31  OXT GLU A   1      -8.969   4.624  67.434  1.00  0.00    -0.107 OA 
BRANCH  28  32
ATOM     32  CB  GLU A   1     -10.130   5.731  69.812  1.00  0.00    -0.273 C  
BRANCH  32  33
ATOM     33  CG  GLU A   1     -11.525   6.352  69.762  1.00  0.00    -0.468 C  
ATOM     34  CD  GLU A   1     -11.826   7.099  71.033  1.00  0.00    -0.333 C  
ATOM     35  OE1 GLU A   1     -11.491   8.406  70.984  1.00  0.00    -0.263 OA 
ATOM     36  OE2 GLU A   1     -12.297   6.573  72.030  1.00  0.00    -0.336 OA 
ENDBRANCH  32  33
ENDBRANCH  28  32
ENDBRANCH  26  28
ENDBRANCH  21  24
ENDBRANCH  17  18
ENDBRANCH  16  17
ENDBRANCH  15  16
TORSDOF 7
ENDMDL
MODEL       89
REMARK 921   NORMALIZED FREE ENERGY PREDICTED BY IDOCK:   -5.18 KCAL/MOL
REMARK 922        TOTAL FREE ENERGY PREDICTED BY IDOCK:   -9.94 KCAL/MOL
REMARK 923 INTER-LIGAND FREE ENERGY PREDICTED BY IDOCK:   -8.77 KCAL/MOL
REMARK 924 INTRA-LIGAND FREE ENERGY PREDICTED BY IDOCK:   -1.16 KCAL/MOL
REMARK 927      BINDING AFFINITY PREDICTED BY RF-SCORE:    0.00 PKD
ROOT
HETATM    1  N   UNK A   0     -11.681   5.039  73.097  1.00  0.00    -0.473 NA 
HETATM    2  H1  UNK A   0     -10.993   4.290  73.020  1.00  0.00     0.000 HD 
HETATM    3  C   UNK A   0     -11.585   6.154  72.329  1.00  0.00    -0.313 C  
HETATM    4  H2  UNK A   0     -12.451   4.948  73.761  1.00  0.00     0.000 HD 
HETATM    5  N   UNK A   0     -12.463   7.109  72.428  1.00  0.00    -0.507 N  
HETATM    6  H   UNK A   0     -13.226   7.036  73.101  1.00  0.00     0.000 HD 
HETATM    7  C   UNK A   0     -12.355   8.235  71.608  1.00  0.00    -0.315 C  
HETATM    8  C   UNK A   0     -11.251   8.218  70.644  1.00  0.00    -0.270 A  
HETATM    9  O   UNK A   0     -13.131   9.179  71.676  1.00  0.00    -0.332 OA 
HETATM   10  C   UNK A   0     -10.385   7.158  70.636  1.00  0.00    -0.204 A  
HETATM   11  N   UNK A   0      -9.460   7.313  69.657  1.00  0.00    -0.156 NA 
HETATM   12  N   UNK A   0     -10.510   6.127  71.480  1.00  0.00    -0.215 NA 
HETATM   13  H   UNK A   0      -8.703   6.665  69.440  1.00  0.00     0.000 HD 
HETATM   14  C   UNK A   0      -9.722   8.497  69.010  1.00  0.00    -0.170 A  
HETATM   15  C   UNK A   0     -10.834   9.093  69.596  1.00  0.00    -0.210 A  
ENDROOT
BRANCH  15  16
HETATM   16  C   UNK A   0     -11.487  10.364  69.155  1.00  0.00    -0.261 C  
BRANCH  16  17
HETATM   17  C   UNK A   0     -10.868  10.974  67.885  1.00  0.00    -0.285 C  
BRANCH  17  18
HETATM   18  C   UNK A   0     -10.786  12.490  67.920  1.00  0.00    -0.239 A  
HETATM   19  C   UNK A   0      -9.699  13.175  67.362  1.00  0.00    -0.220 A  
HETATM   20  C   UNK A   0      -9.574  14.556  67.507  1.00  0.00    -0.210 A  
HETATM   21  C   UNK A   0     -10.550  15.283  68.194  1.00  0.00    -0.254 A  
HETATM   22  C   UNK A   0     -11.703  14.635  68.644  1.00  0.00    -0.362 A  
HETATM   23  C   UNK A   0     -11.816  13.243  68.510  1.00  0.00    -0.384 A  
BRANCH  21  24
HETATM   24  C   UNK A   0     -10.328  16.723  68.501  1.00  0.00    -0.316 C  
HETATM   25  O   UNK A   0     -10.825  17.283  69.470  1.00  0.00    -0.122 OA 
ATOM     26  N   GLU A   1      -9.484  17.376  67.624  1.00  0.00    -0.248 N  
ATOM     27  H   GLU A   1      -9.091  16.861  66.837  1.00  0.00     0.000 HD 
BRANCH  26  28
ATOM     28  CA  GLU A   1      -9.142  18.780  67.796  1.00  0.00    -0.286 C  
ATOM     29  C   GLU A   1      -9.106  19.456  66.420  1.00  0.00    -0.360 C  
ATOM     30  O   GLU A   1     -10.301  19.959  66.036  1.00  0.00    -0.476 OA 
ATOM     31  OXT GLU A   1      -8.100  19.530  65.714  1.00  0.00    -0.424 OA 
BRANCH  28  32
ATOM     32  CB  GLU A   1      -7.787  18.930  68.502  1.00  0.00    -0.373 C  
BRANCH  32  33
ATOM     33  CG  GLU A   1      -6.864  17.748  68.213  1.00  0.00    -0.213 C  
ATOM     34  CD  GLU A   1      -6.518  17.015  69.480  1.00  0.00    -0.219 C  
ATOM     35  OE1 GLU A   1      -7.357  15.997  69.763  1.00  0.00    -0.127 OA 
ATOM     36  OE2 GLU A   1      -5.587  17.327  70.208  1.00  0.00    -0.228 OA 
ENDBRANCH  32  33
ENDBRANCH  28  32
ENDBRANCH  26  28
ENDBRANCH  21  24
ENDBRANCH  17  18
ENDBRANCH  16  17
ENDBRANCH  15  16
TORSDOF 7
ENDMDL
MODEL       90
REMARK 921   NORMALIZED FREE ENERGY PREDICTED BY IDOCK:   -5.17 KCAL/MOL
REMARK 922        TOTAL FREE ENERGY PREDICTED BY IDOCK:   -9.93 KCAL/MOL
REMARK 923 INTER-LIGAND FREE ENERGY PREDICTED BY IDOCK:   -8.47 KCAL/MOL
REMARK 924 INTRA-LIGAND FREE ENERGY PREDICTED BY IDOCK:   -1.46 KCAL/MOL
REMARK 927      BINDING AFFINITY PREDICTED BY RF-SCORE:    0.00 PKD
ROOT
HETATM    1  N   UNK A   0      -6.984  21.262  67.452  1.00  0.00    -0.607 NA 
HETATM    2  H1  UNK A   0      -5.990  21.200  67.670  1.00  0.00     0.000 HD 
HETATM    3  C   UNK A   0      -7.804  20.197  67.638  1.00  0.00    -0.300 C  
HETATM    4  H2  UNK A   0      -7.366  22.136  67.089  1.00  0.00     0.000 HD 
HETATM    5  N   UNK A   0      -9.072  20.276  67.360  1.00  0.00    -0.359 N  
HETATM    6  H   UNK A   0      -9.461  21.139  66.980  1.00  0.00     0.000 HD 
HETATM    7  C   UNK A   0      -9.900  19.173  67.585  1.00  0.00    -0.335 C  
HETATM    8  C   UNK A   0      -9.251  18.000  68.177  1.00  0.00    -0.283 A  
HETATM    9  O   UNK A   0     -11.094  19.176  67.315  1.00  0.00    -0.417 OA 
HETATM   10  C   UNK A   0      -7.905  18.031  68.422  1.00  0.00    -0.295 A  
HETATM   11  N   UNK A   0      -7.503  16.872  68.998  1.00  0.00    -0.238 NA 
HETATM   12  N   UNK A   0      -7.152  19.102  68.140  1.00  0.00    -0.251 NA 
HETATM   13  H   UNK A   0      -6.550  16.640  69.280  1.00  0.00     0.000 HD 
HETATM   14  C   UNK A   0      -8.606  16.062  69.134  1.00  0.00    -0.247 A  
HETATM   15  C   UNK A   0      -9.718  16.730  68.633  1.00  0.00    -0.259 A  
ENDROOT
BRANCH  15  16
HETATM   16  C   UNK A   0     -11.127  16.227  68.644  1.00  0.00    -0.356 C  
BRANCH  16  17
HETATM   17  C   UNK A   0     -11.474  15.322  67.450  1.00  0.00    -0.246 C  
BRANCH  17  18
HETATM   18  C   UNK A   0     -10.922  13.913  67.578  1.00  0.00    -0.288 A  
HETATM   19  C   UNK A   0     -10.020  13.393  66.640  1.00  0.00    -0.277 A  
HETATM   20  C   UNK A   0      -9.616  12.060  66.699  1.00  0.00    -0.225 A  
HETATM   21  C   UNK A   0     -10.089  11.227  67.716  1.00  0.00    -0.199 A  
HETATM   22  C   UNK A   0     -10.885  11.760  68.732  1.00  0.00    -0.268 A  
HETATM   23  C   UNK A   0     -11.302  13.097  68.659  1.00  0.00    -0.327 A  
BRANCH  21  24
HETATM   24  C   UNK A   0      -9.799   9.766  67.676  1.00  0.00    -0.165 C  
HETATM   25  O   UNK A   0      -9.461   9.181  66.654  1.00  0.00    -0.159 OA 
ATOM     26  N   GLU A   1      -9.906   9.123  68.893  1.00  0.00    -0.169 N  
ATOM     27  H   GLU A   1     -10.185   9.659  69.715  1.00  0.00     0.000 HD 
BRANCH  26  28
ATOM     28  CA  GLU A   1      -9.632   7.701  69.033  1.00  0.00    -0.151 C  
ATOM     29  C   GLU A   1     -10.958   6.931  68.992  1.00  0.00    -0.181 C  
ATOM     30  O   GLU A   1     -11.334   6.573  67.744  1.00  0.00    -0.258 OA 
ATOM     31  OXT GLU A   1     -11.633   6.669  69.987  1.00  0.00    -0.380 OA 
BRANCH  28  32
ATOM     32  CB  GLU A   1      -8.886   7.415  70.344  1.00  0.00    -0.149 C  
BRANCH  32  33
ATOM     33  CG  GLU A   1      -8.754   8.669  71.206  1.00  0.00    -0.246 C  
ATOM     34  CD  GLU A   1      -9.931   8.810  72.132  1.00  0.00    -0.289 C  
ATOM     35  OE1 GLU A   1      -9.742   8.236  73.339  1.00  0.00    -0.187 OA 
ATOM     36  OE2 GLU A   1     -10.975   9.361  71.817  1.00  0.00    -0.363 OA 
ENDBRANCH  32  33
ENDBRANCH  28  32
ENDBRANCH  26  28
ENDBRANCH  21  24
ENDBRANCH  17  18
ENDBRANCH  16  17
ENDBRANCH  15  16
TORSDOF 7
ENDMDL
MODEL       91
REMARK 921   NORMALIZED FREE ENERGY PREDICTED BY IDOCK:   -5.16 KCAL/MOL
REMARK 922        TOTAL FREE ENERGY PREDICTED BY IDOCK:   -9.92 KCAL/MOL
REMARK 923 INTER-LIGAND FREE ENERGY PREDICTED BY IDOCK:   -8.31 KCAL/MOL
REMARK 924 INTRA-LIGAND FREE ENERGY PREDICTED BY IDOCK:   -1.61 KCAL/MOL
REMARK 927      BINDING AFFINITY PREDICTED BY RF-SCORE:    0.00 PKD
ROOT
HETATM    1  N   UNK A   0      -7.882   3.721  67.573  1.00  0.00    -0.082 NA 
HETATM    2  H1  UNK A   0      -7.077   3.125  67.763  1.00  0.00     0.000 HD 
HETATM    3  C   UNK A   0      -8.643   4.204  68.588  1.00  0.00    -0.093 C  
HETATM    4  H2  UNK A   0      -8.118   3.957  66.609  1.00  0.00     0.000 HD 
HETATM    5  N   UNK A   0      -9.670   4.965  68.346  1.00  0.00    -0.149 N  
HETATM    6  H   UNK A   0      -9.925   5.191  67.385  1.00  0.00     0.000 HD 
HETATM    7  C   UNK A   0     -10.423   5.469  69.410  1.00  0.00    -0.290 C  
HETATM    8  C   UNK A   0      -9.943   5.122  70.751  1.00  0.00    -0.285 A  
HETATM    9  O   UNK A   0     -11.417   6.164  69.246  1.00  0.00    -0.404 OA 
HETATM   10  C   UNK A   0      -8.852   4.308  70.882  1.00  0.00    -0.098 A  
HETATM   11  N   UNK A   0      -8.548   4.133  72.191  1.00  0.00    -0.105 NA 
HETATM   12  N   UNK A   0      -8.198   3.813  69.823  1.00  0.00    -0.053 NA 
HETATM   13  H   UNK A   0      -7.780   3.571  72.559  1.00  0.00     0.000 HD 
HETATM   14  C   UNK A   0      -9.458   4.846  72.936  1.00  0.00    -0.134 A  
HETATM   15  C   UNK A   0     -10.347   5.478  72.073  1.00  0.00    -0.265 A  
ENDROOT
BRANCH  15  16
HETATM   16  C   UNK A   0     -11.455   6.401  72.471  1.00  0.00    -0.283 C  
BRANCH  16  17
HETATM   17  C   UNK A   0     -10.981   7.808  72.871  1.00  0.00    -0.467 C  
BRANCH  17  18
HETATM   18  C   UNK A   0     -11.233   8.858  71.803  1.00  0.00    -0.432 A  
HETATM   19  C   UNK A   0     -10.302   9.104  70.786  1.00  0.00    -0.323 A  
HETATM   20  C   UNK A   0     -10.487  10.152  69.885  1.00  0.00    -0.322 A  
HETATM   21  C   UNK A   0     -11.624  10.960  69.971  1.00  0.00    -0.424 A  
HETATM   22  C   UNK A   0     -12.624  10.649  70.896  1.00  0.00    -0.503 A  
HETATM   23  C   UNK A   0     -12.425   9.605  71.810  1.00  0.00    -0.487 A  
BRANCH  21  24
HETATM   24  C   UNK A   0     -11.734  12.182  69.126  1.00  0.00    -0.328 C  
HETATM   25  O   UNK A   0     -12.322  13.194  69.489  1.00  0.00    -0.191 OA 
ATOM     26  N   GLU A   1     -11.088  12.101  67.908  1.00  0.00    -0.229 N  
ATOM     27  H   GLU A   1     -10.607  11.237  67.657  1.00  0.00     0.000 HD 
BRANCH  26  28
ATOM     28  CA  GLU A   1     -11.077  13.217  66.974  1.00  0.00    -0.279 C  
ATOM     29  C   GLU A   1     -11.364  12.689  65.563  1.00  0.00    -0.321 C  
ATOM     30  O   GLU A   1     -12.681  12.655  65.258  1.00  0.00    -0.652 OA 
ATOM     31  OXT GLU A   1     -10.493  12.315  64.777  1.00  0.00    -0.276 OA 
BRANCH  28  32
ATOM     32  CB  GLU A   1      -9.726  13.945  67.009  1.00  0.00    -0.250 C  
BRANCH  32  33
ATOM     33  CG  GLU A   1      -8.783  13.340  68.048  1.00  0.00    -0.186 C  
ATOM     34  CD  GLU A   1      -7.861  12.334  67.416  1.00  0.00    -0.171 C  
ATOM     35  OE1 GLU A   1      -6.692  12.860  66.994  1.00  0.00    -0.100 OA 
ATOM     36  OE2 GLU A   1      -8.150  11.156  67.263  1.00  0.00    -0.127 OA 
ENDBRANCH  32  33
ENDBRANCH  28  32
ENDBRANCH  26  28
ENDBRANCH  21  24
ENDBRANCH  17  18
ENDBRANCH  16  17
ENDBRANCH  15  16
TORSDOF 7
ENDMDL
MODEL       92
REMARK 921   NORMALIZED FREE ENERGY PREDICTED BY IDOCK:   -5.16 KCAL/MOL
REMARK 922        TOTAL FREE ENERGY PREDICTED BY IDOCK:   -9.91 KCAL/MOL
REMARK 923 INTER-LIGAND FREE ENERGY PREDICTED BY IDOCK:   -7.99 KCAL/MOL
REMARK 924 INTRA-LIGAND FREE ENERGY PREDICTED BY IDOCK:   -1.92 KCAL/MOL
REMARK 927      BINDING AFFINITY PREDICTED BY RF-SCORE:    0.00 PKD
ROOT
HETATM    1  N   UNK A   0     -10.387  19.944  65.994  1.00  0.00    -0.497 NA 
HETATM    2  H1  UNK A   0     -10.825  20.776  66.386  1.00  0.00     0.000 HD 
HETATM    3  C   UNK A   0      -9.272  19.412  66.558  1.00  0.00    -0.356 C  
HETATM    4  H2  UNK A   0     -10.791  19.504  65.167  1.00  0.00     0.000 HD 
HETATM    5  N   UNK A   0      -8.714  18.350  66.057  1.00  0.00    -0.084 N  
HETATM    6  H   UNK A   0      -9.100  17.914  65.220  1.00  0.00     0.000 HD 
HETATM    7  C   UNK A   0      -7.582  17.809  66.672  1.00  0.00    -0.236 C  
HETATM    8  C   UNK A   0      -7.137  18.483  67.896  1.00  0.00    -0.233 A  
HETATM    9  O   UNK A   0      -6.994  16.829  66.231  1.00  0.00    -0.187 OA 
HETATM   10  C   UNK A   0      -7.803  19.599  68.325  1.00  0.00    -0.320 A  
HETATM   11  N   UNK A   0      -7.264  20.053  69.483  1.00  0.00    -0.153 NA 
HETATM   12  N   UNK A   0      -8.854  20.101  67.666  1.00  0.00    -0.327 NA 
HETATM   13  H   UNK A   0      -7.575  20.869  70.010  1.00  0.00     0.000 HD 
HETATM   14  C   UNK A   0      -6.224  19.219  69.821  1.00  0.00    -0.265 A  
HETATM   15  C   UNK A   0      -6.111  18.225  68.855  1.00  0.00    -0.217 A  
ENDROOT
BRANCH  15  16
HETATM   16  C   UNK A   0      -5.146  17.083  68.874  1.00  0.00    -0.133 C  
BRANCH  16  17
HETATM   17  C   UNK A   0      -5.608  15.892  69.730  1.00  0.00    -0.134 C  
BRANCH  17  18
HETATM   18  C   UNK A   0      -6.609  14.992  69.026  1.00  0.00    -0.109 A  
HETATM   19  C   UNK A   0      -7.986  15.113  69.253  1.00  0.00    -0.213 A  
HETATM   20  C   UNK A   0      -8.885  14.204  68.697  1.00  0.00    -0.132 A  
HETATM   21  C   UNK A   0      -8.422  13.168  67.880  1.00  0.00    -0.181 A  
HETATM   22  C   UNK A   0      -7.069  13.110  67.539  1.00  0.00    -0.156 A  
HETATM   23  C   UNK A   0      -6.167  14.016  68.115  1.00  0.00    -0.132 A  
BRANCH  21  24
HETATM   24  C   UNK A   0      -9.358  12.098  67.434  1.00  0.00    -0.181 C  
HETATM   25  O   UNK A   0      -9.889  11.312  68.207  1.00  0.00    -0.182 OA 
ATOM     26  N   GLU A   1      -9.610  12.082  66.076  1.00  0.00    -0.235 N  
ATOM     27  H   GLU A   1      -9.146  12.765  65.476  1.00  0.00     0.000 HD 
BRANCH  26  28
ATOM     28  CA  GLU A   1     -10.521  11.117  65.479  1.00  0.00    -0.256 C  
ATOM     29  C   GLU A   1      -9.702  10.025  64.780  1.00  0.00    -0.293 C  
ATOM     30  O   GLU A   1      -9.387   8.988  65.589  1.00  0.00    -0.236 OA 
ATOM     31  OXT GLU A   1      -9.346  10.078  63.603  1.00  0.00    -0.268 OA 
BRANCH  28  32
ATOM     32  CB  GLU A   1     -11.465  11.801  64.480  1.00  0.00    -0.322 C  
BRANCH  32  33
ATOM     33  CG  GLU A   1     -10.923  13.155  64.025  1.00  0.00    -0.377 C  
ATOM     34  CD  GLU A   1     -11.799  14.276  64.514  1.00  0.00    -0.442 C  
ATOM     35  OE1 GLU A   1     -11.417  14.781  65.706  1.00  0.00    -0.349 OA 
ATOM     36  OE2 GLU A   1     -12.784  14.675  63.911  1.00  0.00    -0.788 OA 
ENDBRANCH  32  33
ENDBRANCH  28  32
ENDBRANCH  26  28
ENDBRANCH  21  24
ENDBRANCH  17  18
ENDBRANCH  16  17
ENDBRANCH  15  16
TORSDOF 7
ENDMDL
MODEL       93
REMARK 921   NORMALIZED FREE ENERGY PREDICTED BY IDOCK:   -5.16 KCAL/MOL
REMARK 922        TOTAL FREE ENERGY PREDICTED BY IDOCK:   -9.91 KCAL/MOL
REMARK 923 INTER-LIGAND FREE ENERGY PREDICTED BY IDOCK:   -8.46 KCAL/MOL
REMARK 924 INTRA-LIGAND FREE ENERGY PREDICTED BY IDOCK:   -1.45 KCAL/MOL
REMARK 927      BINDING AFFINITY PREDICTED BY RF-SCORE:    0.00 PKD
ROOT
HETATM    1  N   UNK A   0     -12.735  14.522  63.501  1.00  0.00    -0.814 NA 
HETATM    2  H1  UNK A   0     -13.410  14.961  64.126  1.00  0.00     0.000 HD 
HETATM    3  C   UNK A   0     -11.964  13.488  63.926  1.00  0.00    -0.440 C  
HETATM    4  H2  UNK A   0     -12.637  14.864  62.545  1.00  0.00     0.000 HD 
HETATM    5  N   UNK A   0     -11.103  12.927  63.129  1.00  0.00    -0.582 N  
HETATM    6  H   UNK A   0     -10.984  13.274  62.177  1.00  0.00     0.000 HD 
HETATM    7  C   UNK A   0     -10.340  11.849  63.583  1.00  0.00    -0.441 C  
HETATM    8  C   UNK A   0     -10.622  11.400  64.950  1.00  0.00    -0.368 A  
HETATM    9  O   UNK A   0      -9.492  11.300  62.891  1.00  0.00    -0.341 OA 
HETATM   10  C   UNK A   0     -11.549  12.073  65.698  1.00  0.00    -0.296 A  
HETATM   11  N   UNK A   0     -11.689  11.488  66.913  1.00  0.00    -0.513 NA 
HETATM   12  N   UNK A   0     -12.216  13.133  65.225  1.00  0.00    -0.428 NA 
HETATM   13  H   UNK A   0     -12.316  11.794  67.657  1.00  0.00     0.000 HD 
HETATM   14  C   UNK A   0     -10.837  10.410  66.964  1.00  0.00    -0.203 A  
HETATM   15  C   UNK A   0     -10.152  10.321  65.758  1.00  0.00    -0.325 A  
ENDROOT
BRANCH  15  16
HETATM   16  C   UNK A   0      -9.172   9.256  65.377  1.00  0.00    -0.284 C  
BRANCH  16  17
HETATM   17  C   UNK A   0      -7.784   9.430  66.016  1.00  0.00    -0.099 C  
BRANCH  17  18
HETATM   18  C   UNK A   0      -7.747   9.070  67.491  1.00  0.00    -0.096 A  
HETATM   19  C   UNK A   0      -7.860   7.742  67.922  1.00  0.00    -0.127 A  
HETATM   20  C   UNK A   0      -7.948   7.436  69.280  1.00  0.00    -0.118 A  
HETATM   21  C   UNK A   0      -7.898   8.454  70.235  1.00  0.00    -0.096 A  
HETATM   22  C   UNK A   0      -7.656   9.769  69.830  1.00  0.00    -0.137 A  
HETATM   23  C   UNK A   0      -7.586  10.074  68.463  1.00  0.00    -0.087 A  
BRANCH  21  24
HETATM   24  C   UNK A   0      -8.169   8.146  71.667  1.00  0.00    -0.126 C  
HETATM   25  O   UNK A   0      -7.622   8.734  72.591  1.00  0.00    -0.353 OA 
ATOM     26  N   GLU A   1      -9.116   7.162  71.876  1.00  0.00    -0.135 N  
ATOM     27  H   GLU A   1      -9.546   6.708  71.070  1.00  0.00     0.000 HD 
BRANCH  26  28
ATOM     28  CA  GLU A   1      -9.516   6.759  73.215  1.00  0.00    -0.150 C  
ATOM     29  C   GLU A   1      -8.690   5.537  73.635  1.00  0.00    -0.122 C  
ATOM     30  O   GLU A   1      -7.530   5.856  74.251  1.00  0.00    -0.088 OA 
ATOM     31  OXT GLU A   1      -9.029   4.372  73.427  1.00  0.00    -0.110 OA 
BRANCH  28  32
ATOM     32  CB  GLU A   1     -11.015   6.434  73.263  1.00  0.00    -0.218 C  
BRANCH  32  33
ATOM     33  CG  GLU A   1     -11.595   6.223  71.866  1.00  0.00    -0.369 C  
ATOM     34  CD  GLU A   1     -12.413   7.410  71.438  1.00  0.00    -0.368 C  
ATOM     35  OE1 GLU A   1     -11.707   8.337  70.757  1.00  0.00    -0.277 OA 
ATOM     36  OE2 GLU A   1     -13.597   7.547  71.708  1.00  0.00    -0.353 OA 
ENDBRANCH  32  33
ENDBRANCH  28  32
ENDBRANCH  26  28
ENDBRANCH  21  24
ENDBRANCH  17  18
ENDBRANCH  16  17
ENDBRANCH  15  16
TORSDOF 7
ENDMDL
MODEL       94
REMARK 921   NORMALIZED FREE ENERGY PREDICTED BY IDOCK:   -5.16 KCAL/MOL
REMARK 922        TOTAL FREE ENERGY PREDICTED BY IDOCK:   -9.91 KCAL/MOL
REMARK 923 INTER-LIGAND FREE ENERGY PREDICTED BY IDOCK:   -8.86 KCAL/MOL
REMARK 924 INTRA-LIGAND FREE ENERGY PREDICTED BY IDOCK:   -1.05 KCAL/MOL
REMARK 927      BINDING AFFINITY PREDICTED BY RF-SCORE:    0.00 PKD
ROOT
HETATM    1  N   UNK A   0      -9.968  20.097  67.128  1.00  0.00    -0.433 NA 
HETATM    2  H1  UNK A   0      -9.383  20.318  67.934  1.00  0.00     0.000 HD 
HETATM    3  C   UNK A   0     -10.020  18.833  66.633  1.00  0.00    -0.365 C  
HETATM    4  H2  UNK A   0     -10.521  20.833  66.689  1.00  0.00     0.000 HD 
HETATM    5  N   UNK A   0     -10.766  18.551  65.606  1.00  0.00    -0.262 N  
HETATM    6  H   UNK A   0     -11.308  19.284  65.149  1.00  0.00     0.000 HD 
HETATM    7  C   UNK A   0     -10.821  17.238  65.132  1.00  0.00     0.058 C  
HETATM    8  C   UNK A   0     -10.042  16.253  65.889  1.00  0.00    -0.381 A  
HETATM    9  O   UNK A   0     -11.480  16.915  64.152  1.00  0.00    -1.174 OA 
HETATM   10  C   UNK A   0      -9.288  16.671  66.952  1.00  0.00    -0.231 A  
HETATM   11  N   UNK A   0      -8.673  15.614  67.538  1.00  0.00    -0.173 NA 
HETATM   12  N   UNK A   0      -9.236  17.953  67.332  1.00  0.00    -0.251 NA 
HETATM   13  H   UNK A   0      -8.055  15.653  68.348  1.00  0.00     0.000 HD 
HETATM   14  C   UNK A   0      -9.028  14.481  66.846  1.00  0.00    -0.246 A  
HETATM   15  C   UNK A   0      -9.883  14.837  65.808  1.00  0.00    -0.373 A  
ENDROOT
BRANCH  15  16
HETATM   16  C   UNK A   0     -10.547  13.898  64.852  1.00  0.00    -0.436 C  
BRANCH  16  17
HETATM   17  C   UNK A   0     -11.726  13.121  65.461  1.00  0.00    -0.393 C  
BRANCH  17  18
HETATM   18  C   UNK A   0     -11.297  11.994  66.385  1.00  0.00    -0.411 A  
HETATM   19  C   UNK A   0     -10.443  10.975  65.945  1.00  0.00    -0.300 A  
HETATM   20  C   UNK A   0     -10.154   9.882  66.762  1.00  0.00    -0.292 A  
HETATM   21  C   UNK A   0     -10.696   9.803  68.048  1.00  0.00    -0.298 A  
HETATM   22  C   UNK A   0     -11.444  10.871  68.549  1.00  0.00    -0.380 A  
HETATM   23  C   UNK A   0     -11.746  11.959  67.717  1.00  0.00    -0.362 A  
BRANCH  21  24
HETATM   24  C   UNK A   0     -10.532   8.558  68.849  1.00  0.00    -0.188 C  
HETATM   25  O   UNK A   0     -10.710   7.438  68.386  1.00  0.00    -0.180 OA 
ATOM     26  N   GLU A   1     -10.127   8.761  70.154  1.00  0.00    -0.182 N  
ATOM     27  H   GLU A   1      -9.986   9.715  70.487  1.00  0.00     0.000 HD 
BRANCH  26  28
ATOM     28  CA  GLU A   1      -9.895   7.649  71.064  1.00  0.00    -0.174 C  
ATOM     29  C   GLU A   1     -10.145   8.122  72.501  1.00  0.00    -0.300 C  
ATOM     30  O   GLU A   1     -11.428   7.974  72.901  1.00  0.00    -0.411 OA 
ATOM     31  OXT GLU A   1      -9.277   8.603  73.228  1.00  0.00    -0.196 OA 
BRANCH  28  32
ATOM     32  CB  GLU A   1      -8.465   7.112  70.917  1.00  0.00    -0.133 C  
BRANCH  32  33
ATOM     33  CG  GLU A   1      -8.407   5.597  71.111  1.00  0.00    -0.122 C  
ATOM     34  CD  GLU A   1      -7.815   5.251  72.450  1.00  0.00    -0.102 C  
ATOM     35  OE1 GLU A   1      -8.734   5.112  73.428  1.00  0.00    -0.115 OA 
ATOM     36  OE2 GLU A   1      -6.614   5.137  72.648  1.00  0.00    -0.055 OA 
ENDBRANCH  32  33
ENDBRANCH  28  32
ENDBRANCH  26  28
ENDBRANCH  21  24
ENDBRANCH  17  18
ENDBRANCH  16  17
ENDBRANCH  15  16
TORSDOF 7
ENDMDL
MODEL       95
REMARK 921   NORMALIZED FREE ENERGY PREDICTED BY IDOCK:   -5.15 KCAL/MOL
REMARK 922        TOTAL FREE ENERGY PREDICTED BY IDOCK:   -9.90 KCAL/MOL
REMARK 923 INTER-LIGAND FREE ENERGY PREDICTED BY IDOCK:   -8.77 KCAL/MOL
REMARK 924 INTRA-LIGAND FREE ENERGY PREDICTED BY IDOCK:   -1.13 KCAL/MOL
REMARK 927      BINDING AFFINITY PREDICTED BY RF-SCORE:    0.00 PKD
ROOT
HETATM    1  N   UNK A   0      -9.319   7.111  74.550  1.00  0.00    -0.429 NA 
HETATM    2  H1  UNK A   0      -8.347   7.127  74.857  1.00  0.00     0.000 HD 
HETATM    3  C   UNK A   0      -9.699   7.743  73.410  1.00  0.00    -0.290 C  
HETATM    4  H2  UNK A   0     -10.014   6.613  75.106  1.00  0.00     0.000 HD 
HETATM    5  N   UNK A   0     -10.939   7.723  73.019  1.00  0.00    -0.404 N  
HETATM    6  H   UNK A   0     -11.645   7.244  73.578  1.00  0.00     0.000 HD 
HETATM    7  C   UNK A   0     -11.299   8.361  71.829  1.00  0.00    -0.300 C  
HETATM    8  C   UNK A   0     -10.201   8.978  71.079  1.00  0.00    -0.347 A  
HETATM    9  O   UNK A   0     -12.453   8.402  71.424  1.00  0.00    -0.303 OA 
HETATM   10  C   UNK A   0      -8.934   8.940  71.595  1.00  0.00    -0.173 A  
HETATM   11  N   UNK A   0      -8.060   9.531  70.743  1.00  0.00    -0.289 NA 
HETATM   12  N   UNK A   0      -8.656   8.356  72.766  1.00  0.00    -0.317 NA 
HETATM   13  H   UNK A   0      -7.056   9.635  70.889  1.00  0.00     0.000 HD 
HETATM   14  C   UNK A   0      -8.767   9.966  69.646  1.00  0.00    -0.204 A  
HETATM   15  C   UNK A   0     -10.108   9.639  69.817  1.00  0.00    -0.258 A  
ENDROOT
BRANCH  15  16
HETATM   16  C   UNK A   0     -11.207   9.880  68.831  1.00  0.00    -0.126 C  
BRANCH  16  17
HETATM   17  C   UNK A   0     -12.147  11.035  69.217  1.00  0.00    -0.363 C  
BRANCH  17  18
HETATM   18  C   UNK A   0     -11.543  12.410  68.987  1.00  0.00    -0.362 A  
HETATM   19  C   UNK A   0     -10.791  12.695  67.841  1.00  0.00    -0.244 A  
HETATM   20  C   UNK A   0     -10.141  13.921  67.699  1.00  0.00    -0.241 A  
HETATM   21  C   UNK A   0     -10.252  14.895  68.694  1.00  0.00    -0.236 A  
HETATM   22  C   UNK A   0     -11.101  14.677  69.782  1.00  0.00    -0.268 A  
HETATM   23  C   UNK A   0     -11.740  13.437  69.928  1.00  0.00    -0.337 A  
BRANCH  21  24
HETATM   24  C   UNK A   0      -9.418  16.127  68.626  1.00  0.00    -0.227 C  
HETATM   25  O   UNK A   0      -8.382  16.268  69.264  1.00  0.00    -0.228 OA 
ATOM     26  N   GLU A   1      -9.885  17.092  67.756  1.00  0.00    -0.266 N  
ATOM     27  H   GLU A   1     -10.751  16.922  67.243  1.00  0.00     0.000 HD 
BRANCH  26  28
ATOM     28  CA  GLU A   1      -9.175  18.346  67.552  1.00  0.00    -0.272 C  
ATOM     29  C   GLU A   1     -10.147  19.511  67.772  1.00  0.00    -0.415 C  
ATOM     30  O   GLU A   1     -10.198  19.935  69.055  1.00  0.00    -0.432 OA 
ATOM     31  OXT GLU A   1     -10.831  20.015  66.881  1.00  0.00    -0.370 OA 
BRANCH  28  32
ATOM     32  CB  GLU A   1      -8.573  18.409  66.141  1.00  0.00    -0.136 C  
BRANCH  32  33
ATOM     33  CG  GLU A   1      -7.124  18.892  66.165  1.00  0.00    -0.284 C  
ATOM     34  CD  GLU A   1      -6.259  17.955  66.963  1.00  0.00    -0.155 C  
ATOM     35  OE1 GLU A   1      -5.684  16.985  66.221  1.00  0.00    -0.321 OA 
ATOM     36  OE2 GLU A   1      -6.112  18.038  68.173  1.00  0.00    -0.171 OA 
ENDBRANCH  32  33
ENDBRANCH  28  32
ENDBRANCH  26  28
ENDBRANCH  21  24
ENDBRANCH  17  18
ENDBRANCH  16  17
ENDBRANCH  15  16
TORSDOF 7
ENDMDL
MODEL       96
REMARK 921   NORMALIZED FREE ENERGY PREDICTED BY IDOCK:   -5.14 KCAL/MOL
REMARK 922        TOTAL FREE ENERGY PREDICTED BY IDOCK:   -9.88 KCAL/MOL
REMARK 923 INTER-LIGAND FREE ENERGY PREDICTED BY IDOCK:   -9.03 KCAL/MOL
REMARK 924 INTRA-LIGAND FREE ENERGY PREDICTED BY IDOCK:   -0.85 KCAL/MOL
REMARK 927      BINDING AFFINITY PREDICTED BY RF-SCORE:    0.00 PKD
ROOT
HETATM    1  N   UNK A   0     -11.821   6.445  72.526  1.00  0.00    -0.496 NA 
HETATM    2  H1  UNK A   0     -12.833   6.532  72.441  1.00  0.00     0.000 HD 
HETATM    3  C   UNK A   0     -11.038   6.327  71.423  1.00  0.00    -0.284 C  
HETATM    4  H2  UNK A   0     -11.392   6.448  73.451  1.00  0.00     0.000 HD 
HETATM    5  N   UNK A   0      -9.747   6.217  71.532  1.00  0.00    -0.162 N  
HETATM    6  H   UNK A   0      -9.310   6.201  72.453  1.00  0.00     0.000 HD 
HETATM    7  C   UNK A   0      -8.962   6.122  70.380  1.00  0.00    -0.150 C  
HETATM    8  C   UNK A   0      -9.684   6.204  69.107  1.00  0.00    -0.164 A  
HETATM    9  O   UNK A   0      -7.745   5.986  70.418  1.00  0.00    -0.092 OA 
HETATM   10  C   UNK A   0     -11.048   6.313  69.118  1.00  0.00    -0.390 A  
HETATM   11  N   UNK A   0     -11.523   6.408  67.852  1.00  0.00    -0.604 NA 
HETATM   12  N   UNK A   0     -11.753   6.351  70.255  1.00  0.00    -0.393 NA 
HETATM   13  H   UNK A   0     -12.503   6.499  67.584  1.00  0.00     0.000 HD 
HETATM   14  C   UNK A   0     -10.451   6.359  66.993  1.00  0.00    -0.282 A  
HETATM   15  C   UNK A   0      -9.283   6.232  67.737  1.00  0.00    -0.115 A  
ENDROOT
BRANCH  15  16
HETATM   16  C   UNK A   0      -7.890   6.202  67.194  1.00  0.00    -0.102 C  
BRANCH  16  17
HETATM   17  C   UNK A   0      -7.095   7.494  67.450  1.00  0.00    -0.085 C  
BRANCH  17  18
HETATM   18  C   UNK A   0      -7.925   8.757  67.293  1.00  0.00    -0.097 A  
HETATM   19  C   UNK A   0      -8.285   9.537  68.399  1.00  0.00    -0.113 A  
HETATM   20  C   UNK A   0      -9.147  10.623  68.258  1.00  0.00    -0.153 A  
HETATM   21  C   UNK A   0      -9.646  10.965  66.998  1.00  0.00    -0.197 A  
HETATM   22  C   UNK A   0      -9.196  10.279  65.868  1.00  0.00    -0.205 A  
HETATM   23  C   UNK A   0      -8.343   9.177  66.017  1.00  0.00    -0.125 A  
BRANCH  21  24
HETATM   24  C   UNK A   0     -10.701  12.010  66.875  1.00  0.00    -0.244 C  
HETATM   25  O   UNK A   0     -11.884  11.794  67.109  1.00  0.00    -0.599 OA 
ATOM     26  N   GLU A   1     -10.237  13.257  66.507  1.00  0.00    -0.277 N  
ATOM     27  H   GLU A   1      -9.240  13.384  66.331  1.00  0.00     0.000 HD 
BRANCH  26  28
ATOM     28  CA  GLU A   1     -11.133  14.395  66.367  1.00  0.00    -0.326 C  
ATOM     29  C   GLU A   1     -11.422  14.977  67.755  1.00  0.00    -0.334 C  
ATOM     30  O   GLU A   1     -10.536  15.926  68.136  1.00  0.00    -0.261 OA 
ATOM     31  OXT GLU A   1     -12.355  14.619  68.473  1.00  0.00    -0.141 OA 
BRANCH  28  32
ATOM     32  CB  GLU A   1     -12.440  13.979  65.678  1.00  0.00    -0.531 C  
BRANCH  32  33
ATOM     33  CG  GLU A   1     -12.336  14.080  64.157  1.00  0.00    -0.374 C  
ATOM     34  CD  GLU A   1     -11.922  12.764  63.559  1.00  0.00    -0.555 C  
ATOM     35  OE1 GLU A   1     -12.961  11.977  63.208  1.00  0.00    -0.736 OA 
ATOM     36  OE2 GLU A   1     -10.757  12.418  63.430  1.00  0.00    -0.446 OA 
ENDBRANCH  32  33
ENDBRANCH  28  32
ENDBRANCH  26  28
ENDBRANCH  21  24
ENDBRANCH  17  18
ENDBRANCH  16  17
ENDBRANCH  15  16
TORSDOF 7
ENDMDL
MODEL       97
REMARK 921   NORMALIZED FREE ENERGY PREDICTED BY IDOCK:   -5.13 KCAL/MOL
REMARK 922        TOTAL FREE ENERGY PREDICTED BY IDOCK:   -9.87 KCAL/MOL
REMARK 923 INTER-LIGAND FREE ENERGY PREDICTED BY IDOCK:   -8.88 KCAL/MOL
REMARK 924 INTRA-LIGAND FREE ENERGY PREDICTED BY IDOCK:   -0.99 KCAL/MOL
REMARK 927      BINDING AFFINITY PREDICTED BY RF-SCORE:    0.00 PKD
ROOT
HETATM    1  N   UNK A   0      -9.867  10.442  62.560  1.00  0.00    -0.727 NA 
HETATM    2  H1  UNK A   0     -10.584  10.048  61.952  1.00  0.00     0.000 HD 
HETATM    3  C   UNK A   0     -10.183  11.375  63.494  1.00  0.00    -0.413 C  
HETATM    4  H2  UNK A   0      -8.900  10.130  62.466  1.00  0.00     0.000 HD 
HETATM    5  N   UNK A   0      -9.268  11.877  64.270  1.00  0.00    -0.363 N  
HETATM    6  H   UNK A   0      -8.295  11.585  64.170  1.00  0.00     0.000 HD 
HETATM    7  C   UNK A   0      -9.623  12.818  65.239  1.00  0.00     0.106 C  
HETATM    8  C   UNK A   0     -11.052  13.132  65.329  1.00  0.00    -0.304 A  
HETATM    9  O   UNK A   0      -8.804  13.349  65.978  1.00  0.00     0.232 OA 
HETATM   10  C   UNK A   0     -11.923  12.544  64.453  1.00  0.00    -0.404 A  
HETATM   11  N   UNK A   0     -13.194  12.935  64.718  1.00  0.00    -0.686 NA 
HETATM   12  N   UNK A   0     -11.517  11.684  63.511  1.00  0.00    -0.399 NA 
HETATM   13  H   UNK A   0     -14.030  12.641  64.212  1.00  0.00     0.000 HD 
HETATM   14  C   UNK A   0     -13.157  13.797  65.788  1.00  0.00    -0.066 A  
HETATM   15  C   UNK A   0     -11.837  13.947  66.200  1.00  0.00    -0.422 A  
ENDROOT
BRANCH  15  16
HETATM   16  C   UNK A   0     -11.365  14.752  67.369  1.00  0.00    -0.361 C  
BRANCH  16  17
HETATM   17  C   UNK A   0     -10.313  14.035  68.233  1.00  0.00    -0.247 C  
BRANCH  17  18
HETATM   18  C   UNK A   0     -10.837  12.780  68.908  1.00  0.00    -0.236 A  
HETATM   19  C   UNK A   0     -11.801  12.844  69.923  1.00  0.00    -0.373 A  
HETATM   20  C   UNK A   0     -12.184  11.699  70.619  1.00  0.00    -0.461 A  
HETATM   21  C   UNK A   0     -11.626  10.459  70.294  1.00  0.00    -0.410 A  
HETATM   22  C   UNK A   0     -10.762  10.356  69.202  1.00  0.00    -0.266 A  
HETATM   23  C   UNK A   0     -10.367  11.514  68.516  1.00  0.00    -0.224 A  
BRANCH  21  24
HETATM   24  C   UNK A   0     -11.901   9.272  71.151  1.00  0.00    -0.325 C  
HETATM   25  O   UNK A   0     -12.812   9.236  71.969  1.00  0.00    -0.361 OA 
ATOM     26  N   GLU A   1     -11.067   8.194  70.927  1.00  0.00    -0.254 N  
ATOM     27  H   GLU A   1     -10.328   8.274  70.229  1.00  0.00     0.000 HD 
BRANCH  26  28
ATOM     28  CA  GLU A   1     -11.217   6.947  71.662  1.00  0.00    -0.247 C  
ATOM     29  C   GLU A   1     -10.058   6.812  72.656  1.00  0.00    -0.174 C  
ATOM     30  O   GLU A   1     -10.315   7.367  73.862  1.00  0.00    -0.317 OA 
ATOM     31  OXT GLU A   1      -8.985   6.267  72.395  1.00  0.00    -0.139 OA 
BRANCH  28  32
ATOM     32  CB  GLU A   1     -11.243   5.748  70.704  1.00  0.00    -0.196 C  
BRANCH  32  33
ATOM     33  CG  GLU A   1     -10.981   6.171  69.259  1.00  0.00    -0.450 C  
ATOM     34  CD  GLU A   1      -9.567   5.854  68.856  1.00  0.00    -0.132 C  
ATOM     35  OE1 GLU A   1      -9.426   4.639  68.286  1.00  0.00    -0.132 OA 
ATOM     36  OE2 GLU A   1      -8.624   6.606  69.053  1.00  0.00    -0.128 OA 
ENDBRANCH  32  33
ENDBRANCH  28  32
ENDBRANCH  26  28
ENDBRANCH  21  24
ENDBRANCH  17  18
ENDBRANCH  16  17
ENDBRANCH  15  16
TORSDOF 7
ENDMDL
MODEL       98
REMARK 921   NORMALIZED FREE ENERGY PREDICTED BY IDOCK:   -5.13 KCAL/MOL
REMARK 922        TOTAL FREE ENERGY PREDICTED BY IDOCK:   -9.87 KCAL/MOL
REMARK 923 INTER-LIGAND FREE ENERGY PREDICTED BY IDOCK:   -8.30 KCAL/MOL
REMARK 924 INTRA-LIGAND FREE ENERGY PREDICTED BY IDOCK:   -1.57 KCAL/MOL
REMARK 927      BINDING AFFINITY PREDICTED BY RF-SCORE:    0.00 PKD
ROOT
HETATM    1  N   UNK A   0     -13.514   9.024  72.854  1.00  0.00    -0.886 NA 
HETATM    2  H1  UNK A   0     -13.612   8.707  73.818  1.00  0.00     0.000 HD 
HETATM    3  C   UNK A   0     -12.421   8.692  72.119  1.00  0.00    -0.389 C  
HETATM    4  H2  UNK A   0     -14.248   9.597  72.436  1.00  0.00     0.000 HD 
HETATM    5  N   UNK A   0     -12.298   9.097  70.889  1.00  0.00    -0.472 N  
HETATM    6  H   UNK A   0     -13.016   9.686  70.469  1.00  0.00     0.000 HD 
HETATM    7  C   UNK A   0     -11.175   8.721  70.148  1.00  0.00    -0.152 C  
HETATM    8  C   UNK A   0     -10.227   7.835  70.831  1.00  0.00    -0.207 A  
HETATM    9  O   UNK A   0     -10.987   9.094  68.997  1.00  0.00    -0.143 OA 
HETATM   10  C   UNK A   0     -10.461   7.480  72.131  1.00  0.00    -0.214 A  
HETATM   11  N   UNK A   0      -9.495   6.636  72.570  1.00  0.00    -0.148 NA 
HETATM   12  N   UNK A   0     -11.532   7.911  72.809  1.00  0.00    -0.399 NA 
HETATM   13  H   UNK A   0      -9.436   6.225  73.502  1.00  0.00     0.000 HD 
HETATM   14  C   UNK A   0      -8.609   6.434  71.539  1.00  0.00    -0.130 A  
HETATM   15  C   UNK A   0      -9.030   7.166  70.434  1.00  0.00    -0.155 A  
ENDROOT
BRANCH  15  16
HETATM   16  C   UNK A   0      -8.382   7.178  69.086  1.00  0.00    -0.129 C  
BRANCH  16  17
HETATM   17  C   UNK A   0      -7.141   8.083  69.000  1.00  0.00    -0.066 C  
BRANCH  17  18
HETATM   18  C   UNK A   0      -7.448   9.489  68.516  1.00  0.00    -0.080 A  
HETATM   19  C   UNK A   0      -7.590  10.556  69.412  1.00  0.00    -0.145 A  
HETATM   20  C   UNK A   0      -7.993  11.815  68.967  1.00  0.00     0.100 A  
HETATM   21  C   UNK A   0      -8.237  12.035  67.609  1.00  0.00    -0.155 A  
HETATM   22  C   UNK A   0      -7.976  11.019  66.687  1.00  0.00    -0.156 A  
HETATM   23  C   UNK A   0      -7.588   9.751  67.141  1.00  0.00    -0.092 A  
BRANCH  21  24
HETATM   24  C   UNK A   0      -8.835  13.324  67.160  1.00  0.00    -0.222 C  
HETATM   25  O   UNK A   0      -8.162  14.286  66.812  1.00  0.00    -0.075 OA 
ATOM     26  N   GLU A   1     -10.215  13.340  67.132  1.00  0.00    -0.244 N  
ATOM     27  H   GLU A   1     -10.728  12.508  67.426  1.00  0.00     0.000 HD 
BRANCH  26  28
ATOM     28  CA  GLU A   1     -10.957  14.513  66.694  1.00  0.00    -0.321 C  
ATOM     29  C   GLU A   1     -11.262  15.394  67.911  1.00  0.00    -0.329 C  
ATOM     30  O   GLU A   1     -10.295  16.301  68.175  1.00  0.00    -0.258 OA 
ATOM     31  OXT GLU A   1     -12.276  15.289  68.601  1.00  0.00    -0.182 OA 
BRANCH  28  32
ATOM     32  CB  GLU A   1     -12.258  14.105  65.989  1.00  0.00    -0.464 C  
BRANCH  32  33
ATOM     33  CG  GLU A   1     -12.157  14.273  64.473  1.00  0.00    -0.499 C  
ATOM     34  CD  GLU A   1     -11.886  12.953  63.804  1.00  0.00    -0.504 C  
ATOM     35  OE1 GLU A   1     -13.004  12.297  63.429  1.00  0.00    -0.753 OA 
ATOM     36  OE2 GLU A   1     -10.764  12.496  63.642  1.00  0.00    -0.430 OA 
ENDBRANCH  32  33
ENDBRANCH  28  32
ENDBRANCH  26  28
ENDBRANCH  21  24
ENDBRANCH  17  18
ENDBRANCH  16  17
ENDBRANCH  15  16
TORSDOF 7
ENDMDL
MODEL       99
REMARK 921   NORMALIZED FREE ENERGY PREDICTED BY IDOCK:   -5.12 KCAL/MOL
REMARK 922        TOTAL FREE ENERGY PREDICTED BY IDOCK:   -9.85 KCAL/MOL
REMARK 923 INTER-LIGAND FREE ENERGY PREDICTED BY IDOCK:   -8.71 KCAL/MOL
REMARK 924 INTRA-LIGAND FREE ENERGY PREDICTED BY IDOCK:   -1.14 KCAL/MOL
REMARK 927      BINDING AFFINITY PREDICTED BY RF-SCORE:    0.00 PKD
ROOT
HETATM    1  N   UNK A   0      -6.051  17.309  69.690  1.00  0.00    -0.241 NA 
HETATM    2  H1  UNK A   0      -6.029  18.282  69.994  1.00  0.00     0.000 HD 
HETATM    3  C   UNK A   0      -7.025  16.863  68.855  1.00  0.00    -0.213 C  
HETATM    4  H2  UNK A   0      -5.333  16.662  70.017  1.00  0.00     0.000 HD 
HETATM    5  N   UNK A   0      -7.053  15.622  68.468  1.00  0.00    -0.113 N  
HETATM    6  H   UNK A   0      -6.350  14.964  68.804  1.00  0.00     0.000 HD 
HETATM    7  C   UNK A   0      -8.052  15.195  67.589  1.00  0.00    -0.162 C  
HETATM    8  C   UNK A   0      -8.983  16.230  67.130  1.00  0.00    -0.213 A  
HETATM    9  O   UNK A   0      -8.150  14.034  67.212  1.00  0.00    -0.183 OA 
HETATM   10  C   UNK A   0      -8.857  17.505  67.612  1.00  0.00    -0.228 A  
HETATM   11  N   UNK A   0      -9.784  18.317  67.046  1.00  0.00    -0.292 NA 
HETATM   12  N   UNK A   0      -7.908  17.846  68.492  1.00  0.00    -0.292 NA 
HETATM   13  H   UNK A   0      -9.904  19.312  67.233  1.00  0.00     0.000 HD 
HETATM   14  C   UNK A   0     -10.533  17.561  66.175  1.00  0.00    -0.288 A  
HETATM   15  C   UNK A   0     -10.064  16.252  66.198  1.00  0.00    -0.362 A  
ENDROOT
BRANCH  15  16
HETATM   16  C   UNK A   0     -10.563  15.122  65.354  1.00  0.00    -0.410 C  
BRANCH  16  17
HETATM   17  C   UNK A   0     -11.841  14.459  65.896  1.00  0.00    -0.371 C  
BRANCH  17  18
HETATM   18  C   UNK A   0     -11.570  13.260  66.789  1.00  0.00    -0.408 A  
HETATM   19  C   UNK A   0     -11.718  13.337  68.179  1.00  0.00    -0.397 A  
HETATM   20  C   UNK A   0     -11.349  12.270  68.998  1.00  0.00    -0.333 A  
HETATM   21  C   UNK A   0     -10.847  11.094  68.435  1.00  0.00    -0.248 A  
HETATM   22  C   UNK A   0     -10.814  10.952  67.046  1.00  0.00    -0.323 A  
HETATM   23  C   UNK A   0     -11.170  12.034  66.228  1.00  0.00    -0.394 A  
BRANCH  21  24
HETATM   24  C   UNK A   0     -10.289  10.028  69.314  1.00  0.00    -0.219 C  
HETATM   25  O   UNK A   0      -9.109   9.979  69.637  1.00  0.00    -0.206 OA 
ATOM     26  N   GLU A   1     -11.217   9.112  69.770  1.00  0.00    -0.420 N  
ATOM     27  H   GLU A   1     -12.190   9.203  69.476  1.00  0.00     0.000 HD 
BRANCH  26  28
ATOM     28  CA  GLU A   1     -10.843   8.022  70.658  1.00  0.00    -0.234 C  
ATOM     29  C   GLU A   1     -11.848   6.876  70.492  1.00  0.00    -0.333 C  
ATOM     30  O   GLU A   1     -11.504   5.994  69.526  1.00  0.00    -0.384 OA 
ATOM     31  OXT GLU A   1     -12.879   6.762  71.155  1.00  0.00    -0.312 OA 
BRANCH  28  32
ATOM     32  CB  GLU A   1     -10.806   8.495  72.118  1.00  0.00    -0.427 C  
BRANCH  32  33
ATOM     33  CG  GLU A   1      -9.448   8.229  72.766  1.00  0.00    -0.343 C  
ATOM     34  CD  GLU A   1      -8.792   7.019  72.158  1.00  0.00    -0.130 C  
ATOM     35  OE1 GLU A   1      -7.983   7.308  71.117  1.00  0.00    -0.099 OA 
ATOM     36  OE2 GLU A   1      -8.993   5.877  72.544  1.00  0.00    -0.133 OA 
ENDBRANCH  32  33
ENDBRANCH  28  32
ENDBRANCH  26  28
ENDBRANCH  21  24
ENDBRANCH  17  18
ENDBRANCH  16  17
ENDBRANCH  15  16
TORSDOF 7
ENDMDL
MODEL      100
REMARK 921   NORMALIZED FREE ENERGY PREDICTED BY IDOCK:   -5.11 KCAL/MOL
REMARK 922        TOTAL FREE ENERGY PREDICTED BY IDOCK:   -9.84 KCAL/MOL
REMARK 923 INTER-LIGAND FREE ENERGY PREDICTED BY IDOCK:   -8.31 KCAL/MOL
REMARK 924 INTRA-LIGAND FREE ENERGY PREDICTED BY IDOCK:   -1.53 KCAL/MOL
REMARK 927      BINDING AFFINITY PREDICTED BY RF-SCORE:    0.00 PKD
ROOT
HETATM    1  N   UNK A   0      -7.872   8.400  73.388  1.00  0.00    -0.349 NA 
HETATM    2  H1  UNK A   0      -7.354   9.144  73.854  1.00  0.00     0.000 HD 
HETATM    3  C   UNK A   0      -8.014   8.390  72.038  1.00  0.00    -0.135 C  
HETATM    4  H2  UNK A   0      -8.287   7.652  73.945  1.00  0.00     0.000 HD 
HETATM    5  N   UNK A   0      -8.675   7.440  71.445  1.00  0.00    -0.125 N  
HETATM    6  H   UNK A   0      -9.110   6.698  71.994  1.00  0.00     0.000 HD 
HETATM    7  C   UNK A   0      -8.785   7.440  70.052  1.00  0.00    -0.140 C  
HETATM    8  C   UNK A   0      -8.084   8.523  69.357  1.00  0.00    -0.112 A  
HETATM    9  O   UNK A   0      -9.419   6.591  69.439  1.00  0.00    -0.145 OA 
HETATM   10  C   UNK A   0      -7.424   9.472  70.090  1.00  0.00    -0.135 A  
HETATM   11  N   UNK A   0      -6.815  10.363  69.269  1.00  0.00    -0.064 NA 
HETATM   12  N   UNK A   0      -7.393   9.448  71.428  1.00  0.00    -0.326 NA 
HETATM   13  H   UNK A   0      -6.259  11.166  69.562  1.00  0.00     0.000 HD 
HETATM   14  C   UNK A   0      -7.081   9.992  67.972  1.00  0.00    -0.081 A  
HETATM   15  C   UNK A   0      -7.870   8.848  67.983  1.00  0.00    -0.102 A  
ENDROOT
BRANCH  15  16
HETATM   16  C   UNK A   0      -8.334   8.085  66.783  1.00  0.00    -0.116 C  
BRANCH  16  17
HETATM   17  C   UNK A   0      -9.847   8.191  66.525  1.00  0.00    -0.309 C  
BRANCH  17  18
HETATM   18  C   UNK A   0     -10.339   9.621  66.387  1.00  0.00    -0.246 A  
HETATM   19  C   UNK A   0     -10.116  10.361  65.219  1.00  0.00    -0.370 A  
HETATM   20  C   UNK A   0     -10.463  11.710  65.150  1.00  0.00    -0.329 A  
HETATM   21  C   UNK A   0     -11.065  12.338  66.244  1.00  0.00    -0.342 A  
HETATM   22  C   UNK A   0     -11.412  11.584  67.367  1.00  0.00    -0.349 A  
HETATM   23  C   UNK A   0     -11.045  10.232  67.439  1.00  0.00    -0.261 A  
BRANCH  21  24
HETATM   24  C   UNK A   0     -11.272  13.813  66.234  1.00  0.00    -0.306 C  
HETATM   25  O   UNK A   0     -11.877  14.395  65.342  1.00  0.00    -0.353 OA 
ATOM     26  N   GLU A   1     -10.757  14.475  67.331  1.00  0.00    -0.278 N  
ATOM     27  H   GLU A   1     -10.268  13.941  68.049  1.00  0.00     0.000 HD 
BRANCH  26  28
ATOM     28  CA  GLU A   1     -10.896  15.915  67.488  1.00  0.00    -0.305 C  
ATOM     29  C   GLU A   1      -9.589  16.592  67.057  1.00  0.00    -0.242 C  
ATOM     30  O   GLU A   1      -9.552  16.901  65.741  1.00  0.00    -0.515 OA 
ATOM     31  OXT GLU A   1      -8.650  16.826  67.817  1.00  0.00    -0.194 OA 
BRANCH  28  32
ATOM     32  CB  GLU A   1     -11.231  16.275  68.942  1.00  0.00    -0.337 C  
BRANCH  32  33
ATOM     33  CG  GLU A   1     -11.697  15.056  69.736  1.00  0.00    -0.341 C  
ATOM     34  CD  GLU A   1     -12.287  15.469  71.056  1.00  0.00    -0.416 C  
ATOM     35  OE1 GLU A   1     -13.621  15.668  71.015  1.00  0.00    -0.588 OA 
ATOM     36  OE2 GLU A   1     -11.623  15.642  72.068  1.00  0.00    -0.402 OA 
ENDBRANCH  32  33
ENDBRANCH  28  32
ENDBRANCH  26  28
ENDBRANCH  21  24
ENDBRANCH  17  18
ENDBRANCH  16  17
ENDBRANCH  15  16
TORSDOF 7
ENDMDL
MODEL      101
REMARK 921   NORMALIZED FREE ENERGY PREDICTED BY IDOCK:   -5.11 KCAL/MOL
REMARK 922        TOTAL FREE ENERGY PREDICTED BY IDOCK:   -9.84 KCAL/MOL
REMARK 923 INTER-LIGAND FREE ENERGY PREDICTED BY IDOCK:   -8.84 KCAL/MOL
REMARK 924 INTRA-LIGAND FREE ENERGY PREDICTED BY IDOCK:   -1.00 KCAL/MOL
REMARK 927      BINDING AFFINITY PREDICTED BY RF-SCORE:    0.00 PKD
ROOT
HETATM    1  N   UNK A   0      -7.081   4.062  72.914  1.00  0.00    -0.060 NA 
HETATM    2  H1  UNK A   0      -6.605   3.524  72.191  1.00  0.00     0.000 HD 
HETATM    3  C   UNK A   0      -8.179   4.805  72.621  1.00  0.00    -0.111 C  
HETATM    4  H2  UNK A   0      -6.727   4.042  73.871  1.00  0.00     0.000 HD 
HETATM    5  N   UNK A   0      -8.785   5.491  73.544  1.00  0.00    -0.118 N  
HETATM    6  H   UNK A   0      -8.428   5.492  74.500  1.00  0.00     0.000 HD 
HETATM    7  C   UNK A   0      -9.927   6.227  73.220  1.00  0.00    -0.180 C  
HETATM    8  C   UNK A   0     -10.383   6.120  71.831  1.00  0.00    -0.244 A  
HETATM    9  O   UNK A   0     -10.524   6.917  74.037  1.00  0.00    -0.374 OA 
HETATM   10  C   UNK A   0      -9.658   5.370  70.945  1.00  0.00    -0.173 A  
HETATM   11  N   UNK A   0     -10.256   5.368  69.729  1.00  0.00    -0.254 NA 
HETATM   12  N   UNK A   0      -8.541   4.724  71.302  1.00  0.00    -0.116 NA 
HETATM   13  H   UNK A   0      -9.920   4.886  68.895  1.00  0.00     0.000 HD 
HETATM   14  C   UNK A   0     -11.396   6.133  69.817  1.00  0.00    -0.382 A  
HETATM   15  C   UNK A   0     -11.511   6.621  71.114  1.00  0.00    -0.370 A  
ENDROOT
BRANCH  15  16
HETATM   16  C   UNK A   0     -12.638   7.446  71.648  1.00  0.00    -0.391 C  
BRANCH  16  17
HETATM   17  C   UNK A   0     -12.206   8.828  72.166  1.00  0.00    -0.448 C  
BRANCH  17  18
HETATM   18  C   UNK A   0     -11.696   9.752  71.074  1.00  0.00    -0.453 A  
HETATM   19  C   UNK A   0     -12.506  10.756  70.528  1.00  0.00    -0.447 A  
HETATM   20  C   UNK A   0     -12.070  11.516  69.444  1.00  0.00    -0.345 A  
HETATM   21  C   UNK A   0     -10.801  11.301  68.900  1.00  0.00    -0.253 A  
HETATM   22  C   UNK A   0      -9.932  10.395  69.512  1.00  0.00    -0.229 A  
HETATM   23  C   UNK A   0     -10.381   9.621  70.592  1.00  0.00    -0.365 A  
BRANCH  21  24
HETATM   24  C   UNK A   0     -10.407  11.987  67.637  1.00  0.00    -0.198 C  
HETATM   25  O   UNK A   0      -9.468  12.770  67.568  1.00  0.00    -0.178 OA 
ATOM     26  N   GLU A   1     -11.163  11.643  66.534  1.00  0.00    -0.312 N  
ATOM     27  H   GLU A   1     -11.930  10.979  66.645  1.00  0.00     0.000 HD 
BRANCH  26  28
ATOM     28  CA  GLU A   1     -10.894  12.202  65.218  1.00  0.00    -0.293 C  
ATOM     29  C   GLU A   1     -12.112  13.015  64.764  1.00  0.00    -0.415 C  
ATOM     30  O   GLU A   1     -12.068  14.311  65.147  1.00  0.00    -0.379 OA 
ATOM     31  OXT GLU A   1     -13.053  12.547  64.123  1.00  0.00    -0.751 OA 
BRANCH  28  32
ATOM     32  CB  GLU A   1     -10.583  11.092  64.206  1.00  0.00    -0.402 C  
BRANCH  32  33
ATOM     33  CG  GLU A   1      -9.677  10.017  64.804  1.00  0.00    -0.363 C  
ATOM     34  CD  GLU A   1      -8.339   9.998  64.117  1.00  0.00    -0.167 C  
ATOM     35  OE1 GLU A   1      -7.415  10.784  64.709  1.00  0.00     0.066 OA 
ATOM     36  OE2 GLU A   1      -8.112   9.361  63.098  1.00  0.00    -0.136 OA 
ENDBRANCH  32  33
ENDBRANCH  28  32
ENDBRANCH  26  28
ENDBRANCH  21  24
ENDBRANCH  17  18
ENDBRANCH  16  17
ENDBRANCH  15  16
TORSDOF 7
ENDMDL
MODEL      102
REMARK 921   NORMALIZED FREE ENERGY PREDICTED BY IDOCK:   -5.10 KCAL/MOL
REMARK 922        TOTAL FREE ENERGY PREDICTED BY IDOCK:   -9.82 KCAL/MOL
REMARK 923 INTER-LIGAND FREE ENERGY PREDICTED BY IDOCK:   -9.36 KCAL/MOL
REMARK 924 INTRA-LIGAND FREE ENERGY PREDICTED BY IDOCK:   -0.47 KCAL/MOL
REMARK 927      BINDING AFFINITY PREDICTED BY RF-SCORE:    0.00 PKD
ROOT
HETATM    1  N   UNK A   0      -7.490   4.406  67.465  1.00  0.00    -0.073 NA 
HETATM    2  H1  UNK A   0      -6.885   3.690  67.866  1.00  0.00     0.000 HD 
HETATM    3  C   UNK A   0      -8.526   4.919  68.178  1.00  0.00    -0.102 C  
HETATM    4  H2  UNK A   0      -7.316   4.740  66.517  1.00  0.00     0.000 HD 
HETATM    5  N   UNK A   0      -9.299   5.831  67.667  1.00  0.00    -0.108 N  
HETATM    6  H   UNK A   0      -9.144   6.159  66.713  1.00  0.00     0.000 HD 
HETATM    7  C   UNK A   0     -10.343   6.360  68.430  1.00  0.00    -0.194 C  
HETATM    8  C   UNK A   0     -10.448   5.855  69.802  1.00  0.00    -0.340 A  
HETATM    9  O   UNK A   0     -11.122   7.198  67.995  1.00  0.00    -0.101 OA 
HETATM   10  C   UNK A   0      -9.580   4.888  70.228  1.00  0.00    -0.195 A  
HETATM   11  N   UNK A   0      -9.817   4.580  71.527  1.00  0.00    -0.181 NA 
HETATM   12  N   UNK A   0      -8.627   4.382  69.434  1.00  0.00    -0.079 NA 
HETATM   13  H   UNK A   0      -9.310   3.891  72.082  1.00  0.00     0.000 HD 
HETATM   14  C   UNK A   0     -10.862   5.359  71.962  1.00  0.00    -0.202 A  
HETATM   15  C   UNK A   0     -11.286   6.170  70.915  1.00  0.00    -0.365 A  
ENDROOT
BRANCH  15  16
HETATM   16  C   UNK A   0     -12.360   7.209  70.983  1.00  0.00    -0.376 C  
BRANCH  16  17
HETATM   17  C   UNK A   0     -12.018   8.398  71.896  1.00  0.00    -0.397 C  
BRANCH  17  18
HETATM   18  C   UNK A   0     -11.776   9.693  71.139  1.00  0.00    -0.450 A  
HETATM   19  C   UNK A   0     -12.575  10.824  71.351  1.00  0.00    -0.516 A  
HETATM   20  C   UNK A   0     -12.423  11.965  70.564  1.00  0.00    -0.301 A  
HETATM   21  C   UNK A   0     -11.448  12.004  69.564  1.00  0.00    -0.351 A  
HETATM   22  C   UNK A   0     -10.559  10.936  69.425  1.00  0.00    -0.233 A  
HETATM   23  C   UNK A   0     -10.727   9.784  70.207  1.00  0.00    -0.358 A  
BRANCH  21  24
HETATM   24  C   UNK A   0     -11.404  13.149  68.612  1.00  0.00    -0.289 C  
HETATM   25  O   UNK A   0     -12.378  13.850  68.367  1.00  0.00    -0.261 OA 
ATOM     26  N   GLU A   1     -10.166  13.384  68.049  1.00  0.00    -0.237 N  
ATOM     27  H   GLU A   1      -9.385  12.773  68.293  1.00  0.00     0.000 HD 
BRANCH  26  28
ATOM     28  CA  GLU A   1      -9.945  14.480  67.118  1.00  0.00    -0.252 C  
ATOM     29  C   GLU A   1      -9.829  15.789  67.907  1.00  0.00    -0.217 C  
ATOM     30  O   GLU A   1      -8.566  16.075  68.294  1.00  0.00    -0.171 OA 
ATOM     31  OXT GLU A   1     -10.785  16.515  68.182  1.00  0.00    -0.316 OA 
BRANCH  28  32
ATOM     32  CB  GLU A   1     -11.088  14.568  66.097  1.00  0.00    -0.334 C  
BRANCH  32  33
ATOM     33  CG  GLU A   1     -10.930  13.539  64.979  1.00  0.00    -0.342 C  
ATOM     34  CD  GLU A   1     -12.245  13.286  64.293  1.00  0.00    -0.392 C  
ATOM     35  OE1 GLU A   1     -12.459  14.080  63.223  1.00  0.00    -0.795 OA 
ATOM     36  OE2 GLU A   1     -13.062  12.465  64.682  1.00  0.00    -0.825 OA 
ENDBRANCH  32  33
ENDBRANCH  28  32
ENDBRANCH  26  28
ENDBRANCH  21  24
ENDBRANCH  17  18
ENDBRANCH  16  17
ENDBRANCH  15  16
TORSDOF 7
ENDMDL
MODEL      103
REMARK 921   NORMALIZED FREE ENERGY PREDICTED BY IDOCK:   -5.08 KCAL/MOL
REMARK 922        TOTAL FREE ENERGY PREDICTED BY IDOCK:   -9.81 KCAL/MOL
REMARK 923 INTER-LIGAND FREE ENERGY PREDICTED BY IDOCK:   -8.50 KCAL/MOL
REMARK 924 INTRA-LIGAND FREE ENERGY PREDICTED BY IDOCK:   -1.31 KCAL/MOL
REMARK 927      BINDING AFFINITY PREDICTED BY RF-SCORE:    0.00 PKD
ROOT
HETATM    1  N   UNK A   0      -7.551   5.753  67.379  1.00  0.00    -0.095 NA 
HETATM    2  H1  UNK A   0      -7.694   4.765  67.177  1.00  0.00     0.000 HD 
HETATM    3  C   UNK A   0      -8.318   6.394  68.298  1.00  0.00    -0.116 C  
HETATM    4  H2  UNK A   0      -6.822   6.268  66.884  1.00  0.00     0.000 HD 
HETATM    5  N   UNK A   0      -8.136   7.656  68.556  1.00  0.00    -0.123 N  
HETATM    6  H   UNK A   0      -7.422   8.183  68.053  1.00  0.00     0.000 HD 
HETATM    7  C   UNK A   0      -8.922   8.285  69.524  1.00  0.00    -0.150 C  
HETATM    8  C   UNK A   0      -9.885   7.426  70.220  1.00  0.00    -0.187 A  
HETATM    9  O   UNK A   0      -8.819   9.475  69.789  1.00  0.00    -0.165 OA 
HETATM   10  C   UNK A   0      -9.992   6.110  69.859  1.00  0.00    -0.172 A  
HETATM   11  N   UNK A   0     -10.906   5.480  70.636  1.00  0.00    -0.233 NA 
HETATM   12  N   UNK A   0      -9.244   5.573  68.887  1.00  0.00    -0.117 NA 
HETATM   13  H   UNK A   0     -11.173   4.498  70.573  1.00  0.00     0.000 HD 
HETATM   14  C   UNK A   0     -11.410   6.400  71.526  1.00  0.00    -0.294 A  
HETATM   15  C   UNK A   0     -10.798   7.628  71.299  1.00  0.00    -0.252 A  
ENDROOT
BRANCH  15  16
HETATM   16  C   UNK A   0     -11.017   8.881  72.086  1.00  0.00    -0.349 C  
BRANCH  16  17
HETATM   17  C   UNK A   0     -12.403   9.513  71.876  1.00  0.00    -0.450 C  
BRANCH  17  18
HETATM   18  C   UNK A   0     -12.383  10.727  70.964  1.00  0.00    -0.509 A  
HETATM   19  C   UNK A   0     -12.134  10.605  69.591  1.00  0.00    -0.312 A  
HETATM   20  C   UNK A   0     -11.997  11.735  68.786  1.00  0.00    -0.317 A  
HETATM   21  C   UNK A   0     -12.132  13.012  69.338  1.00  0.00    -0.267 A  
HETATM   22  C   UNK A   0     -12.508  13.149  70.676  1.00  0.00    -0.363 A  
HETATM   23  C   UNK A   0     -12.628  12.010  71.485  1.00  0.00    -0.279 A  
BRANCH  21  24
HETATM   24  C   UNK A   0     -11.811  14.214  68.519  1.00  0.00    -0.355 C  
HETATM   25  O   UNK A   0     -11.887  15.357  68.953  1.00  0.00    -0.349 OA 
ATOM     26  N   GLU A   1     -11.386  13.940  67.234  1.00  0.00    -0.309 N  
ATOM     27  H   GLU A   1     -11.334  12.969  66.924  1.00  0.00     0.000 HD 
BRANCH  26  28
ATOM     28  CA  GLU A   1     -11.008  15.000  66.312  1.00  0.00    -0.338 C  
ATOM     29  C   GLU A   1     -11.295  14.539  64.878  1.00  0.00    -0.394 C  
ATOM     30  O   GLU A   1     -12.545  14.836  64.456  1.00  0.00    -0.574 OA 
ATOM     31  OXT GLU A   1     -10.483  13.943  64.170  1.00  0.00    -0.204 OA 
BRANCH  28  32
ATOM     32  CB  GLU A   1      -9.525  15.362  66.472  1.00  0.00    -0.298 C  
BRANCH  32  33
ATOM     33  CG  GLU A   1      -9.311  16.874  66.509  1.00  0.00    -0.293 C  
ATOM     34  CD  GLU A   1      -8.484  17.270  67.702  1.00  0.00    -0.209 C  
ATOM     35  OE1 GLU A   1      -7.159  17.317  67.450  1.00  0.00    -0.152 OA 
ATOM     36  OE2 GLU A   1      -8.957  17.495  68.806  1.00  0.00    -0.272 OA 
ENDBRANCH  32  33
ENDBRANCH  28  32
ENDBRANCH  26  28
ENDBRANCH  21  24
ENDBRANCH  17  18
ENDBRANCH  16  17
ENDBRANCH  15  16
TORSDOF 7
ENDMDL
MODEL      104
REMARK 921   NORMALIZED FREE ENERGY PREDICTED BY IDOCK:   -5.08 KCAL/MOL
REMARK 922        TOTAL FREE ENERGY PREDICTED BY IDOCK:   -9.80 KCAL/MOL
REMARK 923 INTER-LIGAND FREE ENERGY PREDICTED BY IDOCK:   -8.62 KCAL/MOL
REMARK 924 INTRA-LIGAND FREE ENERGY PREDICTED BY IDOCK:   -1.18 KCAL/MOL
REMARK 927      BINDING AFFINITY PREDICTED BY RF-SCORE:    0.00 PKD
ROOT
HETATM    1  N   UNK A   0     -11.199  18.039  64.756  1.00  0.00    -0.238 NA 
HETATM    2  H1  UNK A   0     -11.710  18.396  63.950  1.00  0.00     0.000 HD 
HETATM    3  C   UNK A   0     -11.204  16.714  65.052  1.00  0.00    -0.027 C  
HETATM    4  H2  UNK A   0     -10.677  18.686  65.348  1.00  0.00     0.000 HD 
HETATM    5  N   UNK A   0     -10.551  16.258  66.080  1.00  0.00    -0.298 N  
HETATM    6  H   UNK A   0     -10.042  16.899  66.689  1.00  0.00     0.000 HD 
HETATM    7  C   UNK A   0     -10.553  14.887  66.348  1.00  0.00    -0.307 C  
HETATM    8  C   UNK A   0     -11.276  14.051  65.386  1.00  0.00    -0.319 A  
HETATM    9  O   UNK A   0      -9.983  14.402  67.317  1.00  0.00    -0.242 OA 
HETATM   10  C   UNK A   0     -11.931  14.645  64.342  1.00  0.00    -0.437 A  
HETATM   11  N   UNK A   0     -12.507  13.706  63.551  1.00  0.00    -0.946 NA 
HETATM   12  N   UNK A   0     -11.936  15.971  64.163  1.00  0.00    -0.716 NA 
HETATM   13  H   UNK A   0     -13.054  13.885  62.709  1.00  0.00     0.000 HD 
HETATM   14  C   UNK A   0     -12.225  12.471  64.086  1.00  0.00    -0.467 A  
HETATM   15  C   UNK A   0     -11.458  12.643  65.233  1.00  0.00    -0.368 A  
ENDROOT
BRANCH  15  16
HETATM   16  C   UNK A   0     -10.888  11.552  66.084  1.00  0.00    -0.330 C  
BRANCH  16  17
HETATM   17  C   UNK A   0     -11.630  11.350  67.416  1.00  0.00    -0.266 C  
BRANCH  17  18
HETATM   18  C   UNK A   0     -10.763  10.744  68.506  1.00  0.00    -0.245 A  
HETATM   19  C   UNK A   0      -9.403  10.484  68.298  1.00  0.00    -0.156 A  
HETATM   20  C   UNK A   0      -8.647   9.816  69.260  1.00  0.00    -0.158 A  
HETATM   21  C   UNK A   0      -9.235   9.416  70.463  1.00  0.00    -0.314 A  
HETATM   22  C   UNK A   0     -10.555   9.779  70.740  1.00  0.00    -0.371 A  
HETATM   23  C   UNK A   0     -11.315  10.436  69.762  1.00  0.00    -0.353 A  
BRANCH  21  24
HETATM   24  C   UNK A   0      -8.478   8.550  71.409  1.00  0.00    -0.172 C  
HETATM   25  O   UNK A   0      -8.152   8.914  72.532  1.00  0.00    -0.381 OA 
ATOM     26  N   GLU A   1      -8.199   7.283  70.935  1.00  0.00    -0.114 N  
ATOM     27  H   GLU A   1      -8.499   7.028  69.994  1.00  0.00     0.000 HD 
BRANCH  26  28
ATOM     28  CA  GLU A   1      -7.489   6.304  71.744  1.00  0.00    -0.094 C  
ATOM     29  C   GLU A   1      -6.581   5.469  70.832  1.00  0.00    -0.043 C  
ATOM     30  O   GLU A   1      -5.346   5.997  70.674  1.00  0.00    -0.012 OA 
ATOM     31  OXT GLU A   1      -6.930   4.426  70.280  1.00  0.00    -0.036 OA 
BRANCH  28  32
ATOM     32  CB  GLU A   1      -8.474   5.397  72.494  1.00  0.00    -0.118 C  
BRANCH  32  33
ATOM     33  CG  GLU A   1      -9.810   5.284  71.763  1.00  0.00    -0.222 C  
ATOM     34  CD  GLU A   1     -10.956   5.597  72.686  1.00  0.00    -0.270 C  
ATOM     35  OE1 GLU A   1     -11.319   6.896  72.677  1.00  0.00    -0.267 OA 
ATOM     36  OE2 GLU A   1     -11.489   4.765  73.406  1.00  0.00    -0.338 OA 
ENDBRANCH  32  33
ENDBRANCH  28  32
ENDBRANCH  26  28
ENDBRANCH  21  24
ENDBRANCH  17  18
ENDBRANCH  16  17
ENDBRANCH  15  16
TORSDOF 7
ENDMDL
MODEL      105
REMARK 921   NORMALIZED FREE ENERGY PREDICTED BY IDOCK:   -5.06 KCAL/MOL
REMARK 922        TOTAL FREE ENERGY PREDICTED BY IDOCK:   -9.78 KCAL/MOL
REMARK 923 INTER-LIGAND FREE ENERGY PREDICTED BY IDOCK:   -7.83 KCAL/MOL
REMARK 924 INTRA-LIGAND FREE ENERGY PREDICTED BY IDOCK:   -1.95 KCAL/MOL
REMARK 927      BINDING AFFINITY PREDICTED BY RF-SCORE:    0.00 PKD
ROOT
HETATM    1  N   UNK A   0      -5.420  13.192  70.700  1.00  0.00    -0.154 NA 
HETATM    2  H1  UNK A   0      -5.151  13.867  71.415  1.00  0.00     0.000 HD 
HETATM    3  C   UNK A   0      -6.377  13.493  69.785  1.00  0.00    -0.087 C  
HETATM    4  H2  UNK A   0      -4.964  12.280  70.672  1.00  0.00     0.000 HD 
HETATM    5  N   UNK A   0      -6.721  12.632  68.873  1.00  0.00    -0.094 N  
HETATM    6  H   UNK A   0      -6.284  11.710  68.848  1.00  0.00     0.000 HD 
HETATM    7  C   UNK A   0      -7.691  12.976  67.928  1.00  0.00    -0.145 C  
HETATM    8  C   UNK A   0      -8.220  14.339  68.025  1.00  0.00    -0.153 A  
HETATM    9  O   UNK A   0      -8.078  12.199  67.065  1.00  0.00    -0.172 OA 
HETATM   10  C   UNK A   0      -7.786  15.156  69.034  1.00  0.00    -0.177 A  
HETATM   11  N   UNK A   0      -8.363  16.378  68.933  1.00  0.00    -0.229 NA 
HETATM   12  N   UNK A   0      -6.888  14.754  69.942  1.00  0.00    -0.176 NA 
HETATM   13  H   UNK A   0      -8.210  17.168  69.559  1.00  0.00     0.000 HD 
HETATM   14  C   UNK A   0      -9.193  16.364  67.837  1.00  0.00    -0.202 A  
HETATM   15  C   UNK A   0      -9.132  15.109  67.242  1.00  0.00    -0.210 A  
ENDROOT
BRANCH  15  16
HETATM   16  C   UNK A   0      -9.837  14.691  65.990  1.00  0.00    -0.347 C  
BRANCH  16  17
HETATM   17  C   UNK A   0     -11.321  14.343  66.199  1.00  0.00    -0.350 C  
BRANCH  17  18
HETATM   18  C   UNK A   0     -11.546  13.230  67.207  1.00  0.00    -0.404 A  
HETATM   19  C   UNK A   0     -11.893  13.507  68.536  1.00  0.00    -0.398 A  
HETATM   20  C   UNK A   0     -11.976  12.485  69.481  1.00  0.00    -0.329 A  
HETATM   21  C   UNK A   0     -11.738  11.160  69.106  1.00  0.00    -0.408 A  
HETATM   22  C   UNK A   0     -11.519  10.851  67.762  1.00  0.00    -0.323 A  
HETATM   23  C   UNK A   0     -11.419  11.884  66.819  1.00  0.00    -0.384 A  
BRANCH  21  24
HETATM   24  C   UNK A   0     -11.653  10.097  70.147  1.00  0.00    -0.277 C  
HETATM   25  O   UNK A   0     -12.041  10.257  71.297  1.00  0.00    -0.355 OA 
ATOM     26  N   GLU A   1     -11.134   8.897  69.703  1.00  0.00    -0.423 N  
ATOM     27  H   GLU A   1     -10.832   8.814  68.732  1.00  0.00     0.000 HD 
BRANCH  26  28
ATOM     28  CA  GLU A   1     -11.006   7.747  70.586  1.00  0.00    -0.249 C  
ATOM     29  C   GLU A   1      -9.630   7.787  71.261  1.00  0.00    -0.157 C  
ATOM     30  O   GLU A   1      -9.620   8.478  72.423  1.00  0.00    -0.283 OA 
ATOM     31  OXT GLU A   1      -8.619   7.259  70.797  1.00  0.00    -0.141 OA 
BRANCH  28  32
ATOM     32  CB  GLU A   1     -11.181   6.437  69.805  1.00  0.00    -0.484 C  
BRANCH  32  33
ATOM     33  CG  GLU A   1     -11.149   6.668  68.296  1.00  0.00    -0.283 C  
ATOM     34  CD  GLU A   1      -9.934   6.028  67.681  1.00  0.00    -0.135 C  
ATOM     35  OE1 GLU A   1     -10.145   4.765  67.254  1.00  0.00    -0.185 OA 
ATOM     36  OE2 GLU A   1      -8.847   6.581  67.603  1.00  0.00    -0.115 OA 
ENDBRANCH  32  33
ENDBRANCH  28  32
ENDBRANCH  26  28
ENDBRANCH  21  24
ENDBRANCH  17  18
ENDBRANCH  16  17
ENDBRANCH  15  16
TORSDOF 7
ENDMDL
MODEL      106
REMARK 921   NORMALIZED FREE ENERGY PREDICTED BY IDOCK:   -5.03 KCAL/MOL
REMARK 922        TOTAL FREE ENERGY PREDICTED BY IDOCK:   -9.74 KCAL/MOL
REMARK 923 INTER-LIGAND FREE ENERGY PREDICTED BY IDOCK:   -9.05 KCAL/MOL
REMARK 924 INTRA-LIGAND FREE ENERGY PREDICTED BY IDOCK:   -0.68 KCAL/MOL
REMARK 927      BINDING AFFINITY PREDICTED BY RF-SCORE:    0.00 PKD
ROOT
HETATM    1  N   UNK A   0      -7.734   2.531  71.423  1.00  0.00    -0.040 NA 
HETATM    2  H1  UNK A   0      -7.904   2.450  72.425  1.00  0.00     0.000 HD 
HETATM    3  C   UNK A   0      -8.495   3.351  70.654  1.00  0.00    -0.068 C  
HETATM    4  H2  UNK A   0      -6.983   1.991  70.994  1.00  0.00     0.000 HD 
HETATM    5  N   UNK A   0      -8.278   3.455  69.375  1.00  0.00    -0.052 N  
HETATM    6  H   UNK A   0      -7.542   2.904  68.934  1.00  0.00     0.000 HD 
HETATM    7  C   UNK A   0      -9.060   4.324  68.610  1.00  0.00    -0.129 C  
HETATM    8  C   UNK A   0     -10.058   5.103  69.350  1.00  0.00    -0.305 A  
HETATM    9  O   UNK A   0      -8.925   4.443  67.399  1.00  0.00    -0.108 OA 
HETATM   10  C   UNK A   0     -10.199   4.903  70.696  1.00  0.00    -0.211 A  
HETATM   11  N   UNK A   0     -11.143   5.736  71.200  1.00  0.00    -0.230 NA 
HETATM   12  N   UNK A   0      -9.453   4.019  71.370  1.00  0.00    -0.148 NA 
HETATM   13  H   UNK A   0     -11.438   5.788  72.174  1.00  0.00     0.000 HD 
HETATM   14  C   UNK A   0     -11.632   6.496  70.164  1.00  0.00    -0.402 A  
HETATM   15  C   UNK A   0     -10.980   6.131  68.991  1.00  0.00    -0.436 A  
ENDROOT
BRANCH  15  16
HETATM   16  C   UNK A   0     -11.173   6.755  67.645  1.00  0.00    -0.220 C  
BRANCH  16  17
HETATM   17  C   UNK A   0     -10.019   7.677  67.215  1.00  0.00    -0.273 C  
BRANCH  17  18
HETATM   18  C   UNK A   0     -10.272   9.144  67.514  1.00  0.00    -0.304 A  
HETATM   19  C   UNK A   0     -10.853   9.554  68.721  1.00  0.00    -0.173 A  
HETATM   20  C   UNK A   0     -11.193  10.890  68.934  1.00  0.00    -0.327 A  
HETATM   21  C   UNK A   0     -10.934  11.846  67.948  1.00  0.00    -0.270 A  
HETATM   22  C   UNK A   0     -10.239  11.478  66.794  1.00  0.00    -0.254 A  
HETATM   23  C   UNK A   0      -9.915  10.131  66.578  1.00  0.00    -0.283 A  
BRANCH  21  24
HETATM   24  C   UNK A   0     -11.455  13.233  68.103  1.00  0.00    -0.312 C  
HETATM   25  O   UNK A   0     -12.223  13.750  67.300  1.00  0.00    -0.375 OA 
ATOM     26  N   GLU A   1     -11.033  13.884  69.245  1.00  0.00    -0.373 N  
ATOM     27  H   GLU A   1     -10.399  13.405  69.884  1.00  0.00     0.000 HD 
BRANCH  26  28
ATOM     28  CA  GLU A   1     -11.471  15.236  69.560  1.00  0.00    -0.305 C  
ATOM     29  C   GLU A   1     -10.565  16.235  68.831  1.00  0.00    -0.284 C  
ATOM     30  O   GLU A   1     -11.003  16.554  67.592  1.00  0.00    -0.301 OA 
ATOM     31  OXT GLU A   1      -9.530  16.702  69.307  1.00  0.00    -0.231 OA 
BRANCH  28  32
ATOM     32  CB  GLU A   1     -11.433  15.484  71.074  1.00  0.00    -0.426 C  
BRANCH  32  33
ATOM     33  CG  GLU A   1     -12.831  15.707  71.647  1.00  0.00    -0.533 C  
ATOM     34  CD  GLU A   1     -13.032  14.903  72.902  1.00  0.00    -0.475 C  
ATOM     35  OE1 GLU A   1     -12.711  15.571  74.030  1.00  0.00    -0.553 OA 
ATOM     36  OE2 GLU A   1     -13.417  13.743  72.906  1.00  0.00    -0.652 OA 
ENDBRANCH  32  33
ENDBRANCH  28  32
ENDBRANCH  26  28
ENDBRANCH  21  24
ENDBRANCH  17  18
ENDBRANCH  16  17
ENDBRANCH  15  16
TORSDOF 7
ENDMDL
MODEL      107
REMARK 921   NORMALIZED FREE ENERGY PREDICTED BY IDOCK:   -4.97 KCAL/MOL
REMARK 922        TOTAL FREE ENERGY PREDICTED BY IDOCK:   -9.65 KCAL/MOL
REMARK 923 INTER-LIGAND FREE ENERGY PREDICTED BY IDOCK:   -8.80 KCAL/MOL
REMARK 924 INTRA-LIGAND FREE ENERGY PREDICTED BY IDOCK:   -0.85 KCAL/MOL
REMARK 927      BINDING AFFINITY PREDICTED BY RF-SCORE:    0.00 PKD
ROOT
HETATM    1  N   UNK A   0      -9.490   1.769  65.700  1.00  0.00    -0.330 NA 
HETATM    2  H1  UNK A   0      -9.835   1.284  66.528  1.00  0.00     0.000 HD 
HETATM    3  C   UNK A   0      -9.238   3.103  65.729  1.00  0.00    -0.138 C  
HETATM    4  H2  UNK A   0      -9.332   1.245  64.839  1.00  0.00     0.000 HD 
HETATM    5  N   UNK A   0      -8.798   3.721  64.673  1.00  0.00    -0.117 N  
HETATM    6  H   UNK A   0      -8.655   3.209  63.802  1.00  0.00     0.000 HD 
HETATM    7  C   UNK A   0      -8.523   5.089  64.737  1.00  0.00    -0.148 C  
HETATM    8  C   UNK A   0      -8.718   5.718  66.047  1.00  0.00    -0.146 A  
HETATM    9  O   UNK A   0      -8.137   5.732  63.770  1.00  0.00    -0.117 OA 
HETATM   10  C   UNK A   0      -9.192   4.965  67.087  1.00  0.00    -0.123 A  
HETATM   11  N   UNK A   0      -9.271   5.715  68.214  1.00  0.00    -0.110 NA 
HETATM   12  N   UNK A   0      -9.485   3.666  66.954  1.00  0.00    -0.198 NA 
HETATM   13  H   UNK A   0      -9.593   5.393  69.127  1.00  0.00     0.000 HD 
HETATM   14  C   UNK A   0      -8.842   6.984  67.908  1.00  0.00    -0.124 A  
HETATM   15  C   UNK A   0      -8.487   7.028  66.564  1.00  0.00    -0.125 A  
ENDROOT
BRANCH  15  16
HETATM   16  C   UNK A   0      -7.913   8.206  65.842  1.00  0.00    -0.102 C  
BRANCH  16  17
HETATM   17  C   UNK A   0      -8.848   8.794  64.771  1.00  0.00    -0.089 C  
BRANCH  17  18
HETATM   18  C   UNK A   0      -9.740   9.908  65.291  1.00  0.00    -0.383 A  
HETATM   19  C   UNK A   0     -10.256  10.891  64.437  1.00  0.00    -0.423 A  
HETATM   20  C   UNK A   0     -10.971  11.975  64.943  1.00  0.00    -0.356 A  
HETATM   21  C   UNK A   0     -11.204  12.083  66.317  1.00  0.00    -0.394 A  
HETATM   22  C   UNK A   0     -10.810  11.048  67.168  1.00  0.00    -0.336 A  
HETATM   23  C   UNK A   0     -10.076   9.968  66.656  1.00  0.00    -0.289 A  
BRANCH  21  24
HETATM   24  C   UNK A   0     -11.810  13.325  66.873  1.00  0.00    -0.392 C  
HETATM   25  O   UNK A   0     -12.562  14.047  66.230  1.00  0.00    -0.451 OA 
ATOM     26  N   GLU A   1     -11.486  13.586  68.190  1.00  0.00    -0.283 N  
ATOM     27  H   GLU A   1     -10.860  12.948  68.683  1.00  0.00     0.000 HD 
BRANCH  26  28
ATOM     28  CA  GLU A   1     -12.014  14.745  68.892  1.00  0.00    -0.263 C  
ATOM     29  C   GLU A   1     -10.941  15.839  68.926  1.00  0.00    -0.283 C  
ATOM     30  O   GLU A   1     -10.982  16.668  67.858  1.00  0.00    -0.342 OA 
ATOM     31  OXT GLU A   1     -10.106  15.959  69.823  1.00  0.00    -0.273 OA 
BRANCH  28  32
ATOM     32  CB  GLU A   1     -12.444  14.372  70.318  1.00  0.00    -0.413 C  
BRANCH  32  33
ATOM     33  CG  GLU A   1     -13.266  15.481  70.971  1.00  0.00    -0.539 C  
ATOM     34  CD  GLU A   1     -12.943  15.598  72.435  1.00  0.00    -0.448 C  
ATOM     35  OE1 GLU A   1     -11.958  16.482  72.703  1.00  0.00    -0.533 OA 
ATOM     36  OE2 GLU A   1     -13.491  14.935  73.303  1.00  0.00    -0.536 OA 
ENDBRANCH  32  33
ENDBRANCH  28  32
ENDBRANCH  26  28
ENDBRANCH  21  24
ENDBRANCH  17  18
ENDBRANCH  16  17
ENDBRANCH  15  16
TORSDOF 7
ENDMDL
MODEL      108
REMARK 921   NORMALIZED FREE ENERGY PREDICTED BY IDOCK:   -4.97 KCAL/MOL
REMARK 922        TOTAL FREE ENERGY PREDICTED BY IDOCK:   -9.64 KCAL/MOL
REMARK 923 INTER-LIGAND FREE ENERGY PREDICTED BY IDOCK:   -8.50 KCAL/MOL
REMARK 924 INTRA-LIGAND FREE ENERGY PREDICTED BY IDOCK:   -1.14 KCAL/MOL
REMARK 927      BINDING AFFINITY PREDICTED BY RF-SCORE:    0.00 PKD
ROOT
HETATM    1  N   UNK A   0      -7.610   3.077  62.836  1.00  0.00    -0.054 NA 
HETATM    2  H1  UNK A   0      -8.320   2.626  62.259  1.00  0.00     0.000 HD 
HETATM    3  C   UNK A   0      -7.964   3.860  63.888  1.00  0.00    -0.088 C  
HETATM    4  H2  UNK A   0      -6.623   2.937  62.621  1.00  0.00     0.000 HD 
HETATM    5  N   UNK A   0      -7.059   4.434  64.624  1.00  0.00    -0.060 N  
HETATM    6  H   UNK A   0      -6.070   4.316  64.406  1.00  0.00     0.000 HD 
HETATM    7  C   UNK A   0      -7.449   5.215  65.715  1.00  0.00    -0.082 C  
HETATM    8  C   UNK A   0      -8.891   5.280  65.969  1.00  0.00    -0.141 A  
HETATM    9  O   UNK A   0      -6.647   5.806  66.427  1.00  0.00    -0.052 OA 
HETATM   10  C   UNK A   0      -9.750   4.637  65.120  1.00  0.00    -0.106 A  
HETATM   11  N   UNK A   0     -11.030   4.788  65.541  1.00  0.00    -0.867 NA 
HETATM   12  N   UNK A   0      -9.321   3.942  64.060  1.00  0.00    -0.142 NA 
HETATM   13  H   UNK A   0     -11.860   4.407  65.086  1.00  0.00     0.000 HD 
HETATM   14  C   UNK A   0     -11.012   5.546  66.687  1.00  0.00    -0.044 A  
HETATM   15  C   UNK A   0      -9.695   5.874  66.989  1.00  0.00    -0.158 A  
ENDROOT
BRANCH  15  16
HETATM   16  C   UNK A   0      -9.229   6.639  68.187  1.00  0.00    -0.117 C  
BRANCH  16  17
HETATM   17  C   UNK A   0     -10.372   7.212  69.042  1.00  0.00    -0.204 C  
BRANCH  17  18
HETATM   18  C   UNK A   0     -10.587   8.703  68.847  1.00  0.00    -0.166 A  
HETATM   19  C   UNK A   0     -10.938   9.537  69.916  1.00  0.00    -0.263 A  
HETATM   20  C   UNK A   0     -11.251  10.879  69.703  1.00  0.00    -0.348 A  
HETATM   21  C   UNK A   0     -11.195  11.418  68.415  1.00  0.00    -0.324 A  
HETATM   22  C   UNK A   0     -10.723  10.635  67.359  1.00  0.00    -0.326 A  
HETATM   23  C   UNK A   0     -10.425   9.282  67.576  1.00  0.00    -0.338 A  
BRANCH  21  24
HETATM   24  C   UNK A   0     -11.699  12.797  68.163  1.00  0.00    -0.345 C  
HETATM   25  O   UNK A   0     -12.231  13.131  67.112  1.00  0.00    -0.326 OA 
ATOM     26  N   GLU A   1     -11.552  13.668  69.225  1.00  0.00    -0.291 N  
ATOM     27  H   GLU A   1     -11.107  13.336  70.081  1.00  0.00     0.000 HD 
BRANCH  26  28
ATOM     28  CA  GLU A   1     -12.015  15.045  69.153  1.00  0.00    -0.275 C  
ATOM     29  C   GLU A   1     -10.839  15.946  68.759  1.00  0.00    -0.284 C  
ATOM     30  O   GLU A   1     -10.697  16.093  67.422  1.00  0.00    -0.312 OA 
ATOM     31  OXT GLU A   1     -10.079  16.481  69.566  1.00  0.00    -0.237 OA 
BRANCH  28  32
ATOM     32  CB  GLU A   1     -12.606  15.493  70.497  1.00  0.00    -0.462 C  
BRANCH  32  33
ATOM     33  CG  GLU A   1     -12.229  14.539  71.629  1.00  0.00    -0.403 C  
ATOM     34  CD  GLU A   1     -13.256  14.578  72.728  1.00  0.00    -0.508 C  
ATOM     35  OE1 GLU A   1     -14.235  13.660  72.586  1.00  0.00    -0.735 OA 
ATOM     36  OE2 GLU A   1     -13.231  15.383  73.646  1.00  0.00    -0.450 OA 
ENDBRANCH  32  33
ENDBRANCH  28  32
ENDBRANCH  26  28
ENDBRANCH  21  24
ENDBRANCH  17  18
ENDBRANCH  16  17
ENDBRANCH  15  16
TORSDOF 7
ENDMDL
MODEL      109
REMARK 921   NORMALIZED FREE ENERGY PREDICTED BY IDOCK:   -4.97 KCAL/MOL
REMARK 922        TOTAL FREE ENERGY PREDICTED BY IDOCK:   -9.64 KCAL/MOL
REMARK 923 INTER-LIGAND FREE ENERGY PREDICTED BY IDOCK:   -8.68 KCAL/MOL
REMARK 924 INTRA-LIGAND FREE ENERGY PREDICTED BY IDOCK:   -0.96 KCAL/MOL
REMARK 927      BINDING AFFINITY PREDICTED BY RF-SCORE:    0.00 PKD
ROOT
HETATM    1  N   UNK A   0      -6.981   4.690  70.072  1.00  0.00    -0.047 NA 
HETATM    2  H1  UNK A   0      -7.236   3.867  69.527  1.00  0.00     0.000 HD 
HETATM    3  C   UNK A   0      -7.913   5.621  70.403  1.00  0.00    -0.104 C  
HETATM    4  H2  UNK A   0      -6.014   4.816  70.372  1.00  0.00     0.000 HD 
HETATM    5  N   UNK A   0      -7.588   6.671  71.098  1.00  0.00    -0.088 N  
HETATM    6  H   UNK A   0      -6.620   6.815  71.387  1.00  0.00     0.000 HD 
HETATM    7  C   UNK A   0      -8.570   7.600  71.447  1.00  0.00    -0.120 C  
HETATM    8  C   UNK A   0      -9.935   7.275  71.023  1.00  0.00    -0.188 A  
HETATM    9  O   UNK A   0      -8.322   8.623  72.073  1.00  0.00    -0.250 OA 
HETATM   10  C   UNK A   0     -10.156   6.141  70.289  1.00  0.00    -0.188 A  
HETATM   11  N   UNK A   0     -11.478   6.000  70.026  1.00  0.00    -0.304 NA 
HETATM   12  N   UNK A   0      -9.165   5.310  69.943  1.00  0.00    -0.132 NA 
HETATM   13  H   UNK A   0     -11.906   5.240  69.497  1.00  0.00     0.000 HD 
HETATM   14  C   UNK A   0     -12.139   7.061  70.597  1.00  0.00    -0.284 A  
HETATM   15  C   UNK A   0     -11.211   7.881  71.230  1.00  0.00    -0.283 A  
ENDROOT
BRANCH  15  16
HETATM   16  C   UNK A   0     -11.519   9.111  72.023  1.00  0.00    -0.351 C  
BRANCH  16  17
HETATM   17  C   UNK A   0     -12.785   9.850  71.559  1.00  0.00    -0.515 C  
BRANCH  17  18
HETATM   18  C   UNK A   0     -12.498  11.036  70.654  1.00  0.00    -0.465 A  
HETATM   19  C   UNK A   0     -12.145  10.860  69.310  1.00  0.00    -0.332 A  
HETATM   20  C   UNK A   0     -11.765  11.946  68.522  1.00  0.00    -0.388 A  
HETATM   21  C   UNK A   0     -11.755  13.235  69.061  1.00  0.00    -0.368 A  
HETATM   22  C   UNK A   0     -12.227  13.445  70.358  1.00  0.00    -0.415 A  
HETATM   23  C   UNK A   0     -12.592  12.347  71.152  1.00  0.00    -0.349 A  
BRANCH  21  24
HETATM   24  C   UNK A   0     -11.182  14.365  68.276  1.00  0.00    -0.275 C  
HETATM   25  O   UNK A   0     -11.744  14.855  67.305  1.00  0.00    -0.362 OA 
ATOM     26  N   GLU A   1      -9.978  14.844  68.752  1.00  0.00    -0.222 N  
ATOM     27  H   GLU A   1      -9.556  14.404  69.570  1.00  0.00     0.000 HD 
BRANCH  26  28
ATOM     28  CA  GLU A   1      -9.295  15.961  68.117  1.00  0.00    -0.198 C  
ATOM     29  C   GLU A   1      -7.788  15.831  68.365  1.00  0.00    -0.136 C  
ATOM     30  O   GLU A   1      -7.146  15.109  67.419  1.00  0.00    -0.191 OA 
ATOM     31  OXT GLU A   1      -7.204  16.318  69.333  1.00  0.00    -0.225 OA 
BRANCH  28  32
ATOM     32  CB  GLU A   1      -9.814  17.299  68.660  1.00  0.00    -0.313 C  
BRANCH  32  33
ATOM     33  CG  GLU A   1     -10.763  17.981  67.676  1.00  0.00    -0.360 C  
ATOM     34  CD  GLU A   1     -10.099  19.161  67.020  1.00  0.00    -0.366 C  
ATOM     35  OE1 GLU A   1      -9.479  18.858  65.861  1.00  0.00    -0.458 OA 
ATOM     36  OE2 GLU A   1     -10.088  20.284  67.503  1.00  0.00    -0.403 OA 
ENDBRANCH  32  33
ENDBRANCH  28  32
ENDBRANCH  26  28
ENDBRANCH  21  24
ENDBRANCH  17  18
ENDBRANCH  16  17
ENDBRANCH  15  16
TORSDOF 7
ENDMDL
MODEL      110
REMARK 921   NORMALIZED FREE ENERGY PREDICTED BY IDOCK:   -4.97 KCAL/MOL
REMARK 922        TOTAL FREE ENERGY PREDICTED BY IDOCK:   -9.64 KCAL/MOL
REMARK 923 INTER-LIGAND FREE ENERGY PREDICTED BY IDOCK:   -8.91 KCAL/MOL
REMARK 924 INTRA-LIGAND FREE ENERGY PREDICTED BY IDOCK:   -0.73 KCAL/MOL
REMARK 927      BINDING AFFINITY PREDICTED BY RF-SCORE:    0.00 PKD
ROOT
HETATM    1  N   UNK A   0      -9.278   2.232  70.415  1.00  0.00    -0.109 NA 
HETATM    2  H1  UNK A   0      -9.088   1.629  71.215  1.00  0.00     0.000 HD 
HETATM    3  C   UNK A   0      -9.747   3.494  70.591  1.00  0.00    -0.125 C  
HETATM    4  H2  UNK A   0      -9.113   1.882  69.471  1.00  0.00     0.000 HD 
HETATM    5  N   UNK A   0      -9.989   4.263  69.570  1.00  0.00    -0.152 N  
HETATM    6  H   UNK A   0      -9.845   3.916  68.622  1.00  0.00     0.000 HD 
HETATM    7  C   UNK A   0     -10.447   5.566  69.780  1.00  0.00    -0.319 C  
HETATM    8  C   UNK A   0     -10.574   5.980  71.180  1.00  0.00    -0.303 A  
HETATM    9  O   UNK A   0     -10.721   6.327  68.860  1.00  0.00    -0.234 OA 
HETATM   10  C   UNK A   0     -10.296   5.079  72.172  1.00  0.00    -0.215 A  
HETATM   11  N   UNK A   0     -10.440   5.659  73.389  1.00  0.00    -0.224 NA 
HETATM   12  N   UNK A   0      -9.906   3.826  71.911  1.00  0.00    -0.173 NA 
HETATM   13  H   UNK A   0     -10.292   5.206  74.291  1.00  0.00     0.000 HD 
HETATM   14  C   UNK A   0     -10.821   6.965  73.193  1.00  0.00    -0.296 A  
HETATM   15  C   UNK A   0     -10.916   7.206  71.827  1.00  0.00    -0.258 A  
ENDROOT
BRANCH  15  16
HETATM   16  C   UNK A   0     -11.245   8.515  71.183  1.00  0.00    -0.317 C  
BRANCH  16  17
HETATM   17  C   UNK A   0     -10.102   9.095  70.333  1.00  0.00    -0.264 C  
BRANCH  17  18
HETATM   18  C   UNK A   0     -10.391  10.488  69.799  1.00  0.00    -0.211 A  
HETATM   19  C   UNK A   0     -11.586  11.153  70.101  1.00  0.00    -0.410 A  
HETATM   20  C   UNK A   0     -11.892  12.377  69.508  1.00  0.00    -0.368 A  
HETATM   21  C   UNK A   0     -10.994  12.972  68.618  1.00  0.00    -0.297 A  
HETATM   22  C   UNK A   0      -9.744  12.386  68.405  1.00  0.00    -0.189 A  
HETATM   23  C   UNK A   0      -9.447  11.147  68.991  1.00  0.00    -0.074 A  
BRANCH  21  24
HETATM   24  C   UNK A   0     -11.398  14.184  67.853  1.00  0.00    -0.294 C  
HETATM   25  O   UNK A   0     -12.454  14.265  67.239  1.00  0.00    -0.235 OA 
ATOM     26  N   GLU A   1     -10.500  15.232  67.917  1.00  0.00    -0.249 N  
ATOM     27  H   GLU A   1      -9.637  15.115  68.448  1.00  0.00     0.000 HD 
BRANCH  26  28
ATOM     28  CA  GLU A   1     -10.754  16.498  67.246  1.00  0.00    -0.243 C  
ATOM     29  C   GLU A   1     -10.101  16.467  65.859  1.00  0.00    -0.347 C  
ATOM     30  O   GLU A   1     -10.911  15.976  64.893  1.00  0.00    -0.534 OA 
ATOM     31  OXT GLU A   1      -8.949  16.836  65.631  1.00  0.00    -0.475 OA 
BRANCH  28  32
ATOM     32  CB  GLU A   1     -10.207  17.672  68.070  1.00  0.00    -0.362 C  
BRANCH  32  33
ATOM     33  CG  GLU A   1     -11.002  18.954  67.826  1.00  0.00    -0.230 C  
ATOM     34  CD  GLU A   1     -10.247  19.889  66.921  1.00  0.00    -0.470 C  
ATOM     35  OE1 GLU A   1     -10.539  19.729  65.613  1.00  0.00    -0.507 OA 
ATOM     36  OE2 GLU A   1      -9.421  20.696  67.321  1.00  0.00    -0.425 OA 
ENDBRANCH  32  33
ENDBRANCH  28  32
ENDBRANCH  26  28
ENDBRANCH  21  24
ENDBRANCH  17  18
ENDBRANCH  16  17
ENDBRANCH  15  16
TORSDOF 7
ENDMDL
MODEL      111
REMARK 921   NORMALIZED FREE ENERGY PREDICTED BY IDOCK:   -4.94 KCAL/MOL
REMARK 922        TOTAL FREE ENERGY PREDICTED BY IDOCK:   -9.61 KCAL/MOL
REMARK 923 INTER-LIGAND FREE ENERGY PREDICTED BY IDOCK:   -7.82 KCAL/MOL
REMARK 924 INTRA-LIGAND FREE ENERGY PREDICTED BY IDOCK:   -1.78 KCAL/MOL
REMARK 927      BINDING AFFINITY PREDICTED BY RF-SCORE:    0.00 PKD
ROOT
HETATM    1  N   UNK A   0     -12.483   6.934  72.274  1.00  0.00    -0.528 NA 
HETATM    2  H1  UNK A   0     -12.138   6.975  73.233  1.00  0.00     0.000 HD 
HETATM    3  C   UNK A   0     -11.621   6.881  71.227  1.00  0.00    -0.310 C  
HETATM    4  H2  UNK A   0     -13.488   6.933  72.100  1.00  0.00     0.000 HD 
HETATM    5  N   UNK A   0     -12.061   6.829  70.004  1.00  0.00    -0.638 N  
HETATM    6  H   UNK A   0     -13.064   6.846  69.819  1.00  0.00     0.000 HD 
HETATM    7  C   UNK A   0     -11.153   6.750  68.945  1.00  0.00    -0.181 C  
HETATM    8  C   UNK A   0      -9.738   6.684  69.322  1.00  0.00    -0.151 A  
HETATM    9  O   UNK A   0     -11.504   6.729  67.772  1.00  0.00    -0.077 OA 
HETATM   10  C   UNK A   0      -9.394   6.753  70.645  1.00  0.00    -0.162 A  
HETATM   11  N   UNK A   0      -8.050   6.642  70.789  1.00  0.00    -0.117 NA 
HETATM   12  N   UNK A   0     -10.307   6.877  71.615  1.00  0.00    -0.199 NA 
HETATM   13  H   UNK A   0      -7.538   6.662  71.671  1.00  0.00     0.000 HD 
HETATM   14  C   UNK A   0      -7.501   6.498  69.537  1.00  0.00    -0.093 A  
HETATM   15  C   UNK A   0      -8.522   6.519  68.593  1.00  0.00    -0.121 A  
ENDROOT
BRANCH  15  16
HETATM   16  C   UNK A   0      -8.361   6.333  67.117  1.00  0.00    -0.109 C  
BRANCH  16  17
HETATM   17  C   UNK A   0      -7.266   7.216  66.495  1.00  0.00    -0.079 C  
BRANCH  17  18
HETATM   18  C   UNK A   0      -7.619   8.693  66.471  1.00  0.00    -0.088 A  
HETATM   19  C   UNK A   0      -6.723   9.666  66.933  1.00  0.00    -0.075 A  
HETATM   20  C   UNK A   0      -7.103  11.004  67.021  1.00  0.00    -0.118 A  
HETATM   21  C   UNK A   0      -8.384  11.399  66.624  1.00  0.00    -0.172 A  
HETATM   22  C   UNK A   0      -9.244  10.465  66.042  1.00  0.00    -0.200 A  
HETATM   23  C   UNK A   0      -8.863   9.117  65.971  1.00  0.00    -0.200 A  
BRANCH  21  24
HETATM   24  C   UNK A   0      -8.847  12.790  66.884  1.00  0.00    -0.194 C  
HETATM   25  O   UNK A   0      -8.081  13.714  67.128  1.00  0.00    -0.160 OA 
ATOM     26  N   GLU A   1     -10.214  12.969  66.793  1.00  0.00    -0.243 N  
ATOM     27  H   GLU A   1     -10.807  12.167  66.580  1.00  0.00     0.000 HD 
BRANCH  26  28
ATOM     28  CA  GLU A   1     -10.829  14.273  66.994  1.00  0.00    -0.297 C  
ATOM     29  C   GLU A   1     -11.171  14.440  68.479  1.00  0.00    -0.265 C  
ATOM     30  O   GLU A   1     -10.166  14.980  69.205  1.00  0.00    -0.234 OA 
ATOM     31  OXT GLU A   1     -12.244  14.107  68.981  1.00  0.00    -0.332 OA 
BRANCH  28  32
ATOM     32  CB  GLU A   1     -12.091  14.419  66.133  1.00  0.00    -0.373 C  
BRANCH  32  33
ATOM     33  CG  GLU A   1     -12.417  13.131  65.380  1.00  0.00    -0.535 C  
ATOM     34  CD  GLU A   1     -12.010  13.235  63.936  1.00  0.00    -0.483 C  
ATOM     35  OE1 GLU A   1     -10.758  12.793  63.693  1.00  0.00    -0.407 OA 
ATOM     36  OE2 GLU A   1     -12.726  13.707  63.065  1.00  0.00    -0.681 OA 
ENDBRANCH  32  33
ENDBRANCH  28  32
ENDBRANCH  26  28
ENDBRANCH  21  24
ENDBRANCH  17  18
ENDBRANCH  16  17
ENDBRANCH  15  16
TORSDOF 7
ENDMDL
MODEL      112
REMARK 921   NORMALIZED FREE ENERGY PREDICTED BY IDOCK:   -4.93 KCAL/MOL
REMARK 922        TOTAL FREE ENERGY PREDICTED BY IDOCK:   -9.59 KCAL/MOL
REMARK 923 INTER-LIGAND FREE ENERGY PREDICTED BY IDOCK:   -8.12 KCAL/MOL
REMARK 924 INTRA-LIGAND FREE ENERGY PREDICTED BY IDOCK:   -1.47 KCAL/MOL
REMARK 927      BINDING AFFINITY PREDICTED BY RF-SCORE:    0.00 PKD
ROOT
HETATM    1  N   UNK A   0     -10.332  20.383  65.837  1.00  0.00    -0.441 NA 
HETATM    2  H1  UNK A   0     -11.214  20.785  66.153  1.00  0.00     0.000 HD 
HETATM    3  C   UNK A   0      -9.760  19.349  66.505  1.00  0.00    -0.375 C  
HETATM    4  H2  UNK A   0      -9.874  20.763  65.008  1.00  0.00     0.000 HD 
HETATM    5  N   UNK A   0      -8.635  18.836  66.102  1.00  0.00    -0.225 N  
HETATM    6  H   UNK A   0      -8.160  19.221  65.285  1.00  0.00     0.000 HD 
HETATM    7  C   UNK A   0      -8.080  17.756  66.793  1.00  0.00    -0.239 C  
HETATM    8  C   UNK A   0      -8.866  17.251  67.922  1.00  0.00    -0.235 A  
HETATM    9  O   UNK A   0      -7.010  17.251  66.480  1.00  0.00    -0.210 OA 
HETATM   10  C   UNK A   0     -10.035  17.877  68.257  1.00  0.00    -0.360 A  
HETATM   11  N   UNK A   0     -10.627  17.244  69.300  1.00  0.00    -0.367 NA 
HETATM   12  N   UNK A   0     -10.494  18.940  67.587  1.00  0.00    -0.427 NA 
HETATM   13  H   UNK A   0     -11.507  17.509  69.742  1.00  0.00     0.000 HD 
HETATM   14  C   UNK A   0      -9.830  16.182  69.657  1.00  0.00    -0.150 A  
HETATM   15  C   UNK A   0      -8.720  16.151  68.821  1.00  0.00    -0.240 A  
ENDROOT
BRANCH  15  16
HETATM   16  C   UNK A   0      -7.636  15.120  68.832  1.00  0.00    -0.148 C  
BRANCH  16  17
HETATM   17  C   UNK A   0      -7.793  14.039  67.749  1.00  0.00    -0.176 C  
BRANCH  17  18
HETATM   18  C   UNK A   0      -8.666  12.873  68.180  1.00  0.00    -0.190 A  
HETATM   19  C   UNK A   0     -10.062  12.928  68.075  1.00  0.00    -0.235 A  
HETATM   20  C   UNK A   0     -10.858  11.904  68.585  1.00  0.00    -0.273 A  
HETATM   21  C   UNK A   0     -10.268  10.790  69.190  1.00  0.00    -0.229 A  
HETATM   22  C   UNK A   0      -8.878  10.659  69.188  1.00  0.00    -0.133 A  
HETATM   23  C   UNK A   0      -8.082  11.700  68.688  1.00  0.00    -0.121 A  
BRANCH  21  24
HETATM   24  C   UNK A   0     -11.118   9.787  69.890  1.00  0.00    -0.254 C  
HETATM   25  O   UNK A   0     -12.223  10.051  70.348  1.00  0.00    -0.246 OA 
ATOM     26  N   GLU A   1     -10.578   8.517  69.953  1.00  0.00    -0.227 N  
ATOM     27  H   GLU A   1      -9.657   8.349  69.548  1.00  0.00     0.000 HD 
BRANCH  26  28
ATOM     28  CA  GLU A   1     -11.290   7.414  70.580  1.00  0.00    -0.271 C  
ATOM     29  C   GLU A   1     -10.718   7.185  71.984  1.00  0.00    -0.214 C  
ATOM     30  O   GLU A   1     -11.332   7.916  72.942  1.00  0.00    -0.406 OA 
ATOM     31  OXT GLU A   1      -9.782   6.425  72.231  1.00  0.00    -0.153 OA 
BRANCH  28  32
ATOM     32  CB  GLU A   1     -11.170   6.137  69.737  1.00  0.00    -0.494 C  
BRANCH  32  33
ATOM     33  CG  GLU A   1     -10.023   6.226  68.733  1.00  0.00    -0.173 C  
ATOM     34  CD  GLU A   1     -10.547   6.306  67.325  1.00  0.00    -0.302 C  
ATOM     35  OE1 GLU A   1     -10.728   7.569  66.886  1.00  0.00    -0.352 OA 
ATOM     36  OE2 GLU A   1     -10.817   5.325  66.649  1.00  0.00    -0.258 OA 
ENDBRANCH  32  33
ENDBRANCH  28  32
ENDBRANCH  26  28
ENDBRANCH  21  24
ENDBRANCH  17  18
ENDBRANCH  16  17
ENDBRANCH  15  16
TORSDOF 7
ENDMDL
MODEL      113
REMARK 921   NORMALIZED FREE ENERGY PREDICTED BY IDOCK:   -4.92 KCAL/MOL
REMARK 922        TOTAL FREE ENERGY PREDICTED BY IDOCK:   -9.57 KCAL/MOL
REMARK 923 INTER-LIGAND FREE ENERGY PREDICTED BY IDOCK:   -7.73 KCAL/MOL
REMARK 924 INTRA-LIGAND FREE ENERGY PREDICTED BY IDOCK:   -1.84 KCAL/MOL
REMARK 927      BINDING AFFINITY PREDICTED BY RF-SCORE:    0.00 PKD
ROOT
HETATM    1  N   UNK A   0     -10.573  11.411  62.931  1.00  0.00    -0.729 NA 
HETATM    2  H1  UNK A   0     -11.584  11.513  63.024  1.00  0.00     0.000 HD 
HETATM    3  C   UNK A   0      -9.836  10.857  63.928  1.00  0.00    -0.331 C  
HETATM    4  H2  UNK A   0     -10.111  11.729  62.079  1.00  0.00     0.000 HD 
HETATM    5  N   UNK A   0      -8.548  10.727  63.810  1.00  0.00    -0.339 N  
HETATM    6  H   UNK A   0      -8.074  11.059  62.969  1.00  0.00     0.000 HD 
HETATM    7  C   UNK A   0      -7.816  10.131  64.840  1.00  0.00    -0.147 C  
HETATM    8  C   UNK A   0      -8.598   9.648  65.981  1.00  0.00    -0.144 A  
HETATM    9  O   UNK A   0      -6.598  10.008  64.801  1.00  0.00    -0.115 OA 
HETATM   10  C   UNK A   0      -9.952   9.847  65.997  1.00  0.00    -0.268 A  
HETATM   11  N   UNK A   0     -10.496   9.302  67.113  1.00  0.00    -0.259 NA 
HETATM   12  N   UNK A   0     -10.594  10.469  65.001  1.00  0.00    -0.155 NA 
HETATM   13  H   UNK A   0     -11.484   9.312  67.365  1.00  0.00     0.000 HD 
HETATM   14  C   UNK A   0      -9.479   8.735  67.845  1.00  0.00    -0.142 A  
HETATM   15  C   UNK A   0      -8.278   8.929  67.172  1.00  0.00    -0.103 A  
ENDROOT
BRANCH  15  16
HETATM   16  C   UNK A   0      -6.938   8.417  67.596  1.00  0.00    -0.075 C  
BRANCH  16  17
HETATM   17  C   UNK A   0      -6.206   9.337  68.589  1.00  0.00    -0.045 C  
BRANCH  17  18
HETATM   18  C   UNK A   0      -6.463  10.815  68.347  1.00  0.00    -0.054 A  
HETATM   19  C   UNK A   0      -7.574  11.463  68.901  1.00  0.00    -0.114 A  
HETATM   20  C   UNK A   0      -7.867  12.786  68.574  1.00  0.00    -0.099 A  
HETATM   21  C   UNK A   0      -7.034  13.495  67.703  1.00  0.00    -0.176 A  
HETATM   22  C   UNK A   0      -5.853  12.907  67.245  1.00  0.00     0.037 A  
HETATM   23  C   UNK A   0      -5.573  11.570  67.563  1.00  0.00    -0.062 A  
BRANCH  21  24
HETATM   24  C   UNK A   0      -7.442  14.843  67.217  1.00  0.00    -0.161 C  
HETATM   25  O   UNK A   0      -6.643  15.749  67.015  1.00  0.00    -0.284 OA 
ATOM     26  N   GLU A   1      -8.794  14.985  66.976  1.00  0.00    -0.219 N  
ATOM     27  H   GLU A   1      -9.416  14.195  67.155  1.00  0.00     0.000 HD 
BRANCH  26  28
ATOM     28  CA  GLU A   1      -9.355  16.230  66.474  1.00  0.00    -0.271 C  
ATOM     29  C   GLU A   1      -9.780  17.100  67.662  1.00  0.00    -0.263 C  
ATOM     30  O   GLU A   1      -8.798  17.912  68.114  1.00  0.00    -0.251 OA 
ATOM     31  OXT GLU A   1     -10.899  17.067  68.176  1.00  0.00    -0.370 OA 
BRANCH  28  32
ATOM     32  CB  GLU A   1     -10.553  15.958  65.553  1.00  0.00    -0.419 C  
BRANCH  32  33
ATOM     33  CG  GLU A   1     -10.805  14.461  65.379  1.00  0.00    -0.351 C  
ATOM     34  CD  GLU A   1     -12.218  14.204  64.932  1.00  0.00    -0.438 C  
ATOM     35  OE1 GLU A   1     -12.361  14.152  63.591  1.00  0.00    -0.741 OA 
ATOM     36  OE2 GLU A   1     -13.159  14.085  65.703  1.00  0.00    -0.639 OA 
ENDBRANCH  32  33
ENDBRANCH  28  32
ENDBRANCH  26  28
ENDBRANCH  21  24
ENDBRANCH  17  18
ENDBRANCH  16  17
ENDBRANCH  15  16
TORSDOF 7
ENDMDL
MODEL      114
REMARK 921   NORMALIZED FREE ENERGY PREDICTED BY IDOCK:   -4.89 KCAL/MOL
REMARK 922        TOTAL FREE ENERGY PREDICTED BY IDOCK:   -9.54 KCAL/MOL
REMARK 923 INTER-LIGAND FREE ENERGY PREDICTED BY IDOCK:   -8.50 KCAL/MOL
REMARK 924 INTRA-LIGAND FREE ENERGY PREDICTED BY IDOCK:   -1.03 KCAL/MOL
REMARK 927      BINDING AFFINITY PREDICTED BY RF-SCORE:    0.00 PKD
ROOT
HETATM    1  N   UNK A   0     -10.573   2.925  74.009  1.00  0.00    -0.168 NA 
HETATM    2  H1  UNK A   0     -11.278   3.030  74.737  1.00  0.00     0.000 HD 
HETATM    3  C   UNK A   0     -10.458   3.844  73.015  1.00  0.00    -0.175 C  
HETATM    4  H2  UNK A   0      -9.945   2.121  74.027  1.00  0.00     0.000 HD 
HETATM    5  N   UNK A   0      -9.557   3.711  72.086  1.00  0.00    -0.137 N  
HETATM    6  H   UNK A   0      -8.938   2.900  72.085  1.00  0.00     0.000 HD 
HETATM    7  C   UNK A   0      -9.444   4.683  71.089  1.00  0.00    -0.156 C  
HETATM    8  C   UNK A   0     -10.350   5.829  71.210  1.00  0.00    -0.281 A  
HETATM    9  O   UNK A   0      -8.638   4.598  70.172  1.00  0.00    -0.076 OA 
HETATM   10  C   UNK A   0     -11.262   5.856  72.230  1.00  0.00    -0.291 A  
HETATM   11  N   UNK A   0     -11.979   7.006  72.190  1.00  0.00    -0.389 NA 
HETATM   12  N   UNK A   0     -11.357   4.870  73.130  1.00  0.00    -0.325 NA 
HETATM   13  H   UNK A   0     -12.721   7.273  72.837  1.00  0.00     0.000 HD 
HETATM   14  C   UNK A   0     -11.531   7.748  71.122  1.00  0.00    -0.274 A  
HETATM   15  C   UNK A   0     -10.513   7.047  70.484  1.00  0.00    -0.227 A  
ENDROOT
BRANCH  15  16
HETATM   16  C   UNK A   0      -9.714   7.525  69.314  1.00  0.00    -0.163 C  
BRANCH  16  17
HETATM   17  C   UNK A   0     -10.568   7.923  68.098  1.00  0.00    -0.179 C  
BRANCH  17  18
HETATM   18  C   UNK A   0     -10.650   9.424  67.880  1.00  0.00    -0.293 A  
HETATM   19  C   UNK A   0     -11.116  10.283  68.883  1.00  0.00    -0.278 A  
HETATM   20  C   UNK A   0     -11.302  11.642  68.630  1.00  0.00    -0.326 A  
HETATM   21  C   UNK A   0     -11.001  12.171  67.372  1.00  0.00    -0.308 A  
HETATM   22  C   UNK A   0     -10.415  11.355  66.402  1.00  0.00    -0.299 A  
HETATM   23  C   UNK A   0     -10.245   9.986  66.656  1.00  0.00    -0.288 A  
BRANCH  21  24
HETATM   24  C   UNK A   0     -11.366  13.579  67.050  1.00  0.00    -0.324 C  
HETATM   25  O   UNK A   0     -12.424  13.888  66.516  1.00  0.00    -0.424 OA 
ATOM     26  N   GLU A   1     -10.431  14.519  67.434  1.00  0.00    -0.263 N  
ATOM     27  H   GLU A   1      -9.568  14.208  67.883  1.00  0.00     0.000 HD 
BRANCH  26  28
ATOM     28  CA  GLU A   1     -10.644  15.942  67.217  1.00  0.00    -0.314 C  
ATOM     29  C   GLU A   1     -10.011  16.342  65.879  1.00  0.00    -0.332 C  
ATOM     30  O   GLU A   1     -10.852  16.218  64.827  1.00  0.00    -0.671 OA 
ATOM     31  OXT GLU A   1      -8.848  16.727  65.754  1.00  0.00    -0.505 OA 
BRANCH  28  32
ATOM     32  CB  GLU A   1     -10.041  16.767  68.362  1.00  0.00    -0.285 C  
BRANCH  32  33
ATOM     33  CG  GLU A   1      -9.400  15.876  69.425  1.00  0.00    -0.250 C  
ATOM     34  CD  GLU A   1      -7.955  15.611  69.104  1.00  0.00    -0.227 C  
ATOM     35  OE1 GLU A   1      -7.105  16.498  69.660  1.00  0.00    -0.169 OA 
ATOM     36  OE2 GLU A   1      -7.581  14.700  68.380  1.00  0.00    -0.106 OA 
ENDBRANCH  32  33
ENDBRANCH  28  32
ENDBRANCH  26  28
ENDBRANCH  21  24
ENDBRANCH  17  18
ENDBRANCH  16  17
ENDBRANCH  15  16
TORSDOF 7
ENDMDL
MODEL      115
REMARK 921   NORMALIZED FREE ENERGY PREDICTED BY IDOCK:   -4.86 KCAL/MOL
REMARK 922        TOTAL FREE ENERGY PREDICTED BY IDOCK:   -9.49 KCAL/MOL
REMARK 923 INTER-LIGAND FREE ENERGY PREDICTED BY IDOCK:   -9.17 KCAL/MOL
REMARK 924 INTRA-LIGAND FREE ENERGY PREDICTED BY IDOCK:   -0.33 KCAL/MOL
REMARK 927      BINDING AFFINITY PREDICTED BY RF-SCORE:    0.00 PKD
ROOT
HETATM    1  N   UNK A   0     -12.487  13.580  62.898  1.00  0.00    -0.865 NA 
HETATM    2  H1  UNK A   0     -12.112  13.523  61.952  1.00  0.00     0.000 HD 
HETATM    3  C   UNK A   0     -11.897  12.911  63.922  1.00  0.00    -0.473 C  
HETATM    4  H2  UNK A   0     -13.316  14.147  63.078  1.00  0.00     0.000 HD 
HETATM    5  N   UNK A   0     -12.375  12.984  65.129  1.00  0.00    -0.460 N  
HETATM    6  H   UNK A   0     -13.214  13.534  65.315  1.00  0.00     0.000 HD 
HETATM    7  C   UNK A   0     -11.734  12.307  66.169  1.00  0.00    -0.376 C  
HETATM    8  C   UNK A   0     -10.511  11.586  65.802  1.00  0.00    -0.308 A  
HETATM    9  O   UNK A   0     -12.153  12.312  67.319  1.00  0.00    -0.548 OA 
HETATM   10  C   UNK A   0     -10.107  11.576  64.495  1.00  0.00    -0.278 A  
HETATM   11  N   UNK A   0      -8.945  10.889  64.365  1.00  0.00    -0.317 NA 
HETATM   12  N   UNK A   0     -10.790  12.205  63.530  1.00  0.00    -0.444 NA 
HETATM   13  H   UNK A   0      -8.434  10.734  63.497  1.00  0.00     0.000 HD 
HETATM   14  C   UNK A   0      -8.579  10.440  65.612  1.00  0.00    -0.167 A  
HETATM   15  C   UNK A   0      -9.531  10.854  66.537  1.00  0.00    -0.210 A  
ENDROOT
BRANCH  15  16
HETATM   16  C   UNK A   0      -9.482  10.626  68.015  1.00  0.00    -0.164 C  
BRANCH  16  17
HETATM   17  C   UNK A   0      -8.399  11.447  68.735  1.00  0.00    -0.096 C  
BRANCH  17  18
HETATM   18  C   UNK A   0      -8.347  12.900  68.294  1.00  0.00    -0.157 A  
HETATM   19  C   UNK A   0      -7.265  13.403  67.561  1.00  0.00    -0.163 A  
HETATM   20  C   UNK A   0      -7.170  14.763  67.269  1.00  0.00    -0.114 A  
HETATM   21  C   UNK A   0      -8.173  15.643  67.684  1.00  0.00    -0.165 A  
HETATM   22  C   UNK A   0      -9.320  15.140  68.302  1.00  0.00    -0.193 A  
HETATM   23  C   UNK A   0      -9.403  13.774  68.609  1.00  0.00    -0.081 A  
BRANCH  21  24
HETATM   24  C   UNK A   0      -7.985  17.113  67.528  1.00  0.00    -0.176 C  
HETATM   25  O   UNK A   0      -7.652  17.634  66.471  1.00  0.00    -0.220 OA 
ATOM     26  N   GLU A   1      -8.251  17.852  68.663  1.00  0.00    -0.297 N  
ATOM     27  H   GLU A   1      -8.532  17.369  69.517  1.00  0.00     0.000 HD 
BRANCH  26  28
ATOM     28  CA  GLU A   1      -8.141  19.303  68.674  1.00  0.00    -0.370 C  
ATOM     29  C   GLU A   1      -9.419  19.904  68.078  1.00  0.00    -0.351 C  
ATOM     30  O   GLU A   1     -10.386  20.131  68.996  1.00  0.00    -0.350 OA 
ATOM     31  OXT GLU A   1      -9.573  20.150  66.882  1.00  0.00    -0.379 OA 
BRANCH  28  32
ATOM     32  CB  GLU A   1      -6.911  19.763  67.878  1.00  0.00    -0.299 C  
BRANCH  32  33
ATOM     33  CG  GLU A   1      -5.899  20.484  68.767  1.00  0.00    -0.361 C  
ATOM     34  CD  GLU A   1      -6.016  20.025  70.195  1.00  0.00    -0.338 C  
ATOM     35  OE1 GLU A   1      -5.204  18.990  70.499  1.00  0.00    -0.196 OA 
ATOM     36  OE2 GLU A   1      -6.794  20.515  71.000  1.00  0.00    -0.254 OA 
ENDBRANCH  32  33
ENDBRANCH  28  32
ENDBRANCH  26  28
ENDBRANCH  21  24
ENDBRANCH  17  18
ENDBRANCH  16  17
ENDBRANCH  15  16
TORSDOF 7
ENDMDL
MODEL      116
REMARK 921   NORMALIZED FREE ENERGY PREDICTED BY IDOCK:   -4.84 KCAL/MOL
REMARK 922        TOTAL FREE ENERGY PREDICTED BY IDOCK:   -9.46 KCAL/MOL
REMARK 923 INTER-LIGAND FREE ENERGY PREDICTED BY IDOCK:   -8.31 KCAL/MOL
REMARK 924 INTRA-LIGAND FREE ENERGY PREDICTED BY IDOCK:   -1.15 KCAL/MOL
REMARK 927      BINDING AFFINITY PREDICTED BY RF-SCORE:    0.00 PKD
ROOT
HETATM    1  N   UNK A   0     -11.162   6.790  73.296  1.00  0.00    -0.506 NA 
HETATM    2  H1  UNK A   0     -11.581   7.081  74.178  1.00  0.00     0.000 HD 
HETATM    3  C   UNK A   0     -11.228   7.585  72.198  1.00  0.00    -0.270 C  
HETATM    4  H2  UNK A   0     -10.685   5.889  73.239  1.00  0.00     0.000 HD 
HETATM    5  N   UNK A   0     -10.692   7.213  71.073  1.00  0.00    -0.229 N  
HETATM    6  H   UNK A   0     -10.231   6.306  71.000  1.00  0.00     0.000 HD 
HETATM    7  C   UNK A   0     -10.753   8.060  69.964  1.00  0.00    -0.244 C  
HETATM    8  C   UNK A   0     -11.398   9.358  70.188  1.00  0.00    -0.220 A  
HETATM    9  O   UNK A   0     -10.296   7.754  68.871  1.00  0.00    -0.208 OA 
HETATM   10  C   UNK A   0     -11.931   9.637  71.417  1.00  0.00    -0.399 A  
HETATM   11  N   UNK A   0     -12.448  10.890  71.433  1.00  0.00    -0.369 NA 
HETATM   12  N   UNK A   0     -11.886   8.764  72.431  1.00  0.00    -0.334 NA 
HETATM   13  H   UNK A   0     -12.903  11.341  72.227  1.00  0.00     0.000 HD 
HETATM   14  C   UNK A   0     -12.251  11.445  70.191  1.00  0.00    -0.321 A  
HETATM   15  C   UNK A   0     -11.598  10.520  69.384  1.00  0.00    -0.318 A  
ENDROOT
BRANCH  15  16
HETATM   16  C   UNK A   0     -11.142  10.745  67.977  1.00  0.00    -0.359 C  
BRANCH  16  17
HETATM   17  C   UNK A   0      -9.629  10.986  67.844  1.00  0.00    -0.180 C  
BRANCH  17  18
HETATM   18  C   UNK A   0      -9.252  12.457  67.797  1.00  0.00    -0.193 A  
HETATM   19  C   UNK A   0      -7.968  12.894  68.150  1.00  0.00    -0.153 A  
HETATM   20  C   UNK A   0      -7.671  14.254  68.221  1.00  0.00    -0.136 A  
HETATM   21  C   UNK A   0      -8.648  15.204  67.916  1.00  0.00    -0.154 A  
HETATM   22  C   UNK A   0      -9.892  14.786  67.438  1.00  0.00    -0.222 A  
HETATM   23  C   UNK A   0     -10.192  13.417  67.385  1.00  0.00    -0.237 A  
BRANCH  21  24
HETATM   24  C   UNK A   0      -8.384  16.650  68.163  1.00  0.00    -0.193 C  
HETATM   25  O   UNK A   0      -7.822  17.062  69.170  1.00  0.00    -0.205 OA 
ATOM     26  N   GLU A   1      -8.791  17.492  67.148  1.00  0.00    -0.233 N  
ATOM     27  H   GLU A   1      -9.249  17.096  66.326  1.00  0.00     0.000 HD 
BRANCH  26  28
ATOM     28  CA  GLU A   1      -8.584  18.931  67.219  1.00  0.00    -0.277 C  
ATOM     29  C   GLU A   1      -9.895  19.602  67.647  1.00  0.00    -0.376 C  
ATOM     30  O   GLU A   1     -10.029  19.716  68.988  1.00  0.00    -0.447 OA 
ATOM     31  OXT GLU A   1     -10.758  19.993  66.861  1.00  0.00    -0.408 OA 
BRANCH  28  32
ATOM     32  CB  GLU A   1      -8.116  19.484  65.866  1.00  0.00    -0.204 C  
BRANCH  32  33
ATOM     33  CG  GLU A   1      -6.689  20.024  65.938  1.00  0.00    -0.271 C  
ATOM     34  CD  GLU A   1      -5.791  19.301  64.973  1.00  0.00    -0.244 C  
ATOM     35  OE1 GLU A   1      -5.711  19.891  63.762  1.00  0.00    -0.247 OA 
ATOM     36  OE2 GLU A   1      -5.213  18.258  65.241  1.00  0.00    -0.157 OA 
ENDBRANCH  32  33
ENDBRANCH  28  32
ENDBRANCH  26  28
ENDBRANCH  21  24
ENDBRANCH  17  18
ENDBRANCH  16  17
ENDBRANCH  15  16
TORSDOF 7
ENDMDL
MODEL      117
REMARK 921   NORMALIZED FREE ENERGY PREDICTED BY IDOCK:   -4.84 KCAL/MOL
REMARK 922        TOTAL FREE ENERGY PREDICTED BY IDOCK:   -9.46 KCAL/MOL
REMARK 923 INTER-LIGAND FREE ENERGY PREDICTED BY IDOCK:   -8.26 KCAL/MOL
REMARK 924 INTRA-LIGAND FREE ENERGY PREDICTED BY IDOCK:   -1.20 KCAL/MOL
REMARK 927      BINDING AFFINITY PREDICTED BY RF-SCORE:    0.00 PKD
ROOT
HETATM    1  N   UNK A   0     -14.392   6.666  72.328  1.00  0.00    -0.648 NA 
HETATM    2  H1  UNK A   0     -14.253   5.670  72.166  1.00  0.00     0.000 HD 
HETATM    3  C   UNK A   0     -13.561   7.585  71.771  1.00  0.00    -0.322 C  
HETATM    4  H2  UNK A   0     -15.165   6.978  72.916  1.00  0.00     0.000 HD 
HETATM    5  N   UNK A   0     -13.739   8.856  71.978  1.00  0.00    -0.430 N  
HETATM    6  H   UNK A   0     -14.498   9.176  72.579  1.00  0.00     0.000 HD 
HETATM    7  C   UNK A   0     -12.885   9.781  71.373  1.00  0.00    -0.392 C  
HETATM    8  C   UNK A   0     -11.857   9.219  70.492  1.00  0.00    -0.173 A  
HETATM    9  O   UNK A   0     -12.982  10.988  71.553  1.00  0.00    -0.422 OA 
HETATM   10  C   UNK A   0     -11.762   7.861  70.356  1.00  0.00    -0.008 A  
HETATM   11  N   UNK A   0     -10.779   7.542  69.478  1.00  0.00    -0.283 NA 
HETATM   12  N   UNK A   0     -12.580   7.019  71.000  1.00  0.00    -0.348 NA 
HETATM   13  H   UNK A   0     -10.505   6.600  69.200  1.00  0.00     0.000 HD 
HETATM   14  C   UNK A   0     -10.217   8.714  69.029  1.00  0.00    -0.207 A  
HETATM   15  C   UNK A   0     -10.862   9.785  69.639  1.00  0.00    -0.274 A  
ENDROOT
BRANCH  15  16
HETATM   16  C   UNK A   0     -10.596  11.234  69.383  1.00  0.00    -0.142 C  
BRANCH  16  17
HETATM   17  C   UNK A   0     -10.563  11.607  67.891  1.00  0.00    -0.225 C  
BRANCH  17  18
HETATM   18  C   UNK A   0      -9.563  12.703  67.563  1.00  0.00    -0.184 A  
HETATM   19  C   UNK A   0      -8.252  12.667  68.055  1.00  0.00    -0.167 A  
HETATM   20  C   UNK A   0      -7.382  13.736  67.849  1.00  0.00    -0.155 A  
HETATM   21  C   UNK A   0      -7.801  14.854  67.123  1.00  0.00    -0.203 A  
HETATM   22  C   UNK A   0      -9.059  14.851  66.516  1.00  0.00    -0.309 A  
HETATM   23  C   UNK A   0      -9.937  13.781  66.741  1.00  0.00    -0.270 A  
BRANCH  21  24
HETATM   24  C   UNK A   0      -6.936  16.065  67.056  1.00  0.00    -0.174 C  
HETATM   25  O   UNK A   0      -5.737  16.015  66.810  1.00  0.00    -0.267 OA 
ATOM     26  N   GLU A   1      -7.599  17.259  67.258  1.00  0.00    -0.175 N  
ATOM     27  H   GLU A   1      -8.600  17.245  67.453  1.00  0.00     0.000 HD 
BRANCH  26  28
ATOM     28  CA  GLU A   1      -6.906  18.537  67.201  1.00  0.00    -0.201 C  
ATOM     29  C   GLU A   1      -6.441  18.917  68.612  1.00  0.00    -0.248 C  
ATOM     30  O   GLU A   1      -5.211  18.445  68.919  1.00  0.00    -0.183 OA 
ATOM     31  OXT GLU A   1      -7.114  19.574  69.406  1.00  0.00    -0.350 OA 
BRANCH  28  32
ATOM     32  CB  GLU A   1      -7.819  19.629  66.625  1.00  0.00    -0.306 C  
BRANCH  32  33
ATOM     33  CG  GLU A   1      -9.178  19.069  66.209  1.00  0.00    -0.307 C  
ATOM     34  CD  GLU A   1     -10.176  19.197  67.326  1.00  0.00    -0.398 C  
ATOM     35  OE1 GLU A   1     -10.890  20.341  67.286  1.00  0.00    -0.111 OA 
ATOM     36  OE2 GLU A   1     -10.311  18.363  68.210  1.00  0.00    -0.373 OA 
ENDBRANCH  32  33
ENDBRANCH  28  32
ENDBRANCH  26  28
ENDBRANCH  21  24
ENDBRANCH  17  18
ENDBRANCH  16  17
ENDBRANCH  15  16
TORSDOF 7
ENDMDL
MODEL      118
REMARK 921   NORMALIZED FREE ENERGY PREDICTED BY IDOCK:   -4.83 KCAL/MOL
REMARK 922        TOTAL FREE ENERGY PREDICTED BY IDOCK:   -9.44 KCAL/MOL
REMARK 923 INTER-LIGAND FREE ENERGY PREDICTED BY IDOCK:   -8.17 KCAL/MOL
REMARK 924 INTRA-LIGAND FREE ENERGY PREDICTED BY IDOCK:   -1.27 KCAL/MOL
REMARK 927      BINDING AFFINITY PREDICTED BY RF-SCORE:    0.00 PKD
ROOT
HETATM    1  N   UNK A   0     -10.978  18.021  64.878  1.00  0.00    -0.524 NA 
HETATM    2  H1  UNK A   0     -11.636  18.497  64.261  1.00  0.00     0.000 HD 
HETATM    3  C   UNK A   0     -10.934  16.665  64.934  1.00  0.00    -0.150 C  
HETATM    4  H2  UNK A   0     -10.345  18.571  65.459  1.00  0.00     0.000 HD 
HETATM    5  N   UNK A   0     -10.095  16.058  65.720  1.00  0.00    -0.347 N  
HETATM    6  H   UNK A   0      -9.471  16.599  66.319  1.00  0.00     0.000 HD 
HETATM    7  C   UNK A   0     -10.053  14.662  65.741  1.00  0.00    -0.340 C  
HETATM    8  C   UNK A   0     -10.958  13.983  64.809  1.00  0.00    -0.410 A  
HETATM    9  O   UNK A   0      -9.307  14.033  66.481  1.00  0.00    -0.278 OA 
HETATM   10  C   UNK A   0     -11.802  14.729  64.032  1.00  0.00    -0.071 A  
HETATM   11  N   UNK A   0     -12.529  13.925  63.218  1.00  0.00    -1.112 NA 
HETATM   12  N   UNK A   0     -11.832  16.066  64.090  1.00  0.00    -0.708 NA 
HETATM   13  H   UNK A   0     -13.229  14.230  62.543  1.00  0.00     0.000 HD 
HETATM   14  C   UNK A   0     -12.156  12.625  63.466  1.00  0.00    -0.561 A  
HETATM   15  C   UNK A   0     -11.176  12.618  64.453  1.00  0.00    -0.391 A  
ENDROOT
BRANCH  15  16
HETATM   16  C   UNK A   0     -10.458  11.413  64.973  1.00  0.00    -0.361 C  
BRANCH  16  17
HETATM   17  C   UNK A   0     -10.823  11.049  66.422  1.00  0.00    -0.253 C  
BRANCH  17  18
HETATM   18  C   UNK A   0      -9.913   9.995  67.030  1.00  0.00    -0.257 A  
HETATM   19  C   UNK A   0      -9.150   9.138  66.227  1.00  0.00    -0.222 A  
HETATM   20  C   UNK A   0      -8.415   8.096  66.790  1.00  0.00    -0.123 A  
HETATM   21  C   UNK A   0      -8.409   7.909  68.175  1.00  0.00    -0.124 A  
HETATM   22  C   UNK A   0      -9.058   8.831  68.999  1.00  0.00    -0.141 A  
HETATM   23  C   UNK A   0      -9.810   9.867  68.426  1.00  0.00    -0.166 A  
BRANCH  21  24
HETATM   24  C   UNK A   0      -7.770   6.696  68.759  1.00  0.00    -0.109 C  
HETATM   25  O   UNK A   0      -6.608   6.382  68.538  1.00  0.00    -0.050 OA 
ATOM     26  N   GLU A   1      -8.584   5.966  69.603  1.00  0.00    -0.120 N  
ATOM     27  H   GLU A   1      -9.544   6.275  69.758  1.00  0.00     0.000 HD 
BRANCH  26  28
ATOM     28  CA  GLU A   1      -8.107   4.767  70.276  1.00  0.00    -0.072 C  
ATOM     29  C   GLU A   1      -8.694   3.536  69.576  1.00  0.00    -0.075 C  
ATOM     30  O   GLU A   1      -7.928   3.077  68.561  1.00  0.00    -0.057 OA 
ATOM     31  OXT GLU A   1      -9.764   3.011  69.886  1.00  0.00    -0.103 OA 
BRANCH  28  32
ATOM     32  CB  GLU A   1      -8.502   4.779  71.759  1.00  0.00    -0.120 C  
BRANCH  32  33
ATOM     33  CG  GLU A   1      -9.220   6.072  72.144  1.00  0.00    -0.148 C  
ATOM     34  CD  GLU A   1     -10.709   5.865  72.188  1.00  0.00    -0.231 C  
ATOM     35  OE1 GLU A   1     -11.171   5.514  73.406  1.00  0.00    -0.271 OA 
ATOM     36  OE2 GLU A   1     -11.435   5.970  71.210  1.00  0.00    -0.274 OA 
ENDBRANCH  32  33
ENDBRANCH  28  32
ENDBRANCH  26  28
ENDBRANCH  21  24
ENDBRANCH  17  18
ENDBRANCH  16  17
ENDBRANCH  15  16
TORSDOF 7
ENDMDL
MODEL      119
REMARK 921   NORMALIZED FREE ENERGY PREDICTED BY IDOCK:   -4.82 KCAL/MOL
REMARK 922        TOTAL FREE ENERGY PREDICTED BY IDOCK:   -9.44 KCAL/MOL
REMARK 923 INTER-LIGAND FREE ENERGY PREDICTED BY IDOCK:   -8.18 KCAL/MOL
REMARK 924 INTRA-LIGAND FREE ENERGY PREDICTED BY IDOCK:   -1.27 KCAL/MOL
REMARK 927      BINDING AFFINITY PREDICTED BY RF-SCORE:    0.00 PKD
ROOT
HETATM    1  N   UNK A   0      -7.603   3.621  69.174  1.00  0.00    -0.053 NA 
HETATM    2  H1  UNK A   0      -6.991   3.074  69.779  1.00  0.00     0.000 HD 
HETATM    3  C   UNK A   0      -8.674   4.283  69.684  1.00  0.00    -0.074 C  
HETATM    4  H2  UNK A   0      -7.408   3.672  68.174  1.00  0.00     0.000 HD 
HETATM    5  N   UNK A   0      -9.454   4.981  68.912  1.00  0.00    -0.130 N  
HETATM    6  H   UNK A   0      -9.278   5.023  67.908  1.00  0.00     0.000 HD 
HETATM    7  C   UNK A   0     -10.534   5.673  69.465  1.00  0.00    -0.302 C  
HETATM    8  C   UNK A   0     -10.669   5.585  70.922  1.00  0.00    -0.283 A  
HETATM    9  O   UNK A   0     -11.322   6.321  68.788  1.00  0.00    -0.356 OA 
HETATM   10  C   UNK A   0      -9.788   4.813  71.631  1.00  0.00    -0.184 A  
HETATM   11  N   UNK A   0     -10.057   4.888  72.957  1.00  0.00    -0.158 NA 
HETATM   12  N   UNK A   0      -8.799   4.132  71.040  1.00  0.00    -0.091 NA 
HETATM   13  H   UNK A   0      -9.549   4.408  73.700  1.00  0.00     0.000 HD 
HETATM   14  C   UNK A   0     -11.136   5.724  73.124  1.00  0.00    -0.247 A  
HETATM   15  C   UNK A   0     -11.548   6.181  71.877  1.00  0.00    -0.352 A  
ENDROOT
BRANCH  15  16
HETATM   16  C   UNK A   0     -12.651   7.157  71.616  1.00  0.00    -0.410 C  
BRANCH  16  17
HETATM   17  C   UNK A   0     -12.377   8.567  72.166  1.00  0.00    -0.444 C  
BRANCH  17  18
HETATM   18  C   UNK A   0     -11.644   9.468  71.188  1.00  0.00    -0.439 A  
HETATM   19  C   UNK A   0     -12.298  10.518  70.531  1.00  0.00    -0.432 A  
HETATM   20  C   UNK A   0     -11.648  11.260  69.546  1.00  0.00    -0.398 A  
HETATM   21  C   UNK A   0     -10.319  10.978  69.215  1.00  0.00    -0.181 A  
HETATM   22  C   UNK A   0      -9.614  10.021  69.948  1.00  0.00    -0.233 A  
HETATM   23  C   UNK A   0     -10.277   9.267  70.927  1.00  0.00    -0.371 A  
BRANCH  21  24
HETATM   24  C   UNK A   0      -9.686  11.648  68.045  1.00  0.00    -0.182 C  
HETATM   25  O   UNK A   0      -9.883  11.298  66.889  1.00  0.00    -0.189 OA 
ATOM     26  N   GLU A   1      -8.881  12.724  68.364  1.00  0.00    -0.311 N  
ATOM     27  H   GLU A   1      -8.756  12.979  69.344  1.00  0.00     0.000 HD 
BRANCH  26  28
ATOM     28  CA  GLU A   1      -8.207  13.505  67.337  1.00  0.00    -0.181 C  
ATOM     29  C   GLU A   1      -6.691  13.367  67.520  1.00  0.00    -0.140 C  
ATOM     30  O   GLU A   1      -6.160  12.321  66.848  1.00  0.00    -0.221 OA 
ATOM     31  OXT GLU A   1      -6.010  14.118  68.219  1.00  0.00    -0.098 OA 
BRANCH  28  32
ATOM     32  CB  GLU A   1      -8.624  14.980  67.410  1.00  0.00    -0.208 C  
BRANCH  32  33
ATOM     33  CG  GLU A   1     -10.093  15.173  67.038  1.00  0.00    -0.244 C  
ATOM     34  CD  GLU A   1     -10.349  16.582  66.576  1.00  0.00    -0.305 C  
ATOM     35  OE1 GLU A   1     -10.226  16.745  65.242  1.00  0.00    -0.607 OA 
ATOM     36  OE2 GLU A   1     -10.612  17.503  67.334  1.00  0.00    -0.351 OA 
ENDBRANCH  32  33
ENDBRANCH  28  32
ENDBRANCH  26  28
ENDBRANCH  21  24
ENDBRANCH  17  18
ENDBRANCH  16  17
ENDBRANCH  15  16
TORSDOF 7
ENDMDL
MODEL      120
REMARK 921   NORMALIZED FREE ENERGY PREDICTED BY IDOCK:   -4.81 KCAL/MOL
REMARK 922        TOTAL FREE ENERGY PREDICTED BY IDOCK:   -9.42 KCAL/MOL
REMARK 923 INTER-LIGAND FREE ENERGY PREDICTED BY IDOCK:   -8.09 KCAL/MOL
REMARK 924 INTRA-LIGAND FREE ENERGY PREDICTED BY IDOCK:   -1.34 KCAL/MOL
REMARK 927      BINDING AFFINITY PREDICTED BY RF-SCORE:    0.00 PKD
ROOT
HETATM    1  N   UNK A   0     -11.998   4.555  73.468  1.00  0.00    -0.225 NA 
HETATM    2  H1  UNK A   0     -11.768   3.573  73.621  1.00  0.00     0.000 HD 
HETATM    3  C   UNK A   0     -11.034   5.453  73.142  1.00  0.00    -0.302 C  
HETATM    4  H2  UNK A   0     -12.966   4.865  73.562  1.00  0.00     0.000 HD 
HETATM    5  N   UNK A   0     -11.328   6.705  72.948  1.00  0.00    -0.458 N  
HETATM    6  H   UNK A   0     -12.290   7.028  73.057  1.00  0.00     0.000 HD 
HETATM    7  C   UNK A   0     -10.322   7.604  72.588  1.00  0.00    -0.275 C  
HETATM    8  C   UNK A   0      -8.985   7.028  72.411  1.00  0.00    -0.142 A  
HETATM    9  O   UNK A   0     -10.530   8.799  72.422  1.00  0.00    -0.305 OA 
HETATM   10  C   UNK A   0      -8.795   5.694  72.650  1.00  0.00    -0.123 A  
HETATM   11  N   UNK A   0      -7.508   5.350  72.401  1.00  0.00    -0.094 NA 
HETATM   12  N   UNK A   0      -9.790   4.888  73.041  1.00  0.00    -0.146 NA 
HETATM   13  H   UNK A   0      -7.106   4.417  72.500  1.00  0.00     0.000 HD 
HETATM   14  C   UNK A   0      -6.839   6.479  71.990  1.00  0.00    -0.068 A  
HETATM   15  C   UNK A   0      -7.727   7.549  71.984  1.00  0.00    -0.094 A  
ENDROOT
BRANCH  15  16
HETATM   16  C   UNK A   0      -7.420   8.946  71.544  1.00  0.00    -0.084 C  
BRANCH  16  17
HETATM   17  C   UNK A   0      -7.003   9.056  70.068  1.00  0.00    -0.050 C  
BRANCH  17  18
HETATM   18  C   UNK A   0      -7.991   9.833  69.215  1.00  0.00    -0.112 A  
HETATM   19  C   UNK A   0      -7.683  11.106  68.718  1.00  0.00    -0.136 A  
HETATM   20  C   UNK A   0      -8.641  11.860  68.041  1.00  0.00    -0.168 A  
HETATM   21  C   UNK A   0      -9.921  11.341  67.827  1.00  0.00    -0.193 A  
HETATM   22  C   UNK A   0     -10.205  10.026  68.202  1.00  0.00    -0.205 A  
HETATM   23  C   UNK A   0      -9.243   9.279  68.898  1.00  0.00    -0.143 A  
BRANCH  21  24
HETATM   24  C   UNK A   0     -10.992  12.211  67.265  1.00  0.00    -0.260 C  
HETATM   25  O   UNK A   0     -12.086  12.351  67.797  1.00  0.00    -0.447 OA 
ATOM     26  N   GLU A   1     -10.643  12.881  66.109  1.00  0.00    -0.268 N  
ATOM     27  H   GLU A   1      -9.715  12.734  65.710  1.00  0.00     0.000 HD 
BRANCH  26  28
ATOM     28  CA  GLU A   1     -11.564  13.790  65.445  1.00  0.00    -0.320 C  
ATOM     29  C   GLU A   1     -12.262  13.045  64.300  1.00  0.00    -0.396 C  
ATOM     30  O   GLU A   1     -13.401  12.423  64.678  1.00  0.00    -0.778 OA 
ATOM     31  OXT GLU A   1     -11.834  12.997  63.147  1.00  0.00    -0.494 OA 
BRANCH  28  32
ATOM     32  CB  GLU A   1     -10.824  15.023  64.909  1.00  0.00    -0.430 C  
BRANCH  32  33
ATOM     33  CG  GLU A   1      -9.590  15.352  65.747  1.00  0.00    -0.368 C  
ATOM     34  CD  GLU A   1      -9.800  16.615  66.538  1.00  0.00    -0.281 C  
ATOM     35  OE1 GLU A   1     -10.302  16.403  67.772  1.00  0.00    -0.270 OA 
ATOM     36  OE2 GLU A   1      -9.572  17.732  66.098  1.00  0.00    -0.452 OA 
ENDBRANCH  32  33
ENDBRANCH  28  32
ENDBRANCH  26  28
ENDBRANCH  21  24
ENDBRANCH  17  18
ENDBRANCH  16  17
ENDBRANCH  15  16
TORSDOF 7
ENDMDL
MODEL      121
REMARK 921   NORMALIZED FREE ENERGY PREDICTED BY IDOCK:   -4.80 KCAL/MOL
REMARK 922        TOTAL FREE ENERGY PREDICTED BY IDOCK:   -9.41 KCAL/MOL
REMARK 923 INTER-LIGAND FREE ENERGY PREDICTED BY IDOCK:   -8.19 KCAL/MOL
REMARK 924 INTRA-LIGAND FREE ENERGY PREDICTED BY IDOCK:   -1.22 KCAL/MOL
REMARK 927      BINDING AFFINITY PREDICTED BY RF-SCORE:    0.00 PKD
ROOT
HETATM    1  N   UNK A   0     -10.558   1.757  74.375  1.00  0.00    -0.129 NA 
HETATM    2  H1  UNK A   0     -11.040   1.996  75.241  1.00  0.00     0.000 HD 
HETATM    3  C   UNK A   0     -10.454   2.658  73.365  1.00  0.00    -0.146 C  
HETATM    4  H2  UNK A   0     -10.148   0.829  74.267  1.00  0.00     0.000 HD 
HETATM    5  N   UNK A   0      -9.838   2.353  72.261  1.00  0.00    -0.138 N  
HETATM    6  H   UNK A   0      -9.441   1.421  72.136  1.00  0.00     0.000 HD 
HETATM    7  C   UNK A   0      -9.723   3.307  71.247  1.00  0.00    -0.151 C  
HETATM    8  C   UNK A   0     -10.286   4.627  71.546  1.00  0.00    -0.224 A  
HETATM    9  O   UNK A   0      -9.183   3.070  70.174  1.00  0.00    -0.116 OA 
HETATM   10  C   UNK A   0     -10.917   4.829  72.743  1.00  0.00    -0.194 A  
HETATM   11  N   UNK A   0     -11.336   6.114  72.844  1.00  0.00    -0.435 NA 
HETATM   12  N   UNK A   0     -11.039   3.861  73.660  1.00  0.00    -0.251 NA 
HETATM   13  H   UNK A   0     -11.833   6.524  73.635  1.00  0.00     0.000 HD 
HETATM   14  C   UNK A   0     -10.974   6.769  71.690  1.00  0.00    -0.235 A  
HETATM   15  C   UNK A   0     -10.315   5.875  70.853  1.00  0.00    -0.288 A  
ENDROOT
BRANCH  15  16
HETATM   16  C   UNK A   0      -9.706   6.195  69.526  1.00  0.00    -0.175 C  
BRANCH  16  17
HETATM   17  C   UNK A   0     -10.613   7.037  68.612  1.00  0.00    -0.238 C  
BRANCH  17  18
HETATM   18  C   UNK A   0     -10.094   8.445  68.374  1.00  0.00    -0.224 A  
HETATM   19  C   UNK A   0      -9.111   9.010  69.196  1.00  0.00    -0.140 A  
HETATM   20  C   UNK A   0      -8.731  10.343  69.044  1.00  0.00    -0.170 A  
HETATM   21  C   UNK A   0      -9.313  11.130  68.046  1.00  0.00    -0.166 A  
HETATM   22  C   UNK A   0     -10.199  10.548  67.137  1.00  0.00    -0.270 A  
HETATM   23  C   UNK A   0     -10.590   9.212  67.304  1.00  0.00    -0.303 A  
BRANCH  21  24
HETATM   24  C   UNK A   0      -9.039  12.593  67.999  1.00  0.00    -0.207 C  
HETATM   25  O   UNK A   0      -8.003  13.092  68.421  1.00  0.00    -0.142 OA 
ATOM     26  N   GLU A   1     -10.033  13.347  67.408  1.00  0.00    -0.227 N  
ATOM     27  H   GLU A   1     -10.874  12.881  67.067  1.00  0.00     0.000 HD 
BRANCH  26  28
ATOM     28  CA  GLU A   1      -9.912  14.790  67.259  1.00  0.00    -0.231 C  
ATOM     29  C   GLU A   1     -10.681  15.475  68.395  1.00  0.00    -0.263 C  
ATOM     30  O   GLU A   1      -9.933  15.687  69.501  1.00  0.00    -0.253 OA 
ATOM     31  OXT GLU A   1     -11.868  15.794  68.329  1.00  0.00    -0.301 OA 
BRANCH  28  32
ATOM     32  CB  GLU A   1     -10.451  15.245  65.896  1.00  0.00    -0.345 C  
BRANCH  32  33
ATOM     33  CG  GLU A   1     -10.626  14.071  64.935  1.00  0.00    -0.442 C  
ATOM     34  CD  GLU A   1     -12.075  13.882  64.577  1.00  0.00    -0.443 C  
ATOM     35  OE1 GLU A   1     -12.451  14.552  63.467  1.00  0.00    -0.727 OA 
ATOM     36  OE2 GLU A   1     -12.853  13.214  65.242  1.00  0.00    -0.617 OA 
ENDBRANCH  32  33
ENDBRANCH  28  32
ENDBRANCH  26  28
ENDBRANCH  21  24
ENDBRANCH  17  18
ENDBRANCH  16  17
ENDBRANCH  15  16
TORSDOF 7
ENDMDL
MODEL      122
REMARK 921   NORMALIZED FREE ENERGY PREDICTED BY IDOCK:   -4.80 KCAL/MOL
REMARK 922        TOTAL FREE ENERGY PREDICTED BY IDOCK:   -9.40 KCAL/MOL
REMARK 923 INTER-LIGAND FREE ENERGY PREDICTED BY IDOCK:   -8.46 KCAL/MOL
REMARK 924 INTRA-LIGAND FREE ENERGY PREDICTED BY IDOCK:   -0.95 KCAL/MOL
REMARK 927      BINDING AFFINITY PREDICTED BY RF-SCORE:    0.00 PKD
ROOT
HETATM    1  N   UNK A   0      -9.194   3.226  71.723  1.00  0.00    -0.111 NA 
HETATM    2  H1  UNK A   0      -8.816   3.030  72.650  1.00  0.00     0.000 HD 
HETATM    3  C   UNK A   0      -9.796   4.413  71.453  1.00  0.00    -0.192 C  
HETATM    4  H2  UNK A   0      -9.117   2.521  70.989  1.00  0.00     0.000 HD 
HETATM    5  N   UNK A   0     -10.277   4.662  70.271  1.00  0.00    -0.204 N  
HETATM    6  H   UNK A   0     -10.222   3.956  69.536  1.00  0.00     0.000 HD 
HETATM    7  C   UNK A   0     -10.870   5.900  70.013  1.00  0.00    -0.351 C  
HETATM    8  C   UNK A   0     -10.854   6.858  71.123  1.00  0.00    -0.270 A  
HETATM    9  O   UNK A   0     -11.368   6.183  68.931  1.00  0.00    -0.367 OA 
HETATM   10  C   UNK A   0     -10.324   6.480  72.326  1.00  0.00    -0.191 A  
HETATM   11  N   UNK A   0     -10.372   7.509  73.207  1.00  0.00    -0.339 NA 
HETATM   12  N   UNK A   0      -9.812   5.260  72.530  1.00  0.00    -0.160 NA 
HETATM   13  H   UNK A   0     -10.041   7.489  74.172  1.00  0.00     0.000 HD 
HETATM   14  C   UNK A   0     -10.946   8.584  72.570  1.00  0.00    -0.253 A  
HETATM   15  C   UNK A   0     -11.262   8.219  71.266  1.00  0.00    -0.302 A  
ENDROOT
BRANCH  15  16
HETATM   16  C   UNK A   0     -11.847   9.111  70.218  1.00  0.00     0.032 C  
BRANCH  16  17
HETATM   17  C   UNK A   0     -10.838   9.559  69.148  1.00  0.00    -0.194 C  
BRANCH  17  18
HETATM   18  C   UNK A   0     -10.675  11.067  69.061  1.00  0.00    -0.258 A  
HETATM   19  C   UNK A   0     -11.613  11.936  69.633  1.00  0.00    -0.387 A  
HETATM   20  C   UNK A   0     -11.519  13.314  69.442  1.00  0.00    -0.323 A  
HETATM   21  C   UNK A   0     -10.467  13.850  68.694  1.00  0.00    -0.249 A  
HETATM   22  C   UNK A   0      -9.454  13.010  68.227  1.00  0.00    -0.208 A  
HETATM   23  C   UNK A   0      -9.562  11.624  68.407  1.00  0.00    -0.195 A  
BRANCH  21  24
HETATM   24  C   UNK A   0     -10.466  15.298  68.343  1.00  0.00    -0.236 C  
HETATM   25  O   UNK A   0     -11.492  15.954  68.213  1.00  0.00    -0.363 OA 
ATOM     26  N   GLU A   1      -9.210  15.858  68.210  1.00  0.00    -0.187 N  
ATOM     27  H   GLU A   1      -8.387  15.268  68.336  1.00  0.00     0.000 HD 
BRANCH  26  28
ATOM     28  CA  GLU A   1      -9.032  17.267  67.894  1.00  0.00    -0.235 C  
ATOM     29  C   GLU A   1      -8.830  17.418  66.382  1.00  0.00    -0.242 C  
ATOM     30  O   GLU A   1      -9.985  17.576  65.697  1.00  0.00    -0.561 OA 
ATOM     31  OXT GLU A   1      -7.732  17.387  65.827  1.00  0.00    -0.508 OA 
BRANCH  28  32
ATOM     32  CB  GLU A   1      -7.833  17.850  68.656  1.00  0.00    -0.294 C  
BRANCH  32  33
ATOM     33  CG  GLU A   1      -7.855  19.377  68.664  1.00  0.00    -0.399 C  
ATOM     34  CD  GLU A   1      -6.615  19.929  69.313  1.00  0.00    -0.342 C  
ATOM     35  OE1 GLU A   1      -5.613  20.175  68.443  1.00  0.00    -0.213 OA 
ATOM     36  OE2 GLU A   1      -6.506  20.107  70.517  1.00  0.00    -0.355 OA 
ENDBRANCH  32  33
ENDBRANCH  28  32
ENDBRANCH  26  28
ENDBRANCH  21  24
ENDBRANCH  17  18
ENDBRANCH  16  17
ENDBRANCH  15  16
TORSDOF 7
ENDMDL
MODEL      123
REMARK 921   NORMALIZED FREE ENERGY PREDICTED BY IDOCK:   -4.78 KCAL/MOL
REMARK 922        TOTAL FREE ENERGY PREDICTED BY IDOCK:   -9.39 KCAL/MOL
REMARK 923 INTER-LIGAND FREE ENERGY PREDICTED BY IDOCK:   -8.19 KCAL/MOL
REMARK 924 INTRA-LIGAND FREE ENERGY PREDICTED BY IDOCK:   -1.19 KCAL/MOL
REMARK 927      BINDING AFFINITY PREDICTED BY RF-SCORE:    0.00 PKD
ROOT
HETATM    1  N   UNK A   0     -13.323  16.290  73.838  1.00  0.00    -0.906 NA 
HETATM    2  H1  UNK A   0     -13.207  17.300  73.770  1.00  0.00     0.000 HD 
HETATM    3  C   UNK A   0     -13.142  15.494  72.752  1.00  0.00    -0.480 C  
HETATM    4  H2  UNK A   0     -13.577  15.871  74.733  1.00  0.00     0.000 HD 
HETATM    5  N   UNK A   0     -13.290  14.205  72.838  1.00  0.00    -0.520 N  
HETATM    6  H   UNK A   0     -13.562  13.779  73.724  1.00  0.00     0.000 HD 
HETATM    7  C   UNK A   0     -13.073  13.408  71.712  1.00  0.00    -0.388 C  
HETATM    8  C   UNK A   0     -12.640  14.115  70.504  1.00  0.00    -0.410 A  
HETATM    9  O   UNK A   0     -13.226  12.193  71.722  1.00  0.00    -0.448 OA 
HETATM   10  C   UNK A   0     -12.524  15.478  70.531  1.00  0.00    -0.427 A  
HETATM   11  N   UNK A   0     -12.082  15.938  69.335  1.00  0.00    -0.429 NA 
HETATM   12  N   UNK A   0     -12.792  16.196  71.629  1.00  0.00    -0.167 NA 
HETATM   13  H   UNK A   0     -11.911  16.914  69.093  1.00  0.00     0.000 HD 
HETATM   14  C   UNK A   0     -11.904  14.856  68.505  1.00  0.00    -0.294 A  
HETATM   15  C   UNK A   0     -12.241  13.698  69.198  1.00  0.00    -0.265 A  
ENDROOT
BRANCH  15  16
HETATM   16  C   UNK A   0     -12.134  12.299  68.680  1.00  0.00    -0.139 C  
BRANCH  16  17
HETATM   17  C   UNK A   0     -10.878  12.045  67.828  1.00  0.00    -0.256 C  
BRANCH  17  18
HETATM   18  C   UNK A   0     -10.014  10.909  68.348  1.00  0.00    -0.188 A  
HETATM   19  C   UNK A   0      -8.969  10.377  67.581  1.00  0.00    -0.139 A  
HETATM   20  C   UNK A   0      -8.263   9.256  68.016  1.00  0.00    -0.115 A  
HETATM   21  C   UNK A   0      -8.573   8.661  69.242  1.00  0.00    -0.131 A  
HETATM   22  C   UNK A   0      -9.523   9.255  70.076  1.00  0.00    -0.236 A  
HETATM   23  C   UNK A   0     -10.242  10.372  69.627  1.00  0.00    -0.245 A  
BRANCH  21  24
HETATM   24  C   UNK A   0      -7.942   7.366  69.621  1.00  0.00    -0.126 C  
HETATM   25  O   UNK A   0      -6.732   7.225  69.744  1.00  0.00    -0.043 OA 
ATOM     26  N   GLU A   1      -8.834   6.339  69.861  1.00  0.00    -0.140 N  
ATOM     27  H   GLU A   1      -9.833   6.513  69.751  1.00  0.00     0.000 HD 
BRANCH  26  28
ATOM     28  CA  GLU A   1      -8.384   5.016  70.266  1.00  0.00    -0.092 C  
ATOM     29  C   GLU A   1      -8.457   4.073  69.059  1.00  0.00    -0.077 C  
ATOM     30  O   GLU A   1      -7.326   4.056  68.319  1.00  0.00    -0.058 OA 
ATOM     31  OXT GLU A   1      -9.447   3.400  68.770  1.00  0.00    -0.166 OA 
BRANCH  28  32
ATOM     32  CB  GLU A   1      -9.240   4.477  71.420  1.00  0.00    -0.189 C  
BRANCH  32  33
ATOM     33  CG  GLU A   1     -10.535   5.270  71.583  1.00  0.00    -0.280 C  
ATOM     34  CD  GLU A   1     -10.968   5.303  73.023  1.00  0.00    -0.298 C  
ATOM     35  OE1 GLU A   1     -10.498   6.368  73.706  1.00  0.00    -0.273 OA 
ATOM     36  OE2 GLU A   1     -11.652   4.433  73.542  1.00  0.00    -0.268 OA 
ENDBRANCH  32  33
ENDBRANCH  28  32
ENDBRANCH  26  28
ENDBRANCH  21  24
ENDBRANCH  17  18
ENDBRANCH  16  17
ENDBRANCH  15  16
TORSDOF 7
ENDMDL
MODEL      124
REMARK 921   NORMALIZED FREE ENERGY PREDICTED BY IDOCK:   -4.78 KCAL/MOL
REMARK 922        TOTAL FREE ENERGY PREDICTED BY IDOCK:   -9.38 KCAL/MOL
REMARK 923 INTER-LIGAND FREE ENERGY PREDICTED BY IDOCK:   -8.38 KCAL/MOL
REMARK 924 INTRA-LIGAND FREE ENERGY PREDICTED BY IDOCK:   -1.00 KCAL/MOL
REMARK 927      BINDING AFFINITY PREDICTED BY RF-SCORE:    0.00 PKD
ROOT
HETATM    1  N   UNK A   0     -13.755  16.023  73.540  1.00  0.00    -0.818 NA 
HETATM    2  H1  UNK A   0     -13.715  17.035  73.426  1.00  0.00     0.000 HD 
HETATM    3  C   UNK A   0     -13.462  15.194  72.505  1.00  0.00    -0.464 C  
HETATM    4  H2  UNK A   0     -14.020  15.628  74.443  1.00  0.00     0.000 HD 
HETATM    5  N   UNK A   0     -13.513  13.902  72.651  1.00  0.00    -0.555 N  
HETATM    6  H   UNK A   0     -13.794  13.498  73.545  1.00  0.00     0.000 HD 
HETATM    7  C   UNK A   0     -13.182  13.072  71.578  1.00  0.00    -0.272 C  
HETATM    8  C   UNK A   0     -12.746  13.753  70.355  1.00  0.00    -0.245 A  
HETATM    9  O   UNK A   0     -13.241  11.851  71.644  1.00  0.00    -0.412 OA 
HETATM   10  C   UNK A   0     -12.738  15.121  70.318  1.00  0.00    -0.299 A  
HETATM   11  N   UNK A   0     -12.275  15.557  69.121  1.00  0.00    -0.598 NA 
HETATM   12  N   UNK A   0     -13.113  15.867  71.364  1.00  0.00    -0.423 NA 
HETATM   13  H   UNK A   0     -12.170  16.531  68.837  1.00  0.00     0.000 HD 
HETATM   14  C   UNK A   0     -11.975  14.455  68.356  1.00  0.00    -0.293 A  
HETATM   15  C   UNK A   0     -12.255  13.308  69.091  1.00  0.00    -0.168 A  
ENDROOT
BRANCH  15  16
HETATM   16  C   UNK A   0     -12.015  11.898  68.651  1.00  0.00    -0.291 C  
BRANCH  16  17
HETATM   17  C   UNK A   0     -10.819  11.225  69.345  1.00  0.00    -0.239 C  
BRANCH  17  18
HETATM   18  C   UNK A   0     -10.734   9.730  69.091  1.00  0.00    -0.242 A  
HETATM   19  C   UNK A   0     -10.758   8.807  70.145  1.00  0.00    -0.239 A  
HETATM   20  C   UNK A   0     -10.557   7.448  69.910  1.00  0.00    -0.245 A  
HETATM   21  C   UNK A   0     -10.353   6.982  68.608  1.00  0.00    -0.200 A  
HETATM   22  C   UNK A   0     -10.455   7.869  67.534  1.00  0.00    -0.332 A  
HETATM   23  C   UNK A   0     -10.640   9.238  67.777  1.00  0.00    -0.307 A  
BRANCH  21  24
HETATM   24  C   UNK A   0      -9.963   5.563  68.378  1.00  0.00    -0.159 C  
HETATM   25  O   UNK A   0     -10.258   4.657  69.148  1.00  0.00    -0.143 OA 
ATOM     26  N   GLU A   1      -9.271   5.338  67.205  1.00  0.00    -0.112 N  
ATOM     27  H   GLU A   1      -9.057   6.127  66.595  1.00  0.00     0.000 HD 
BRANCH  26  28
ATOM     28  CA  GLU A   1      -8.838   4.004  66.817  1.00  0.00    -0.122 C  
ATOM     29  C   GLU A   1      -7.361   3.830  67.191  1.00  0.00    -0.067 C  
ATOM     30  O   GLU A   1      -7.175   3.352  68.442  1.00  0.00    -0.050 OA 
ATOM     31  OXT GLU A   1      -6.424   4.106  66.443  1.00  0.00    -0.036 OA 
BRANCH  28  32
ATOM     32  CB  GLU A   1      -9.040   3.780  65.312  1.00  0.00    -0.143 C  
BRANCH  32  33
ATOM     33  CG  GLU A   1     -10.458   4.137  64.871  1.00  0.00    -0.193 C  
ATOM     34  CD  GLU A   1     -10.763   3.553  63.519  1.00  0.00    -0.249 C  
ATOM     35  OE1 GLU A   1     -11.332   2.330  63.573  1.00  0.00    -0.279 OA 
ATOM     36  OE2 GLU A   1     -10.493   4.111  62.466  1.00  0.00    -0.189 OA 
ENDBRANCH  32  33
ENDBRANCH  28  32
ENDBRANCH  26  28
ENDBRANCH  21  24
ENDBRANCH  17  18
ENDBRANCH  16  17
ENDBRANCH  15  16
TORSDOF 7
ENDMDL
MODEL      125
REMARK 921   NORMALIZED FREE ENERGY PREDICTED BY IDOCK:   -4.77 KCAL/MOL
REMARK 922        TOTAL FREE ENERGY PREDICTED BY IDOCK:   -9.37 KCAL/MOL
REMARK 923 INTER-LIGAND FREE ENERGY PREDICTED BY IDOCK:   -8.01 KCAL/MOL
REMARK 924 INTRA-LIGAND FREE ENERGY PREDICTED BY IDOCK:   -1.36 KCAL/MOL
REMARK 927      BINDING AFFINITY PREDICTED BY RF-SCORE:    0.00 PKD
ROOT
HETATM    1  N   UNK A   0      -6.417  20.051  69.658  1.00  0.00    -0.351 NA 
HETATM    2  H1  UNK A   0      -5.622  19.717  70.201  1.00  0.00     0.000 HD 
HETATM    3  C   UNK A   0      -7.108  19.209  68.847  1.00  0.00    -0.337 C  
HETATM    4  H2  UNK A   0      -6.697  21.030  69.724  1.00  0.00     0.000 HD 
HETATM    5  N   UNK A   0      -8.122  19.636  68.153  1.00  0.00    -0.315 N  
HETATM    6  H   UNK A   0      -8.398  20.617  68.198  1.00  0.00     0.000 HD 
HETATM    7  C   UNK A   0      -8.832  18.743  67.346  1.00  0.00    -0.270 C  
HETATM    8  C   UNK A   0      -8.382  17.349  67.389  1.00  0.00    -0.215 A  
HETATM    9  O   UNK A   0      -9.775  19.090  66.647  1.00  0.00    -0.309 OA 
HETATM   10  C   UNK A   0      -7.297  17.019  68.154  1.00  0.00    -0.192 A  
HETATM   11  N   UNK A   0      -7.061  15.685  68.089  1.00  0.00    -0.112 NA 
HETATM   12  N   UNK A   0      -6.625  17.928  68.871  1.00  0.00    -0.232 NA 
HETATM   13  H   UNK A   0      -6.313  15.184  68.566  1.00  0.00     0.000 HD 
HETATM   14  C   UNK A   0      -8.011  15.128  67.265  1.00  0.00    -0.205 A  
HETATM   15  C   UNK A   0      -8.855  16.134  66.807  1.00  0.00    -0.275 A  
ENDROOT
BRANCH  15  16
HETATM   16  C   UNK A   0     -10.056  15.947  65.935  1.00  0.00    -0.376 C  
BRANCH  16  17
HETATM   17  C   UNK A   0     -11.366  15.744  66.715  1.00  0.00     0.080 C  
BRANCH  17  18
HETATM   18  C   UNK A   0     -11.420  14.430  67.475  1.00  0.00    -0.370 A  
HETATM   19  C   UNK A   0     -11.339  13.199  66.813  1.00  0.00    -0.353 A  
HETATM   20  C   UNK A   0     -11.513  12.001  67.505  1.00  0.00    -0.403 A  
HETATM   21  C   UNK A   0     -11.748  12.014  68.883  1.00  0.00    -0.383 A  
HETATM   22  C   UNK A   0     -11.703  13.224  69.580  1.00  0.00    -0.384 A  
HETATM   23  C   UNK A   0     -11.545  14.426  68.876  1.00  0.00    -0.340 A  
BRANCH  21  24
HETATM   24  C   UNK A   0     -12.109  10.752  69.588  1.00  0.00    -0.289 C  
HETATM   25  O   UNK A   0     -13.249  10.494  69.952  1.00  0.00    -0.025 OA 
ATOM     26  N   GLU A   1     -11.059   9.873  69.770  1.00  0.00    -0.249 N  
ATOM     27  H   GLU A   1     -10.130  10.134  69.441  1.00  0.00     0.000 HD 
BRANCH  26  28
ATOM     28  CA  GLU A   1     -11.246   8.584  70.418  1.00  0.00    -0.211 C  
ATOM     29  C   GLU A   1     -11.148   8.770  71.937  1.00  0.00    -0.364 C  
ATOM     30  O   GLU A   1     -12.333   9.057  72.522  1.00  0.00    -0.320 OA 
ATOM     31  OXT GLU A   1     -10.099   8.685  72.575  1.00  0.00    -0.280 OA 
BRANCH  28  32
ATOM     32  CB  GLU A   1     -10.199   7.571  69.933  1.00  0.00    -0.210 C  
BRANCH  32  33
ATOM     33  CG  GLU A   1      -9.355   8.132  68.790  1.00  0.00    -0.143 C  
ATOM     34  CD  GLU A   1      -9.845   7.624  67.462  1.00  0.00    -0.165 C  
ATOM     35  OE1 GLU A   1     -10.760   8.427  66.878  1.00  0.00    -0.279 OA 
ATOM     36  OE2 GLU A   1      -9.481   6.567  66.967  1.00  0.00    -0.129 OA 
ENDBRANCH  32  33
ENDBRANCH  28  32
ENDBRANCH  26  28
ENDBRANCH  21  24
ENDBRANCH  17  18
ENDBRANCH  16  17
ENDBRANCH  15  16
TORSDOF 7
ENDMDL
MODEL      126
REMARK 921   NORMALIZED FREE ENERGY PREDICTED BY IDOCK:   -4.77 KCAL/MOL
REMARK 922        TOTAL FREE ENERGY PREDICTED BY IDOCK:   -9.37 KCAL/MOL
REMARK 923 INTER-LIGAND FREE ENERGY PREDICTED BY IDOCK:   -8.05 KCAL/MOL
REMARK 924 INTRA-LIGAND FREE ENERGY PREDICTED BY IDOCK:   -1.31 KCAL/MOL
REMARK 927      BINDING AFFINITY PREDICTED BY RF-SCORE:    0.00 PKD
ROOT
HETATM    1  N   UNK A   0      -9.418   2.125  62.550  1.00  0.00    -0.090 NA 
HETATM    2  H1  UNK A   0     -10.355   1.784  62.335  1.00  0.00     0.000 HD 
HETATM    3  C   UNK A   0      -9.227   3.093  63.482  1.00  0.00    -0.095 C  
HETATM    4  H2  UNK A   0      -8.615   1.733  62.058  1.00  0.00     0.000 HD 
HETATM    5  N   UNK A   0      -8.032   3.528  63.756  1.00  0.00    -0.084 N  
HETATM    6  H   UNK A   0      -7.225   3.155  63.256  1.00  0.00     0.000 HD 
HETATM    7  C   UNK A   0      -7.861   4.507  64.737  1.00  0.00    -0.086 C  
HETATM    8  C   UNK A   0      -9.080   4.939  65.427  1.00  0.00    -0.155 A  
HETATM    9  O   UNK A   0      -6.766   4.978  65.018  1.00  0.00    -0.046 OA 
HETATM   10  C   UNK A   0     -10.286   4.414  65.047  1.00  0.00    -0.145 A  
HETATM   11  N   UNK A   0     -11.281   4.911  65.821  1.00  0.00    -0.893 NA 
HETATM   12  N   UNK A   0     -10.395   3.512  64.065  1.00  0.00    -0.229 NA 
HETATM   13  H   UNK A   0     -12.272   4.681  65.746  1.00  0.00     0.000 HD 
HETATM   14  C   UNK A   0     -10.720   5.781  66.726  1.00  0.00    -0.297 A  
HETATM   15  C   UNK A   0      -9.346   5.827  66.513  1.00  0.00    -0.162 A  
ENDROOT
BRANCH  15  16
HETATM   16  C   UNK A   0      -8.355   6.604  67.319  1.00  0.00    -0.120 C  
BRANCH  16  17
HETATM   17  C   UNK A   0      -7.638   7.710  66.525  1.00  0.00    -0.096 C  
BRANCH  17  18
HETATM   18  C   UNK A   0      -8.469   8.971  66.357  1.00  0.00    -0.126 A  
HETATM   19  C   UNK A   0      -8.556   9.930  67.374  1.00  0.00    -0.125 A  
HETATM   20  C   UNK A   0      -9.417  11.020  67.257  1.00  0.00    -0.179 A  
HETATM   21  C   UNK A   0     -10.191  11.184  66.105  1.00  0.00    -0.293 A  
HETATM   22  C   UNK A   0     -10.022  10.309  65.029  1.00  0.00    -0.393 A  
HETATM   23  C   UNK A   0      -9.167   9.205  65.159  1.00  0.00    -0.218 A  
BRANCH  21  24
HETATM   24  C   UNK A   0     -11.236  12.245  66.056  1.00  0.00    -0.332 C  
HETATM   25  O   UNK A   0     -12.422  12.004  65.873  1.00  0.00    -0.337 OA 
ATOM     26  N   GLU A   1     -10.767  13.526  66.268  1.00  0.00    -0.286 N  
ATOM     27  H   GLU A   1      -9.768  13.671  66.422  1.00  0.00     0.000 HD 
BRANCH  26  28
ATOM     28  CA  GLU A   1     -11.660  14.675  66.277  1.00  0.00    -0.342 C  
ATOM     29  C   GLU A   1     -11.642  15.332  64.892  1.00  0.00    -0.289 C  
ATOM     30  O   GLU A   1     -12.565  14.824  64.043  1.00  0.00    -0.822 OA 
ATOM     31  OXT GLU A   1     -10.863  16.225  64.562  1.00  0.00    -0.668 OA 
BRANCH  28  32
ATOM     32  CB  GLU A   1     -11.240  15.685  67.354  1.00  0.00    -0.219 C  
BRANCH  32  33
ATOM     33  CG  GLU A   1      -9.807  15.446  67.827  1.00  0.00    -0.220 C  
ATOM     34  CD  GLU A   1      -8.945  16.649  67.555  1.00  0.00    -0.200 C  
ATOM     35  OE1 GLU A   1      -8.896  17.523  68.583  1.00  0.00    -0.276 OA 
ATOM     36  OE2 GLU A   1      -8.367  16.841  66.495  1.00  0.00    -0.229 OA 
ENDBRANCH  32  33
ENDBRANCH  28  32
ENDBRANCH  26  28
ENDBRANCH  21  24
ENDBRANCH  17  18
ENDBRANCH  16  17
ENDBRANCH  15  16
TORSDOF 7
ENDMDL
MODEL      127
REMARK 921   NORMALIZED FREE ENERGY PREDICTED BY IDOCK:   -4.77 KCAL/MOL
REMARK 922        TOTAL FREE ENERGY PREDICTED BY IDOCK:   -9.36 KCAL/MOL
REMARK 923 INTER-LIGAND FREE ENERGY PREDICTED BY IDOCK:   -8.63 KCAL/MOL
REMARK 924 INTRA-LIGAND FREE ENERGY PREDICTED BY IDOCK:   -0.73 KCAL/MOL
REMARK 927      BINDING AFFINITY PREDICTED BY RF-SCORE:    0.00 PKD
ROOT
HETATM    1  N   UNK A   0      -6.240  10.320  64.041  1.00  0.00    -0.225 NA 
HETATM    2  H1  UNK A   0      -6.179   9.585  63.337  1.00  0.00     0.000 HD 
HETATM    3  C   UNK A   0      -7.213  10.297  64.988  1.00  0.00    -0.111 C  
HETATM    4  H2  UNK A   0      -5.562  11.081  64.034  1.00  0.00     0.000 HD 
HETATM    5  N   UNK A   0      -7.291  11.234  65.886  1.00  0.00    -0.365 N  
HETATM    6  H   UNK A   0      -6.628  12.010  65.876  1.00  0.00     0.000 HD 
HETATM    7  C   UNK A   0      -8.286  11.174  66.865  1.00  0.00    -0.147 C  
HETATM    8  C   UNK A   0      -9.155   9.994  66.818  1.00  0.00    -0.159 A  
HETATM    9  O   UNK A   0      -8.430  12.041  67.717  1.00  0.00    -0.141 OA 
HETATM   10  C   UNK A   0      -8.982   9.074  65.820  1.00  0.00    -0.197 A  
HETATM   11  N   UNK A   0      -9.854   8.047  65.969  1.00  0.00    -0.449 NA 
HETATM   12  N   UNK A   0      -8.040   9.209  64.879  1.00  0.00    -0.126 NA 
HETATM   13  H   UNK A   0      -9.932   7.233  65.359  1.00  0.00     0.000 HD 
HETATM   14  C   UNK A   0     -10.616   8.298  67.085  1.00  0.00    -0.270 A  
HETATM   15  C   UNK A   0     -10.211   9.505  67.645  1.00  0.00    -0.273 A  
ENDROOT
BRANCH  15  16
HETATM   16  C   UNK A   0     -10.742  10.115  68.903  1.00  0.00    -0.249 C  
BRANCH  16  17
HETATM   17  C   UNK A   0     -11.997  10.981  68.693  1.00  0.00    -0.247 C  
BRANCH  17  18
HETATM   18  C   UNK A   0     -11.693  12.365  68.147  1.00  0.00    -0.408 A  
HETATM   19  C   UNK A   0     -11.763  12.641  66.775  1.00  0.00    -0.460 A  
HETATM   20  C   UNK A   0     -11.364  13.880  66.274  1.00  0.00    -0.329 A  
HETATM   21  C   UNK A   0     -10.910  14.876  67.142  1.00  0.00    -0.311 A  
HETATM   22  C   UNK A   0     -10.956  14.663  68.522  1.00  0.00    -0.261 A  
HETATM   23  C   UNK A   0     -11.342  13.410  69.020  1.00  0.00    -0.335 A  
BRANCH  21  24
HETATM   24  C   UNK A   0     -10.320  16.129  66.593  1.00  0.00    -0.296 C  
HETATM   25  O   UNK A   0     -10.205  16.342  65.393  1.00  0.00    -0.518 OA 
ATOM     26  N   GLU A   1      -9.942  17.054  67.546  1.00  0.00    -0.266 N  
ATOM     27  H   GLU A   1     -10.066  16.830  68.534  1.00  0.00     0.000 HD 
BRANCH  26  28
ATOM     28  CA  GLU A   1      -9.371  18.341  67.178  1.00  0.00    -0.264 C  
ATOM     29  C   GLU A   1     -10.461  19.203  66.530  1.00  0.00    -0.448 C  
ATOM     30  O   GLU A   1     -11.159  19.947  67.418  1.00  0.00    -0.269 OA 
ATOM     31  OXT GLU A   1     -10.701  19.218  65.323  1.00  0.00    -0.455 OA 
BRANCH  28  32
ATOM     32  CB  GLU A   1      -8.189  18.159  66.215  1.00  0.00    -0.243 C  
BRANCH  32  33
ATOM     33  CG  GLU A   1      -6.856  18.479  66.889  1.00  0.00    -0.210 C  
ATOM     34  CD  GLU A   1      -6.432  17.359  67.799  1.00  0.00    -0.150 C  
ATOM     35  OE1 GLU A   1      -5.648  16.440  67.197  1.00  0.00    -0.224 OA 
ATOM     36  OE2 GLU A   1      -6.787  17.265  68.965  1.00  0.00    -0.225 OA 
ENDBRANCH  32  33
ENDBRANCH  28  32
ENDBRANCH  26  28
ENDBRANCH  21  24
ENDBRANCH  17  18
ENDBRANCH  16  17
ENDBRANCH  15  16
TORSDOF 7
ENDMDL
MODEL      128
REMARK 921   NORMALIZED FREE ENERGY PREDICTED BY IDOCK:   -4.77 KCAL/MOL
REMARK 922        TOTAL FREE ENERGY PREDICTED BY IDOCK:   -9.36 KCAL/MOL
REMARK 923 INTER-LIGAND FREE ENERGY PREDICTED BY IDOCK:   -7.88 KCAL/MOL
REMARK 924 INTRA-LIGAND FREE ENERGY PREDICTED BY IDOCK:   -1.49 KCAL/MOL
REMARK 927      BINDING AFFINITY PREDICTED BY RF-SCORE:    0.00 PKD
ROOT
HETATM    1  N   UNK A   0      -7.926  15.382  69.843  1.00  0.00    -0.185 NA 
HETATM    2  H1  UNK A   0      -7.257  16.147  69.761  1.00  0.00     0.000 HD 
HETATM    3  C   UNK A   0      -8.888  15.197  68.903  1.00  0.00    -0.205 C  
HETATM    4  H2  UNK A   0      -7.871  14.748  70.640  1.00  0.00     0.000 HD 
HETATM    5  N   UNK A   0      -9.742  14.221  69.007  1.00  0.00    -0.397 N  
HETATM    6  H   UNK A   0      -9.707  13.593  69.810  1.00  0.00     0.000 HD 
HETATM    7  C   UNK A   0     -10.706  14.038  68.013  1.00  0.00    -0.246 C  
HETATM    8  C   UNK A   0     -10.639  14.966  66.881  1.00  0.00    -0.300 A  
HETATM    9  O   UNK A   0     -11.555  13.157  68.070  1.00  0.00    -0.291 OA 
HETATM   10  C   UNK A   0      -9.699  15.959  66.884  1.00  0.00    -0.230 A  
HETATM   11  N   UNK A   0      -9.776  16.686  65.742  1.00  0.00    -0.531 NA 
HETATM   12  N   UNK A   0      -8.829  16.117  67.889  1.00  0.00    -0.181 NA 
HETATM   13  H   UNK A   0      -9.189  17.483  65.497  1.00  0.00     0.000 HD 
HETATM   14  C   UNK A   0     -10.788  16.160  64.974  1.00  0.00    -0.363 A  
HETATM   15  C   UNK A   0     -11.353  15.084  65.649  1.00  0.00    -0.297 A  
ENDROOT
BRANCH  15  16
HETATM   16  C   UNK A   0     -12.443  14.196  65.138  1.00  0.00    -0.453 C  
BRANCH  16  17
HETATM   17  C   UNK A   0     -12.034  13.344  63.925  1.00  0.00    -0.520 C  
BRANCH  17  18
HETATM   18  C   UNK A   0     -11.165  12.152  64.287  1.00  0.00    -0.409 A  
HETATM   19  C   UNK A   0     -11.325  11.473  65.502  1.00  0.00    -0.151 A  
HETATM   20  C   UNK A   0     -10.443  10.461  65.876  1.00  0.00    -0.196 A  
HETATM   21  C   UNK A   0      -9.396  10.091  65.028  1.00  0.00    -0.314 A  
HETATM   22  C   UNK A   0      -9.299  10.667  63.760  1.00  0.00    -0.304 A  
HETATM   23  C   UNK A   0     -10.178  11.697  63.395  1.00  0.00    -0.471 A  
BRANCH  21  24
HETATM   24  C   UNK A   0      -8.354   9.138  65.504  1.00  0.00    -0.133 C  
HETATM   25  O   UNK A   0      -7.190   9.180  65.127  1.00  0.00    -0.087 OA 
ATOM     26  N   GLU A   1      -8.795   8.219  66.435  1.00  0.00    -0.143 N  
ATOM     27  H   GLU A   1      -9.775   8.232  66.720  1.00  0.00     0.000 HD 
BRANCH  26  28
ATOM     28  CA  GLU A   1      -7.899   7.233  67.020  1.00  0.00    -0.112 C  
ATOM     29  C   GLU A   1      -7.968   5.944  66.194  1.00  0.00    -0.106 C  
ATOM     30  O   GLU A   1      -7.081   5.910  65.174  1.00  0.00    -0.061 OA 
ATOM     31  OXT GLU A   1      -8.757   5.025  66.415  1.00  0.00    -0.114 OA 
BRANCH  28  32
ATOM     32  CB  GLU A   1      -8.274   6.954  68.482  1.00  0.00    -0.121 C  
BRANCH  32  33
ATOM     33  CG  GLU A   1      -9.488   7.770  68.922  1.00  0.00    -0.150 C  
ATOM     34  CD  GLU A   1     -10.503   6.896  69.608  1.00  0.00    -0.218 C  
ATOM     35  OE1 GLU A   1     -10.346   6.832  70.947  1.00  0.00    -0.198 OA 
ATOM     36  OE2 GLU A   1     -11.369   6.272  69.012  1.00  0.00    -0.390 OA 
ENDBRANCH  32  33
ENDBRANCH  28  32
ENDBRANCH  26  28
ENDBRANCH  21  24
ENDBRANCH  17  18
ENDBRANCH  16  17
ENDBRANCH  15  16
TORSDOF 7
ENDMDL
MODEL      129
REMARK 921   NORMALIZED FREE ENERGY PREDICTED BY IDOCK:   -4.75 KCAL/MOL
REMARK 922        TOTAL FREE ENERGY PREDICTED BY IDOCK:   -9.34 KCAL/MOL
REMARK 923 INTER-LIGAND FREE ENERGY PREDICTED BY IDOCK:   -8.31 KCAL/MOL
REMARK 924 INTRA-LIGAND FREE ENERGY PREDICTED BY IDOCK:   -1.03 KCAL/MOL
REMARK 927      BINDING AFFINITY PREDICTED BY RF-SCORE:    0.00 PKD
ROOT
HETATM    1  N   UNK A   0     -10.351   3.187  64.419  1.00  0.00    -0.397 NA 
HETATM    2  H1  UNK A   0      -9.733   2.875  63.671  1.00  0.00     0.000 HD 
HETATM    3  C   UNK A   0     -10.082   4.321  65.116  1.00  0.00    -0.207 C  
HETATM    4  H2  UNK A   0     -11.182   2.641  64.646  1.00  0.00     0.000 HD 
HETATM    5  N   UNK A   0     -10.871   4.719  66.071  1.00  0.00    -0.676 N  
HETATM    6  H   UNK A   0     -11.694   4.169  66.318  1.00  0.00     0.000 HD 
HETATM    7  C   UNK A   0     -10.584   5.902  66.756  1.00  0.00    -0.300 C  
HETATM    8  C   UNK A   0      -9.405   6.638  66.291  1.00  0.00    -0.144 A  
HETATM    9  O   UNK A   0     -11.271   6.312  67.683  1.00  0.00    -0.327 OA 
HETATM   10  C   UNK A   0      -8.646   6.117  65.279  1.00  0.00    -0.077 A  
HETATM   11  N   UNK A   0      -7.627   6.957  64.974  1.00  0.00    -0.096 NA 
HETATM   12  N   UNK A   0      -8.943   4.952  64.691  1.00  0.00    -0.142 NA 
HETATM   13  H   UNK A   0      -6.918   6.804  64.257  1.00  0.00     0.000 HD 
HETATM   14  C   UNK A   0      -7.718   8.051  65.801  1.00  0.00    -0.093 A  
HETATM   15  C   UNK A   0      -8.816   7.891  66.640  1.00  0.00    -0.166 A  
ENDROOT
BRANCH  15  16
HETATM   16  C   UNK A   0      -9.304   8.880  67.651  1.00  0.00    -0.156 C  
BRANCH  16  17
HETATM   17  C   UNK A   0     -10.585   9.620  67.229  1.00  0.00    -0.315 C  
BRANCH  17  18
HETATM   18  C   UNK A   0     -10.334  11.041  66.753  1.00  0.00    -0.284 A  
HETATM   19  C   UNK A   0      -9.123  11.695  67.013  1.00  0.00    -0.179 A  
HETATM   20  C   UNK A   0      -8.951  13.038  66.680  1.00  0.00    -0.132 A  
HETATM   21  C   UNK A   0      -9.982  13.746  66.057  1.00  0.00    -0.319 A  
HETATM   22  C   UNK A   0     -11.147  13.076  65.675  1.00  0.00    -0.301 A  
HETATM   23  C   UNK A   0     -11.322  11.730  66.027  1.00  0.00    -0.335 A  
BRANCH  21  24
HETATM   24  C   UNK A   0      -9.863  15.218  65.864  1.00  0.00    -0.354 C  
HETATM   25  O   UNK A   0     -10.534  15.841  65.050  1.00  0.00    -0.462 OA 
ATOM     26  N   GLU A   1      -8.958  15.839  66.703  1.00  0.00    -0.253 N  
ATOM     27  H   GLU A   1      -8.430  15.274  67.369  1.00  0.00     0.000 HD 
BRANCH  26  28
ATOM     28  CA  GLU A   1      -8.740  17.276  66.662  1.00  0.00    -0.257 C  
ATOM     29  C   GLU A   1      -7.235  17.549  66.555  1.00  0.00    -0.263 C  
ATOM     30  O   GLU A   1      -6.787  17.606  65.280  1.00  0.00    -0.135 OA 
ATOM     31  OXT GLU A   1      -6.489  17.691  67.524  1.00  0.00    -0.156 OA 
BRANCH  28  32
ATOM     32  CB  GLU A   1      -9.319  17.953  67.913  1.00  0.00    -0.271 C  
BRANCH  32  33
ATOM     33  CG  GLU A   1     -10.615  18.700  67.603  1.00  0.00    -0.458 C  
ATOM     34  CD  GLU A   1     -10.333  19.991  66.886  1.00  0.00    -0.436 C  
ATOM     35  OE1 GLU A   1     -10.345  19.877  65.541  1.00  0.00    -0.399 OA 
ATOM     36  OE2 GLU A   1     -10.081  21.041  67.459  1.00  0.00    -0.221 OA 
ENDBRANCH  32  33
ENDBRANCH  28  32
ENDBRANCH  26  28
ENDBRANCH  21  24
ENDBRANCH  17  18
ENDBRANCH  16  17
ENDBRANCH  15  16
TORSDOF 7
ENDMDL
MODEL      130
REMARK 921   NORMALIZED FREE ENERGY PREDICTED BY IDOCK:   -4.75 KCAL/MOL
REMARK 922        TOTAL FREE ENERGY PREDICTED BY IDOCK:   -9.33 KCAL/MOL
REMARK 923 INTER-LIGAND FREE ENERGY PREDICTED BY IDOCK:   -8.16 KCAL/MOL
REMARK 924 INTRA-LIGAND FREE ENERGY PREDICTED BY IDOCK:   -1.17 KCAL/MOL
REMARK 927      BINDING AFFINITY PREDICTED BY RF-SCORE:    0.00 PKD
ROOT
HETATM    1  N   UNK A   0     -12.993  16.252  74.019  1.00  0.00    -0.896 NA 
HETATM    2  H1  UNK A   0     -13.505  15.735  74.733  1.00  0.00     0.000 HD 
HETATM    3  C   UNK A   0     -12.567  15.635  72.886  1.00  0.00    -0.446 C  
HETATM    4  H2  UNK A   0     -12.800  17.244  74.156  1.00  0.00     0.000 HD 
HETATM    5  N   UNK A   0     -11.914  16.294  71.975  1.00  0.00    -0.609 N  
HETATM    6  H   UNK A   0     -11.700  17.282  72.111  1.00  0.00     0.000 HD 
HETATM    7  C   UNK A   0     -11.508  15.643  70.808  1.00  0.00    -0.379 C  
HETATM    8  C   UNK A   0     -11.908  14.237  70.690  1.00  0.00    -0.349 A  
HETATM    9  O   UNK A   0     -10.865  16.200  69.928  1.00  0.00    -0.313 OA 
HETATM   10  C   UNK A   0     -12.590  13.647  71.720  1.00  0.00    -0.198 A  
HETATM   11  N   UNK A   0     -12.896  12.364  71.408  1.00  0.00    -0.330 NA 
HETATM   12  N   UNK A   0     -12.910  14.310  72.838  1.00  0.00    -0.420 NA 
HETATM   13  H   UNK A   0     -13.401  11.706  72.002  1.00  0.00     0.000 HD 
HETATM   14  C   UNK A   0     -12.406  12.105  70.150  1.00  0.00    -0.145 A  
HETATM   15  C   UNK A   0     -11.781  13.250  69.667  1.00  0.00    -0.369 A  
ENDROOT
BRANCH  15  16
HETATM   16  C   UNK A   0     -11.167  13.414  68.313  1.00  0.00    -0.310 C  
BRANCH  16  17
HETATM   17  C   UNK A   0      -9.790  12.743  68.169  1.00  0.00    -0.226 C  
BRANCH  17  18
HETATM   18  C   UNK A   0      -9.826  11.238  68.371  1.00  0.00    -0.200 A  
HETATM   19  C   UNK A   0     -10.388  10.385  67.412  1.00  0.00    -0.275 A  
HETATM   20  C   UNK A   0     -10.526   9.020  67.663  1.00  0.00    -0.324 A  
HETATM   21  C   UNK A   0     -10.080   8.478  68.871  1.00  0.00    -0.213 A  
HETATM   22  C   UNK A   0      -9.401   9.290  69.783  1.00  0.00    -0.199 A  
HETATM   23  C   UNK A   0      -9.280  10.665  69.534  1.00  0.00     0.008 A  
BRANCH  21  24
HETATM   24  C   UNK A   0     -10.387   7.060  69.209  1.00  0.00    -0.200 C  
HETATM   25  O   UNK A   0     -11.447   6.709  69.712  1.00  0.00    -0.351 OA 
ATOM     26  N   GLU A   1      -9.394   6.160  68.877  1.00  0.00    -0.124 N  
ATOM     27  H   GLU A   1      -8.532   6.505  68.453  1.00  0.00     0.000 HD 
BRANCH  26  28
ATOM     28  CA  GLU A   1      -9.545   4.733  69.117  1.00  0.00    -0.167 C  
ATOM     29  C   GLU A   1      -8.529   4.295  70.178  1.00  0.00    -0.065 C  
ATOM     30  O   GLU A   1      -8.995   4.395  71.443  1.00  0.00    -0.116 OA 
ATOM     31  OXT GLU A   1      -7.391   3.903  69.922  1.00  0.00    -0.045 OA 
BRANCH  28  32
ATOM     32  CB  GLU A   1      -9.342   3.937  67.820  1.00  0.00    -0.230 C  
BRANCH  32  33
ATOM     33  CG  GLU A   1     -10.157   4.517  66.666  1.00  0.00    -0.238 C  
ATOM     34  CD  GLU A   1      -9.257   5.119  65.622  1.00  0.00    -0.151 C  
ATOM     35  OE1 GLU A   1      -8.910   4.256  64.644  1.00  0.00    -0.129 OA 
ATOM     36  OE2 GLU A   1      -8.846   6.269  65.666  1.00  0.00    -0.147 OA 
ENDBRANCH  32  33
ENDBRANCH  28  32
ENDBRANCH  26  28
ENDBRANCH  21  24
ENDBRANCH  17  18
ENDBRANCH  16  17
ENDBRANCH  15  16
TORSDOF 7
ENDMDL
MODEL      131
REMARK 921   NORMALIZED FREE ENERGY PREDICTED BY IDOCK:   -4.74 KCAL/MOL
REMARK 922        TOTAL FREE ENERGY PREDICTED BY IDOCK:   -9.33 KCAL/MOL
REMARK 923 INTER-LIGAND FREE ENERGY PREDICTED BY IDOCK:   -7.58 KCAL/MOL
REMARK 924 INTRA-LIGAND FREE ENERGY PREDICTED BY IDOCK:   -1.75 KCAL/MOL
REMARK 927      BINDING AFFINITY PREDICTED BY RF-SCORE:    0.00 PKD
ROOT
HETATM    1  N   UNK A   0      -6.127   9.834  63.955  1.00  0.00    -0.107 NA 
HETATM    2  H1  UNK A   0      -6.198   9.091  63.260  1.00  0.00     0.000 HD 
HETATM    3  C   UNK A   0      -7.062   9.966  64.930  1.00  0.00    -0.132 C  
HETATM    4  H2  UNK A   0      -5.343  10.486  63.916  1.00  0.00     0.000 HD 
HETATM    5  N   UNK A   0      -6.971  10.913  65.816  1.00  0.00    -0.341 N  
HETATM    6  H   UNK A   0      -6.201  11.581  65.775  1.00  0.00     0.000 HD 
HETATM    7  C   UNK A   0      -7.933  11.012  66.825  1.00  0.00    -0.152 C  
HETATM    8  C   UNK A   0      -8.969   9.975  66.821  1.00  0.00    -0.151 A  
HETATM    9  O   UNK A   0      -7.918  11.899  67.668  1.00  0.00    -0.129 OA 
HETATM   10  C   UNK A   0      -8.966   9.029  65.832  1.00  0.00    -0.190 A  
HETATM   11  N   UNK A   0      -9.976   8.146  66.021  1.00  0.00    -0.426 NA 
HETATM   12  N   UNK A   0      -8.044   9.013  64.861  1.00  0.00    -0.129 NA 
HETATM   13  H   UNK A   0     -10.194   7.346  65.427  1.00  0.00     0.000 HD 
HETATM   14  C   UNK A   0     -10.657   8.519  67.156  1.00  0.00    -0.243 A  
HETATM   15  C   UNK A   0     -10.059   9.657  67.686  1.00  0.00    -0.241 A  
ENDROOT
BRANCH  15  16
HETATM   16  C   UNK A   0     -10.454  10.353  68.950  1.00  0.00    -0.232 C  
BRANCH  16  17
HETATM   17  C   UNK A   0     -11.556  11.408  68.761  1.00  0.00    -0.378 C  
BRANCH  17  18
HETATM   18  C   UNK A   0     -11.049  12.717  68.180  1.00  0.00    -0.285 A  
HETATM   19  C   UNK A   0     -11.189  13.014  66.818  1.00  0.00    -0.333 A  
HETATM   20  C   UNK A   0     -10.612  14.161  66.274  1.00  0.00    -0.284 A  
HETATM   21  C   UNK A   0      -9.903  15.046  67.090  1.00  0.00    -0.233 A  
HETATM   22  C   UNK A   0      -9.864  14.833  68.470  1.00  0.00    -0.218 A  
HETATM   23  C   UNK A   0     -10.431  13.669  69.010  1.00  0.00    -0.099 A  
BRANCH  21  24
HETATM   24  C   UNK A   0      -9.140  16.172  66.481  1.00  0.00    -0.277 C  
HETATM   25  O   UNK A   0      -9.320  16.554  65.332  1.00  0.00    -0.371 OA 
ATOM     26  N   GLU A   1      -8.233  16.778  67.327  1.00  0.00    -0.171 N  
ATOM     27  H   GLU A   1      -8.126  16.424  68.278  1.00  0.00     0.000 HD 
BRANCH  26  28
ATOM     28  CA  GLU A   1      -7.424  17.909  66.896  1.00  0.00    -0.200 C  
ATOM     29  C   GLU A   1      -5.962  17.649  67.276  1.00  0.00    -0.139 C  
ATOM     30  O   GLU A   1      -5.266  16.993  66.320  1.00  0.00    -0.349 OA 
ATOM     31  OXT GLU A   1      -5.457  17.986  68.347  1.00  0.00    -0.157 OA 
BRANCH  28  32
ATOM     32  CB  GLU A   1      -7.921  19.211  67.539  1.00  0.00    -0.284 C  
BRANCH  32  33
ATOM     33  CG  GLU A   1      -9.175  19.742  66.846  1.00  0.00    -0.453 C  
ATOM     34  CD  GLU A   1     -10.403  19.460  67.668  1.00  0.00    -0.437 C  
ATOM     35  OE1 GLU A   1     -10.726  20.457  68.518  1.00  0.00    -0.092 OA 
ATOM     36  OE2 GLU A   1     -11.033  18.415  67.604  1.00  0.00    -0.346 OA 
ENDBRANCH  32  33
ENDBRANCH  28  32
ENDBRANCH  26  28
ENDBRANCH  21  24
ENDBRANCH  17  18
ENDBRANCH  16  17
ENDBRANCH  15  16
TORSDOF 7
ENDMDL
MODEL      132
REMARK 921   NORMALIZED FREE ENERGY PREDICTED BY IDOCK:   -4.73 KCAL/MOL
REMARK 922        TOTAL FREE ENERGY PREDICTED BY IDOCK:   -9.30 KCAL/MOL
REMARK 923 INTER-LIGAND FREE ENERGY PREDICTED BY IDOCK:   -7.89 KCAL/MOL
REMARK 924 INTRA-LIGAND FREE ENERGY PREDICTED BY IDOCK:   -1.41 KCAL/MOL
REMARK 927      BINDING AFFINITY PREDICTED BY RF-SCORE:    0.00 PKD
ROOT
HETATM    1  N   UNK A   0     -11.608  15.967  71.878  1.00  0.00    -0.453 NA 
HETATM    2  H1  UNK A   0     -11.232  16.804  72.322  1.00  0.00     0.000 HD 
HETATM    3  C   UNK A   0     -11.560  15.813  70.530  1.00  0.00    -0.375 C  
HETATM    4  H2  UNK A   0     -12.026  15.236  72.454  1.00  0.00     0.000 HD 
HETATM    5  N   UNK A   0     -12.040  14.745  69.964  1.00  0.00    -0.310 N  
HETATM    6  H   UNK A   0     -12.476  14.017  70.530  1.00  0.00     0.000 HD 
HETATM    7  C   UNK A   0     -11.956  14.599  68.577  1.00  0.00    -0.263 C  
HETATM    8  C   UNK A   0     -11.269  15.680  67.864  1.00  0.00    -0.328 A  
HETATM    9  O   UNK A   0     -12.416  13.633  67.984  1.00  0.00    -0.085 OA 
HETATM   10  C   UNK A   0     -10.809  16.760  68.567  1.00  0.00    -0.345 A  
HETATM   11  N   UNK A   0     -10.178  17.628  67.739  1.00  0.00    -0.337 NA 
HETATM   12  N   UNK A   0     -10.962  16.867  69.893  1.00  0.00    -0.079 NA 
HETATM   13  H   UNK A   0      -9.746  18.511  68.012  1.00  0.00     0.000 HD 
HETATM   14  C   UNK A   0     -10.225  17.109  66.467  1.00  0.00    -0.322 A  
HETATM   15  C   UNK A   0     -10.898  15.893  66.502  1.00  0.00    -0.198 A  
ENDROOT
BRANCH  15  16
HETATM   16  C   UNK A   0     -11.117  14.973  65.342  1.00  0.00    -0.377 C  
BRANCH  16  17
HETATM   17  C   UNK A   0      -9.964  13.982  65.108  1.00  0.00    -0.257 C  
BRANCH  17  18
HETATM   18  C   UNK A   0     -10.046  12.741  65.981  1.00  0.00    -0.277 A  
HETATM   19  C   UNK A   0     -10.967  11.720  65.715  1.00  0.00    -0.353 A  
HETATM   20  C   UNK A   0     -11.116  10.646  66.592  1.00  0.00    -0.053 A  
HETATM   21  C   UNK A   0     -10.326  10.562  67.741  1.00  0.00    -0.248 A  
HETATM   22  C   UNK A   0      -9.315  11.501  67.954  1.00  0.00    -0.171 A  
HETATM   23  C   UNK A   0      -9.180  12.589  67.079  1.00  0.00    -0.214 A  
BRANCH  21  24
HETATM   24  C   UNK A   0     -10.608   9.514  68.762  1.00  0.00    -0.214 C  
HETATM   25  O   UNK A   0      -9.994   8.456  68.820  1.00  0.00    -0.176 OA 
ATOM     26  N   GLU A   1     -11.597   9.843  69.668  1.00  0.00    -0.443 N  
ATOM     27  H   GLU A   1     -12.073  10.742  69.580  1.00  0.00     0.000 HD 
BRANCH  26  28
ATOM     28  CA  GLU A   1     -11.977   8.942  70.745  1.00  0.00    -0.148 C  
ATOM     29  C   GLU A   1     -13.369   9.334  71.255  1.00  0.00    -0.258 C  
ATOM     30  O   GLU A   1     -14.376   8.715  70.598  1.00  0.00     0.215 OA 
ATOM     31  OXT GLU A   1     -13.569  10.140  72.163  1.00  0.00    -0.368 OA 
BRANCH  28  32
ATOM     32  CB  GLU A   1     -10.954   8.995  71.888  1.00  0.00    -0.423 C  
BRANCH  32  33
ATOM     33  CG  GLU A   1     -10.810   7.642  72.583  1.00  0.00    -0.395 C  
ATOM     34  CD  GLU A   1     -10.455   6.565  71.594  1.00  0.00    -0.213 C  
ATOM     35  OE1 GLU A   1      -9.126   6.378  71.452  1.00  0.00    -0.145 OA 
ATOM     36  OE2 GLU A   1     -11.284   5.940  70.950  1.00  0.00    -0.280 OA 
ENDBRANCH  32  33
ENDBRANCH  28  32
ENDBRANCH  26  28
ENDBRANCH  21  24
ENDBRANCH  17  18
ENDBRANCH  16  17
ENDBRANCH  15  16
TORSDOF 7
ENDMDL
MODEL      133
REMARK 921   NORMALIZED FREE ENERGY PREDICTED BY IDOCK:   -4.69 KCAL/MOL
REMARK 922        TOTAL FREE ENERGY PREDICTED BY IDOCK:   -9.25 KCAL/MOL
REMARK 923 INTER-LIGAND FREE ENERGY PREDICTED BY IDOCK:   -7.59 KCAL/MOL
REMARK 924 INTRA-LIGAND FREE ENERGY PREDICTED BY IDOCK:   -1.67 KCAL/MOL
REMARK 927      BINDING AFFINITY PREDICTED BY RF-SCORE:    0.00 PKD
ROOT
HETATM    1  N   UNK A   0      -8.549   6.803  64.484  1.00  0.00    -0.336 NA 
HETATM    2  H1  UNK A   0      -9.299   6.403  63.922  1.00  0.00     0.000 HD 
HETATM    3  C   UNK A   0      -8.499   6.600  65.825  1.00  0.00    -0.148 C  
HETATM    4  H2  UNK A   0      -7.826   7.364  64.032  1.00  0.00     0.000 HD 
HETATM    5  N   UNK A   0      -7.542   7.111  66.542  1.00  0.00    -0.090 N  
HETATM    6  H   UNK A   0      -6.824   7.688  66.102  1.00  0.00     0.000 HD 
HETATM    7  C   UNK A   0      -7.500   6.865  67.916  1.00  0.00    -0.099 C  
HETATM    8  C   UNK A   0      -8.550   5.986  68.439  1.00  0.00    -0.111 A  
HETATM    9  O   UNK A   0      -6.643   7.343  68.648  1.00  0.00    -0.042 OA 
HETATM   10  C   UNK A   0      -9.511   5.511  67.588  1.00  0.00    -0.118 A  
HETATM   11  N   UNK A   0     -10.366   4.694  68.250  1.00  0.00     0.079 NA 
HETATM   12  N   UNK A   0      -9.527   5.820  66.285  1.00  0.00    -0.158 NA 
HETATM   13  H   UNK A   0     -11.169   4.212  67.847  1.00  0.00     0.000 HD 
HETATM   14  C   UNK A   0      -9.960   4.631  69.562  1.00  0.00    -0.196 A  
HETATM   15  C   UNK A   0      -8.829   5.425  69.722  1.00  0.00    -0.124 A  
ENDROOT
BRANCH  15  16
HETATM   16  C   UNK A   0      -8.036   5.587  70.980  1.00  0.00    -0.118 C  
BRANCH  16  17
HETATM   17  C   UNK A   0      -8.797   6.308  72.106  1.00  0.00    -0.137 C  
BRANCH  17  18
HETATM   18  C   UNK A   0      -9.529   7.555  71.640  1.00  0.00    -0.170 A  
HETATM   19  C   UNK A   0     -10.911   7.698  71.812  1.00  0.00    -0.276 A  
HETATM   20  C   UNK A   0     -11.589   8.790  71.272  1.00  0.00    -0.353 A  
HETATM   21  C   UNK A   0     -10.890   9.775  70.570  1.00  0.00    -0.387 A  
HETATM   22  C   UNK A   0      -9.496   9.715  70.501  1.00  0.00    -0.243 A  
HETATM   23  C   UNK A   0      -8.821   8.606  71.030  1.00  0.00    -0.235 A  
BRANCH  21  24
HETATM   24  C   UNK A   0     -11.634  10.843  69.845  1.00  0.00    -0.331 C  
HETATM   25  O   UNK A   0     -12.845  10.810  69.670  1.00  0.00    -0.193 OA 
ATOM     26  N   GLU A   1     -10.855  11.899  69.414  1.00  0.00    -0.448 N  
ATOM     27  H   GLU A   1      -9.850  11.880  69.593  1.00  0.00     0.000 HD 
BRANCH  26  28
ATOM     28  CA  GLU A   1     -11.429  13.036  68.712  1.00  0.00    -0.298 C  
ATOM     29  C   GLU A   1     -11.112  12.912  67.217  1.00  0.00    -0.274 C  
ATOM     30  O   GLU A   1     -12.044  12.218  66.525  1.00  0.00    -0.616 OA 
ATOM     31  OXT GLU A   1     -10.106  13.379  66.685  1.00  0.00    -0.263 OA 
BRANCH  28  32
ATOM     32  CB  GLU A   1     -10.878  14.356  69.269  1.00  0.00    -0.261 C  
BRANCH  32  33
ATOM     33  CG  GLU A   1     -11.974  15.412  69.411  1.00  0.00    -0.351 C  
ATOM     34  CD  GLU A   1     -12.595  15.359  70.780  1.00  0.00    -0.442 C  
ATOM     35  OE1 GLU A   1     -12.004  16.179  71.675  1.00  0.00    -0.465 OA 
ATOM     36  OE2 GLU A   1     -13.525  14.621  71.071  1.00  0.00    -0.380 OA 
ENDBRANCH  32  33
ENDBRANCH  28  32
ENDBRANCH  26  28
ENDBRANCH  21  24
ENDBRANCH  17  18
ENDBRANCH  16  17
ENDBRANCH  15  16
TORSDOF 7
ENDMDL
MODEL      134
REMARK 921   NORMALIZED FREE ENERGY PREDICTED BY IDOCK:   -4.69 KCAL/MOL
REMARK 922        TOTAL FREE ENERGY PREDICTED BY IDOCK:   -9.25 KCAL/MOL
REMARK 923 INTER-LIGAND FREE ENERGY PREDICTED BY IDOCK:   -8.23 KCAL/MOL
REMARK 924 INTRA-LIGAND FREE ENERGY PREDICTED BY IDOCK:   -1.02 KCAL/MOL
REMARK 927      BINDING AFFINITY PREDICTED BY RF-SCORE:    0.00 PKD
ROOT
HETATM    1  N   UNK A   0      -9.245   4.876  72.808  1.00  0.00    -0.132 NA 
HETATM    2  H1  UNK A   0      -8.320   4.844  73.234  1.00  0.00     0.000 HD 
HETATM    3  C   UNK A   0      -9.483   5.654  71.721  1.00  0.00    -0.149 C  
HETATM    4  H2  UNK A   0     -10.001   4.317  73.203  1.00  0.00     0.000 HD 
HETATM    5  N   UNK A   0     -10.664   5.696  71.177  1.00  0.00    -0.254 N  
HETATM    6  H   UNK A   0     -11.431   5.154  71.576  1.00  0.00     0.000 HD 
HETATM    7  C   UNK A   0     -10.876   6.485  70.044  1.00  0.00    -0.287 C  
HETATM    8  C   UNK A   0      -9.697   7.185  69.525  1.00  0.00    -0.157 A  
HETATM    9  O   UNK A   0     -11.970   6.589  69.506  1.00  0.00    -0.150 OA 
HETATM   10  C   UNK A   0      -8.505   7.070  70.187  1.00  0.00    -0.139 A  
HETATM   11  N   UNK A   0      -7.536   7.759  69.536  1.00  0.00    -0.092 NA 
HETATM   12  N   UNK A   0      -8.372   6.336  71.298  1.00  0.00    -0.123 NA 
HETATM   13  H   UNK A   0      -6.559   7.834  69.820  1.00  0.00     0.000 HD 
HETATM   14  C   UNK A   0      -8.102   8.338  68.425  1.00  0.00    -0.127 A  
HETATM   15  C   UNK A   0      -9.451   8.003  68.381  1.00  0.00    -0.148 A  
ENDROOT
BRANCH  15  16
HETATM   16  C   UNK A   0     -10.419   8.380  67.304  1.00  0.00    -0.373 C  
BRANCH  16  17
HETATM   17  C   UNK A   0      -9.757   9.009  66.066  1.00  0.00    -0.339 C  
BRANCH  17  18
HETATM   18  C   UNK A   0     -10.032  10.496  65.922  1.00  0.00    -0.313 A  
HETATM   19  C   UNK A   0     -10.204  11.089  64.665  1.00  0.00    -0.392 A  
HETATM   20  C   UNK A   0     -10.334  12.471  64.538  1.00  0.00    -0.362 A  
HETATM   21  C   UNK A   0     -10.319  13.286  65.673  1.00  0.00    -0.292 A  
HETATM   22  C   UNK A   0     -10.278  12.702  66.941  1.00  0.00    -0.242 A  
HETATM   23  C   UNK A   0     -10.131  11.313  67.063  1.00  0.00    -0.238 A  
BRANCH  21  24
HETATM   24  C   UNK A   0     -10.279  14.768  65.525  1.00  0.00    -0.374 C  
HETATM   25  O   UNK A   0     -10.898  15.368  64.656  1.00  0.00    -0.387 OA 
ATOM     26  N   GLU A   1      -9.513  15.421  66.470  1.00  0.00    -0.252 N  
ATOM     27  H   GLU A   1      -9.022  14.873  67.177  1.00  0.00     0.000 HD 
BRANCH  26  28
ATOM     28  CA  GLU A   1      -9.388  16.870  66.483  1.00  0.00    -0.270 C  
ATOM     29  C   GLU A   1      -7.923  17.242  66.742  1.00  0.00    -0.241 C  
ATOM     30  O   GLU A   1      -7.186  17.349  65.613  1.00  0.00    -0.343 OA 
ATOM     31  OXT GLU A   1      -7.444  17.417  67.863  1.00  0.00    -0.184 OA 
BRANCH  28  32
ATOM     32  CB  GLU A   1     -10.295  17.488  67.556  1.00  0.00    -0.356 C  
BRANCH  32  33
ATOM     33  CG  GLU A   1     -10.715  18.911  67.193  1.00  0.00    -0.506 C  
ATOM     34  CD  GLU A   1      -9.996  19.918  68.049  1.00  0.00    -0.429 C  
ATOM     35  OE1 GLU A   1      -8.843  20.363  67.507  1.00  0.00    -0.330 OA 
ATOM     36  OE2 GLU A   1     -10.395  20.277  69.146  1.00  0.00    -0.253 OA 
ENDBRANCH  32  33
ENDBRANCH  28  32
ENDBRANCH  26  28
ENDBRANCH  21  24
ENDBRANCH  17  18
ENDBRANCH  16  17
ENDBRANCH  15  16
TORSDOF 7
ENDMDL
MODEL      135
REMARK 921   NORMALIZED FREE ENERGY PREDICTED BY IDOCK:   -4.69 KCAL/MOL
REMARK 922        TOTAL FREE ENERGY PREDICTED BY IDOCK:   -9.25 KCAL/MOL
REMARK 923 INTER-LIGAND FREE ENERGY PREDICTED BY IDOCK:   -8.44 KCAL/MOL
REMARK 924 INTRA-LIGAND FREE ENERGY PREDICTED BY IDOCK:   -0.81 KCAL/MOL
REMARK 927      BINDING AFFINITY PREDICTED BY RF-SCORE:    0.00 PKD
ROOT
HETATM    1  N   UNK A   0     -11.234   4.014  64.323  1.00  0.00    -0.712 NA 
HETATM    2  H1  UNK A   0     -10.762   3.282  63.794  1.00  0.00     0.000 HD 
HETATM    3  C   UNK A   0     -10.645   4.578  65.408  1.00  0.00    -0.162 C  
HETATM    4  H2  UNK A   0     -12.161   4.326  64.034  1.00  0.00     0.000 HD 
HETATM    5  N   UNK A   0     -11.248   5.512  66.084  1.00  0.00    -0.761 N  
HETATM    6  H   UNK A   0     -12.183   5.817  65.813  1.00  0.00     0.000 HD 
HETATM    7  C   UNK A   0     -10.609   6.093  67.182  1.00  0.00    -0.305 C  
HETATM    8  C   UNK A   0      -9.251   5.615  67.456  1.00  0.00    -0.109 A  
HETATM    9  O   UNK A   0     -11.137   6.954  67.875  1.00  0.00    -0.199 OA 
HETATM   10  C   UNK A   0      -8.721   4.622  66.678  1.00  0.00    -0.111 A  
HETATM   11  N   UNK A   0      -7.453   4.344  67.067  1.00  0.00    -0.080 NA 
HETATM   12  N   UNK A   0      -9.400   4.067  65.667  1.00  0.00    -0.149 NA 
HETATM   13  H   UNK A   0      -6.837   3.645  66.651  1.00  0.00     0.000 HD 
HETATM   14  C   UNK A   0      -7.143   5.171  68.121  1.00  0.00    -0.062 A  
HETATM   15  C   UNK A   0      -8.240   5.980  68.395  1.00  0.00    -0.110 A  
ENDROOT
BRANCH  15  16
HETATM   16  C   UNK A   0      -8.302   7.061  69.428  1.00  0.00    -0.133 C  
BRANCH  16  17
HETATM   17  C   UNK A   0      -7.545   8.341  69.035  1.00  0.00    -0.089 C  
BRANCH  17  18
HETATM   18  C   UNK A   0      -8.422   9.380  68.359  1.00  0.00    -0.120 A  
HETATM   19  C   UNK A   0      -8.198   9.776  67.034  1.00  0.00    -0.117 A  
HETATM   20  C   UNK A   0      -8.931  10.817  66.466  1.00  0.00    -0.168 A  
HETATM   21  C   UNK A   0      -9.922  11.466  67.207  1.00  0.00    -0.217 A  
HETATM   22  C   UNK A   0     -10.247  10.999  68.482  1.00  0.00    -0.203 A  
HETATM   23  C   UNK A   0      -9.495   9.964  69.056  1.00  0.00    -0.185 A  
BRANCH  21  24
HETATM   24  C   UNK A   0     -10.578  12.688  66.662  1.00  0.00    -0.248 C  
HETATM   25  O   UNK A   0     -11.619  13.145  67.118  1.00  0.00    -0.321 OA 
ATOM     26  N   GLU A   1      -9.902  13.290  65.620  1.00  0.00    -0.446 N  
ATOM     27  H   GLU A   1      -9.035  12.871  65.282  1.00  0.00     0.000 HD 
BRANCH  26  28
ATOM     28  CA  GLU A   1     -10.394  14.506  64.991  1.00  0.00    -0.413 C  
ATOM     29  C   GLU A   1     -10.103  15.696  65.913  1.00  0.00    -0.353 C  
ATOM     30  O   GLU A   1      -8.895  16.263  65.696  1.00  0.00    -0.374 OA 
ATOM     31  OXT GLU A   1     -10.877  16.101  66.780  1.00  0.00    -0.277 OA 
BRANCH  28  32
ATOM     32  CB  GLU A   1     -11.898  14.404  64.706  1.00  0.00    -0.439 C  
BRANCH  32  33
ATOM     33  CG  GLU A   1     -12.177  13.680  63.390  1.00  0.00    -0.236 C  
ATOM     34  CD  GLU A   1     -12.324  12.199  63.612  1.00  0.00    -0.568 C  
ATOM     35  OE1 GLU A   1     -13.596  11.809  63.834  1.00  0.00    -0.382 OA 
ATOM     36  OE2 GLU A   1     -11.381  11.422  63.626  1.00  0.00    -0.386 OA 
ENDBRANCH  32  33
ENDBRANCH  28  32
ENDBRANCH  26  28
ENDBRANCH  21  24
ENDBRANCH  17  18
ENDBRANCH  16  17
ENDBRANCH  15  16
TORSDOF 7
ENDMDL
MODEL      136
REMARK 921   NORMALIZED FREE ENERGY PREDICTED BY IDOCK:   -4.68 KCAL/MOL
REMARK 922        TOTAL FREE ENERGY PREDICTED BY IDOCK:   -9.23 KCAL/MOL
REMARK 923 INTER-LIGAND FREE ENERGY PREDICTED BY IDOCK:   -8.58 KCAL/MOL
REMARK 924 INTRA-LIGAND FREE ENERGY PREDICTED BY IDOCK:   -0.66 KCAL/MOL
REMARK 927      BINDING AFFINITY PREDICTED BY RF-SCORE:    0.00 PKD
ROOT
HETATM    1  N   UNK A   0     -12.560  14.905  63.626  1.00  0.00    -0.899 NA 
HETATM    2  H1  UNK A   0     -13.326  15.465  63.998  1.00  0.00     0.000 HD 
HETATM    3  C   UNK A   0     -11.948  13.966  64.392  1.00  0.00    -0.450 C  
HETATM    4  H2  UNK A   0     -12.250  15.052  62.665  1.00  0.00     0.000 HD 
HETATM    5  N   UNK A   0     -10.971  13.251  63.917  1.00  0.00    -0.554 N  
HETATM    6  H   UNK A   0     -10.642  13.404  62.963  1.00  0.00     0.000 HD 
HETATM    7  C   UNK A   0     -10.375  12.275  64.718  1.00  0.00    -0.291 C  
HETATM    8  C   UNK A   0     -10.955  12.105  66.054  1.00  0.00    -0.332 A  
HETATM    9  O   UNK A   0      -9.433  11.592  64.339  1.00  0.00    -0.184 OA 
HETATM   10  C   UNK A   0     -11.981  12.921  66.447  1.00  0.00    -0.395 A  
HETATM   11  N   UNK A   0     -12.398  12.588  67.693  1.00  0.00    -0.159 NA 
HETATM   12  N   UNK A   0     -12.480  13.875  65.651  1.00  0.00    -0.485 NA 
HETATM   13  H   UNK A   0     -13.148  13.040  68.216  1.00  0.00     0.000 HD 
HETATM   14  C   UNK A   0     -11.632  11.532  68.127  1.00  0.00    -0.308 A  
HETATM   15  C   UNK A   0     -10.718  11.200  67.132  1.00  0.00    -0.305 A  
ENDROOT
BRANCH  15  16
HETATM   16  C   UNK A   0      -9.738  10.071  67.177  1.00  0.00    -0.217 C  
BRANCH  16  17
HETATM   17  C   UNK A   0      -8.614  10.263  68.210  1.00  0.00    -0.122 C  
BRANCH  17  18
HETATM   18  C   UNK A   0      -7.956  11.630  68.143  1.00  0.00    -0.141 A  
HETATM   19  C   UNK A   0      -8.577  12.767  68.676  1.00  0.00     0.054 A  
HETATM   20  C   UNK A   0      -8.022  14.034  68.500  1.00  0.00    -0.141 A  
HETATM   21  C   UNK A   0      -6.818  14.184  67.807  1.00  0.00    -0.188 A  
HETATM   22  C   UNK A   0      -6.121  13.051  67.381  1.00  0.00    -0.064 A  
HETATM   23  C   UNK A   0      -6.692  11.780  67.546  1.00  0.00    -0.107 A  
BRANCH  21  24
HETATM   24  C   UNK A   0      -6.320  15.546  67.467  1.00  0.00    -0.134 C  
HETATM   25  O   UNK A   0      -5.165  15.767  67.124  1.00  0.00    -0.338 OA 
ATOM     26  N   GLU A   1      -7.273  16.542  67.536  1.00  0.00    -0.132 N  
ATOM     27  H   GLU A   1      -8.223  16.302  67.821  1.00  0.00     0.000 HD 
BRANCH  26  28
ATOM     28  CA  GLU A   1      -6.958  17.925  67.211  1.00  0.00    -0.186 C  
ATOM     29  C   GLU A   1      -6.739  18.706  68.512  1.00  0.00    -0.258 C  
ATOM     30  O   GLU A   1      -5.457  18.683  68.944  1.00  0.00    -0.193 OA 
ATOM     31  OXT GLU A   1      -7.632  19.290  69.124  1.00  0.00    -0.337 OA 
BRANCH  28  32
ATOM     32  CB  GLU A   1      -8.085  18.563  66.387  1.00  0.00    -0.295 C  
BRANCH  32  33
ATOM     33  CG  GLU A   1      -9.464  18.144  66.892  1.00  0.00    -0.286 C  
ATOM     34  CD  GLU A   1     -10.285  19.346  67.273  1.00  0.00    -0.415 C  
ATOM     35  OE1 GLU A   1     -11.049  19.820  66.266  1.00  0.00    -0.274 OA 
ATOM     36  OE2 GLU A   1     -10.243  19.869  68.376  1.00  0.00    -0.443 OA 
ENDBRANCH  32  33
ENDBRANCH  28  32
ENDBRANCH  26  28
ENDBRANCH  21  24
ENDBRANCH  17  18
ENDBRANCH  16  17
ENDBRANCH  15  16
TORSDOF 7
ENDMDL
MODEL      137
REMARK 921   NORMALIZED FREE ENERGY PREDICTED BY IDOCK:   -4.64 KCAL/MOL
REMARK 922        TOTAL FREE ENERGY PREDICTED BY IDOCK:   -9.18 KCAL/MOL
REMARK 923 INTER-LIGAND FREE ENERGY PREDICTED BY IDOCK:   -7.55 KCAL/MOL
REMARK 924 INTRA-LIGAND FREE ENERGY PREDICTED BY IDOCK:   -1.63 KCAL/MOL
REMARK 927      BINDING AFFINITY PREDICTED BY RF-SCORE:    0.00 PKD
ROOT
HETATM    1  N   UNK A   0      -7.496   3.000  72.133  1.00  0.00    -0.050 NA 
HETATM    2  H1  UNK A   0      -7.609   3.257  73.113  1.00  0.00     0.000 HD 
HETATM    3  C   UNK A   0      -8.249   3.589  71.168  1.00  0.00    -0.066 C  
HETATM    4  H2  UNK A   0      -6.808   2.293  71.874  1.00  0.00     0.000 HD 
HETATM    5  N   UNK A   0      -8.104   3.261  69.918  1.00  0.00    -0.045 N  
HETATM    6  H   UNK A   0      -7.432   2.541  69.651  1.00  0.00     0.000 HD 
HETATM    7  C   UNK A   0      -8.873   3.899  68.942  1.00  0.00    -0.107 C  
HETATM    8  C   UNK A   0      -9.773   4.950  69.426  1.00  0.00    -0.261 A  
HETATM    9  O   UNK A   0      -8.805   3.613  67.753  1.00  0.00    -0.101 OA 
HETATM   10  C   UNK A   0      -9.845   5.203  70.769  1.00  0.00    -0.202 A  
HETATM   11  N   UNK A   0     -10.702   6.225  71.011  1.00  0.00    -0.247 NA 
HETATM   12  N   UNK A   0      -9.117   4.525  71.664  1.00  0.00    -0.128 NA 
HETATM   13  H   UNK A   0     -10.934   6.610  71.927  1.00  0.00     0.000 HD 
HETATM   14  C   UNK A   0     -11.204   6.651  69.804  1.00  0.00    -0.356 A  
HETATM   15  C   UNK A   0     -10.649   5.880  68.788  1.00  0.00    -0.340 A  
ENDROOT
BRANCH  15  16
HETATM   16  C   UNK A   0     -10.883   6.053  67.321  1.00  0.00    -0.403 C  
BRANCH  16  17
HETATM   17  C   UNK A   0      -9.714   6.725  66.580  1.00  0.00    -0.213 C  
BRANCH  17  18
HETATM   18  C   UNK A   0      -9.557   8.200  66.908  1.00  0.00    -0.269 A  
HETATM   19  C   UNK A   0     -10.651   9.073  66.889  1.00  0.00    -0.243 A  
HETATM   20  C   UNK A   0     -10.475  10.445  67.071  1.00  0.00    -0.309 A  
HETATM   21  C   UNK A   0      -9.198  10.965  67.301  1.00  0.00    -0.160 A  
HETATM   22  C   UNK A   0      -8.115  10.095  67.451  1.00  0.00    -0.114 A  
HETATM   23  C   UNK A   0      -8.295   8.719  67.250  1.00  0.00    -0.104 A  
BRANCH  21  24
HETATM   24  C   UNK A   0      -8.987  12.439  67.318  1.00  0.00    -0.190 C  
HETATM   25  O   UNK A   0      -7.883  12.957  67.205  1.00  0.00    -0.156 OA 
ATOM     26  N   GLU A   1     -10.143  13.186  67.436  1.00  0.00    -0.227 N  
ATOM     27  H   GLU A   1     -11.039  12.704  67.520  1.00  0.00     0.000 HD 
BRANCH  26  28
ATOM     28  CA  GLU A   1     -10.116  14.640  67.443  1.00  0.00    -0.232 C  
ATOM     29  C   GLU A   1     -10.311  15.136  68.881  1.00  0.00    -0.243 C  
ATOM     30  O   GLU A   1      -9.153  15.270  69.566  1.00  0.00    -0.241 OA 
ATOM     31  OXT GLU A   1     -11.408  15.379  69.383  1.00  0.00    -0.265 OA 
BRANCH  28  32
ATOM     32  CB  GLU A   1     -11.207  15.212  66.527  1.00  0.00    -0.283 C  
BRANCH  32  33
ATOM     33  CG  GLU A   1     -12.096  14.111  65.949  1.00  0.00    -0.441 C  
ATOM     34  CD  GLU A   1     -11.859  13.950  64.473  1.00  0.00    -0.426 C  
ATOM     35  OE1 GLU A   1     -10.916  13.032  64.173  1.00  0.00    -0.373 OA 
ATOM     36  OE2 GLU A   1     -12.437  14.609  63.620  1.00  0.00    -0.754 OA 
ENDBRANCH  32  33
ENDBRANCH  28  32
ENDBRANCH  26  28
ENDBRANCH  21  24
ENDBRANCH  17  18
ENDBRANCH  16  17
ENDBRANCH  15  16
TORSDOF 7
ENDMDL
MODEL      138
REMARK 921   NORMALIZED FREE ENERGY PREDICTED BY IDOCK:   -4.63 KCAL/MOL
REMARK 922        TOTAL FREE ENERGY PREDICTED BY IDOCK:   -9.17 KCAL/MOL
REMARK 923 INTER-LIGAND FREE ENERGY PREDICTED BY IDOCK:   -7.94 KCAL/MOL
REMARK 924 INTRA-LIGAND FREE ENERGY PREDICTED BY IDOCK:   -1.23 KCAL/MOL
REMARK 927      BINDING AFFINITY PREDICTED BY RF-SCORE:    0.00 PKD
ROOT
HETATM    1  N   UNK A   0      -7.539   3.999  67.947  1.00  0.00    -0.067 NA 
HETATM    2  H1  UNK A   0      -6.668   3.594  68.287  1.00  0.00     0.000 HD 
HETATM    3  C   UNK A   0      -8.433   4.550  68.808  1.00  0.00    -0.084 C  
HETATM    4  H2  UNK A   0      -7.742   3.990  66.947  1.00  0.00     0.000 HD 
HETATM    5  N   UNK A   0      -9.544   5.067  68.374  1.00  0.00    -0.137 N  
HETATM    6  H   UNK A   0      -9.764   5.047  67.378  1.00  0.00     0.000 HD 
HETATM    7  C   UNK A   0     -10.435   5.650  69.278  1.00  0.00    -0.286 C  
HETATM    8  C   UNK A   0     -10.001   5.669  70.678  1.00  0.00    -0.260 A  
HETATM    9  O   UNK A   0     -11.510   6.125  68.935  1.00  0.00    -0.305 OA 
HETATM   10  C   UNK A   0      -8.810   5.088  71.018  1.00  0.00    -0.131 A  
HETATM   11  N   UNK A   0      -8.573   5.238  72.344  1.00  0.00    -0.121 NA 
HETATM   12  N   UNK A   0      -8.018   4.499  70.113  1.00  0.00    -0.063 NA 
HETATM   13  H   UNK A   0      -7.756   4.896  72.850  1.00  0.00     0.000 HD 
HETATM   14  C   UNK A   0      -9.630   5.931  72.887  1.00  0.00    -0.155 A  
HETATM   15  C   UNK A   0     -10.544   6.219  71.879  1.00  0.00    -0.258 A  
ENDROOT
BRANCH  15  16
HETATM   16  C   UNK A   0     -11.804   7.010  72.032  1.00  0.00    -0.336 C  
BRANCH  16  17
HETATM   17  C   UNK A   0     -11.583   8.434  72.569  1.00  0.00    -0.426 C  
BRANCH  17  18
HETATM   18  C   UNK A   0     -11.547   9.494  71.481  1.00  0.00    -0.465 A  
HETATM   19  C   UNK A   0     -12.577  10.432  71.341  1.00  0.00    -0.539 A  
HETATM   20  C   UNK A   0     -12.594  11.319  70.265  1.00  0.00    -0.255 A  
HETATM   21  C   UNK A   0     -11.563  11.301  69.322  1.00  0.00    -0.390 A  
HETATM   22  C   UNK A   0     -10.464  10.461  69.517  1.00  0.00    -0.274 A  
HETATM   23  C   UNK A   0     -10.460   9.559  70.591  1.00  0.00    -0.374 A  
BRANCH  21  24
HETATM   24  C   UNK A   0     -11.672  12.123  68.085  1.00  0.00    -0.341 C  
HETATM   25  O   UNK A   0     -12.282  11.752  67.089  1.00  0.00    -0.446 OA 
ATOM     26  N   GLU A   1     -11.060  13.358  68.157  1.00  0.00    -0.247 N  
ATOM     27  H   GLU A   1     -10.571  13.621  69.013  1.00  0.00     0.000 HD 
BRANCH  26  28
ATOM     28  CA  GLU A   1     -11.094  14.295  67.044  1.00  0.00    -0.312 C  
ATOM     29  C   GLU A   1      -9.900  14.018  66.123  1.00  0.00    -0.303 C  
ATOM     30  O   GLU A   1     -10.164  13.109  65.157  1.00  0.00    -0.304 OA 
ATOM     31  OXT GLU A   1      -8.798  14.553  66.244  1.00  0.00    -0.129 OA 
BRANCH  28  32
ATOM     32  CB  GLU A   1     -11.058  15.744  67.548  1.00  0.00    -0.258 C  
BRANCH  32  33
ATOM     33  CG  GLU A   1     -10.685  15.820  69.028  1.00  0.00    -0.235 C  
ATOM     34  CD  GLU A   1      -9.247  16.227  69.199  1.00  0.00    -0.235 C  
ATOM     35  OE1 GLU A   1      -9.072  17.560  69.320  1.00  0.00    -0.003 OA 
ATOM     36  OE2 GLU A   1      -8.317  15.435  69.195  1.00  0.00    -0.206 OA 
ENDBRANCH  32  33
ENDBRANCH  28  32
ENDBRANCH  26  28
ENDBRANCH  21  24
ENDBRANCH  17  18
ENDBRANCH  16  17
ENDBRANCH  15  16
TORSDOF 7
ENDMDL
MODEL      139
REMARK 921   NORMALIZED FREE ENERGY PREDICTED BY IDOCK:   -4.60 KCAL/MOL
REMARK 922        TOTAL FREE ENERGY PREDICTED BY IDOCK:   -9.13 KCAL/MOL
REMARK 923 INTER-LIGAND FREE ENERGY PREDICTED BY IDOCK:   -7.83 KCAL/MOL
REMARK 924 INTRA-LIGAND FREE ENERGY PREDICTED BY IDOCK:   -1.30 KCAL/MOL
REMARK 927      BINDING AFFINITY PREDICTED BY RF-SCORE:    0.00 PKD
ROOT
HETATM    1  N   UNK A   0     -13.858  16.259  73.672  1.00  0.00    -0.739 NA 
HETATM    2  H1  UNK A   0     -14.200  15.819  74.526  1.00  0.00     0.000 HD 
HETATM    3  C   UNK A   0     -13.346  15.511  72.661  1.00  0.00    -0.522 C  
HETATM    4  H2  UNK A   0     -13.901  17.273  73.576  1.00  0.00     0.000 HD 
HETATM    5  N   UNK A   0     -12.910  16.072  71.572  1.00  0.00    -0.501 N  
HETATM    6  H   UNK A   0     -12.931  17.087  71.475  1.00  0.00     0.000 HD 
HETATM    7  C   UNK A   0     -12.411  15.277  70.537  1.00  0.00    -0.387 C  
HETATM    8  C   UNK A   0     -12.469  13.830  70.760  1.00  0.00    -0.441 A  
HETATM    9  O   UNK A   0     -11.958  15.748  69.501  1.00  0.00    -0.361 OA 
HETATM   10  C   UNK A   0     -12.945  13.354  71.951  1.00  0.00    -0.326 A  
HETATM   11  N   UNK A   0     -12.949  11.999  71.950  1.00  0.00    -0.374 NA 
HETATM   12  N   UNK A   0     -13.365  14.167  72.928  1.00  0.00    -0.644 NA 
HETATM   13  H   UNK A   0     -13.256  11.399  72.716  1.00  0.00     0.000 HD 
HETATM   14  C   UNK A   0     -12.466  11.575  70.735  1.00  0.00    -0.349 A  
HETATM   15  C   UNK A   0     -12.154  12.689  69.962  1.00  0.00    -0.339 A  
ENDROOT
BRANCH  15  16
HETATM   16  C   UNK A   0     -11.655  12.671  68.552  1.00  0.00    -0.363 C  
BRANCH  16  17
HETATM   17  C   UNK A   0     -10.135  12.470  68.432  1.00  0.00    -0.216 C  
BRANCH  17  18
HETATM   18  C   UNK A   0      -9.741  11.061  68.022  1.00  0.00    -0.181 A  
HETATM   19  C   UNK A   0      -8.950  10.254  68.850  1.00  0.00    -0.164 A  
HETATM   20  C   UNK A   0      -8.493   9.011  68.412  1.00  0.00    -0.129 A  
HETATM   21  C   UNK A   0      -8.842   8.542  67.143  1.00  0.00    -0.139 A  
HETATM   22  C   UNK A   0      -9.734   9.275  66.357  1.00  0.00    -0.325 A  
HETATM   23  C   UNK A   0     -10.177  10.531  66.795  1.00  0.00    -0.288 A  
BRANCH  21  24
HETATM   24  C   UNK A   0      -8.212   7.302  66.609  1.00  0.00    -0.118 C  
HETATM   25  O   UNK A   0      -7.537   7.283  65.588  1.00  0.00    -0.081 OA 
ATOM     26  N   GLU A   1      -8.419   6.173  67.378  1.00  0.00    -0.108 N  
ATOM     27  H   GLU A   1      -8.984   6.245  68.224  1.00  0.00     0.000 HD 
BRANCH  26  28
ATOM     28  CA  GLU A   1      -7.851   4.885  67.012  1.00  0.00    -0.095 C  
ATOM     29  C   GLU A   1      -8.990   3.917  66.671  1.00  0.00    -0.135 C  
ATOM     30  O   GLU A   1      -9.352   3.947  65.369  1.00  0.00    -0.141 OA 
ATOM     31  OXT GLU A   1      -9.542   3.185  67.493  1.00  0.00    -0.194 OA 
BRANCH  28  32
ATOM     32  CB  GLU A   1      -6.992   4.322  68.153  1.00  0.00    -0.055 C  
BRANCH  32  33
ATOM     33  CG  GLU A   1      -5.925   5.318  68.603  1.00  0.00    -0.021 C  
ATOM     34  CD  GLU A   1      -6.177   5.774  70.014  1.00  0.00    -0.027 C  
ATOM     35  OE1 GLU A   1      -5.549   5.027  70.945  1.00  0.00    -0.011 OA 
ATOM     36  OE2 GLU A   1      -6.909   6.711  70.299  1.00  0.00    -0.055 OA 
ENDBRANCH  32  33
ENDBRANCH  28  32
ENDBRANCH  26  28
ENDBRANCH  21  24
ENDBRANCH  17  18
ENDBRANCH  16  17
ENDBRANCH  15  16
TORSDOF 7
ENDMDL
MODEL      140
REMARK 921   NORMALIZED FREE ENERGY PREDICTED BY IDOCK:   -4.60 KCAL/MOL
REMARK 922        TOTAL FREE ENERGY PREDICTED BY IDOCK:   -9.12 KCAL/MOL
REMARK 923 INTER-LIGAND FREE ENERGY PREDICTED BY IDOCK:   -8.07 KCAL/MOL
REMARK 924 INTRA-LIGAND FREE ENERGY PREDICTED BY IDOCK:   -1.05 KCAL/MOL
REMARK 927      BINDING AFFINITY PREDICTED BY RF-SCORE:    0.00 PKD
ROOT
HETATM    1  N   UNK A   0      -8.571  20.125  66.594  1.00  0.00    -0.446 NA 
HETATM    2  H1  UNK A   0      -8.812  20.788  65.857  1.00  0.00     0.000 HD 
HETATM    3  C   UNK A   0      -9.097  18.873  66.601  1.00  0.00    -0.330 C  
HETATM    4  H2  UNK A   0      -7.928  20.406  67.334  1.00  0.00     0.000 HD 
HETATM    5  N   UNK A   0      -8.790  18.028  67.541  1.00  0.00    -0.250 N  
HETATM    6  H   UNK A   0      -8.162  18.305  68.295  1.00  0.00     0.000 HD 
HETATM    7  C   UNK A   0      -9.326  16.738  67.511  1.00  0.00    -0.231 C  
HETATM    8  C   UNK A   0     -10.178  16.427  66.360  1.00  0.00    -0.325 A  
HETATM    9  O   UNK A   0      -9.099  15.907  68.382  1.00  0.00    -0.181 OA 
HETATM   10  C   UNK A   0     -10.435  17.402  65.435  1.00  0.00     0.001 A  
HETATM   11  N   UNK A   0     -11.211  16.913  64.437  1.00  0.00    -1.237 NA 
HETATM   12  N   UNK A   0      -9.932  18.638  65.541  1.00  0.00    -0.243 NA 
HETATM   13  H   UNK A   0     -11.544  17.433  63.626  1.00  0.00     0.000 HD 
HETATM   14  C   UNK A   0     -11.468  15.590  64.711  1.00  0.00    -0.313 A  
HETATM   15  C   UNK A   0     -10.841  15.248  65.904  1.00  0.00    -0.345 A  
ENDROOT
BRANCH  15  16
HETATM   16  C   UNK A   0     -10.821  13.890  66.531  1.00  0.00    -0.295 C  
BRANCH  16  17
HETATM   17  C   UNK A   0      -9.827  12.916  65.874  1.00  0.00    -0.239 C  
BRANCH  17  18
HETATM   18  C   UNK A   0      -9.874  11.516  66.460  1.00  0.00    -0.228 A  
HETATM   19  C   UNK A   0      -9.994  10.385  65.643  1.00  0.00    -0.337 A  
HETATM   20  C   UNK A   0     -10.159   9.116  66.197  1.00  0.00    -0.278 A  
HETATM   21  C   UNK A   0     -10.182   8.953  67.584  1.00  0.00    -0.296 A  
HETATM   22  C   UNK A   0      -9.935  10.050  68.413  1.00  0.00    -0.178 A  
HETATM   23  C   UNK A   0      -9.786  11.326  67.851  1.00  0.00    -0.187 A  
BRANCH  21  24
HETATM   24  C   UNK A   0     -10.535   7.630  68.172  1.00  0.00    -0.181 C  
HETATM   25  O   UNK A   0     -10.920   6.683  67.498  1.00  0.00    -0.309 OA 
ATOM     26  N   GLU A   1     -10.359   7.541  69.538  1.00  0.00    -0.211 N  
ATOM     27  H   GLU A   1     -10.028   8.358  70.051  1.00  0.00     0.000 HD 
BRANCH  26  28
ATOM     28  CA  GLU A   1     -10.633   6.310  70.265  1.00  0.00    -0.248 C  
ATOM     29  C   GLU A   1     -11.609   6.614  71.408  1.00  0.00    -0.313 C  
ATOM     30  O   GLU A   1     -12.908   6.503  71.051  1.00  0.00    -0.083 OA 
ATOM     31  OXT GLU A   1     -11.261   6.940  72.543  1.00  0.00    -0.253 OA 
BRANCH  28  32
ATOM     32  CB  GLU A   1      -9.336   5.700  70.815  1.00  0.00    -0.194 C  
BRANCH  32  33
ATOM     33  CG  GLU A   1      -8.114   6.540  70.448  1.00  0.00    -0.117 C  
ATOM     34  CD  GLU A   1      -7.340   5.900  69.328  1.00  0.00    -0.083 C  
ATOM     35  OE1 GLU A   1      -7.714   6.320  68.102  1.00  0.00    -0.100 OA 
ATOM     36  OE2 GLU A   1      -6.475   5.054  69.504  1.00  0.00    -0.035 OA 
ENDBRANCH  32  33
ENDBRANCH  28  32
ENDBRANCH  26  28
ENDBRANCH  21  24
ENDBRANCH  17  18
ENDBRANCH  16  17
ENDBRANCH  15  16
TORSDOF 7
ENDMDL
MODEL      141
REMARK 921   NORMALIZED FREE ENERGY PREDICTED BY IDOCK:   -4.58 KCAL/MOL
REMARK 922        TOTAL FREE ENERGY PREDICTED BY IDOCK:   -9.10 KCAL/MOL
REMARK 923 INTER-LIGAND FREE ENERGY PREDICTED BY IDOCK:   -7.80 KCAL/MOL
REMARK 924 INTRA-LIGAND FREE ENERGY PREDICTED BY IDOCK:   -1.31 KCAL/MOL
REMARK 927      BINDING AFFINITY PREDICTED BY RF-SCORE:    0.00 PKD
ROOT
HETATM    1  N   UNK A   0     -14.020  15.269  72.965  1.00  0.00    -0.529 NA 
HETATM    2  H1  UNK A   0     -13.944  16.228  72.627  1.00  0.00     0.000 HD 
HETATM    3  C   UNK A   0     -13.568  14.230  72.216  1.00  0.00    -0.478 C  
HETATM    4  H2  UNK A   0     -14.440  15.088  73.876  1.00  0.00     0.000 HD 
HETATM    5  N   UNK A   0     -13.664  13.007  72.647  1.00  0.00    -0.534 N  
HETATM    6  H   UNK A   0     -14.100  12.814  73.549  1.00  0.00     0.000 HD 
HETATM    7  C   UNK A   0     -13.169  11.959  71.868  1.00  0.00    -0.362 C  
HETATM    8  C   UNK A   0     -12.520  12.348  70.612  1.00  0.00    -0.320 A  
HETATM    9  O   UNK A   0     -13.258  10.785  72.204  1.00  0.00    -0.473 OA 
HETATM   10  C   UNK A   0     -12.484  13.670  70.260  1.00  0.00    -0.265 A  
HETATM   11  N   UNK A   0     -11.817  13.828  69.090  1.00  0.00    -0.334 NA 
HETATM   12  N   UNK A   0     -13.019  14.629  71.025  1.00  0.00    -0.342 NA 
HETATM   13  H   UNK A   0     -11.649  14.712  68.610  1.00  0.00     0.000 HD 
HETATM   14  C   UNK A   0     -11.408  12.586  68.665  1.00  0.00    -0.288 A  
HETATM   15  C   UNK A   0     -11.828  11.634  69.588  1.00  0.00    -0.419 A  
ENDROOT
BRANCH  15  16
HETATM   16  C   UNK A   0     -11.540  10.167  69.534  1.00  0.00    -0.181 C  
BRANCH  16  17
HETATM   17  C   UNK A   0     -10.344   9.736  70.401  1.00  0.00    -0.354 C  
BRANCH  17  18
HETATM   18  C   UNK A   0     -10.057   8.246  70.338  1.00  0.00    -0.199 A  
HETATM   19  C   UNK A   0      -8.745   7.756  70.305  1.00  0.00    -0.143 A  
HETATM   20  C   UNK A   0      -8.494   6.397  70.124  1.00  0.00    -0.135 A  
HETATM   21  C   UNK A   0      -9.556   5.497  69.997  1.00  0.00    -0.218 A  
HETATM   22  C   UNK A   0     -10.867   5.949  70.157  1.00  0.00    -0.402 A  
HETATM   23  C   UNK A   0     -11.115   7.320  70.322  1.00  0.00    -0.289 A  
BRANCH  21  24
HETATM   24  C   UNK A   0      -9.289   4.078  69.628  1.00  0.00    -0.173 C  
HETATM   25  O   UNK A   0      -9.695   3.130  70.287  1.00  0.00    -0.151 OA 
ATOM     26  N   GLU A   1      -8.573   3.912  68.459  1.00  0.00    -0.091 N  
ATOM     27  H   GLU A   1      -8.264   4.737  67.944  1.00  0.00     0.000 HD 
BRANCH  26  28
ATOM     28  CA  GLU A   1      -8.249   2.591  67.942  1.00  0.00    -0.063 C  
ATOM     29  C   GLU A   1      -6.771   2.295  68.221  1.00  0.00    -0.032 C  
ATOM     30  O   GLU A   1      -6.556   1.704  69.419  1.00  0.00    -0.028 OA 
ATOM     31  OXT GLU A   1      -5.854   2.574  67.449  1.00  0.00    -0.018 OA 
BRANCH  28  32
ATOM     32  CB  GLU A   1      -8.537   2.507  66.437  1.00  0.00    -0.113 C  
BRANCH  32  33
ATOM     33  CG  GLU A   1      -8.548   3.888  65.784  1.00  0.00    -0.111 C  
ATOM     34  CD  GLU A   1      -9.945   4.283  65.388  1.00  0.00    -0.223 C  
ATOM     35  OE1 GLU A   1     -10.601   4.979  66.340  1.00  0.00    -0.300 OA 
ATOM     36  OE2 GLU A   1     -10.456   3.978  64.321  1.00  0.00    -0.228 OA 
ENDBRANCH  32  33
ENDBRANCH  28  32
ENDBRANCH  26  28
ENDBRANCH  21  24
ENDBRANCH  17  18
ENDBRANCH  16  17
ENDBRANCH  15  16
TORSDOF 7
ENDMDL
MODEL      142
REMARK 921   NORMALIZED FREE ENERGY PREDICTED BY IDOCK:   -4.58 KCAL/MOL
REMARK 922        TOTAL FREE ENERGY PREDICTED BY IDOCK:   -9.09 KCAL/MOL
REMARK 923 INTER-LIGAND FREE ENERGY PREDICTED BY IDOCK:   -7.76 KCAL/MOL
REMARK 924 INTRA-LIGAND FREE ENERGY PREDICTED BY IDOCK:   -1.33 KCAL/MOL
REMARK 927      BINDING AFFINITY PREDICTED BY RF-SCORE:    0.00 PKD
ROOT
HETATM    1  N   UNK A   0     -11.834   6.748  69.816  1.00  0.00    -0.651 NA 
HETATM    2  H1  UNK A   0     -12.323   7.098  70.639  1.00  0.00     0.000 HD 
HETATM    3  C   UNK A   0     -10.664   7.307  69.412  1.00  0.00    -0.225 C  
HETATM    4  H2  UNK A   0     -12.228   5.968  69.290  1.00  0.00     0.000 HD 
HETATM    5  N   UNK A   0     -10.040   6.860  68.362  1.00  0.00    -0.161 N  
HETATM    6  H   UNK A   0     -10.436   6.092  67.819  1.00  0.00     0.000 HD 
HETATM    7  C   UNK A   0      -8.825   7.436  67.983  1.00  0.00    -0.126 C  
HETATM    8  C   UNK A   0      -8.323   8.499  68.858  1.00  0.00    -0.118 A  
HETATM    9  O   UNK A   0      -8.206   7.080  66.988  1.00  0.00    -0.115 OA 
HETATM   10  C   UNK A   0      -9.072   8.890  69.934  1.00  0.00    -0.161 A  
HETATM   11  N   UNK A   0      -8.425   9.854  70.633  1.00  0.00    -0.373 NA 
HETATM   12  N   UNK A   0     -10.254   8.333  70.222  1.00  0.00    -0.193 NA 
HETATM   13  H   UNK A   0      -8.766  10.315  71.477  1.00  0.00     0.000 HD 
HETATM   14  C   UNK A   0      -7.228  10.103  70.004  1.00  0.00    -0.161 A  
HETATM   15  C   UNK A   0      -7.126   9.276  68.890  1.00  0.00    -0.068 A  
ENDROOT
BRANCH  15  16
HETATM   16  C   UNK A   0      -5.955   9.187  67.964  1.00  0.00    -0.049 C  
BRANCH  16  17
HETATM   17  C   UNK A   0      -6.067  10.097  66.729  1.00  0.00    -0.060 C  
BRANCH  17  18
HETATM   18  C   UNK A   0      -7.263  11.032  66.772  1.00  0.00    -0.139 A  
HETATM   19  C   UNK A   0      -8.479  10.691  66.167  1.00  0.00    -0.159 A  
HETATM   20  C   UNK A   0      -9.530  11.606  66.107  1.00  0.00    -0.240 A  
HETATM   21  C   UNK A   0      -9.391  12.874  66.676  1.00  0.00    -0.240 A  
HETATM   22  C   UNK A   0      -8.234  13.185  67.396  1.00  0.00    -0.187 A  
HETATM   23  C   UNK A   0      -7.174  12.267  67.438  1.00  0.00    -0.147 A  
BRANCH  21  24
HETATM   24  C   UNK A   0     -10.441  13.907  66.457  1.00  0.00    -0.282 C  
HETATM   25  O   UNK A   0     -11.531  13.655  65.957  1.00  0.00    -0.312 OA 
ATOM     26  N   GLU A   1     -10.106  15.173  66.896  1.00  0.00    -0.252 N  
ATOM     27  H   GLU A   1      -9.187  15.327  67.312  1.00  0.00     0.000 HD 
BRANCH  26  28
ATOM     28  CA  GLU A   1     -11.029  16.291  66.781  1.00  0.00    -0.031 C  
ATOM     29  C   GLU A   1     -10.635  17.140  65.566  1.00  0.00    -0.150 C  
ATOM     30  O   GLU A   1     -11.226  16.741  64.417  1.00  0.00    -1.112 OA 
ATOM     31  OXT GLU A   1      -9.850  18.086  65.611  1.00  0.00    -0.494 OA 
BRANCH  28  32
ATOM     32  CB  GLU A   1     -11.016  17.144  68.057  1.00  0.00    -0.229 C  
BRANCH  32  33
ATOM     33  CG  GLU A   1     -10.192  16.493  69.166  1.00  0.00    -0.298 C  
ATOM     34  CD  GLU A   1     -11.079  15.765  70.138  1.00  0.00    -0.352 C  
ATOM     35  OE1 GLU A   1     -11.270  14.465  69.828  1.00  0.00    -0.249 OA 
ATOM     36  OE2 GLU A   1     -11.609  16.301  71.100  1.00  0.00    -0.427 OA 
ENDBRANCH  32  33
ENDBRANCH  28  32
ENDBRANCH  26  28
ENDBRANCH  21  24
ENDBRANCH  17  18
ENDBRANCH  16  17
ENDBRANCH  15  16
TORSDOF 7
ENDMDL
MODEL      143
REMARK 921   NORMALIZED FREE ENERGY PREDICTED BY IDOCK:   -4.58 KCAL/MOL
REMARK 922        TOTAL FREE ENERGY PREDICTED BY IDOCK:   -9.09 KCAL/MOL
REMARK 923 INTER-LIGAND FREE ENERGY PREDICTED BY IDOCK:   -8.38 KCAL/MOL
REMARK 924 INTRA-LIGAND FREE ENERGY PREDICTED BY IDOCK:   -0.72 KCAL/MOL
REMARK 927      BINDING AFFINITY PREDICTED BY RF-SCORE:    0.00 PKD
ROOT
HETATM    1  N   UNK A   0      -9.275   7.786  69.441  1.00  0.00    -0.149 NA 
HETATM    2  H1  UNK A   0      -8.367   7.426  69.148  1.00  0.00     0.000 HD 
HETATM    3  C   UNK A   0      -9.783   8.920  68.893  1.00  0.00    -0.171 C  
HETATM    4  H2  UNK A   0      -9.808   7.288  70.154  1.00  0.00     0.000 HD 
HETATM    5  N   UNK A   0     -10.941   9.379  69.267  1.00  0.00    -0.392 N  
HETATM    6  H   UNK A   0     -11.473   8.898  69.992  1.00  0.00     0.000 HD 
HETATM    7  C   UNK A   0     -11.452  10.534  68.669  1.00  0.00    -0.223 C  
HETATM    8  C   UNK A   0     -10.630  11.119  67.606  1.00  0.00    -0.250 A  
HETATM    9  O   UNK A   0     -12.521  11.032  68.999  1.00  0.00    -0.449 OA 
HETATM   10  C   UNK A   0      -9.423  10.550  67.303  1.00  0.00    -0.158 A  
HETATM   11  N   UNK A   0      -8.834  11.212  66.278  1.00  0.00    -0.181 NA 
HETATM   12  N   UNK A   0      -8.962   9.469  67.944  1.00  0.00    -0.123 NA 
HETATM   13  H   UNK A   0      -7.930  10.990  65.860  1.00  0.00     0.000 HD 
HETATM   14  C   UNK A   0      -9.669  12.237  65.900  1.00  0.00    -0.235 A  
HETATM   15  C   UNK A   0     -10.803  12.214  66.706  1.00  0.00    -0.289 A  
ENDROOT
BRANCH  15  16
HETATM   16  C   UNK A   0     -11.987  13.120  66.588  1.00  0.00    -0.451 C  
BRANCH  16  17
HETATM   17  C   UNK A   0     -12.131  14.110  67.757  1.00  0.00    -0.321 C  
BRANCH  17  18
HETATM   18  C   UNK A   0     -10.980  15.095  67.862  1.00  0.00    -0.302 A  
HETATM   19  C   UNK A   0     -10.177  15.161  69.008  1.00  0.00    -0.241 A  
HETATM   20  C   UNK A   0      -9.204  16.150  69.143  1.00  0.00    -0.246 A  
HETATM   21  C   UNK A   0      -8.998  17.079  68.119  1.00  0.00    -0.227 A  
HETATM   22  C   UNK A   0      -9.699  16.948  66.918  1.00  0.00    -0.264 A  
HETATM   23  C   UNK A   0     -10.689  15.962  66.794  1.00  0.00    -0.281 A  
BRANCH  21  24
HETATM   24  C   UNK A   0      -8.086  18.236  68.336  1.00  0.00    -0.307 C  
HETATM   25  O   UNK A   0      -8.478  19.396  68.373  1.00  0.00    -0.333 OA 
ATOM     26  N   GLU A   1      -6.762  17.899  68.530  1.00  0.00    -0.218 N  
ATOM     27  H   GLU A   1      -6.489  16.916  68.497  1.00  0.00     0.000 HD 
BRANCH  26  28
ATOM     28  CA  GLU A   1      -5.745  18.908  68.781  1.00  0.00    -0.207 C  
ATOM     29  C   GLU A   1      -5.873  19.397  70.229  1.00  0.00    -0.242 C  
ATOM     30  O   GLU A   1      -5.144  18.674  71.108  1.00  0.00    -0.263 OA 
ATOM     31  OXT GLU A   1      -6.578  20.345  70.576  1.00  0.00    -0.409 OA 
BRANCH  28  32
ATOM     32  CB  GLU A   1      -5.888  20.084  67.804  1.00  0.00    -0.219 C  
BRANCH  32  33
ATOM     33  CG  GLU A   1      -5.244  19.779  66.453  1.00  0.00    -0.167 C  
ATOM     34  CD  GLU A   1      -6.292  19.513  65.407  1.00  0.00    -0.252 C  
ATOM     35  OE1 GLU A   1      -6.667  20.615  64.723  1.00  0.00    -0.284 OA 
ATOM     36  OE2 GLU A   1      -6.787  18.413  65.211  1.00  0.00    -0.520 OA 
ENDBRANCH  32  33
ENDBRANCH  28  32
ENDBRANCH  26  28
ENDBRANCH  21  24
ENDBRANCH  17  18
ENDBRANCH  16  17
ENDBRANCH  15  16
TORSDOF 7
ENDMDL
MODEL      144
REMARK 921   NORMALIZED FREE ENERGY PREDICTED BY IDOCK:   -4.56 KCAL/MOL
REMARK 922        TOTAL FREE ENERGY PREDICTED BY IDOCK:   -9.06 KCAL/MOL
REMARK 923 INTER-LIGAND FREE ENERGY PREDICTED BY IDOCK:   -7.78 KCAL/MOL
REMARK 924 INTRA-LIGAND FREE ENERGY PREDICTED BY IDOCK:   -1.28 KCAL/MOL
REMARK 927      BINDING AFFINITY PREDICTED BY RF-SCORE:    0.00 PKD
ROOT
HETATM    1  N   UNK A   0      -7.998  18.798  67.000  1.00  0.00    -0.241 NA 
HETATM    2  H1  UNK A   0      -7.379  18.931  66.201  1.00  0.00     0.000 HD 
HETATM    3  C   UNK A   0      -8.933  17.813  66.999  1.00  0.00    -0.252 C  
HETATM    4  H2  UNK A   0      -7.915  19.413  67.810  1.00  0.00     0.000 HD 
HETATM    5  N   UNK A   0      -9.723  17.643  68.019  1.00  0.00    -0.289 N  
HETATM    6  H   UNK A   0      -9.659  18.265  68.825  1.00  0.00     0.000 HD 
HETATM    7  C   UNK A   0     -10.659  16.607  68.003  1.00  0.00    -0.338 C  
HETATM    8  C   UNK A   0     -10.635  15.744  66.818  1.00  0.00    -0.309 A  
HETATM    9  O   UNK A   0     -11.450  16.415  68.918  1.00  0.00    -0.311 OA 
HETATM   10  C   UNK A   0      -9.761  16.025  65.803  1.00  0.00    -0.305 A  
HETATM   11  N   UNK A   0      -9.868  15.099  64.819  1.00  0.00    -0.368 NA 
HETATM   12  N   UNK A   0      -8.918  17.063  65.853  1.00  0.00    -0.537 NA 
HETATM   13  H   UNK A   0      -9.329  15.078  63.953  1.00  0.00     0.000 HD 
HETATM   14  C   UNK A   0     -10.833  14.193  65.193  1.00  0.00    -0.372 A  
HETATM   15  C   UNK A   0     -11.337  14.561  66.436  1.00  0.00    -0.349 A  
ENDROOT
BRANCH  15  16
HETATM   16  C   UNK A   0     -12.360  13.811  67.229  1.00  0.00    -0.203 C  
BRANCH  16  17
HETATM   17  C   UNK A   0     -11.852  13.322  68.596  1.00  0.00    -0.380 C  
BRANCH  17  18
HETATM   18  C   UNK A   0     -11.027  12.049  68.516  1.00  0.00    -0.280 A  
HETATM   19  C   UNK A   0      -9.718  12.056  68.018  1.00  0.00    -0.198 A  
HETATM   20  C   UNK A   0      -9.016  10.866  67.835  1.00  0.00    -0.141 A  
HETATM   21  C   UNK A   0      -9.604   9.644  68.172  1.00  0.00    -0.159 A  
HETATM   22  C   UNK A   0     -10.857   9.628  68.789  1.00  0.00    -0.199 A  
HETATM   23  C   UNK A   0     -11.566  10.827  68.956  1.00  0.00    -0.370 A  
BRANCH  21  24
HETATM   24  C   UNK A   0      -8.926   8.367  67.812  1.00  0.00    -0.136 C  
HETATM   25  O   UNK A   0      -7.786   8.320  67.368  1.00  0.00    -0.099 OA 
ATOM     26  N   GLU A   1      -9.672   7.230  68.053  1.00  0.00    -0.139 N  
ATOM     27  H   GLU A   1     -10.615   7.325  68.431  1.00  0.00     0.000 HD 
BRANCH  26  28
ATOM     28  CA  GLU A   1      -9.148   5.901  67.781  1.00  0.00    -0.109 C  
ATOM     29  C   GLU A   1      -9.663   5.431  66.416  1.00  0.00    -0.166 C  
ATOM     30  O   GLU A   1      -8.860   5.783  65.387  1.00  0.00    -0.151 OA 
ATOM     31  OXT GLU A   1     -10.710   4.805  66.253  1.00  0.00    -0.283 OA 
BRANCH  28  32
ATOM     32  CB  GLU A   1      -9.565   4.914  68.880  1.00  0.00    -0.224 C  
BRANCH  32  33
ATOM     33  CG  GLU A   1     -10.531   5.550  69.877  1.00  0.00    -0.386 C  
ATOM     34  CD  GLU A   1      -9.829   5.893  71.162  1.00  0.00    -0.181 C  
ATOM     35  OE1 GLU A   1      -9.333   7.148  71.189  1.00  0.00    -0.157 OA 
ATOM     36  OE2 GLU A   1      -9.687   5.105  72.085  1.00  0.00    -0.155 OA 
ENDBRANCH  32  33
ENDBRANCH  28  32
ENDBRANCH  26  28
ENDBRANCH  21  24
ENDBRANCH  17  18
ENDBRANCH  16  17
ENDBRANCH  15  16
TORSDOF 7
ENDMDL
MODEL      145
REMARK 921   NORMALIZED FREE ENERGY PREDICTED BY IDOCK:   -4.54 KCAL/MOL
REMARK 922        TOTAL FREE ENERGY PREDICTED BY IDOCK:   -9.05 KCAL/MOL
REMARK 923 INTER-LIGAND FREE ENERGY PREDICTED BY IDOCK:   -7.44 KCAL/MOL
REMARK 924 INTRA-LIGAND FREE ENERGY PREDICTED BY IDOCK:   -1.61 KCAL/MOL
REMARK 927      BINDING AFFINITY PREDICTED BY RF-SCORE:    0.00 PKD
ROOT
HETATM    1  N   UNK A   0      -9.337  10.877  62.372  1.00  0.00    -0.511 NA 
HETATM    2  H1  UNK A   0     -10.262  10.619  62.033  1.00  0.00     0.000 HD 
HETATM    3  C   UNK A   0      -8.884  10.429  63.571  1.00  0.00    -0.212 C  
HETATM    4  H2  UNK A   0      -8.743  11.481  61.803  1.00  0.00     0.000 HD 
HETATM    5  N   UNK A   0      -7.703  10.759  64.004  1.00  0.00    -0.338 N  
HETATM    6  H   UNK A   0      -7.109  11.377  63.451  1.00  0.00     0.000 HD 
HETATM    7  C   UNK A   0      -7.252  10.263  65.230  1.00  0.00    -0.134 C  
HETATM    8  C   UNK A   0      -8.164   9.346  65.921  1.00  0.00    -0.115 A  
HETATM    9  O   UNK A   0      -6.164  10.562  65.704  1.00  0.00    -0.116 OA 
HETATM   10  C   UNK A   0      -9.387   9.077  65.370  1.00  0.00    -0.144 A  
HETATM   11  N   UNK A   0     -10.064   8.188  66.137  1.00  0.00    -0.447 NA 
HETATM   12  N   UNK A   0      -9.785   9.620  64.213  1.00  0.00     0.060 NA 
HETATM   13  H   UNK A   0     -10.997   7.822  65.950  1.00  0.00     0.000 HD 
HETATM   14  C   UNK A   0      -9.271   7.868  67.214  1.00  0.00    -0.142 A  
HETATM   15  C   UNK A   0      -8.075   8.571  67.116  1.00  0.00    -0.104 A  
ENDROOT
BRANCH  15  16
HETATM   16  C   UNK A   0      -6.912   8.466  68.051  1.00  0.00    -0.081 C  
BRANCH  16  17
HETATM   17  C   UNK A   0      -6.981   9.438  69.241  1.00  0.00    -0.053 C  
BRANCH  17  18
HETATM   18  C   UNK A   0      -7.970  10.574  69.039  1.00  0.00    -0.136 A  
HETATM   19  C   UNK A   0      -9.332  10.415  69.324  1.00  0.00    -0.202 A  
HETATM   20  C   UNK A   0     -10.248  11.421  69.019  1.00  0.00    -0.137 A  
HETATM   21  C   UNK A   0      -9.812  12.619  68.445  1.00  0.00    -0.200 A  
HETATM   22  C   UNK A   0      -8.444  12.844  68.274  1.00  0.00    -0.161 A  
HETATM   23  C   UNK A   0      -7.529  11.822  68.566  1.00  0.00    -0.110 A  
BRANCH  21  24
HETATM   24  C   UNK A   0     -10.806  13.616  67.959  1.00  0.00    -0.246 C  
HETATM   25  O   UNK A   0     -11.702  14.063  68.665  1.00  0.00    -0.310 OA 
ATOM     26  N   GLU A   1     -10.618  14.029  66.655  1.00  0.00    -0.273 N  
ATOM     27  H   GLU A   1      -9.851  13.630  66.113  1.00  0.00     0.000 HD 
BRANCH  26  28
ATOM     28  CA  GLU A   1     -11.486  15.018  66.034  1.00  0.00    -0.221 C  
ATOM     29  C   GLU A   1     -12.352  14.327  64.975  1.00  0.00    -0.428 C  
ATOM     30  O   GLU A   1     -13.518  13.845  65.462  1.00  0.00    -0.657 OA 
ATOM     31  OXT GLU A   1     -12.028  14.202  63.794  1.00  0.00    -0.318 OA 
BRANCH  28  32
ATOM     32  CB  GLU A   1     -10.662  16.147  65.400  1.00  0.00    -0.374 C  
BRANCH  32  33
ATOM     33  CG  GLU A   1      -9.990  17.021  66.457  1.00  0.00    -0.318 C  
ATOM     34  CD  GLU A   1      -8.494  16.869  66.408  1.00  0.00    -0.290 C  
ATOM     35  OE1 GLU A   1      -7.885  17.767  65.605  1.00  0.00    -0.538 OA 
ATOM     36  OE2 GLU A   1      -7.884  15.996  67.008  1.00  0.00    -0.182 OA 
ENDBRANCH  32  33
ENDBRANCH  28  32
ENDBRANCH  26  28
ENDBRANCH  21  24
ENDBRANCH  17  18
ENDBRANCH  16  17
ENDBRANCH  15  16
TORSDOF 7
ENDMDL
MODEL      146
REMARK 921   NORMALIZED FREE ENERGY PREDICTED BY IDOCK:   -4.54 KCAL/MOL
REMARK 922        TOTAL FREE ENERGY PREDICTED BY IDOCK:   -9.04 KCAL/MOL
REMARK 923 INTER-LIGAND FREE ENERGY PREDICTED BY IDOCK:   -7.89 KCAL/MOL
REMARK 924 INTRA-LIGAND FREE ENERGY PREDICTED BY IDOCK:   -1.15 KCAL/MOL
REMARK 927      BINDING AFFINITY PREDICTED BY RF-SCORE:    0.00 PKD
ROOT
HETATM    1  N   UNK A   0      -6.921  16.896  69.510  1.00  0.00    -0.163 NA 
HETATM    2  H1  UNK A   0      -6.863  16.722  70.512  1.00  0.00     0.000 HD 
HETATM    3  C   UNK A   0      -7.903  16.332  68.761  1.00  0.00    -0.216 C  
HETATM    4  H2  UNK A   0      -6.232  17.502  69.063  1.00  0.00     0.000 HD 
HETATM    5  N   UNK A   0      -7.976  16.555  67.482  1.00  0.00    -0.154 N  
HETATM    6  H   UNK A   0      -7.281  17.144  67.023  1.00  0.00     0.000 HD 
HETATM    7  C   UNK A   0      -9.012  15.982  66.738  1.00  0.00    -0.246 C  
HETATM    8  C   UNK A   0      -9.982  15.192  67.501  1.00  0.00    -0.225 A  
HETATM    9  O   UNK A   0      -9.117  16.129  65.528  1.00  0.00    -0.344 OA 
HETATM   10  C   UNK A   0      -9.798  15.022  68.846  1.00  0.00    -0.233 A  
HETATM   11  N   UNK A   0     -10.813  14.295  69.373  1.00  0.00    -0.375 NA 
HETATM   12  N   UNK A   0      -8.758  15.556  69.498  1.00  0.00    -0.260 NA 
HETATM   13  H   UNK A   0     -10.915  14.028  70.352  1.00  0.00     0.000 HD 
HETATM   14  C   UNK A   0     -11.681  13.980  68.355  1.00  0.00    -0.354 A  
HETATM   15  C   UNK A   0     -11.198  14.522  67.168  1.00  0.00    -0.341 A  
ENDROOT
BRANCH  15  16
HETATM   16  C   UNK A   0     -11.871  14.462  65.834  1.00  0.00    -0.371 C  
BRANCH  16  17
HETATM   17  C   UNK A   0     -12.456  13.081  65.494  1.00  0.00    -0.496 C  
BRANCH  17  18
HETATM   18  C   UNK A   0     -11.417  11.973  65.464  1.00  0.00    -0.368 A  
HETATM   19  C   UNK A   0     -10.742  11.637  64.284  1.00  0.00    -0.398 A  
HETATM   20  C   UNK A   0      -9.882  10.540  64.240  1.00  0.00    -0.402 A  
HETATM   21  C   UNK A   0      -9.662   9.773  65.387  1.00  0.00    -0.383 A  
HETATM   22  C   UNK A   0     -10.226  10.170  66.602  1.00  0.00    -0.287 A  
HETATM   23  C   UNK A   0     -11.103  11.263  66.636  1.00  0.00    -0.299 A  
BRANCH  21  24
HETATM   24  C   UNK A   0      -8.887   8.504  65.296  1.00  0.00    -0.100 C  
HETATM   25  O   UNK A   0      -7.984   8.330  64.487  1.00  0.00    -0.132 OA 
ATOM     26  N   GLU A   1      -9.243   7.543  66.222  1.00  0.00    -0.262 N  
ATOM     27  H   GLU A   1      -9.998   7.742  66.879  1.00  0.00     0.000 HD 
BRANCH  26  28
ATOM     28  CA  GLU A   1      -8.568   6.256  66.286  1.00  0.00    -0.138 C  
ATOM     29  C   GLU A   1      -9.415   5.211  65.550  1.00  0.00    -0.080 C  
ATOM     30  O   GLU A   1      -9.127   5.116  64.232  1.00  0.00    -0.038 OA 
ATOM     31  OXT GLU A   1     -10.285   4.527  66.088  1.00  0.00    -0.247 OA 
BRANCH  28  32
ATOM     32  CB  GLU A   1      -8.339   5.831  67.743  1.00  0.00    -0.104 C  
BRANCH  32  33
ATOM     33  CG  GLU A   1      -9.006   6.792  68.726  1.00  0.00    -0.130 C  
ATOM     34  CD  GLU A   1     -10.331   6.253  69.189  1.00  0.00    -0.216 C  
ATOM     35  OE1 GLU A   1     -10.252   5.515  70.317  1.00  0.00    -0.214 OA 
ATOM     36  OE2 GLU A   1     -11.380   6.432  68.588  1.00  0.00    -0.313 OA 
ENDBRANCH  32  33
ENDBRANCH  28  32
ENDBRANCH  26  28
ENDBRANCH  21  24
ENDBRANCH  17  18
ENDBRANCH  16  17
ENDBRANCH  15  16
TORSDOF 7
ENDMDL
MODEL      147
REMARK 921   NORMALIZED FREE ENERGY PREDICTED BY IDOCK:   -4.53 KCAL/MOL
REMARK 922        TOTAL FREE ENERGY PREDICTED BY IDOCK:   -9.03 KCAL/MOL
REMARK 923 INTER-LIGAND FREE ENERGY PREDICTED BY IDOCK:   -7.83 KCAL/MOL
REMARK 924 INTRA-LIGAND FREE ENERGY PREDICTED BY IDOCK:   -1.20 KCAL/MOL
REMARK 927      BINDING AFFINITY PREDICTED BY RF-SCORE:    0.00 PKD
ROOT
HETATM    1  N   UNK A   0      -8.819   1.467  62.506  1.00  0.00    -0.067 NA 
HETATM    2  H1  UNK A   0      -9.666   1.273  61.973  1.00  0.00     0.000 HD 
HETATM    3  C   UNK A   0      -8.817   2.400  63.492  1.00  0.00    -0.085 C  
HETATM    4  H2  UNK A   0      -7.962   0.954  62.295  1.00  0.00     0.000 HD 
HETATM    5  N   UNK A   0      -7.736   2.648  64.172  1.00  0.00    -0.075 N  
HETATM    6  H   UNK A   0      -6.870   2.154  63.957  1.00  0.00     0.000 HD 
HETATM    7  C   UNK A   0      -7.767   3.595  65.199  1.00  0.00    -0.085 C  
HETATM    8  C   UNK A   0      -9.071   4.213  65.457  1.00  0.00    -0.138 A  
HETATM    9  O   UNK A   0      -6.777   3.895  65.853  1.00  0.00    -0.043 OA 
HETATM   10  C   UNK A   0     -10.139   3.876  64.670  1.00  0.00    -0.213 A  
HETATM   11  N   UNK A   0     -11.254   4.524  65.086  1.00  0.00    -1.047 NA 
HETATM   12  N   UNK A   0     -10.038   2.996  63.667  1.00  0.00    -0.156 NA 
HETATM   13  H   UNK A   0     -12.183   4.448  64.671  1.00  0.00     0.000 HD 
HETATM   14  C   UNK A   0     -10.913   5.303  66.167  1.00  0.00     0.042 A  
HETATM   15  C   UNK A   0      -9.558   5.137  66.431  1.00  0.00    -0.171 A  
ENDROOT
BRANCH  15  16
HETATM   16  C   UNK A   0      -8.797   5.758  67.559  1.00  0.00    -0.106 C  
BRANCH  16  17
HETATM   17  C   UNK A   0      -9.664   6.613  68.498  1.00  0.00    -0.131 C  
BRANCH  17  18
HETATM   18  C   UNK A   0      -9.518   8.107  68.265  1.00  0.00    -0.148 A  
HETATM   19  C   UNK A   0     -10.323   8.784  67.340  1.00  0.00    -0.349 A  
HETATM   20  C   UNK A   0     -10.098  10.128  67.046  1.00  0.00    -0.277 A  
HETATM   21  C   UNK A   0      -9.076  10.828  67.692  1.00  0.00    -0.148 A  
HETATM   22  C   UNK A   0      -8.348  10.205  68.709  1.00  0.00    -0.122 A  
HETATM   23  C   UNK A   0      -8.567   8.848  68.989  1.00  0.00    -0.138 A  
BRANCH  21  24
HETATM   24  C   UNK A   0      -8.723  12.206  67.250  1.00  0.00    -0.182 C  
HETATM   25  O   UNK A   0      -7.567  12.585  67.105  1.00  0.00    -0.148 OA 
ATOM     26  N   GLU A   1      -9.805  13.020  66.981  1.00  0.00    -0.233 N  
ATOM     27  H   GLU A   1     -10.748  12.653  67.111  1.00  0.00     0.000 HD 
BRANCH  26  28
ATOM     28  CA  GLU A   1      -9.635  14.388  66.515  1.00  0.00    -0.293 C  
ATOM     29  C   GLU A   1     -10.124  15.350  67.604  1.00  0.00    -0.236 C  
ATOM     30  O   GLU A   1      -9.159  15.700  68.485  1.00  0.00    -0.184 OA 
ATOM     31  OXT GLU A   1     -11.280  15.763  67.691  1.00  0.00    -0.318 OA 
BRANCH  28  32
ATOM     32  CB  GLU A   1     -10.408  14.620  65.209  1.00  0.00    -0.425 C  
BRANCH  32  33
ATOM     33  CG  GLU A   1     -10.720  13.307  64.494  1.00  0.00    -0.428 C  
ATOM     34  CD  GLU A   1     -12.188  13.203  64.180  1.00  0.00    -0.398 C  
ATOM     35  OE1 GLU A   1     -12.516  13.681  62.961  1.00  0.00    -0.719 OA 
ATOM     36  OE2 GLU A   1     -13.016  12.760  64.962  1.00  0.00    -0.811 OA 
ENDBRANCH  32  33
ENDBRANCH  28  32
ENDBRANCH  26  28
ENDBRANCH  21  24
ENDBRANCH  17  18
ENDBRANCH  16  17
ENDBRANCH  15  16
TORSDOF 7
ENDMDL
MODEL      148
REMARK 921   NORMALIZED FREE ENERGY PREDICTED BY IDOCK:   -4.52 KCAL/MOL
REMARK 922        TOTAL FREE ENERGY PREDICTED BY IDOCK:   -9.01 KCAL/MOL
REMARK 923 INTER-LIGAND FREE ENERGY PREDICTED BY IDOCK:   -8.31 KCAL/MOL
REMARK 924 INTRA-LIGAND FREE ENERGY PREDICTED BY IDOCK:   -0.70 KCAL/MOL
REMARK 927      BINDING AFFINITY PREDICTED BY RF-SCORE:    0.00 PKD
ROOT
HETATM    1  N   UNK A   0     -13.814   5.874  72.456  1.00  0.00    -0.193 NA 
HETATM    2  H1  UNK A   0     -13.415   4.986  72.152  1.00  0.00     0.000 HD 
HETATM    3  C   UNK A   0     -13.330   7.051  71.984  1.00  0.00    -0.076 C  
HETATM    4  H2  UNK A   0     -14.586   5.877  73.122  1.00  0.00     0.000 HD 
HETATM    5  N   UNK A   0     -13.839   8.184  72.371  1.00  0.00    -0.572 N  
HETATM    6  H   UNK A   0     -14.599   8.198  73.052  1.00  0.00     0.000 HD 
HETATM    7  C   UNK A   0     -13.339   9.380  71.851  1.00  0.00    -0.434 C  
HETATM    8  C   UNK A   0     -12.280   9.245  70.847  1.00  0.00    -0.264 A  
HETATM    9  O   UNK A   0     -13.755  10.478  72.200  1.00  0.00    -0.211 OA 
HETATM   10  C   UNK A   0     -11.820   7.998  70.522  1.00  0.00    -0.008 A  
HETATM   11  N   UNK A   0     -10.872   8.082  69.556  1.00  0.00    -0.387 NA 
HETATM   12  N   UNK A   0     -12.305   6.887  71.090  1.00  0.00    -0.380 NA 
HETATM   13  H   UNK A   0     -10.371   7.298  69.138  1.00  0.00     0.000 HD 
HETATM   14  C   UNK A   0     -10.706   9.410  69.241  1.00  0.00    -0.211 A  
HETATM   15  C   UNK A   0     -11.567  10.170  70.025  1.00  0.00    -0.323 A  
ENDROOT
BRANCH  15  16
HETATM   16  C   UNK A   0     -11.745  11.653  69.955  1.00  0.00    -0.414 C  
BRANCH  16  17
HETATM   17  C   UNK A   0     -11.974  12.186  68.530  1.00  0.00    -0.273 C  
BRANCH  17  18
HETATM   18  C   UNK A   0     -10.963  13.237  68.106  1.00  0.00    -0.278 A  
HETATM   19  C   UNK A   0     -10.370  14.098  69.038  1.00  0.00    -0.159 A  
HETATM   20  C   UNK A   0      -9.538  15.137  68.624  1.00  0.00    -0.213 A  
HETATM   21  C   UNK A   0      -9.264  15.319  67.265  1.00  0.00    -0.209 A  
HETATM   22  C   UNK A   0      -9.743  14.394  66.335  1.00  0.00    -0.320 A  
HETATM   23  C   UNK A   0     -10.593  13.361  66.755  1.00  0.00    -0.277 A  
BRANCH  21  24
HETATM   24  C   UNK A   0      -8.524  16.530  66.811  1.00  0.00    -0.238 C  
HETATM   25  O   UNK A   0      -8.348  16.799  65.630  1.00  0.00    -0.333 OA 
ATOM     26  N   GLU A   1      -8.079  17.349  67.829  1.00  0.00    -0.211 N  
ATOM     27  H   GLU A   1      -8.259  17.081  68.797  1.00  0.00     0.000 HD 
BRANCH  26  28
ATOM     28  CA  GLU A   1      -7.361  18.585  67.557  1.00  0.00    -0.219 C  
ATOM     29  C   GLU A   1      -6.453  18.908  68.750  1.00  0.00    -0.252 C  
ATOM     30  O   GLU A   1      -5.222  18.358  68.654  1.00  0.00    -0.173 OA 
ATOM     31  OXT GLU A   1      -6.800  19.587  69.716  1.00  0.00    -0.286 OA 
BRANCH  28  32
ATOM     32  CB  GLU A   1      -8.338  19.740  67.300  1.00  0.00    -0.351 C  
BRANCH  32  33
ATOM     33  CG  GLU A   1      -8.261  20.237  65.858  1.00  0.00    -0.050 C  
ATOM     34  CD  GLU A   1      -6.838  20.254  65.371  1.00  0.00    -0.288 C  
ATOM     35  OE1 GLU A   1      -6.462  19.112  64.758  1.00  0.00    -0.459 OA 
ATOM     36  OE2 GLU A   1      -6.077  21.196  65.542  1.00  0.00    -0.251 OA 
ENDBRANCH  32  33
ENDBRANCH  28  32
ENDBRANCH  26  28
ENDBRANCH  21  24
ENDBRANCH  17  18
ENDBRANCH  16  17
ENDBRANCH  15  16
TORSDOF 7
ENDMDL
MODEL      149
REMARK 921   NORMALIZED FREE ENERGY PREDICTED BY IDOCK:   -4.52 KCAL/MOL
REMARK 922        TOTAL FREE ENERGY PREDICTED BY IDOCK:   -9.01 KCAL/MOL
REMARK 923 INTER-LIGAND FREE ENERGY PREDICTED BY IDOCK:   -8.06 KCAL/MOL
REMARK 924 INTRA-LIGAND FREE ENERGY PREDICTED BY IDOCK:   -0.95 KCAL/MOL
REMARK 927      BINDING AFFINITY PREDICTED BY RF-SCORE:    0.00 PKD
ROOT
HETATM    1  N   UNK A   0     -11.558   5.797  73.042  1.00  0.00    -0.519 NA 
HETATM    2  H1  UNK A   0     -10.673   5.305  73.158  1.00  0.00     0.000 HD 
HETATM    3  C   UNK A   0     -11.633   6.932  72.300  1.00  0.00    -0.270 C  
HETATM    4  H2  UNK A   0     -12.399   5.431  73.489  1.00  0.00     0.000 HD 
HETATM    5  N   UNK A   0     -12.763   7.559  72.153  1.00  0.00    -0.494 N  
HETATM    6  H   UNK A   0     -13.605   7.211  72.611  1.00  0.00     0.000 HD 
HETATM    7  C   UNK A   0     -12.816   8.710  71.364  1.00  0.00    -0.264 C  
HETATM    8  C   UNK A   0     -11.561   9.097  70.713  1.00  0.00    -0.329 A  
HETATM    9  O   UNK A   0     -13.842   9.361  71.212  1.00  0.00    -0.314 OA 
HETATM   10  C   UNK A   0     -10.431   8.361  70.948  1.00  0.00    -0.196 A  
HETATM   11  N   UNK A   0      -9.390   8.855  70.234  1.00  0.00    -0.172 NA 
HETATM   12  N   UNK A   0     -10.429   7.292  71.754  1.00  0.00    -0.197 NA 
HETATM   13  H   UNK A   0      -8.438   8.489  70.230  1.00  0.00     0.000 HD 
HETATM   14  C   UNK A   0      -9.844   9.936  69.517  1.00  0.00    -0.223 A  
HETATM   15  C   UNK A   0     -11.196  10.121  69.788  1.00  0.00    -0.325 A  
ENDROOT
BRANCH  15  16
HETATM   16  C   UNK A   0     -12.086  11.151  69.169  1.00  0.00    -0.352 C  
BRANCH  16  17
HETATM   17  C   UNK A   0     -12.284  12.405  70.036  1.00  0.00    -0.264 C  
BRANCH  17  18
HETATM   18  C   UNK A   0     -11.334  13.538  69.688  1.00  0.00    -0.219 A  
HETATM   19  C   UNK A   0     -11.197  14.658  70.518  1.00  0.00    -0.144 A  
HETATM   20  C   UNK A   0     -10.416  15.745  70.128  1.00  0.00    -0.288 A  
HETATM   21  C   UNK A   0      -9.735  15.721  68.908  1.00  0.00    -0.225 A  
HETATM   22  C   UNK A   0      -9.756  14.562  68.129  1.00  0.00    -0.219 A  
HETATM   23  C   UNK A   0     -10.557  13.478  68.517  1.00  0.00    -0.257 A  
BRANCH  21  24
HETATM   24  C   UNK A   0      -9.049  16.947  68.414  1.00  0.00    -0.243 C  
HETATM   25  O   UNK A   0      -9.634  18.004  68.212  1.00  0.00    -0.291 OA 
ATOM     26  N   GLU A   1      -7.686  16.812  68.234  1.00  0.00    -0.180 N  
ATOM     27  H   GLU A   1      -7.246  15.911  68.424  1.00  0.00     0.000 HD 
BRANCH  26  28
ATOM     28  CA  GLU A   1      -6.862  17.922  67.781  1.00  0.00    -0.191 C  
ATOM     29  C   GLU A   1      -6.542  17.731  66.293  1.00  0.00    -0.262 C  
ATOM     30  O   GLU A   1      -7.460  18.285  65.470  1.00  0.00    -0.537 OA 
ATOM     31  OXT GLU A   1      -5.558  17.123  65.872  1.00  0.00    -0.245 OA 
BRANCH  28  32
ATOM     32  CB  GLU A   1      -5.567  18.011  68.600  1.00  0.00    -0.175 C  
BRANCH  32  33
ATOM     33  CG  GLU A   1      -5.607  19.166  69.599  1.00  0.00    -0.236 C  
ATOM     34  CD  GLU A   1      -6.285  20.369  69.003  1.00  0.00    -0.316 C  
ATOM     35  OE1 GLU A   1      -7.612  20.416  69.242  1.00  0.00     0.217 OA 
ATOM     36  OE2 GLU A   1      -5.702  21.211  68.335  1.00  0.00    -0.329 OA 
ENDBRANCH  32  33
ENDBRANCH  28  32
ENDBRANCH  26  28
ENDBRANCH  21  24
ENDBRANCH  17  18
ENDBRANCH  16  17
ENDBRANCH  15  16
TORSDOF 7
ENDMDL
MODEL      150
REMARK 921   NORMALIZED FREE ENERGY PREDICTED BY IDOCK:   -4.51 KCAL/MOL
REMARK 922        TOTAL FREE ENERGY PREDICTED BY IDOCK:   -9.00 KCAL/MOL
REMARK 923 INTER-LIGAND FREE ENERGY PREDICTED BY IDOCK:   -8.55 KCAL/MOL
REMARK 924 INTRA-LIGAND FREE ENERGY PREDICTED BY IDOCK:   -0.45 KCAL/MOL
REMARK 927      BINDING AFFINITY PREDICTED BY RF-SCORE:    0.00 PKD
ROOT
HETATM    1  N   UNK A   0     -11.739   6.334  72.318  1.00  0.00    -0.369 NA 
HETATM    2  H1  UNK A   0     -12.232   6.434  73.204  1.00  0.00     0.000 HD 
HETATM    3  C   UNK A   0     -11.635   7.380  71.458  1.00  0.00    -0.275 C  
HETATM    4  H2  UNK A   0     -11.318   5.437  72.074  1.00  0.00     0.000 HD 
HETATM    5  N   UNK A   0     -11.006   7.252  70.327  1.00  0.00    -0.256 N  
HETATM    6  H   UNK A   0     -10.598   6.355  70.066  1.00  0.00     0.000 HD 
HETATM    7  C   UNK A   0     -10.891   8.351  69.472  1.00  0.00    -0.117 C  
HETATM    8  C   UNK A   0     -11.471   9.604  69.963  1.00  0.00    -0.191 A  
HETATM    9  O   UNK A   0     -10.338   8.286  68.381  1.00  0.00    -0.206 OA 
HETATM   10  C   UNK A   0     -12.116   9.616  71.170  1.00  0.00    -0.362 A  
HETATM   11  N   UNK A   0     -12.550  10.867  71.461  1.00  0.00    -0.388 NA 
HETATM   12  N   UNK A   0     -12.237   8.518  71.926  1.00  0.00    -0.329 NA 
HETATM   13  H   UNK A   0     -13.059  11.146  72.300  1.00  0.00     0.000 HD 
HETATM   14  C   UNK A   0     -12.184  11.693  70.425  1.00  0.00    -0.347 A  
HETATM   15  C   UNK A   0     -11.508  10.943  69.468  1.00  0.00    -0.372 A  
ENDROOT
BRANCH  15  16
HETATM   16  C   UNK A   0     -10.889  11.469  68.212  1.00  0.00    -0.257 C  
BRANCH  16  17
HETATM   17  C   UNK A   0      -9.353  11.538  68.257  1.00  0.00    -0.190 C  
BRANCH  17  18
HETATM   18  C   UNK A   0      -8.798  12.911  67.919  1.00  0.00    -0.190 A  
HETATM   19  C   UNK A   0      -7.642  13.404  68.537  1.00  0.00    -0.127 A  
HETATM   20  C   UNK A   0      -7.212  14.711  68.311  1.00  0.00    -0.117 A  
HETATM   21  C   UNK A   0      -7.921  15.543  67.440  1.00  0.00    -0.211 A  
HETATM   22  C   UNK A   0      -8.999  15.028  66.717  1.00  0.00    -0.293 A  
HETATM   23  C   UNK A   0      -9.438  13.718  66.961  1.00  0.00    -0.255 A  
BRANCH  21  24
HETATM   24  C   UNK A   0      -7.566  16.986  67.336  1.00  0.00    -0.167 C  
HETATM   25  O   UNK A   0      -6.998  17.599  68.231  1.00  0.00    -0.205 OA 
ATOM     26  N   GLU A   1      -7.897  17.576  66.132  1.00  0.00    -0.271 N  
ATOM     27  H   GLU A   1      -8.363  17.018  65.417  1.00  0.00     0.000 HD 
BRANCH  26  28
ATOM     28  CA  GLU A   1      -7.597  18.973  65.858  1.00  0.00    -0.195 C  
ATOM     29  C   GLU A   1      -6.165  19.080  65.320  1.00  0.00    -0.282 C  
ATOM     30  O   GLU A   1      -6.085  18.965  63.975  1.00  0.00    -0.409 OA 
ATOM     31  OXT GLU A   1      -5.172  19.240  66.030  1.00  0.00    -0.149 OA 
BRANCH  28  32
ATOM     32  CB  GLU A   1      -7.758  19.826  67.124  1.00  0.00    -0.299 C  
BRANCH  32  33
ATOM     33  CG  GLU A   1      -9.145  20.461  67.207  1.00  0.00    -0.500 C  
ATOM     34  CD  GLU A   1     -10.115  19.544  67.900  1.00  0.00    -0.417 C  
ATOM     35  OE1 GLU A   1     -10.193  19.746  69.233  1.00  0.00    -0.381 OA 
ATOM     36  OE2 GLU A   1     -10.751  18.674  67.324  1.00  0.00    -0.424 OA 
ENDBRANCH  32  33
ENDBRANCH  28  32
ENDBRANCH  26  28
ENDBRANCH  21  24
ENDBRANCH  17  18
ENDBRANCH  16  17
ENDBRANCH  15  16
TORSDOF 7
ENDMDL
MODEL      151
REMARK 921   NORMALIZED FREE ENERGY PREDICTED BY IDOCK:   -4.51 KCAL/MOL
REMARK 922        TOTAL FREE ENERGY PREDICTED BY IDOCK:   -9.00 KCAL/MOL
REMARK 923 INTER-LIGAND FREE ENERGY PREDICTED BY IDOCK:   -8.71 KCAL/MOL
REMARK 924 INTRA-LIGAND FREE ENERGY PREDICTED BY IDOCK:   -0.28 KCAL/MOL
REMARK 927      BINDING AFFINITY PREDICTED BY RF-SCORE:    0.00 PKD
ROOT
HETATM    1  N   UNK A   0     -13.871   5.867  72.581  1.00  0.00    -0.163 NA 
HETATM    2  H1  UNK A   0     -13.528   4.931  72.367  1.00  0.00     0.000 HD 
HETATM    3  C   UNK A   0     -13.284   6.963  72.035  1.00  0.00    -0.067 C  
HETATM    4  H2  UNK A   0     -14.664   5.981  73.212  1.00  0.00     0.000 HD 
HETATM    5  N   UNK A   0     -13.721   8.158  72.307  1.00  0.00    -0.544 N  
HETATM    6  H   UNK A   0     -14.502   8.283  72.952  1.00  0.00     0.000 HD 
HETATM    7  C   UNK A   0     -13.116   9.267  71.713  1.00  0.00    -0.400 C  
HETATM    8  C   UNK A   0     -12.035   8.974  70.767  1.00  0.00    -0.214 A  
HETATM    9  O   UNK A   0     -13.461  10.417  71.953  1.00  0.00    -0.372 OA 
HETATM   10  C   UNK A   0     -11.657   7.674  70.565  1.00  0.00    -0.175 A  
HETATM   11  N   UNK A   0     -10.671   7.609  69.636  1.00  0.00    -0.269 NA 
HETATM   12  N   UNK A   0     -12.243   6.652  71.201  1.00  0.00    -0.349 NA 
HETATM   13  H   UNK A   0     -10.215   6.759  69.305  1.00  0.00     0.000 HD 
HETATM   14  C   UNK A   0     -10.396   8.890  69.221  1.00  0.00    -0.213 A  
HETATM   15  C   UNK A   0     -11.226   9.773  69.904  1.00  0.00    -0.271 A  
ENDROOT
BRANCH  15  16
HETATM   16  C   UNK A   0     -11.291  11.254  69.706  1.00  0.00    -0.348 C  
BRANCH  16  17
HETATM   17  C   UNK A   0     -11.510  11.677  68.243  1.00  0.00    -0.369 C  
BRANCH  17  18
HETATM   18  C   UNK A   0     -10.816  12.978  67.878  1.00  0.00    -0.260 A  
HETATM   19  C   UNK A   0     -10.525  13.948  68.846  1.00  0.00    -0.199 A  
HETATM   20  C   UNK A   0     -10.000  15.187  68.482  1.00  0.00    -0.223 A  
HETATM   21  C   UNK A   0      -9.732  15.470  67.140  1.00  0.00    -0.226 A  
HETATM   22  C   UNK A   0      -9.894  14.470  66.178  1.00  0.00    -0.339 A  
HETATM   23  C   UNK A   0     -10.439  13.231  66.547  1.00  0.00    -0.282 A  
BRANCH  21  24
HETATM   24  C   UNK A   0      -9.341  16.848  66.734  1.00  0.00    -0.251 C  
HETATM   25  O   UNK A   0      -9.311  17.217  65.566  1.00  0.00    -0.421 OA 
ATOM     26  N   GLU A   1      -9.047  17.697  67.783  1.00  0.00    -0.244 N  
ATOM     27  H   GLU A   1      -9.094  17.341  68.738  1.00  0.00     0.000 HD 
BRANCH  26  28
ATOM     28  CA  GLU A   1      -8.671  19.085  67.561  1.00  0.00    -0.290 C  
ATOM     29  C   GLU A   1      -9.935  19.902  67.268  1.00  0.00    -0.421 C  
ATOM     30  O   GLU A   1     -10.520  20.406  68.378  1.00  0.00    -0.254 OA 
ATOM     31  OXT GLU A   1     -10.393  20.082  66.140  1.00  0.00    -0.466 OA 
BRANCH  28  32
ATOM     32  CB  GLU A   1      -7.675  19.203  66.399  1.00  0.00    -0.288 C  
BRANCH  32  33
ATOM     33  CG  GLU A   1      -6.229  19.103  66.879  1.00  0.00    -0.185 C  
ATOM     34  CD  GLU A   1      -5.821  17.667  67.062  1.00  0.00    -0.145 C  
ATOM     35  OE1 GLU A   1      -5.255  17.121  65.965  1.00  0.00    -0.344 OA 
ATOM     36  OE2 GLU A   1      -6.013  17.036  68.091  1.00  0.00    -0.120 OA 
ENDBRANCH  32  33
ENDBRANCH  28  32
ENDBRANCH  26  28
ENDBRANCH  21  24
ENDBRANCH  17  18
ENDBRANCH  16  17
ENDBRANCH  15  16
TORSDOF 7
ENDMDL
MODEL      152
REMARK 921   NORMALIZED FREE ENERGY PREDICTED BY IDOCK:   -4.51 KCAL/MOL
REMARK 922        TOTAL FREE ENERGY PREDICTED BY IDOCK:   -8.99 KCAL/MOL
REMARK 923 INTER-LIGAND FREE ENERGY PREDICTED BY IDOCK:   -7.68 KCAL/MOL
REMARK 924 INTRA-LIGAND FREE ENERGY PREDICTED BY IDOCK:   -1.31 KCAL/MOL
REMARK 927      BINDING AFFINITY PREDICTED BY RF-SCORE:    0.00 PKD
ROOT
HETATM    1  N   UNK A   0     -12.195  16.501  72.499  1.00  0.00    -0.495 NA 
HETATM    2  H1  UNK A   0     -12.303  16.053  73.409  1.00  0.00     0.000 HD 
HETATM    3  C   UNK A   0     -12.041  15.760  71.372  1.00  0.00    -0.438 C  
HETATM    4  H2  UNK A   0     -12.205  17.519  72.435  1.00  0.00     0.000 HD 
HETATM    5  N   UNK A   0     -11.904  16.331  70.212  1.00  0.00    -0.386 N  
HETATM    6  H   UNK A   0     -11.894  17.349  70.140  1.00  0.00     0.000 HD 
HETATM    7  C   UNK A   0     -11.772  15.545  69.065  1.00  0.00    -0.377 C  
HETATM    8  C   UNK A   0     -11.847  14.096  69.274  1.00  0.00    -0.381 A  
HETATM    9  O   UNK A   0     -11.610  16.023  67.950  1.00  0.00    -0.218 OA 
HETATM   10  C   UNK A   0     -11.987  13.609  70.545  1.00  0.00    -0.280 A  
HETATM   11  N   UNK A   0     -12.071  12.256  70.525  1.00  0.00    -0.474 NA 
HETATM   12  N   UNK A   0     -12.061  14.411  71.613  1.00  0.00    -0.318 NA 
HETATM   13  H   UNK A   0     -12.179  11.649  71.337  1.00  0.00     0.000 HD 
HETATM   14  C   UNK A   0     -11.983  11.846  69.215  1.00  0.00    -0.281 A  
HETATM   15  C   UNK A   0     -11.843  12.965  68.402  1.00  0.00    -0.357 A  
ENDROOT
BRANCH  15  16
HETATM   16  C   UNK A   0     -11.773  12.966  66.908  1.00  0.00    -0.445 C  
BRANCH  16  17
HETATM   17  C   UNK A   0     -10.341  12.882  66.351  1.00  0.00    -0.277 C  
BRANCH  17  18
HETATM   18  C   UNK A   0      -9.974  11.503  65.831  1.00  0.00    -0.267 A  
HETATM   19  C   UNK A   0     -10.051  10.369  66.649  1.00  0.00    -0.279 A  
HETATM   20  C   UNK A   0      -9.596   9.130  66.199  1.00  0.00    -0.333 A  
HETATM   21  C   UNK A   0      -9.075   8.999  64.908  1.00  0.00    -0.132 A  
HETATM   22  C   UNK A   0      -9.109  10.090  64.036  1.00  0.00    -0.296 A  
HETATM   23  C   UNK A   0      -9.553  11.337  64.499  1.00  0.00    -0.260 A  
BRANCH  21  24
HETATM   24  C   UNK A   0      -8.428   7.723  64.493  1.00  0.00     0.108 C  
HETATM   25  O   UNK A   0      -7.623   7.652  63.573  1.00  0.00    -0.105 OA 
ATOM     26  N   GLU A   1      -8.781   6.624  65.251  1.00  0.00    -0.353 N  
ATOM     27  H   GLU A   1      -9.452   6.740  66.011  1.00  0.00     0.000 HD 
BRANCH  26  28
ATOM     28  CA  GLU A   1      -8.220   5.307  64.994  1.00  0.00    -0.134 C  
ATOM     29  C   GLU A   1      -9.253   4.465  64.235  1.00  0.00    -0.145 C  
ATOM     30  O   GLU A   1      -9.165   4.588  62.892  1.00  0.00    -0.140 OA 
ATOM     31  OXT GLU A   1     -10.095   3.751  64.780  1.00  0.00    -0.191 OA 
BRANCH  28  32
ATOM     32  CB  GLU A   1      -7.825   4.615  66.307  1.00  0.00    -0.099 C  
BRANCH  32  33
ATOM     33  CG  GLU A   1      -6.916   5.497  67.161  1.00  0.00    -0.065 C  
ATOM     34  CD  GLU A   1      -7.608   5.910  68.431  1.00  0.00    -0.090 C  
ATOM     35  OE1 GLU A   1      -7.386   5.072  69.465  1.00  0.00    -0.055 OA 
ATOM     36  OE2 GLU A   1      -8.332   6.891  68.517  1.00  0.00    -0.120 OA 
ENDBRANCH  32  33
ENDBRANCH  28  32
ENDBRANCH  26  28
ENDBRANCH  21  24
ENDBRANCH  17  18
ENDBRANCH  16  17
ENDBRANCH  15  16
TORSDOF 7
ENDMDL
MODEL      153
REMARK 921   NORMALIZED FREE ENERGY PREDICTED BY IDOCK:   -4.50 KCAL/MOL
REMARK 922        TOTAL FREE ENERGY PREDICTED BY IDOCK:   -8.98 KCAL/MOL
REMARK 923 INTER-LIGAND FREE ENERGY PREDICTED BY IDOCK:   -8.49 KCAL/MOL
REMARK 924 INTRA-LIGAND FREE ENERGY PREDICTED BY IDOCK:   -0.49 KCAL/MOL
REMARK 927      BINDING AFFINITY PREDICTED BY RF-SCORE:    0.00 PKD
ROOT
HETATM    1  N   UNK A   0      -7.707   2.562  71.486  1.00  0.00    -0.040 NA 
HETATM    2  H1  UNK A   0      -7.854   2.503  72.493  1.00  0.00     0.000 HD 
HETATM    3  C   UNK A   0      -8.465   3.390  70.720  1.00  0.00    -0.069 C  
HETATM    4  H2  UNK A   0      -6.982   1.994  71.048  1.00  0.00     0.000 HD 
HETATM    5  N   UNK A   0      -8.278   3.466  69.435  1.00  0.00    -0.052 N  
HETATM    6  H   UNK A   0      -7.568   2.887  68.986  1.00  0.00     0.000 HD 
HETATM    7  C   UNK A   0      -9.054   4.343  68.675  1.00  0.00    -0.124 C  
HETATM    8  C   UNK A   0     -10.012   5.161  69.425  1.00  0.00    -0.292 A  
HETATM    9  O   UNK A   0      -8.947   4.437  67.459  1.00  0.00    -0.106 OA 
HETATM   10  C   UNK A   0     -10.124   4.989  70.777  1.00  0.00    -0.237 A  
HETATM   11  N   UNK A   0     -11.032   5.856  71.289  1.00  0.00    -0.271 NA 
HETATM   12  N   UNK A   0      -9.386   4.096  71.448  1.00  0.00    -0.135 NA 
HETATM   13  H   UNK A   0     -11.301   5.933  72.270  1.00  0.00     0.000 HD 
HETATM   14  C   UNK A   0     -11.527   6.612  70.253  1.00  0.00    -0.391 A  
HETATM   15  C   UNK A   0     -10.915   6.209  69.070  1.00  0.00    -0.436 A  
ENDROOT
BRANCH  15  16
HETATM   16  C   UNK A   0     -11.124   6.815  67.719  1.00  0.00    -0.285 C  
BRANCH  16  17
HETATM   17  C   UNK A   0      -9.948   7.681  67.236  1.00  0.00    -0.273 C  
BRANCH  17  18
HETATM   18  C   UNK A   0     -10.136   9.163  67.508  1.00  0.00    -0.284 A  
HETATM   19  C   UNK A   0     -10.177   9.667  68.814  1.00  0.00    -0.213 A  
HETATM   20  C   UNK A   0     -10.472  11.008  69.054  1.00  0.00    -0.242 A  
HETATM   21  C   UNK A   0     -10.707  11.878  67.986  1.00  0.00    -0.242 A  
HETATM   22  C   UNK A   0     -10.543  11.423  66.676  1.00  0.00    -0.302 A  
HETATM   23  C   UNK A   0     -10.264  10.069  66.440  1.00  0.00    -0.290 A  
BRANCH  21  24
HETATM   24  C   UNK A   0     -11.194  13.262  68.247  1.00  0.00    -0.277 C  
HETATM   25  O   UNK A   0     -12.269  13.679  67.835  1.00  0.00    -0.320 OA 
ATOM     26  N   GLU A   1     -10.352  14.033  69.024  1.00  0.00    -0.393 N  
ATOM     27  H   GLU A   1      -9.471  13.634  69.348  1.00  0.00     0.000 HD 
BRANCH  26  28
ATOM     28  CA  GLU A   1     -10.690  15.399  69.394  1.00  0.00    -0.258 C  
ATOM     29  C   GLU A   1     -11.716  15.368  70.533  1.00  0.00    -0.325 C  
ATOM     30  O   GLU A   1     -11.154  15.345  71.763  1.00  0.00    -0.366 OA 
ATOM     31  OXT GLU A   1     -12.935  15.352  70.363  1.00  0.00    -0.367 OA 
BRANCH  28  32
ATOM     32  CB  GLU A   1     -11.251  16.168  68.189  1.00  0.00    -0.311 C  
BRANCH  32  33
ATOM     33  CG  GLU A   1     -10.137  16.764  67.330  1.00  0.00    -0.281 C  
ATOM     34  CD  GLU A   1      -9.998  16.012  66.034  1.00  0.00    -0.339 C  
ATOM     35  OE1 GLU A   1     -10.738  16.524  65.029  1.00  0.00    -0.662 OA 
ATOM     36  OE2 GLU A   1      -9.308  15.011  65.906  1.00  0.00    -0.303 OA 
ENDBRANCH  32  33
ENDBRANCH  28  32
ENDBRANCH  26  28
ENDBRANCH  21  24
ENDBRANCH  17  18
ENDBRANCH  16  17
ENDBRANCH  15  16
TORSDOF 7
ENDMDL
MODEL      154
REMARK 921   NORMALIZED FREE ENERGY PREDICTED BY IDOCK:   -4.50 KCAL/MOL
REMARK 922        TOTAL FREE ENERGY PREDICTED BY IDOCK:   -8.98 KCAL/MOL
REMARK 923 INTER-LIGAND FREE ENERGY PREDICTED BY IDOCK:   -7.66 KCAL/MOL
REMARK 924 INTRA-LIGAND FREE ENERGY PREDICTED BY IDOCK:   -1.32 KCAL/MOL
REMARK 927      BINDING AFFINITY PREDICTED BY RF-SCORE:    0.00 PKD
ROOT
HETATM    1  N   UNK A   0      -7.405  21.135  66.565  1.00  0.00    -0.602 NA 
HETATM    2  H1  UNK A   0      -6.581  21.372  67.116  1.00  0.00     0.000 HD 
HETATM    3  C   UNK A   0      -8.023  19.935  66.719  1.00  0.00    -0.310 C  
HETATM    4  H2  UNK A   0      -7.771  21.807  65.891  1.00  0.00     0.000 HD 
HETATM    5  N   UNK A   0      -9.074  19.632  66.016  1.00  0.00    -0.319 N  
HETATM    6  H   UNK A   0      -9.436  20.291  65.326  1.00  0.00     0.000 HD 
HETATM    7  C   UNK A   0      -9.705  18.401  66.212  1.00  0.00    -0.294 C  
HETATM    8  C   UNK A   0      -9.134  17.551  67.260  1.00  0.00    -0.240 A  
HETATM    9  O   UNK A   0     -10.679  18.047  65.560  1.00  0.00    -0.597 OA 
HETATM   10  C   UNK A   0      -8.019  17.974  67.931  1.00  0.00    -0.241 A  
HETATM   11  N   UNK A   0      -7.666  17.069  68.877  1.00  0.00    -0.247 NA 
HETATM   12  N   UNK A   0      -7.427  19.145  67.667  1.00  0.00    -0.235 NA 
HETATM   13  H   UNK A   0      -6.873  17.145  69.514  1.00  0.00     0.000 HD 
HETATM   14  C   UNK A   0      -8.567  16.031  68.826  1.00  0.00    -0.223 A  
HETATM   15  C   UNK A   0      -9.499  16.293  67.828  1.00  0.00    -0.221 A  
ENDROOT
BRANCH  15  16
HETATM   16  C   UNK A   0     -10.683  15.447  67.484  1.00  0.00    -0.295 C  
BRANCH  16  17
HETATM   17  C   UNK A   0     -10.372  14.319  66.485  1.00  0.00    -0.278 C  
BRANCH  17  18
HETATM   18  C   UNK A   0     -10.074  12.986  67.150  1.00  0.00    -0.244 A  
HETATM   19  C   UNK A   0     -10.940  12.436  68.104  1.00  0.00    -0.263 A  
HETATM   20  C   UNK A   0     -10.597  11.275  68.796  1.00  0.00    -0.234 A  
HETATM   21  C   UNK A   0      -9.388  10.628  68.528  1.00  0.00    -0.170 A  
HETATM   22  C   UNK A   0      -8.573  11.089  67.491  1.00  0.00    -0.128 A  
HETATM   23  C   UNK A   0      -8.915  12.267  66.810  1.00  0.00    -0.209 A  
BRANCH  21  24
HETATM   24  C   UNK A   0      -8.943   9.495  69.387  1.00  0.00    -0.172 C  
HETATM   25  O   UNK A   0      -8.365   9.656  70.455  1.00  0.00    -0.186 OA 
ATOM     26  N   GLU A   1      -9.266   8.243  68.903  1.00  0.00    -0.147 N  
ATOM     27  H   GLU A   1      -9.754   8.166  68.011  1.00  0.00     0.000 HD 
BRANCH  26  28
ATOM     28  CA  GLU A   1      -8.926   7.031  69.634  1.00  0.00    -0.141 C  
ATOM     29  C   GLU A   1      -7.723   6.362  68.958  1.00  0.00    -0.101 C  
ATOM     30  O   GLU A   1      -6.532   6.790  69.433  1.00  0.00    -0.040 OA 
ATOM     31  OXT GLU A   1      -7.814   5.525  68.060  1.00  0.00    -0.094 OA 
BRANCH  28  32
ATOM     32  CB  GLU A   1     -10.120   6.067  69.678  1.00  0.00    -0.244 C  
BRANCH  32  33
ATOM     33  CG  GLU A   1     -11.450   6.816  69.754  1.00  0.00    -0.319 C  
ATOM     34  CD  GLU A   1     -11.823   7.103  71.183  1.00  0.00    -0.325 C  
ATOM     35  OE1 GLU A   1     -11.385   8.300  71.626  1.00  0.00    -0.249 OA 
ATOM     36  OE2 GLU A   1     -12.436   6.318  71.891  1.00  0.00    -0.290 OA 
ENDBRANCH  32  33
ENDBRANCH  28  32
ENDBRANCH  26  28
ENDBRANCH  21  24
ENDBRANCH  17  18
ENDBRANCH  16  17
ENDBRANCH  15  16
TORSDOF 7
ENDMDL
MODEL      155
REMARK 921   NORMALIZED FREE ENERGY PREDICTED BY IDOCK:   -4.49 KCAL/MOL
REMARK 922        TOTAL FREE ENERGY PREDICTED BY IDOCK:   -8.97 KCAL/MOL
REMARK 923 INTER-LIGAND FREE ENERGY PREDICTED BY IDOCK:   -8.06 KCAL/MOL
REMARK 924 INTRA-LIGAND FREE ENERGY PREDICTED BY IDOCK:   -0.91 KCAL/MOL
REMARK 927      BINDING AFFINITY PREDICTED BY RF-SCORE:    0.00 PKD
ROOT
HETATM    1  N   UNK A   0      -7.060   4.061  72.928  1.00  0.00    -0.060 NA 
HETATM    2  H1  UNK A   0      -6.584   3.502  72.221  1.00  0.00     0.000 HD 
HETATM    3  C   UNK A   0      -8.149   4.806  72.609  1.00  0.00    -0.100 C  
HETATM    4  H2  UNK A   0      -6.714   4.060  73.888  1.00  0.00     0.000 HD 
HETATM    5  N   UNK A   0      -8.757   5.519  73.511  1.00  0.00    -0.118 N  
HETATM    6  H   UNK A   0      -8.407   5.539  74.469  1.00  0.00     0.000 HD 
HETATM    7  C   UNK A   0      -9.890   6.257  73.161  1.00  0.00    -0.167 C  
HETATM    8  C   UNK A   0     -10.336   6.120  71.771  1.00  0.00    -0.250 A  
HETATM    9  O   UNK A   0     -10.487   6.970  73.957  1.00  0.00    -0.366 OA 
HETATM   10  C   UNK A   0      -9.610   5.344  70.909  1.00  0.00    -0.173 A  
HETATM   11  N   UNK A   0     -10.199   5.319  69.688  1.00  0.00    -0.259 NA 
HETATM   12  N   UNK A   0      -8.502   4.697  71.289  1.00  0.00    -0.104 NA 
HETATM   13  H   UNK A   0      -9.861   4.814  68.869  1.00  0.00     0.000 HD 
HETATM   14  C   UNK A   0     -11.333   6.095  69.749  1.00  0.00    -0.382 A  
HETATM   15  C   UNK A   0     -11.454   6.614  71.033  1.00  0.00    -0.382 A  
ENDROOT
BRANCH  15  16
HETATM   16  C   UNK A   0     -12.578   7.461  71.539  1.00  0.00    -0.401 C  
BRANCH  16  17
HETATM   17  C   UNK A   0     -12.140   8.856  72.017  1.00  0.00    -0.442 C  
BRANCH  17  18
HETATM   18  C   UNK A   0     -11.548   9.716  70.914  1.00  0.00    -0.420 A  
HETATM   19  C   UNK A   0     -10.249   9.500  70.437  1.00  0.00    -0.337 A  
HETATM   20  C   UNK A   0      -9.673  10.371  69.513  1.00  0.00    -0.196 A  
HETATM   21  C   UNK A   0     -10.398  11.462  69.028  1.00  0.00    -0.166 A  
HETATM   22  C   UNK A   0     -11.737  11.619  69.394  1.00  0.00    -0.405 A  
HETATM   23  C   UNK A   0     -12.306  10.750  70.337  1.00  0.00    -0.438 A  
BRANCH  21  24
HETATM   24  C   UNK A   0      -9.725  12.487  68.182  1.00  0.00    -0.222 C  
HETATM   25  O   UNK A   0     -10.004  12.667  67.003  1.00  0.00    -0.214 OA 
ATOM     26  N   GLU A   1      -8.779  13.248  68.840  1.00  0.00    -0.363 N  
ATOM     27  H   GLU A   1      -8.589  13.061  69.825  1.00  0.00     0.000 HD 
BRANCH  26  28
ATOM     28  CA  GLU A   1      -8.047  14.309  68.166  1.00  0.00    -0.144 C  
ATOM     29  C   GLU A   1      -6.545  14.018  68.262  1.00  0.00    -0.110 C  
ATOM     30  O   GLU A   1      -6.076  13.264  67.242  1.00  0.00    -0.328 OA 
ATOM     31  OXT GLU A   1      -5.824  14.413  69.179  1.00  0.00    -0.090 OA 
BRANCH  28  32
ATOM     32  CB  GLU A   1      -8.370  15.675  68.786  1.00  0.00    -0.189 C  
BRANCH  32  33
ATOM     33  CG  GLU A   1      -9.866  15.839  69.049  1.00  0.00    -0.240 C  
ATOM     34  CD  GLU A   1     -10.519  16.636  67.954  1.00  0.00    -0.322 C  
ATOM     35  OE1 GLU A   1     -11.011  15.876  66.952  1.00  0.00    -0.283 OA 
ATOM     36  OE2 GLU A   1     -10.574  17.857  67.947  1.00  0.00    -0.389 OA 
ENDBRANCH  32  33
ENDBRANCH  28  32
ENDBRANCH  26  28
ENDBRANCH  21  24
ENDBRANCH  17  18
ENDBRANCH  16  17
ENDBRANCH  15  16
TORSDOF 7
ENDMDL
MODEL      156
REMARK 921   NORMALIZED FREE ENERGY PREDICTED BY IDOCK:   -4.49 KCAL/MOL
REMARK 922        TOTAL FREE ENERGY PREDICTED BY IDOCK:   -8.97 KCAL/MOL
REMARK 923 INTER-LIGAND FREE ENERGY PREDICTED BY IDOCK:   -8.19 KCAL/MOL
REMARK 924 INTRA-LIGAND FREE ENERGY PREDICTED BY IDOCK:   -0.78 KCAL/MOL
REMARK 927      BINDING AFFINITY PREDICTED BY RF-SCORE:    0.00 PKD
ROOT
HETATM    1  N   UNK A   0     -10.412   5.203  71.424  1.00  0.00    -0.207 NA 
HETATM    2  H1  UNK A   0     -10.380   5.407  72.422  1.00  0.00     0.000 HD 
HETATM    3  C   UNK A   0     -10.556   6.202  70.515  1.00  0.00    -0.253 C  
HETATM    4  H2  UNK A   0     -10.333   4.238  71.104  1.00  0.00     0.000 HD 
HETATM    5  N   UNK A   0     -10.595   5.943  69.241  1.00  0.00    -0.275 N  
HETATM    6  H   UNK A   0     -10.537   4.979  68.912  1.00  0.00     0.000 HD 
HETATM    7  C   UNK A   0     -10.719   6.991  68.326  1.00  0.00    -0.182 C  
HETATM    8  C   UNK A   0     -10.748   8.339  68.900  1.00  0.00    -0.089 A  
HETATM    9  O   UNK A   0     -10.793   6.808  67.117  1.00  0.00    -0.324 OA 
HETATM   10  C   UNK A   0     -10.705   8.488  70.260  1.00  0.00    -0.230 A  
HETATM   11  N   UNK A   0     -10.708   9.803  70.590  1.00  0.00    -0.311 NA 
HETATM   12  N   UNK A   0     -10.635   7.442  71.092  1.00  0.00    -0.221 NA 
HETATM   13  H   UNK A   0     -10.681  10.184  71.536  1.00  0.00     0.000 HD 
HETATM   14  C   UNK A   0     -10.754  10.532  69.425  1.00  0.00    -0.241 A  
HETATM   15  C   UNK A   0     -10.780   9.654  68.346  1.00  0.00    -0.251 A  
ENDROOT
BRANCH  15  16
HETATM   16  C   UNK A   0     -10.773  10.035  66.900  1.00  0.00    -0.211 C  
BRANCH  16  17
HETATM   17  C   UNK A   0      -9.426  10.595  66.411  1.00  0.00    -0.204 C  
BRANCH  17  18
HETATM   18  C   UNK A   0      -9.303  12.101  66.565  1.00  0.00    -0.229 A  
HETATM   19  C   UNK A   0     -10.127  12.978  65.849  1.00  0.00    -0.291 A  
HETATM   20  C   UNK A   0      -9.924  14.356  65.906  1.00  0.00    -0.350 A  
HETATM   21  C   UNK A   0      -8.905  14.885  66.703  1.00  0.00    -0.287 A  
HETATM   22  C   UNK A   0      -8.159  14.035  67.522  1.00  0.00    -0.197 A  
HETATM   23  C   UNK A   0      -8.356  12.648  67.448  1.00  0.00    -0.184 A  
BRANCH  21  24
HETATM   24  C   UNK A   0      -8.576  16.335  66.625  1.00  0.00    -0.267 C  
HETATM   25  O   UNK A   0      -8.247  16.890  65.584  1.00  0.00    -0.331 OA 
ATOM     26  N   GLU A   1      -8.705  17.021  67.817  1.00  0.00    -0.219 N  
ATOM     27  H   GLU A   1      -8.989  16.512  68.654  1.00  0.00     0.000 HD 
BRANCH  26  28
ATOM     28  CA  GLU A   1      -8.446  18.449  67.909  1.00  0.00    -0.261 C  
ATOM     29  C   GLU A   1      -7.056  18.666  68.518  1.00  0.00    -0.277 C  
ATOM     30  O   GLU A   1      -6.066  18.709  67.598  1.00  0.00    -0.184 OA 
ATOM     31  OXT GLU A   1      -6.842  18.779  69.725  1.00  0.00    -0.107 OA 
BRANCH  28  32
ATOM     32  CB  GLU A   1      -9.518  19.145  68.759  1.00  0.00    -0.454 C  
BRANCH  32  33
ATOM     33  CG  GLU A   1     -10.532  19.891  67.893  1.00  0.00    -0.505 C  
ATOM     34  CD  GLU A   1     -10.159  19.808  66.438  1.00  0.00    -0.491 C  
ATOM     35  OE1 GLU A   1     -10.719  18.763  65.794  1.00  0.00    -0.475 OA 
ATOM     36  OE2 GLU A   1      -9.395  20.590  65.892  1.00  0.00    -0.078 OA 
ENDBRANCH  32  33
ENDBRANCH  28  32
ENDBRANCH  26  28
ENDBRANCH  21  24
ENDBRANCH  17  18
ENDBRANCH  16  17
ENDBRANCH  15  16
TORSDOF 7
ENDMDL
MODEL      157
REMARK 921   NORMALIZED FREE ENERGY PREDICTED BY IDOCK:   -4.48 KCAL/MOL
REMARK 922        TOTAL FREE ENERGY PREDICTED BY IDOCK:   -8.96 KCAL/MOL
REMARK 923 INTER-LIGAND FREE ENERGY PREDICTED BY IDOCK:   -7.80 KCAL/MOL
REMARK 924 INTRA-LIGAND FREE ENERGY PREDICTED BY IDOCK:   -1.16 KCAL/MOL
REMARK 927      BINDING AFFINITY PREDICTED BY RF-SCORE:    0.00 PKD
ROOT
HETATM    1  N   UNK A   0      -8.151   4.110  71.800  1.00  0.00    -0.088 NA 
HETATM    2  H1  UNK A   0      -7.168   4.083  72.069  1.00  0.00     0.000 HD 
HETATM    3  C   UNK A   0      -8.608   5.042  70.925  1.00  0.00    -0.121 C  
HETATM    4  H2  UNK A   0      -8.799   3.427  72.193  1.00  0.00     0.000 HD 
HETATM    5  N   UNK A   0      -9.862   5.076  70.581  1.00  0.00    -0.196 N  
HETATM    6  H   UNK A   0     -10.521   4.409  70.983  1.00  0.00     0.000 HD 
HETATM    7  C   UNK A   0     -10.301   6.029  69.660  1.00  0.00    -0.232 C  
HETATM    8  C   UNK A   0      -9.264   6.907  69.108  1.00  0.00    -0.141 A  
HETATM    9  O   UNK A   0     -11.472   6.131  69.320  1.00  0.00    -0.404 OA 
HETATM   10  C   UNK A   0      -7.976   6.782  69.551  1.00  0.00    -0.125 A  
HETATM   11  N   UNK A   0      -7.167   7.655  68.901  1.00  0.00    -0.079 NA 
HETATM   12  N   UNK A   0      -7.622   5.880  70.474  1.00  0.00    -0.089 NA 
HETATM   13  H   UNK A   0      -6.163   7.764  69.045  1.00  0.00     0.000 HD 
HETATM   14  C   UNK A   0      -7.939   8.368  68.015  1.00  0.00    -0.119 A  
HETATM   15  C   UNK A   0      -9.256   7.931  68.113  1.00  0.00    -0.136 A  
ENDROOT
BRANCH  15  16
HETATM   16  C   UNK A   0     -10.406   8.405  67.282  1.00  0.00    -0.369 C  
BRANCH  16  17
HETATM   17  C   UNK A   0     -10.000   9.353  66.141  1.00  0.00    -0.351 C  
BRANCH  17  18
HETATM   18  C   UNK A   0     -10.374  10.803  66.397  1.00  0.00    -0.306 A  
HETATM   19  C   UNK A   0      -9.798  11.847  65.662  1.00  0.00    -0.266 A  
HETATM   20  C   UNK A   0     -10.056  13.178  65.987  1.00  0.00    -0.286 A  
HETATM   21  C   UNK A   0     -10.918  13.489  67.041  1.00  0.00    -0.297 A  
HETATM   22  C   UNK A   0     -11.601  12.465  67.700  1.00  0.00    -0.421 A  
HETATM   23  C   UNK A   0     -11.325  11.127  67.381  1.00  0.00    -0.329 A  
BRANCH  21  24
HETATM   24  C   UNK A   0     -11.054  14.900  67.499  1.00  0.00    -0.317 C  
HETATM   25  O   UNK A   0     -11.971  15.284  68.214  1.00  0.00    -0.297 OA 
ATOM     26  N   GLU A   1     -10.040  15.741  67.083  1.00  0.00    -0.247 N  
ATOM     27  H   GLU A   1      -9.296  15.369  66.494  1.00  0.00     0.000 HD 
BRANCH  26  28
ATOM     28  CA  GLU A   1     -10.008  17.145  67.464  1.00  0.00    -0.279 C  
ATOM     29  C   GLU A   1      -9.674  17.990  66.229  1.00  0.00    -0.270 C  
ATOM     30  O   GLU A   1     -10.764  18.371  65.526  1.00  0.00    -0.588 OA 
ATOM     31  OXT GLU A   1      -8.529  18.289  65.888  1.00  0.00    -0.499 OA 
BRANCH  28  32
ATOM     32  CB  GLU A   1      -8.975  17.387  68.574  1.00  0.00    -0.276 C  
BRANCH  32  33
ATOM     33  CG  GLU A   1      -8.376  16.078  69.085  1.00  0.00    -0.244 C  
ATOM     34  CD  GLU A   1      -7.140  15.713  68.309  1.00  0.00    -0.113 C  
ATOM     35  OE1 GLU A   1      -6.000  16.184  68.855  1.00  0.00    -0.118 OA 
ATOM     36  OE2 GLU A   1      -7.162  15.081  67.263  1.00  0.00    -0.202 OA 
ENDBRANCH  32  33
ENDBRANCH  28  32
ENDBRANCH  26  28
ENDBRANCH  21  24
ENDBRANCH  17  18
ENDBRANCH  16  17
ENDBRANCH  15  16
TORSDOF 7
ENDMDL
MODEL      158
REMARK 921   NORMALIZED FREE ENERGY PREDICTED BY IDOCK:   -4.47 KCAL/MOL
REMARK 922        TOTAL FREE ENERGY PREDICTED BY IDOCK:   -8.95 KCAL/MOL
REMARK 923 INTER-LIGAND FREE ENERGY PREDICTED BY IDOCK:   -7.64 KCAL/MOL
REMARK 924 INTRA-LIGAND FREE ENERGY PREDICTED BY IDOCK:   -1.31 KCAL/MOL
REMARK 927      BINDING AFFINITY PREDICTED BY RF-SCORE:    0.00 PKD
ROOT
HETATM    1  N   UNK A   0      -6.908   4.784  65.951  1.00  0.00    -0.060 NA 
HETATM    2  H1  UNK A   0      -7.497   4.180  65.379  1.00  0.00     0.000 HD 
HETATM    3  C   UNK A   0      -7.376   5.319  67.108  1.00  0.00    -0.083 C  
HETATM    4  H2  UNK A   0      -5.955   4.989  65.651  1.00  0.00     0.000 HD 
HETATM    5  N   UNK A   0      -6.624   6.090  67.838  1.00  0.00    -0.053 N  
HETATM    6  H   UNK A   0      -5.676   6.315  67.536  1.00  0.00     0.000 HD 
HETATM    7  C   UNK A   0      -7.122   6.607  69.037  1.00  0.00    -0.089 C  
HETATM    8  C   UNK A   0      -8.478   6.183  69.400  1.00  0.00    -0.120 A  
HETATM    9  O   UNK A   0      -6.475   7.361  69.751  1.00  0.00    -0.034 OA 
HETATM   10  C   UNK A   0      -9.176   5.372  68.547  1.00  0.00    -0.111 A  
HETATM   11  N   UNK A   0     -10.388   5.067  69.074  1.00  0.00    -0.141 NA 
HETATM   12  N   UNK A   0      -8.665   4.946  67.386  1.00  0.00    -0.104 NA 
HETATM   13  H   UNK A   0     -11.100   4.480  68.640  1.00  0.00     0.000 HD 
HETATM   14  C   UNK A   0     -10.487   5.690  70.295  1.00  0.00    -0.293 A  
HETATM   15  C   UNK A   0      -9.314   6.398  70.536  1.00  0.00    -0.169 A  
ENDROOT
BRANCH  15  16
HETATM   16  C   UNK A   0      -8.988   7.167  71.777  1.00  0.00    -0.134 C  
BRANCH  16  17
HETATM   17  C   UNK A   0      -9.939   8.346  72.046  1.00  0.00    -0.354 C  
BRANCH  17  18
HETATM   18  C   UNK A   0     -10.047   9.315  70.882  1.00  0.00    -0.373 A  
HETATM   19  C   UNK A   0     -11.290   9.766  70.420  1.00  0.00    -0.362 A  
HETATM   20  C   UNK A   0     -11.383  10.557  69.275  1.00  0.00    -0.325 A  
HETATM   21  C   UNK A   0     -10.228  10.933  68.585  1.00  0.00    -0.201 A  
HETATM   22  C   UNK A   0      -8.975  10.601  69.103  1.00  0.00    -0.139 A  
HETATM   23  C   UNK A   0      -8.887   9.791  70.245  1.00  0.00    -0.188 A  
BRANCH  21  24
HETATM   24  C   UNK A   0     -10.339  11.624  67.270  1.00  0.00    -0.204 C  
HETATM   25  O   UNK A   0     -10.416  11.024  66.205  1.00  0.00    -0.246 OA 
ATOM     26  N   GLU A   1     -10.386  13.002  67.345  1.00  0.00    -0.233 N  
ATOM     27  H   GLU A   1     -10.326  13.452  68.259  1.00  0.00     0.000 HD 
BRANCH  26  28
ATOM     28  CA  GLU A   1     -10.520  13.829  66.155  1.00  0.00    -0.297 C  
ATOM     29  C   GLU A   1      -9.993  15.235  66.463  1.00  0.00    -0.265 C  
ATOM     30  O   GLU A   1      -8.671  15.380  66.221  1.00  0.00    -0.300 OA 
ATOM     31  OXT GLU A   1     -10.689  16.151  66.902  1.00  0.00    -0.314 OA 
BRANCH  28  32
ATOM     32  CB  GLU A   1     -11.983  13.893  65.696  1.00  0.00    -0.409 C  
BRANCH  32  33
ATOM     33  CG  GLU A   1     -12.095  13.992  64.176  1.00  0.00    -0.456 C  
ATOM     34  CD  GLU A   1     -11.672  12.705  63.521  1.00  0.00    -0.531 C  
ATOM     35  OE1 GLU A   1     -12.690  11.844  63.313  1.00  0.00    -0.654 OA 
ATOM     36  OE2 GLU A   1     -10.514  12.444  63.233  1.00  0.00    -0.395 OA 
ENDBRANCH  32  33
ENDBRANCH  28  32
ENDBRANCH  26  28
ENDBRANCH  21  24
ENDBRANCH  17  18
ENDBRANCH  16  17
ENDBRANCH  15  16
TORSDOF 7
ENDMDL
MODEL      159
REMARK 921   NORMALIZED FREE ENERGY PREDICTED BY IDOCK:   -4.46 KCAL/MOL
REMARK 922        TOTAL FREE ENERGY PREDICTED BY IDOCK:   -8.93 KCAL/MOL
REMARK 923 INTER-LIGAND FREE ENERGY PREDICTED BY IDOCK:   -7.68 KCAL/MOL
REMARK 924 INTRA-LIGAND FREE ENERGY PREDICTED BY IDOCK:   -1.24 KCAL/MOL
REMARK 927      BINDING AFFINITY PREDICTED BY RF-SCORE:    0.00 PKD
ROOT
HETATM    1  N   UNK A   0      -6.510   9.324  74.566  1.00  0.00    -0.359 NA 
HETATM    2  H1  UNK A   0      -5.541   9.497  74.298  1.00  0.00     0.000 HD 
HETATM    3  C   UNK A   0      -7.287   8.468  73.854  1.00  0.00    -0.044 C  
HETATM    4  H2  UNK A   0      -6.899   9.801  75.379  1.00  0.00     0.000 HD 
HETATM    5  N   UNK A   0      -8.522   8.249  74.197  1.00  0.00    -0.320 N  
HETATM    6  H   UNK A   0      -8.926   8.735  74.997  1.00  0.00     0.000 HD 
HETATM    7  C   UNK A   0      -9.293   7.344  73.462  1.00  0.00    -0.238 C  
HETATM    8  C   UNK A   0      -8.602   6.665  72.361  1.00  0.00    -0.124 A  
HETATM    9  O   UNK A   0     -10.469   7.118  73.716  1.00  0.00    -0.371 OA 
HETATM   10  C   UNK A   0      -7.299   6.983  72.091  1.00  0.00    -0.082 A  
HETATM   11  N   UNK A   0      -6.833   6.229  71.066  1.00  0.00    -0.064 NA 
HETATM   12  N   UNK A   0      -6.624   7.896  72.800  1.00  0.00    -0.068 NA 
HETATM   13  H   UNK A   0      -5.894   6.269  70.670  1.00  0.00     0.000 HD 
HETATM   14  C   UNK A   0      -7.849   5.400  70.654  1.00  0.00    -0.090 A  
HETATM   15  C   UNK A   0      -8.972   5.641  71.438  1.00  0.00    -0.148 A  
ENDROOT
BRANCH  15  16
HETATM   16  C   UNK A   0     -10.276   4.912  71.358  1.00  0.00    -0.257 C  
BRANCH  16  17
HETATM   17  C   UNK A   0     -11.478   5.819  71.047  1.00  0.00    -0.014 C  
BRANCH  17  18
HETATM   18  C   UNK A   0     -11.207   6.828  69.944  1.00  0.00    -0.379 A  
HETATM   19  C   UNK A   0     -11.029   6.426  68.614  1.00  0.00    -0.404 A  
HETATM   20  C   UNK A   0     -10.660   7.345  67.633  1.00  0.00    -0.309 A  
HETATM   21  C   UNK A   0     -10.485   8.692  67.961  1.00  0.00    -0.254 A  
HETATM   22  C   UNK A   0     -10.783   9.132  69.253  1.00  0.00    -0.199 A  
HETATM   23  C   UNK A   0     -11.138   8.201  70.240  1.00  0.00    -0.221 A  
BRANCH  21  24
HETATM   24  C   UNK A   0      -9.921   9.635  66.956  1.00  0.00    -0.206 C  
HETATM   25  O   UNK A   0      -9.415   9.265  65.904  1.00  0.00    -0.220 OA 
ATOM     26  N   GLU A   1     -10.044  10.970  67.286  1.00  0.00    -0.185 N  
ATOM     27  H   GLU A   1     -10.480  11.225  68.173  1.00  0.00     0.000 HD 
BRANCH  26  28
ATOM     28  CA  GLU A   1      -9.567  12.023  66.402  1.00  0.00    -0.228 C  
ATOM     29  C   GLU A   1      -8.519  12.861  67.144  1.00  0.00    -0.179 C  
ATOM     30  O   GLU A   1      -7.258  12.393  67.004  1.00  0.00    -0.114 OA 
ATOM     31  OXT GLU A   1      -8.784  13.857  67.816  1.00  0.00    -0.166 OA 
BRANCH  28  32
ATOM     32  CB  GLU A   1     -10.728  12.910  65.932  1.00  0.00    -0.291 C  
BRANCH  32  33
ATOM     33  CG  GLU A   1     -10.594  13.287  64.458  1.00  0.00    -0.437 C  
ATOM     34  CD  GLU A   1     -11.927  13.675  63.880  1.00  0.00    -0.408 C  
ATOM     35  OE1 GLU A   1     -12.187  14.997  63.959  1.00  0.00    -0.607 OA 
ATOM     36  OE2 GLU A   1     -12.720  12.871  63.412  1.00  0.00    -0.695 OA 
ENDBRANCH  32  33
ENDBRANCH  28  32
ENDBRANCH  26  28
ENDBRANCH  21  24
ENDBRANCH  17  18
ENDBRANCH  16  17
ENDBRANCH  15  16
TORSDOF 7
ENDMDL
MODEL      160
REMARK 921   NORMALIZED FREE ENERGY PREDICTED BY IDOCK:   -4.44 KCAL/MOL
REMARK 922        TOTAL FREE ENERGY PREDICTED BY IDOCK:   -8.91 KCAL/MOL
REMARK 923 INTER-LIGAND FREE ENERGY PREDICTED BY IDOCK:   -7.91 KCAL/MOL
REMARK 924 INTRA-LIGAND FREE ENERGY PREDICTED BY IDOCK:   -0.99 KCAL/MOL
REMARK 927      BINDING AFFINITY PREDICTED BY RF-SCORE:    0.00 PKD
ROOT
HETATM    1  N   UNK A   0      -7.609   2.778  72.020  1.00  0.00    -0.051 NA 
HETATM    2  H1  UNK A   0      -7.840   2.884  73.008  1.00  0.00     0.000 HD 
HETATM    3  C   UNK A   0      -8.329   3.419  71.064  1.00  0.00    -0.066 C  
HETATM    4  H2  UNK A   0      -6.826   2.183  71.748  1.00  0.00     0.000 HD 
HETATM    5  N   UNK A   0      -8.033   3.283  69.805  1.00  0.00    -0.049 N  
HETATM    6  H   UNK A   0      -7.264   2.675  69.522  1.00  0.00     0.000 HD 
HETATM    7  C   UNK A   0      -8.774   3.973  68.843  1.00  0.00    -0.093 C  
HETATM    8  C   UNK A   0      -9.825   4.855  69.359  1.00  0.00    -0.281 A  
HETATM    9  O   UNK A   0      -8.564   3.863  67.642  1.00  0.00    -0.097 OA 
HETATM   10  C   UNK A   0     -10.049   4.912  70.708  1.00  0.00    -0.233 A  
HETATM   11  N   UNK A   0     -11.032   5.803  70.986  1.00  0.00    -0.259 NA 
HETATM   12  N   UNK A   0      -9.337   4.189  71.581  1.00  0.00    -0.132 NA 
HETATM   13  H   UNK A   0     -11.389   6.032  71.913  1.00  0.00     0.000 HD 
HETATM   14  C   UNK A   0     -11.463   6.341  69.797  1.00  0.00    -0.379 A  
HETATM   15  C   UNK A   0     -10.735   5.776  68.756  1.00  0.00    -0.318 A  
ENDROOT
BRANCH  15  16
HETATM   16  C   UNK A   0     -10.849   6.128  67.307  1.00  0.00    -0.438 C  
BRANCH  16  17
HETATM   17  C   UNK A   0      -9.676   6.971  66.777  1.00  0.00    -0.241 C  
BRANCH  17  18
HETATM   18  C   UNK A   0      -9.922   8.468  66.857  1.00  0.00    -0.335 A  
HETATM   19  C   UNK A   0     -10.116   9.111  68.086  1.00  0.00    -0.225 A  
HETATM   20  C   UNK A   0     -10.462  10.461  68.139  1.00  0.00    -0.221 A  
HETATM   21  C   UNK A   0     -10.594  11.200  66.960  1.00  0.00    -0.295 A  
HETATM   22  C   UNK A   0     -10.278  10.608  65.735  1.00  0.00    -0.317 A  
HETATM   23  C   UNK A   0      -9.948   9.246  65.686  1.00  0.00    -0.130 A  
BRANCH  21  24
HETATM   24  C   UNK A   0     -11.134  12.587  67.009  1.00  0.00    -0.281 C  
HETATM   25  O   UNK A   0     -11.776  13.021  67.957  1.00  0.00    -0.319 OA 
ATOM     26  N   GLU A   1     -10.822  13.366  65.911  1.00  0.00    -0.273 N  
ATOM     27  H   GLU A   1     -10.278  12.957  65.151  1.00  0.00     0.000 HD 
BRANCH  26  28
ATOM     28  CA  GLU A   1     -11.251  14.753  65.812  1.00  0.00    -0.337 C  
ATOM     29  C   GLU A   1     -12.465  14.834  64.878  1.00  0.00    -0.182 C  
ATOM     30  O   GLU A   1     -13.647  14.682  65.518  1.00  0.00    -0.084 OA 
ATOM     31  OXT GLU A   1     -12.389  15.006  63.662  1.00  0.00    -0.568 OA 
BRANCH  28  32
ATOM     32  CB  GLU A   1     -10.113  15.640  65.289  1.00  0.00    -0.305 C  
BRANCH  32  33
ATOM     33  CG  GLU A   1      -9.044  15.877  66.354  1.00  0.00    -0.355 C  
ATOM     34  CD  GLU A   1      -8.601  17.314  66.360  1.00  0.00    -0.259 C  
ATOM     35  OE1 GLU A   1      -9.299  18.093  67.212  1.00  0.00    -0.249 OA 
ATOM     36  OE2 GLU A   1      -7.716  17.751  65.639  1.00  0.00    -0.545 OA 
ENDBRANCH  32  33
ENDBRANCH  28  32
ENDBRANCH  26  28
ENDBRANCH  21  24
ENDBRANCH  17  18
ENDBRANCH  16  17
ENDBRANCH  15  16
TORSDOF 7
ENDMDL
MODEL      161
REMARK 921   NORMALIZED FREE ENERGY PREDICTED BY IDOCK:   -4.44 KCAL/MOL
REMARK 922        TOTAL FREE ENERGY PREDICTED BY IDOCK:   -8.90 KCAL/MOL
REMARK 923 INTER-LIGAND FREE ENERGY PREDICTED BY IDOCK:   -7.96 KCAL/MOL
REMARK 924 INTRA-LIGAND FREE ENERGY PREDICTED BY IDOCK:   -0.94 KCAL/MOL
REMARK 927      BINDING AFFINITY PREDICTED BY RF-SCORE:    0.00 PKD
ROOT
HETATM    1  N   UNK A   0     -13.815  16.062  73.210  1.00  0.00    -0.744 NA 
HETATM    2  H1  UNK A   0     -13.710  17.032  72.912  1.00  0.00     0.000 HD 
HETATM    3  C   UNK A   0     -13.512  15.040  72.369  1.00  0.00    -0.430 C  
HETATM    4  H2  UNK A   0     -14.150  15.859  74.152  1.00  0.00     0.000 HD 
HETATM    5  N   UNK A   0     -13.645  13.803  72.750  1.00  0.00    -0.474 N  
HETATM    6  H   UNK A   0     -13.998  13.589  73.683  1.00  0.00     0.000 HD 
HETATM    7  C   UNK A   0     -13.304  12.770  71.874  1.00  0.00    -0.413 C  
HETATM    8  C   UNK A   0     -12.764  13.186  70.577  1.00  0.00    -0.140 A  
HETATM    9  O   UNK A   0     -13.435  11.587  72.163  1.00  0.00    -0.410 OA 
HETATM   10  C   UNK A   0     -12.675  14.520  70.285  1.00  0.00    -0.272 A  
HETATM   11  N   UNK A   0     -12.123  14.700  69.060  1.00  0.00    -0.516 NA 
HETATM   12  N   UNK A   0     -13.064  15.467  71.147  1.00  0.00    -0.498 NA 
HETATM   13  H   UNK A   0     -11.947  15.596  68.607  1.00  0.00     0.000 HD 
HETATM   14  C   UNK A   0     -11.844  13.459  68.536  1.00  0.00    -0.366 A  
HETATM   15  C   UNK A   0     -12.229  12.487  69.452  1.00  0.00    -0.117 A  
ENDROOT
BRANCH  15  16
HETATM   16  C   UNK A   0     -12.046  11.010  69.300  1.00  0.00    -0.363 C  
BRANCH  16  17
HETATM   17  C   UNK A   0     -10.624  10.599  68.882  1.00  0.00    -0.241 C  
BRANCH  17  18
HETATM   18  C   UNK A   0      -9.862   9.864  69.970  1.00  0.00    -0.291 A  
HETATM   19  C   UNK A   0      -8.465   9.759  69.940  1.00  0.00    -0.217 A  
HETATM   20  C   UNK A   0      -7.787   8.978  70.876  1.00  0.00    -0.172 A  
HETATM   21  C   UNK A   0      -8.495   8.307  71.877  1.00  0.00    -0.214 A  
HETATM   22  C   UNK A   0      -9.872   8.504  71.999  1.00  0.00    -0.383 A  
HETATM   23  C   UNK A   0     -10.551   9.276  71.045  1.00  0.00    -0.386 A  
BRANCH  21  24
HETATM   24  C   UNK A   0      -7.791   7.337  72.762  1.00  0.00    -0.094 C  
HETATM   25  O   UNK A   0      -6.948   7.674  73.583  1.00  0.00    -0.080 OA 
ATOM     26  N   GLU A   1      -8.190   6.024  72.610  1.00  0.00    -0.111 N  
ATOM     27  H   GLU A   1      -8.903   5.798  71.915  1.00  0.00     0.000 HD 
BRANCH  26  28
ATOM     28  CA  GLU A   1      -7.621   4.954  73.416  1.00  0.00    -0.088 C  
ATOM     29  C   GLU A   1      -7.143   3.831  72.488  1.00  0.00    -0.048 C  
ATOM     30  O   GLU A   1      -5.864   3.983  72.074  1.00  0.00    -0.008 OA 
ATOM     31  OXT GLU A   1      -7.845   2.884  72.133  1.00  0.00    -0.052 OA 
BRANCH  28  32
ATOM     32  CB  GLU A   1      -8.652   4.418  74.419  1.00  0.00    -0.095 C  
BRANCH  32  33
ATOM     33  CG  GLU A   1     -10.064   4.901  74.093  1.00  0.00    -0.243 C  
ATOM     34  CD  GLU A   1     -10.655   4.108  72.961  1.00  0.00    -0.178 C  
ATOM     35  OE1 GLU A   1     -11.362   3.031  73.365  1.00  0.00    -0.193 OA 
ATOM     36  OE2 GLU A   1     -10.488   4.385  71.782  1.00  0.00    -0.121 OA 
ENDBRANCH  32  33
ENDBRANCH  28  32
ENDBRANCH  26  28
ENDBRANCH  21  24
ENDBRANCH  17  18
ENDBRANCH  16  17
ENDBRANCH  15  16
TORSDOF 7
ENDMDL
MODEL      162
REMARK 921   NORMALIZED FREE ENERGY PREDICTED BY IDOCK:   -4.42 KCAL/MOL
REMARK 922        TOTAL FREE ENERGY PREDICTED BY IDOCK:   -8.88 KCAL/MOL
REMARK 923 INTER-LIGAND FREE ENERGY PREDICTED BY IDOCK:   -7.69 KCAL/MOL
REMARK 924 INTRA-LIGAND FREE ENERGY PREDICTED BY IDOCK:   -1.19 KCAL/MOL
REMARK 927      BINDING AFFINITY PREDICTED BY RF-SCORE:    0.00 PKD
ROOT
HETATM    1  N   UNK A   0     -10.799  15.370  71.064  1.00  0.00    -0.465 NA 
HETATM    2  H1  UNK A   0     -11.737  15.344  71.464  1.00  0.00     0.000 HD 
HETATM    3  C   UNK A   0     -10.493  14.642  69.960  1.00  0.00     0.148 C  
HETATM    4  H2  UNK A   0     -10.083  15.952  71.499  1.00  0.00     0.000 HD 
HETATM    5  N   UNK A   0      -9.297  14.676  69.450  1.00  0.00    -0.412 N  
HETATM    6  H   UNK A   0      -8.569  15.240  69.888  1.00  0.00     0.000 HD 
HETATM    7  C   UNK A   0      -9.015  13.936  68.299  1.00  0.00    -0.187 C  
HETATM    8  C   UNK A   0     -10.144  13.199  67.723  1.00  0.00    -0.226 A  
HETATM    9  O   UNK A   0      -7.903  13.903  67.789  1.00  0.00    -0.137 OA 
HETATM   10  C   UNK A   0     -11.358  13.233  68.353  1.00  0.00    -0.291 A  
HETATM   11  N   UNK A   0     -12.274  12.521  67.651  1.00  0.00    -0.333 NA 
HETATM   12  N   UNK A   0     -11.557  13.922  69.483  1.00  0.00    -0.285 NA 
HETATM   13  H   UNK A   0     -13.253  12.389  67.904  1.00  0.00     0.000 HD 
HETATM   14  C   UNK A   0     -11.649  12.008  66.539  1.00  0.00    -0.314 A  
HETATM   15  C   UNK A   0     -10.317  12.408  66.546  1.00  0.00    -0.248 A  
ENDROOT
BRANCH  15  16
HETATM   16  C   UNK A   0      -9.303  12.116  65.487  1.00  0.00     0.007 C  
BRANCH  16  17
HETATM   17  C   UNK A   0      -8.315  10.998  65.863  1.00  0.00    -0.119 C  
BRANCH  17  18
HETATM   18  C   UNK A   0      -8.908   9.951  66.788  1.00  0.00    -0.147 A  
HETATM   19  C   UNK A   0      -9.990   9.154  66.392  1.00  0.00    -0.358 A  
HETATM   20  C   UNK A   0     -10.604   8.284  67.291  1.00  0.00    -0.335 A  
HETATM   21  C   UNK A   0     -10.129   8.175  68.601  1.00  0.00    -0.211 A  
HETATM   22  C   UNK A   0      -8.973   8.864  68.975  1.00  0.00    -0.137 A  
HETATM   23  C   UNK A   0      -8.369   9.752  68.072  1.00  0.00    -0.110 A  
BRANCH  21  24
HETATM   24  C   UNK A   0     -10.891   7.382  69.606  1.00  0.00    -0.210 C  
HETATM   25  O   UNK A   0     -11.174   6.201  69.449  1.00  0.00    -0.391 OA 
ATOM     26  N   GLU A   1     -11.226   8.075  70.753  1.00  0.00    -0.264 N  
ATOM     27  H   GLU A   1     -10.960   9.057  70.836  1.00  0.00     0.000 HD 
BRANCH  26  28
ATOM     28  CA  GLU A   1     -11.949   7.441  71.844  1.00  0.00    -0.302 C  
ATOM     29  C   GLU A   1     -13.388   7.971  71.865  1.00  0.00    -0.306 C  
ATOM     30  O   GLU A   1     -14.238   7.252  71.097  1.00  0.00    -0.343 OA 
ATOM     31  OXT GLU A   1     -13.748   8.961  72.501  1.00  0.00    -0.451 OA 
BRANCH  28  32
ATOM     32  CB  GLU A   1     -11.259   7.713  73.188  1.00  0.00    -0.311 C  
BRANCH  32  33
ATOM     33  CG  GLU A   1      -9.842   7.141  73.223  1.00  0.00    -0.275 C  
ATOM     34  CD  GLU A   1      -8.825   8.210  72.930  1.00  0.00    -0.240 C  
ATOM     35  OE1 GLU A   1      -8.358   8.830  74.034  1.00  0.00    -0.285 OA 
ATOM     36  OE2 GLU A   1      -8.475   8.516  71.800  1.00  0.00    -0.153 OA 
ENDBRANCH  32  33
ENDBRANCH  28  32
ENDBRANCH  26  28
ENDBRANCH  21  24
ENDBRANCH  17  18
ENDBRANCH  16  17
ENDBRANCH  15  16
TORSDOF 7
ENDMDL
MODEL      163
REMARK 921   NORMALIZED FREE ENERGY PREDICTED BY IDOCK:   -4.41 KCAL/MOL
REMARK 922        TOTAL FREE ENERGY PREDICTED BY IDOCK:   -8.86 KCAL/MOL
REMARK 923 INTER-LIGAND FREE ENERGY PREDICTED BY IDOCK:   -8.71 KCAL/MOL
REMARK 924 INTRA-LIGAND FREE ENERGY PREDICTED BY IDOCK:   -0.15 KCAL/MOL
REMARK 927      BINDING AFFINITY PREDICTED BY RF-SCORE:    0.00 PKD
ROOT
HETATM    1  N   UNK A   0      -7.918   8.964  67.817  1.00  0.00    -0.102 NA 
HETATM    2  H1  UNK A   0      -7.032   8.746  67.364  1.00  0.00     0.000 HD 
HETATM    3  C   UNK A   0      -8.826   9.776  67.216  1.00  0.00    -0.132 C  
HETATM    4  H2  UNK A   0      -8.127   8.567  68.733  1.00  0.00     0.000 HD 
HETATM    5  N   UNK A   0      -9.957  10.054  67.794  1.00  0.00    -0.163 N  
HETATM    6  H   UNK A   0     -10.167   9.676  68.718  1.00  0.00     0.000 HD 
HETATM    7  C   UNK A   0     -10.884  10.872  67.143  1.00  0.00    -0.280 C  
HETATM    8  C   UNK A   0     -10.504  11.322  65.801  1.00  0.00    -0.310 A  
HETATM    9  O   UNK A   0     -11.952  11.193  67.648  1.00  0.00    -0.613 OA 
HETATM   10  C   UNK A   0      -9.281  10.970  65.297  1.00  0.00    -0.207 A  
HETATM   11  N   UNK A   0      -9.133  11.452  64.039  1.00  0.00    -0.415 NA 
HETATM   12  N   UNK A   0      -8.412  10.222  65.988  1.00  0.00    -0.136 NA 
HETATM   13  H   UNK A   0      -8.315  11.330  63.442  1.00  0.00     0.000 HD 
HETATM   14  C   UNK A   0     -10.280  12.134  63.709  1.00  0.00    -0.424 A  
HETATM   15  C   UNK A   0     -11.162  12.077  64.783  1.00  0.00    -0.373 A  
ENDROOT
BRANCH  15  16
HETATM   16  C   UNK A   0     -12.547  12.641  64.817  1.00  0.00    -0.530 C  
BRANCH  16  17
HETATM   17  C   UNK A   0     -12.770  13.674  65.935  1.00  0.00    -0.428 C  
BRANCH  17  18
HETATM   18  C   UNK A   0     -11.574  14.580  66.171  1.00  0.00    -0.366 A  
HETATM   19  C   UNK A   0     -11.129  15.473  65.188  1.00  0.00    -0.382 A  
HETATM   20  C   UNK A   0      -9.959  16.209  65.369  1.00  0.00    -0.141 A  
HETATM   21  C   UNK A   0      -9.224  16.084  66.551  1.00  0.00    -0.307 A  
HETATM   22  C   UNK A   0      -9.722  15.297  67.592  1.00  0.00    -0.208 A  
HETATM   23  C   UNK A   0     -10.890  14.545  67.399  1.00  0.00    -0.291 A  
BRANCH  21  24
HETATM   24  C   UNK A   0      -7.888  16.732  66.670  1.00  0.00    -0.272 C  
HETATM   25  O   UNK A   0      -6.841  16.099  66.716  1.00  0.00    -0.230 OA 
ATOM     26  N   GLU A   1      -7.917  18.113  66.687  1.00  0.00    -0.241 N  
ATOM     27  H   GLU A   1      -8.817  18.592  66.639  1.00  0.00     0.000 HD 
BRANCH  26  28
ATOM     28  CA  GLU A   1      -6.697  18.901  66.773  1.00  0.00    -0.191 C  
ATOM     29  C   GLU A   1      -6.159  19.142  65.358  1.00  0.00    -0.243 C  
ATOM     30  O   GLU A   1      -6.651  20.260  64.778  1.00  0.00    -0.293 OA 
ATOM     31  OXT GLU A   1      -5.367  18.394  64.785  1.00  0.00    -0.155 OA 
BRANCH  28  32
ATOM     32  CB  GLU A   1      -5.645  18.188  67.633  1.00  0.00    -0.150 C  
BRANCH  32  33
ATOM     33  CG  GLU A   1      -5.810  18.512  69.116  1.00  0.00    -0.230 C  
ATOM     34  CD  GLU A   1      -6.491  19.840  69.303  1.00  0.00    -0.339 C  
ATOM     35  OE1 GLU A   1      -7.834  19.751  69.406  1.00  0.00    -0.196 OA 
ATOM     36  OE2 GLU A   1      -5.895  20.907  69.326  1.00  0.00    -0.363 OA 
ENDBRANCH  32  33
ENDBRANCH  28  32
ENDBRANCH  26  28
ENDBRANCH  21  24
ENDBRANCH  17  18
ENDBRANCH  16  17
ENDBRANCH  15  16
TORSDOF 7
ENDMDL
MODEL      164
REMARK 921   NORMALIZED FREE ENERGY PREDICTED BY IDOCK:   -4.41 KCAL/MOL
REMARK 922        TOTAL FREE ENERGY PREDICTED BY IDOCK:   -8.85 KCAL/MOL
REMARK 923 INTER-LIGAND FREE ENERGY PREDICTED BY IDOCK:   -7.48 KCAL/MOL
REMARK 924 INTRA-LIGAND FREE ENERGY PREDICTED BY IDOCK:   -1.37 KCAL/MOL
REMARK 927      BINDING AFFINITY PREDICTED BY RF-SCORE:    0.00 PKD
ROOT
HETATM    1  N   UNK A   0      -6.794  15.828  69.522  1.00  0.00    -0.185 NA 
HETATM    2  H1  UNK A   0      -6.071  16.423  69.118  1.00  0.00     0.000 HD 
HETATM    3  C   UNK A   0      -7.957  15.601  68.859  1.00  0.00    -0.193 C  
HETATM    4  H2  UNK A   0      -6.641  15.398  70.434  1.00  0.00     0.000 HD 
HETATM    5  N   UNK A   0      -8.879  14.842  69.374  1.00  0.00    -0.416 N  
HETATM    6  H   UNK A   0      -8.743  14.422  70.294  1.00  0.00     0.000 HD 
HETATM    7  C   UNK A   0     -10.057  14.605  68.661  1.00  0.00    -0.238 C  
HETATM    8  C   UNK A   0     -10.131  15.217  67.331  1.00  0.00    -0.229 A  
HETATM    9  O   UNK A   0     -10.973  13.925  69.104  1.00  0.00    -0.245 OA 
HETATM   10  C   UNK A   0      -9.098  16.002  66.897  1.00  0.00    -0.228 A  
HETATM   11  N   UNK A   0      -9.339  16.445  65.638  1.00  0.00    -0.461 NA 
HETATM   12  N   UNK A   0      -8.013  16.234  67.646  1.00  0.00    -0.140 NA 
HETATM   13  H   UNK A   0      -8.727  17.046  65.087  1.00  0.00     0.000 HD 
HETATM   14  C   UNK A   0     -10.554  15.941  65.238  1.00  0.00    -0.419 A  
HETATM   15  C   UNK A   0     -11.081  15.168  66.266  1.00  0.00    -0.309 A  
ENDROOT
BRANCH  15  16
HETATM   16  C   UNK A   0     -12.359  14.392  66.219  1.00  0.00    -0.325 C  
BRANCH  16  17
HETATM   17  C   UNK A   0     -12.456  13.425  65.027  1.00  0.00    -0.479 C  
BRANCH  17  18
HETATM   18  C   UNK A   0     -11.574  12.196  65.172  1.00  0.00    -0.372 A  
HETATM   19  C   UNK A   0     -11.354  11.597  66.419  1.00  0.00    -0.312 A  
HETATM   20  C   UNK A   0     -10.448  10.546  66.557  1.00  0.00    -0.276 A  
HETATM   21  C   UNK A   0      -9.761  10.059  65.442  1.00  0.00    -0.368 A  
HETATM   22  C   UNK A   0     -10.064  10.557  64.173  1.00  0.00    -0.351 A  
HETATM   23  C   UNK A   0     -10.963  11.625  64.041  1.00  0.00    -0.456 A  
BRANCH  21  24
HETATM   24  C   UNK A   0      -8.668   9.062  65.619  1.00  0.00    -0.175 C  
HETATM   25  O   UNK A   0      -7.585   9.341  66.117  1.00  0.00    -0.094 OA 
ATOM     26  N   GLU A   1      -8.983   7.782  65.207  1.00  0.00    -0.381 N  
ATOM     27  H   GLU A   1      -9.903   7.602  64.805  1.00  0.00     0.000 HD 
BRANCH  26  28
ATOM     28  CA  GLU A   1      -8.036   6.684  65.334  1.00  0.00    -0.129 C  
ATOM     29  C   GLU A   1      -7.585   6.251  63.934  1.00  0.00    -0.091 C  
ATOM     30  O   GLU A   1      -6.501   6.923  63.485  1.00  0.00    -0.042 OA 
ATOM     31  OXT GLU A   1      -8.151   5.388  63.264  1.00  0.00    -0.093 OA 
BRANCH  28  32
ATOM     32  CB  GLU A   1      -8.667   5.502  66.083  1.00  0.00    -0.133 C  
BRANCH  32  33
ATOM     33  CG  GLU A   1      -7.607   4.551  66.635  1.00  0.00    -0.086 C  
ATOM     34  CD  GLU A   1      -8.126   3.140  66.684  1.00  0.00    -0.084 C  
ATOM     35  OE1 GLU A   1      -7.859   2.426  65.569  1.00  0.00    -0.076 OA 
ATOM     36  OE2 GLU A   1      -8.759   2.685  67.625  1.00  0.00    -0.093 OA 
ENDBRANCH  32  33
ENDBRANCH  28  32
ENDBRANCH  26  28
ENDBRANCH  21  24
ENDBRANCH  17  18
ENDBRANCH  16  17
ENDBRANCH  15  16
TORSDOF 7
ENDMDL
MODEL      165
REMARK 921   NORMALIZED FREE ENERGY PREDICTED BY IDOCK:   -4.40 KCAL/MOL
REMARK 922        TOTAL FREE ENERGY PREDICTED BY IDOCK:   -8.85 KCAL/MOL
REMARK 923 INTER-LIGAND FREE ENERGY PREDICTED BY IDOCK:   -7.26 KCAL/MOL
REMARK 924 INTRA-LIGAND FREE ENERGY PREDICTED BY IDOCK:   -1.58 KCAL/MOL
REMARK 927      BINDING AFFINITY PREDICTED BY RF-SCORE:    0.00 PKD
ROOT
HETATM    1  N   UNK A   0     -10.856  20.213  66.370  1.00  0.00    -0.145 NA 
HETATM    2  H1  UNK A   0     -11.138  21.083  66.821  1.00  0.00     0.000 HD 
HETATM    3  C   UNK A   0      -9.660  19.638  66.657  1.00  0.00    -0.380 C  
HETATM    4  H2  UNK A   0     -11.480  19.770  65.696  1.00  0.00     0.000 HD 
HETATM    5  N   UNK A   0      -9.299  18.529  66.081  1.00  0.00    -0.222 N  
HETATM    6  H   UNK A   0      -9.908  18.088  65.392  1.00  0.00     0.000 HD 
HETATM    7  C   UNK A   0      -8.074  17.945  66.413  1.00  0.00    -0.261 C  
HETATM    8  C   UNK A   0      -7.299  18.634  67.448  1.00  0.00    -0.224 A  
HETATM    9  O   UNK A   0      -7.666  16.919  65.884  1.00  0.00    -0.343 OA 
HETATM   10  C   UNK A   0      -7.778  19.800  67.979  1.00  0.00    -0.304 A  
HETATM   11  N   UNK A   0      -6.939  20.262  68.938  1.00  0.00    -0.187 NA 
HETATM   12  N   UNK A   0      -8.939  20.340  67.587  1.00  0.00    -0.319 NA 
HETATM   13  H   UNK A   0      -7.065  21.112  69.487  1.00  0.00     0.000 HD 
HETATM   14  C   UNK A   0      -5.887  19.382  69.039  1.00  0.00    -0.228 A  
HETATM   15  C   UNK A   0      -6.074  18.351  68.125  1.00  0.00    -0.183 A  
ENDROOT
BRANCH  15  16
HETATM   16  C   UNK A   0      -5.191  17.156  67.952  1.00  0.00    -0.122 C  
BRANCH  16  17
HETATM   17  C   UNK A   0      -5.491  16.013  68.936  1.00  0.00    -0.108 C  
BRANCH  17  18
HETATM   18  C   UNK A   0      -6.818  15.321  68.676  1.00  0.00    -0.109 A  
HETATM   19  C   UNK A   0      -7.988  15.712  69.339  1.00  0.00    -0.226 A  
HETATM   20  C   UNK A   0      -9.172  14.992  69.184  1.00  0.00    -0.183 A  
HETATM   21  C   UNK A   0      -9.213  13.880  68.340  1.00  0.00    -0.194 A  
HETATM   22  C   UNK A   0      -8.092  13.553  67.573  1.00  0.00    -0.190 A  
HETATM   23  C   UNK A   0      -6.899  14.270  67.745  1.00  0.00    -0.189 A  
BRANCH  21  24
HETATM   24  C   UNK A   0     -10.422  13.011  68.313  1.00  0.00    -0.250 C  
HETATM   25  O   UNK A   0     -11.402  13.253  67.619  1.00  0.00    -0.268 OA 
ATOM     26  N   GLU A   1     -10.341  11.884  69.107  1.00  0.00    -0.420 N  
ATOM     27  H   GLU A   1      -9.499  11.726  69.660  1.00  0.00     0.000 HD 
BRANCH  26  28
ATOM     28  CA  GLU A   1     -11.427  10.917  69.175  1.00  0.00    -0.303 C  
ATOM     29  C   GLU A   1     -11.813  10.704  70.643  1.00  0.00    -0.363 C  
ATOM     30  O   GLU A   1     -12.764  11.561  71.080  1.00  0.00    -0.371 OA 
ATOM     31  OXT GLU A   1     -11.309   9.850  71.372  1.00  0.00    -0.364 OA 
BRANCH  28  32
ATOM     32  CB  GLU A   1     -11.014   9.586  68.531  1.00  0.00    -0.109 C  
BRANCH  32  33
ATOM     33  CG  GLU A   1      -9.543   9.588  68.120  1.00  0.00    -0.153 C  
ATOM     34  CD  GLU A   1      -9.404   9.517  66.623  1.00  0.00    -0.161 C  
ATOM     35  OE1 GLU A   1      -9.337  10.727  66.028  1.00  0.00    -0.174 OA 
ATOM     36  OE2 GLU A   1      -9.387   8.469  65.996  1.00  0.00    -0.212 OA 
ENDBRANCH  32  33
ENDBRANCH  28  32
ENDBRANCH  26  28
ENDBRANCH  21  24
ENDBRANCH  17  18
ENDBRANCH  16  17
ENDBRANCH  15  16
TORSDOF 7
ENDMDL
MODEL      166
REMARK 921   NORMALIZED FREE ENERGY PREDICTED BY IDOCK:   -4.40 KCAL/MOL
REMARK 922        TOTAL FREE ENERGY PREDICTED BY IDOCK:   -8.85 KCAL/MOL
REMARK 923 INTER-LIGAND FREE ENERGY PREDICTED BY IDOCK:   -7.79 KCAL/MOL
REMARK 924 INTRA-LIGAND FREE ENERGY PREDICTED BY IDOCK:   -1.06 KCAL/MOL
REMARK 927      BINDING AFFINITY PREDICTED BY RF-SCORE:    0.00 PKD
ROOT
HETATM    1  N   UNK A   0     -13.318  16.560  73.827  1.00  0.00    -0.688 NA 
HETATM    2  H1  UNK A   0     -12.903  17.484  73.709  1.00  0.00     0.000 HD 
HETATM    3  C   UNK A   0     -13.121  15.585  72.903  1.00  0.00    -0.507 C  
HETATM    4  H2  UNK A   0     -13.889  16.367  74.651  1.00  0.00     0.000 HD 
HETATM    5  N   UNK A   0     -13.651  14.407  73.055  1.00  0.00    -0.320 N  
HETATM    6  H   UNK A   0     -14.238  14.210  73.865  1.00  0.00     0.000 HD 
HETATM    7  C   UNK A   0     -13.412  13.414  72.102  1.00  0.00    -0.552 C  
HETATM    8  C   UNK A   0     -12.517  13.788  71.002  1.00  0.00    -0.458 A  
HETATM    9  O   UNK A   0     -13.906  12.296  72.173  1.00  0.00    -0.266 OA 
HETATM   10  C   UNK A   0     -12.023  15.062  70.945  1.00  0.00    -0.319 A  
HETATM   11  N   UNK A   0     -11.195  15.200  69.881  1.00  0.00    -0.266 NA 
HETATM   12  N   UNK A   0     -12.326  15.988  71.863  1.00  0.00    -0.466 NA 
HETATM   13  H   UNK A   0     -10.698  16.049  69.613  1.00  0.00     0.000 HD 
HETATM   14  C   UNK A   0     -11.144  13.992  69.226  1.00  0.00    -0.232 A  
HETATM   15  C   UNK A   0     -11.957  13.083  69.895  1.00  0.00    -0.381 A  
ENDROOT
BRANCH  15  16
HETATM   16  C   UNK A   0     -12.138  11.639  69.546  1.00  0.00    -0.336 C  
BRANCH  16  17
HETATM   17  C   UNK A   0     -11.538  10.670  70.579  1.00  0.00    -0.444 C  
BRANCH  17  18
HETATM   18  C   UNK A   0     -10.568   9.668  69.977  1.00  0.00    -0.300 A  
HETATM   19  C   UNK A   0      -9.341  10.073  69.437  1.00  0.00    -0.237 A  
HETATM   20  C   UNK A   0      -8.514   9.163  68.778  1.00  0.00    -0.130 A  
HETATM   21  C   UNK A   0      -8.891   7.822  68.671  1.00  0.00    -0.131 A  
HETATM   22  C   UNK A   0     -10.047   7.375  69.315  1.00  0.00    -0.186 A  
HETATM   23  C   UNK A   0     -10.883   8.298  69.961  1.00  0.00    -0.232 A  
BRANCH  21  24
HETATM   24  C   UNK A   0      -8.098   6.892  67.818  1.00  0.00    -0.114 C  
HETATM   25  O   UNK A   0      -7.033   6.404  68.175  1.00  0.00    -0.074 OA 
ATOM     26  N   GLU A   1      -8.675   6.593  66.600  1.00  0.00    -0.121 N  
ATOM     27  H   GLU A   1      -9.568   7.021  66.355  1.00  0.00     0.000 HD 
BRANCH  26  28
ATOM     28  CA  GLU A   1      -8.043   5.681  65.659  1.00  0.00    -0.120 C  
ATOM     29  C   GLU A   1      -7.426   6.494  64.515  1.00  0.00    -0.090 C  
ATOM     30  O   GLU A   1      -6.151   6.877  64.753  1.00  0.00    -0.035 OA 
ATOM     31  OXT GLU A   1      -8.023   6.790  63.480  1.00  0.00    -0.119 OA 
BRANCH  28  32
ATOM     32  CB  GLU A   1      -9.060   4.670  65.110  1.00  0.00    -0.155 C  
BRANCH  32  33
ATOM     33  CG  GLU A   1      -9.773   3.918  66.232  1.00  0.00    -0.176 C  
ATOM     34  CD  GLU A   1      -8.979   2.713  66.659  1.00  0.00    -0.143 C  
ATOM     35  OE1 GLU A   1      -8.126   2.960  67.675  1.00  0.00    -0.074 OA 
ATOM     36  OE2 GLU A   1      -9.068   1.620  66.120  1.00  0.00    -0.115 OA 
ENDBRANCH  32  33
ENDBRANCH  28  32
ENDBRANCH  26  28
ENDBRANCH  21  24
ENDBRANCH  17  18
ENDBRANCH  16  17
ENDBRANCH  15  16
TORSDOF 7
ENDMDL
MODEL      167
REMARK 921   NORMALIZED FREE ENERGY PREDICTED BY IDOCK:   -4.40 KCAL/MOL
REMARK 922        TOTAL FREE ENERGY PREDICTED BY IDOCK:   -8.84 KCAL/MOL
REMARK 923 INTER-LIGAND FREE ENERGY PREDICTED BY IDOCK:   -7.40 KCAL/MOL
REMARK 924 INTRA-LIGAND FREE ENERGY PREDICTED BY IDOCK:   -1.44 KCAL/MOL
REMARK 927      BINDING AFFINITY PREDICTED BY RF-SCORE:    0.00 PKD
ROOT
HETATM    1  N   UNK A   0      -5.466   9.213  69.812  1.00  0.00    -0.033 NA 
HETATM    2  H1  UNK A   0      -5.618   8.863  70.757  1.00  0.00     0.000 HD 
HETATM    3  C   UNK A   0      -5.585  10.537  69.534  1.00  0.00    -0.038 C  
HETATM    4  H2  UNK A   0      -5.221   8.562  69.066  1.00  0.00     0.000 HD 
HETATM    5  N   UNK A   0      -5.391  10.984  68.328  1.00  0.00    -0.040 N  
HETATM    6  H   UNK A   0      -5.164  10.338  67.572  1.00  0.00     0.000 HD 
HETATM    7  C   UNK A   0      -5.495  12.354  68.074  1.00  0.00    -0.073 C  
HETATM    8  C   UNK A   0      -5.778  13.199  69.238  1.00  0.00    -0.084 A  
HETATM    9  O   UNK A   0      -5.354  12.832  66.956  1.00  0.00    -0.343 OA 
HETATM   10  C   UNK A   0      -5.969  12.613  70.460  1.00  0.00    -0.052 A  
HETATM   11  N   UNK A   0      -6.184  13.558  71.408  1.00  0.00    -0.491 NA 
HETATM   12  N   UNK A   0      -5.905  11.288  70.635  1.00  0.00    -0.278 NA 
HETATM   13  H   UNK A   0      -6.353  13.387  72.399  1.00  0.00     0.000 HD 
HETATM   14  C   UNK A   0      -6.134  14.789  70.797  1.00  0.00    -0.070 A  
HETATM   15  C   UNK A   0      -5.882  14.608  69.441  1.00  0.00    -0.097 A  
ENDROOT
BRANCH  15  16
HETATM   16  C   UNK A   0      -5.693  15.692  68.428  1.00  0.00    -0.108 C  
BRANCH  16  17
HETATM   17  C   UNK A   0      -6.775  15.718  67.334  1.00  0.00    -0.228 C  
BRANCH  17  18
HETATM   18  C   UNK A   0      -8.189  15.605  67.879  1.00  0.00    -0.155 A  
HETATM   19  C   UNK A   0      -8.769  16.638  68.625  1.00  0.00    -0.250 A  
HETATM   20  C   UNK A   0     -10.018  16.475  69.222  1.00  0.00    -0.244 A  
HETATM   21  C   UNK A   0     -10.723  15.279  69.062  1.00  0.00    -0.244 A  
HETATM   22  C   UNK A   0     -10.218  14.288  68.216  1.00  0.00    -0.244 A  
HETATM   23  C   UNK A   0      -8.954  14.451  67.632  1.00  0.00    -0.192 A  
BRANCH  21  24
HETATM   24  C   UNK A   0     -11.969  15.039  69.841  1.00  0.00    -0.334 C  
HETATM   25  O   UNK A   0     -13.031  15.594  69.589  1.00  0.00     0.093 OA 
ATOM     26  N   GLU A   1     -11.845  14.110  70.856  1.00  0.00    -0.488 N  
ATOM     27  H   GLU A   1     -10.939  13.671  71.019  1.00  0.00     0.000 HD 
BRANCH  26  28
ATOM     28  CA  GLU A   1     -12.974  13.741  71.696  1.00  0.00    -0.364 C  
ATOM     29  C   GLU A   1     -13.037  14.697  72.894  1.00  0.00    -0.513 C  
ATOM     30  O   GLU A   1     -13.778  15.804  72.661  1.00  0.00    -0.546 OA 
ATOM     31  OXT GLU A   1     -12.465  14.498  73.965  1.00  0.00    -0.403 OA 
BRANCH  28  32
ATOM     32  CB  GLU A   1     -12.847  12.289  72.176  1.00  0.00    -0.152 C  
BRANCH  32  33
ATOM     33  CG  GLU A   1     -13.013  11.296  71.027  1.00  0.00    -0.304 C  
ATOM     34  CD  GLU A   1     -12.557   9.922  71.434  1.00  0.00    -0.398 C  
ATOM     35  OE1 GLU A   1     -13.542   9.152  71.941  1.00  0.00    -0.383 OA 
ATOM     36  OE2 GLU A   1     -11.398   9.543  71.350  1.00  0.00    -0.350 OA 
ENDBRANCH  32  33
ENDBRANCH  28  32
ENDBRANCH  26  28
ENDBRANCH  21  24
ENDBRANCH  17  18
ENDBRANCH  16  17
ENDBRANCH  15  16
TORSDOF 7
ENDMDL
MODEL      168
REMARK 921   NORMALIZED FREE ENERGY PREDICTED BY IDOCK:   -4.39 KCAL/MOL
REMARK 922        TOTAL FREE ENERGY PREDICTED BY IDOCK:   -8.83 KCAL/MOL
REMARK 923 INTER-LIGAND FREE ENERGY PREDICTED BY IDOCK:   -7.57 KCAL/MOL
REMARK 924 INTRA-LIGAND FREE ENERGY PREDICTED BY IDOCK:   -1.26 KCAL/MOL
REMARK 927      BINDING AFFINITY PREDICTED BY RF-SCORE:    0.00 PKD
ROOT
HETATM    1  N   UNK A   0     -11.165  17.448  64.634  1.00  0.00    -0.824 NA 
HETATM    2  H1  UNK A   0     -11.841  17.841  63.981  1.00  0.00     0.000 HD 
HETATM    3  C   UNK A   0     -11.068  16.105  64.810  1.00  0.00    -0.333 C  
HETATM    4  H2  UNK A   0     -10.553  18.071  65.162  1.00  0.00     0.000 HD 
HETATM    5  N   UNK A   0     -10.205  15.603  65.643  1.00  0.00    -0.348 N  
HETATM    6  H   UNK A   0      -9.601  16.218  66.189  1.00  0.00     0.000 HD 
HETATM    7  C   UNK A   0     -10.108  14.216  65.787  1.00  0.00    -0.333 C  
HETATM    8  C   UNK A   0     -10.987  13.423  64.923  1.00  0.00    -0.353 A  
HETATM    9  O   UNK A   0      -9.338  13.685  66.577  1.00  0.00    -0.268 OA 
HETATM   10  C   UNK A   0     -11.860  14.064  64.087  1.00  0.00    -0.365 A  
HETATM   11  N   UNK A   0     -12.556  13.163  63.351  1.00  0.00    -0.707 NA 
HETATM   12  N   UNK A   0     -11.942  15.399  64.027  1.00  0.00    -0.473 NA 
HETATM   13  H   UNK A   0     -13.268  13.380  62.654  1.00  0.00     0.000 HD 
HETATM   14  C   UNK A   0     -12.132  11.906  63.710  1.00  0.00    -0.443 A  
HETATM   15  C   UNK A   0     -11.152  12.024  64.690  1.00  0.00    -0.375 A  
ENDROOT
BRANCH  15  16
HETATM   16  C   UNK A   0     -10.387  10.899  65.312  1.00  0.00    -0.334 C  
BRANCH  16  17
HETATM   17  C   UNK A   0     -10.810  10.582  66.756  1.00  0.00    -0.209 C  
BRANCH  17  18
HETATM   18  C   UNK A   0      -9.993   9.473  67.397  1.00  0.00    -0.241 A  
HETATM   19  C   UNK A   0     -10.598   8.304  67.876  1.00  0.00    -0.212 A  
HETATM   20  C   UNK A   0      -9.858   7.349  68.571  1.00  0.00    -0.164 A  
HETATM   21  C   UNK A   0      -8.488   7.536  68.778  1.00  0.00    -0.129 A  
HETATM   22  C   UNK A   0      -7.845   8.631  68.197  1.00  0.00    -0.103 A  
HETATM   23  C   UNK A   0      -8.597   9.597  67.513  1.00  0.00    -0.126 A  
BRANCH  21  24
HETATM   24  C   UNK A   0      -7.737   6.607  69.669  1.00  0.00    -0.107 C  
HETATM   25  O   UNK A   0      -6.849   5.868  69.265  1.00  0.00    -0.057 OA 
ATOM     26  N   GLU A   1      -8.097   6.669  71.001  1.00  0.00    -0.118 N  
ATOM     27  H   GLU A   1      -8.840   7.308  71.286  1.00  0.00     0.000 HD 
BRANCH  26  28
ATOM     28  CA  GLU A   1      -7.444   5.847  72.008  1.00  0.00    -0.096 C  
ATOM     29  C   GLU A   1      -8.412   4.746  72.458  1.00  0.00    -0.116 C  
ATOM     30  O   GLU A   1      -8.330   3.620  71.714  1.00  0.00    -0.072 OA 
ATOM     31  OXT GLU A   1      -9.204   4.865  73.393  1.00  0.00    -0.123 OA 
BRANCH  28  32
ATOM     32  CB  GLU A   1      -7.005   6.697  73.208  1.00  0.00    -0.076 C  
BRANCH  32  33
ATOM     33  CG  GLU A   1      -5.690   7.426  72.935  1.00  0.00    -0.044 C  
ATOM     34  CD  GLU A   1      -5.941   8.855  72.539  1.00  0.00    -0.052 C  
ATOM     35  OE1 GLU A   1      -5.937   9.714  73.580  1.00  0.00    -0.305 OA 
ATOM     36  OE2 GLU A   1      -6.161   9.209  71.390  1.00  0.00    -0.063 OA 
ENDBRANCH  32  33
ENDBRANCH  28  32
ENDBRANCH  26  28
ENDBRANCH  21  24
ENDBRANCH  17  18
ENDBRANCH  16  17
ENDBRANCH  15  16
TORSDOF 7
ENDMDL
MODEL      169
REMARK 921   NORMALIZED FREE ENERGY PREDICTED BY IDOCK:   -4.38 KCAL/MOL
REMARK 922        TOTAL FREE ENERGY PREDICTED BY IDOCK:   -8.81 KCAL/MOL
REMARK 923 INTER-LIGAND FREE ENERGY PREDICTED BY IDOCK:   -7.39 KCAL/MOL
REMARK 924 INTRA-LIGAND FREE ENERGY PREDICTED BY IDOCK:   -1.42 KCAL/MOL
REMARK 927      BINDING AFFINITY PREDICTED BY RF-SCORE:    0.00 PKD
ROOT
HETATM    1  N   UNK A   0      -6.860  20.805  66.301  1.00  0.00    -0.437 NA 
HETATM    2  H1  UNK A   0      -6.467  20.681  65.369  1.00  0.00     0.000 HD 
HETATM    3  C   UNK A   0      -7.833  19.977  66.762  1.00  0.00    -0.309 C  
HETATM    4  H2  UNK A   0      -6.517  21.559  66.896  1.00  0.00     0.000 HD 
HETATM    5  N   UNK A   0      -8.333  20.134  67.952  1.00  0.00    -0.254 N  
HETATM    6  H   UNK A   0      -8.010  20.897  68.547  1.00  0.00     0.000 HD 
HETATM    7  C   UNK A   0      -9.315  19.253  68.411  1.00  0.00    -0.366 C  
HETATM    8  C   UNK A   0      -9.673  18.165  67.496  1.00  0.00    -0.304 A  
HETATM    9  O   UNK A   0      -9.846  19.367  69.508  1.00  0.00    -0.272 OA 
HETATM   10  C   UNK A   0      -9.082  18.105  66.263  1.00  0.00    -0.182 A  
HETATM   11  N   UNK A   0      -9.518  17.015  65.584  1.00  0.00    -0.505 NA 
HETATM   12  N   UNK A   0      -8.180  19.007  65.858  1.00  0.00    -0.458 NA 
HETATM   13  H   UNK A   0      -9.232  16.740  64.644  1.00  0.00     0.000 HD 
HETATM   14  C   UNK A   0     -10.413  16.347  66.386  1.00  0.00    -0.286 A  
HETATM   15  C   UNK A   0     -10.538  17.033  67.589  1.00  0.00    -0.333 A  
ENDROOT
BRANCH  15  16
HETATM   16  C   UNK A   0     -11.367  16.612  68.761  1.00  0.00    -0.139 C  
BRANCH  16  17
HETATM   17  C   UNK A   0     -10.597  15.780  69.801  1.00  0.00    -0.312 C  
BRANCH  17  18
HETATM   18  C   UNK A   0      -9.839  14.609  69.199  1.00  0.00    -0.130 A  
HETATM   19  C   UNK A   0      -8.449  14.646  69.033  1.00  0.00    -0.095 A  
HETATM   20  C   UNK A   0      -7.781  13.617  68.369  1.00  0.00    -0.138 A  
HETATM   21  C   UNK A   0      -8.492  12.518  67.880  1.00  0.00    -0.171 A  
HETATM   22  C   UNK A   0      -9.858  12.403  68.150  1.00  0.00    -0.213 A  
HETATM   23  C   UNK A   0     -10.527  13.448  68.803  1.00  0.00    -0.203 A  
BRANCH  21  24
HETATM   24  C   UNK A   0      -7.808  11.512  67.020  1.00  0.00    -0.161 C  
HETATM   25  O   UNK A   0      -6.589  11.431  66.930  1.00  0.00    -0.118 OA 
ATOM     26  N   GLU A   1      -8.656  10.650  66.355  1.00  0.00    -0.144 N  
ATOM     27  H   GLU A   1      -9.664  10.757  66.470  1.00  0.00     0.000 HD 
BRANCH  26  28
ATOM     28  CA  GLU A   1      -8.149   9.592  65.494  1.00  0.00    -0.122 C  
ATOM     29  C   GLU A   1      -8.292  10.029  64.031  1.00  0.00    -0.170 C  
ATOM     30  O   GLU A   1      -7.218  10.705  63.563  1.00  0.00     0.017 OA 
ATOM     31  OXT GLU A   1      -9.286   9.806  63.339  1.00  0.00    -0.258 OA 
BRANCH  28  32
ATOM     32  CB  GLU A   1      -8.906   8.279  65.737  1.00  0.00    -0.194 C  
BRANCH  32  33
ATOM     33  CG  GLU A   1     -10.098   8.477  66.673  1.00  0.00    -0.364 C  
ATOM     34  CD  GLU A   1     -10.503   7.175  67.308  1.00  0.00    -0.301 C  
ATOM     35  OE1 GLU A   1      -9.902   6.941  68.493  1.00  0.00    -0.141 OA 
ATOM     36  OE2 GLU A   1     -11.277   6.384  66.790  1.00  0.00    -0.327 OA 
ENDBRANCH  32  33
ENDBRANCH  28  32
ENDBRANCH  26  28
ENDBRANCH  21  24
ENDBRANCH  17  18
ENDBRANCH  16  17
ENDBRANCH  15  16
TORSDOF 7
ENDMDL
MODEL      170
REMARK 921   NORMALIZED FREE ENERGY PREDICTED BY IDOCK:   -4.36 KCAL/MOL
REMARK 922        TOTAL FREE ENERGY PREDICTED BY IDOCK:   -8.78 KCAL/MOL
REMARK 923 INTER-LIGAND FREE ENERGY PREDICTED BY IDOCK:   -7.67 KCAL/MOL
REMARK 924 INTRA-LIGAND FREE ENERGY PREDICTED BY IDOCK:   -1.12 KCAL/MOL
REMARK 927      BINDING AFFINITY PREDICTED BY RF-SCORE:    0.00 PKD
ROOT
HETATM    1  N   UNK A   0      -6.300   7.637  63.150  1.00  0.00    -0.058 NA 
HETATM    2  H1  UNK A   0      -6.437   6.724  62.718  1.00  0.00     0.000 HD 
HETATM    3  C   UNK A   0      -7.122   8.068  64.141  1.00  0.00    -0.079 C  
HETATM    4  H2  UNK A   0      -5.536   8.234  62.833  1.00  0.00     0.000 HD 
HETATM    5  N   UNK A   0      -6.947   9.233  64.692  1.00  0.00    -0.090 N  
HETATM    6  H   UNK A   0      -6.197   9.845  64.370  1.00  0.00     0.000 HD 
HETATM    7  C   UNK A   0      -7.791   9.642  65.727  1.00  0.00    -0.106 C  
HETATM    8  C   UNK A   0      -8.805   8.670  66.145  1.00  0.00    -0.204 A  
HETATM    9  O   UNK A   0      -7.696  10.739  66.264  1.00  0.00    -0.138 OA 
HETATM   10  C   UNK A   0      -8.898   7.475  65.485  1.00  0.00     0.024 A  
HETATM   11  N   UNK A   0      -9.867   6.705  66.038  1.00  0.00    -0.391 NA 
HETATM   12  N   UNK A   0      -8.091   7.156  64.466  1.00  0.00    -0.107 NA 
HETATM   13  H   UNK A   0     -10.138   5.770  65.734  1.00  0.00     0.000 HD 
HETATM   14  C   UNK A   0     -10.423   7.408  67.081  1.00  0.00    -0.333 A  
HETATM   15  C   UNK A   0      -9.787   8.641  67.181  1.00  0.00    -0.269 A  
ENDROOT
BRANCH  15  16
HETATM   16  C   UNK A   0     -10.048   9.686  68.219  1.00  0.00    -0.203 C  
BRANCH  16  17
HETATM   17  C   UNK A   0     -11.372  10.443  68.021  1.00  0.00    -0.277 C  
BRANCH  17  18
HETATM   18  C   UNK A   0     -11.210  11.954  68.009  1.00  0.00    -0.317 A  
HETATM   19  C   UNK A   0     -10.553  12.610  66.960  1.00  0.00    -0.255 A  
HETATM   20  C   UNK A   0     -10.303  13.980  67.019  1.00  0.00    -0.267 A  
HETATM   21  C   UNK A   0     -10.729  14.726  68.121  1.00  0.00    -0.247 A  
HETATM   22  C   UNK A   0     -11.497  14.113  69.114  1.00  0.00    -0.338 A  
HETATM   23  C   UNK A   0     -11.731  12.731  69.058  1.00  0.00    -0.371 A  
BRANCH  21  24
HETATM   24  C   UNK A   0     -10.308  16.147  68.265  1.00  0.00    -0.266 C  
HETATM   25  O   UNK A   0     -10.513  16.804  69.278  1.00  0.00    -0.311 OA 
ATOM     26  N   GLU A   1      -9.632  16.662  67.177  1.00  0.00    -0.237 N  
ATOM     27  H   GLU A   1      -9.481  16.069  66.360  1.00  0.00     0.000 HD 
BRANCH  26  28
ATOM     28  CA  GLU A   1      -9.129  18.027  67.165  1.00  0.00    -0.256 C  
ATOM     29  C   GLU A   1     -10.216  18.954  66.607  1.00  0.00    -0.405 C  
ATOM     30  O   GLU A   1     -11.049  19.439  67.555  1.00  0.00    -0.417 OA 
ATOM     31  OXT GLU A   1     -10.340  19.229  65.413  1.00  0.00    -0.398 OA 
BRANCH  28  32
ATOM     32  CB  GLU A   1      -7.851  18.131  66.322  1.00  0.00    -0.280 C  
BRANCH  32  33
ATOM     33  CG  GLU A   1      -6.780  18.970  67.018  1.00  0.00    -0.203 C  
ATOM     34  CD  GLU A   1      -6.807  20.391  66.526  1.00  0.00    -0.252 C  
ATOM     35  OE1 GLU A   1      -7.596  21.203  67.260  1.00  0.00    -0.383 OA 
ATOM     36  OE2 GLU A   1      -6.201  20.774  65.536  1.00  0.00    -0.235 OA 
ENDBRANCH  32  33
ENDBRANCH  28  32
ENDBRANCH  26  28
ENDBRANCH  21  24
ENDBRANCH  17  18
ENDBRANCH  16  17
ENDBRANCH  15  16
TORSDOF 7
ENDMDL
MODEL      171
REMARK 921   NORMALIZED FREE ENERGY PREDICTED BY IDOCK:   -4.35 KCAL/MOL
REMARK 922        TOTAL FREE ENERGY PREDICTED BY IDOCK:   -8.78 KCAL/MOL
REMARK 923 INTER-LIGAND FREE ENERGY PREDICTED BY IDOCK:   -7.78 KCAL/MOL
REMARK 924 INTRA-LIGAND FREE ENERGY PREDICTED BY IDOCK:   -1.00 KCAL/MOL
REMARK 927      BINDING AFFINITY PREDICTED BY RF-SCORE:    0.00 PKD
ROOT
HETATM    1  N   UNK A   0      -8.710   2.481  63.938  1.00  0.00    -0.086 NA 
HETATM    2  H1  UNK A   0      -9.253   2.711  63.106  1.00  0.00     0.000 HD 
HETATM    3  C   UNK A   0      -8.888   3.168  65.095  1.00  0.00    -0.129 C  
HETATM    4  H2  UNK A   0      -8.026   1.726  63.900  1.00  0.00     0.000 HD 
HETATM    5  N   UNK A   0      -8.196   2.875  66.157  1.00  0.00    -0.083 N  
HETATM    6  H   UNK A   0      -7.496   2.134  66.124  1.00  0.00     0.000 HD 
HETATM    7  C   UNK A   0      -8.416   3.581  67.342  1.00  0.00    -0.097 C  
HETATM    8  C   UNK A   0      -9.476   4.592  67.294  1.00  0.00    -0.173 A  
HETATM    9  O   UNK A   0      -7.776   3.373  68.365  1.00  0.00    -0.056 OA 
HETATM   10  C   UNK A   0     -10.135   4.817  66.116  1.00  0.00    -0.262 A  
HETATM   11  N   UNK A   0     -11.094   5.759  66.284  1.00  0.00    -0.755 NA 
HETATM   12  N   UNK A   0      -9.847   4.142  64.997  1.00  0.00    -0.193 NA 
HETATM   13  H   UNK A   0     -11.726   6.108  65.563  1.00  0.00     0.000 HD 
HETATM   14  C   UNK A   0     -11.066   6.162  67.599  1.00  0.00    -0.205 A  
HETATM   15  C   UNK A   0     -10.069   5.457  68.264  1.00  0.00    -0.225 A  
ENDROOT
BRANCH  15  16
HETATM   16  C   UNK A   0      -9.745   5.551  69.721  1.00  0.00    -0.236 C  
BRANCH  16  17
HETATM   17  C   UNK A   0     -10.657   6.514  70.500  1.00  0.00    -0.282 C  
BRANCH  17  18
HETATM   18  C   UNK A   0     -10.403   7.978  70.184  1.00  0.00    -0.215 A  
HETATM   19  C   UNK A   0     -11.403   8.945  70.348  1.00  0.00    -0.229 A  
HETATM   20  C   UNK A   0     -11.198  10.262  69.939  1.00  0.00    -0.360 A  
HETATM   21  C   UNK A   0      -9.974  10.642  69.381  1.00  0.00    -0.183 A  
HETATM   22  C   UNK A   0      -8.924   9.723  69.329  1.00  0.00    -0.177 A  
HETATM   23  C   UNK A   0      -9.141   8.395  69.726  1.00  0.00    -0.153 A  
BRANCH  21  24
HETATM   24  C   UNK A   0      -9.818  11.998  68.785  1.00  0.00    -0.044 C  
HETATM   25  O   UNK A   0      -8.841  12.328  68.124  1.00  0.00    -0.178 OA 
ATOM     26  N   GLU A   1     -10.882  12.851  69.005  1.00  0.00    -0.394 N  
ATOM     27  H   GLU A   1     -11.675  12.524  69.557  1.00  0.00     0.000 HD 
BRANCH  26  28
ATOM     28  CA  GLU A   1     -10.900  14.204  68.470  1.00  0.00    -0.252 C  
ATOM     29  C   GLU A   1     -11.209  15.185  69.606  1.00  0.00    -0.272 C  
ATOM     30  O   GLU A   1     -10.106  15.627  70.251  1.00  0.00    -0.248 OA 
ATOM     31  OXT GLU A   1     -12.345  15.538  69.923  1.00  0.00    -0.357 OA 
BRANCH  28  32
ATOM     32  CB  GLU A   1     -11.942  14.335  67.350  1.00  0.00    -0.426 C  
BRANCH  32  33
ATOM     33  CG  GLU A   1     -11.286  14.431  65.974  1.00  0.00    -0.335 C  
ATOM     34  CD  GLU A   1     -11.474  13.155  65.199  1.00  0.00    -0.300 C  
ATOM     35  OE1 GLU A   1     -12.577  13.151  64.422  1.00  0.00    -0.606 OA 
ATOM     36  OE2 GLU A   1     -10.722  12.195  65.287  1.00  0.00    -0.270 OA 
ENDBRANCH  32  33
ENDBRANCH  28  32
ENDBRANCH  26  28
ENDBRANCH  21  24
ENDBRANCH  17  18
ENDBRANCH  16  17
ENDBRANCH  15  16
TORSDOF 7
ENDMDL
MODEL      172
REMARK 921   NORMALIZED FREE ENERGY PREDICTED BY IDOCK:   -4.35 KCAL/MOL
REMARK 922        TOTAL FREE ENERGY PREDICTED BY IDOCK:   -8.77 KCAL/MOL
REMARK 923 INTER-LIGAND FREE ENERGY PREDICTED BY IDOCK:   -7.45 KCAL/MOL
REMARK 924 INTRA-LIGAND FREE ENERGY PREDICTED BY IDOCK:   -1.32 KCAL/MOL
REMARK 927      BINDING AFFINITY PREDICTED BY RF-SCORE:    0.00 PKD
ROOT
HETATM    1  N   UNK A   0     -11.635   5.376  72.963  1.00  0.00    -0.511 NA 
HETATM    2  H1  UNK A   0     -11.299   5.505  73.916  1.00  0.00     0.000 HD 
HETATM    3  C   UNK A   0     -10.774   5.391  71.913  1.00  0.00    -0.211 C  
HETATM    4  H2  UNK A   0     -12.632   5.234  72.795  1.00  0.00     0.000 HD 
HETATM    5  N   UNK A   0     -11.204   5.226  70.696  1.00  0.00     0.228 N  
HETATM    6  H   UNK A   0     -12.200   5.102  70.517  1.00  0.00     0.000 HD 
HETATM    7  C   UNK A   0     -10.293   5.220  69.637  1.00  0.00    -0.278 C  
HETATM    8  C   UNK A   0      -8.882   5.359  70.008  1.00  0.00    -0.141 A  
HETATM    9  O   UNK A   0     -10.639   5.101  68.468  1.00  0.00    -0.083 OA 
HETATM   10  C   UNK A   0      -8.550   5.532  71.324  1.00  0.00    -0.127 A  
HETATM   11  N   UNK A   0      -7.204   5.607  71.464  1.00  0.00    -0.079 NA 
HETATM   12  N   UNK A   0      -9.471   5.578  72.293  1.00  0.00    -0.145 NA 
HETATM   13  H   UNK A   0      -6.698   5.734  72.341  1.00  0.00     0.000 HD 
HETATM   14  C   UNK A   0      -6.640   5.480  70.216  1.00  0.00    -0.042 A  
HETATM   15  C   UNK A   0      -7.655   5.324  69.278  1.00  0.00    -0.073 A  
ENDROOT
BRANCH  15  16
HETATM   16  C   UNK A   0      -7.472   5.095  67.812  1.00  0.00    -0.079 C  
BRANCH  16  17
HETATM   17  C   UNK A   0      -7.187   6.379  67.013  1.00  0.00    -0.074 C  
BRANCH  17  18
HETATM   18  C   UNK A   0      -8.232   7.462  67.215  1.00  0.00    -0.115 A  
HETATM   19  C   UNK A   0      -9.474   7.409  66.570  1.00  0.00    -0.229 A  
HETATM   20  C   UNK A   0     -10.376   8.469  66.666  1.00  0.00    -0.303 A  
HETATM   21  C   UNK A   0     -10.060   9.593  67.433  1.00  0.00    -0.257 A  
HETATM   22  C   UNK A   0      -8.883   9.607  68.186  1.00  0.00    -0.119 A  
HETATM   23  C   UNK A   0      -7.972   8.547  68.072  1.00  0.00    -0.111 A  
BRANCH  21  24
HETATM   24  C   UNK A   0     -10.941  10.794  67.392  1.00  0.00    -0.300 C  
HETATM   25  O   UNK A   0     -11.856  10.977  68.185  1.00  0.00    -0.573 OA 
ATOM     26  N   GLU A   1     -10.624  11.708  66.407  1.00  0.00    -0.248 N  
ATOM     27  H   GLU A   1      -9.847  11.510  65.776  1.00  0.00     0.000 HD 
BRANCH  26  28
ATOM     28  CA  GLU A   1     -11.370  12.947  66.246  1.00  0.00    -0.323 C  
ATOM     29  C   GLU A   1     -11.987  12.979  64.843  1.00  0.00    -0.396 C  
ATOM     30  O   GLU A   1     -13.216  12.418  64.782  1.00  0.00    -0.784 OA 
ATOM     31  OXT GLU A   1     -11.427  13.452  63.854  1.00  0.00    -0.377 OA 
BRANCH  28  32
ATOM     32  CB  GLU A   1     -10.460  14.164  66.459  1.00  0.00    -0.280 C  
BRANCH  32  33
ATOM     33  CG  GLU A   1     -11.264  15.456  66.596  1.00  0.00    -0.175 C  
ATOM     34  CD  GLU A   1     -10.452  16.643  66.154  1.00  0.00    -0.285 C  
ATOM     35  OE1 GLU A   1     -10.610  16.952  64.850  1.00  0.00    -0.702 OA 
ATOM     36  OE2 GLU A   1      -9.694  17.254  66.892  1.00  0.00    -0.254 OA 
ENDBRANCH  32  33
ENDBRANCH  28  32
ENDBRANCH  26  28
ENDBRANCH  21  24
ENDBRANCH  17  18
ENDBRANCH  16  17
ENDBRANCH  15  16
TORSDOF 7
ENDMDL
MODEL      173
REMARK 921   NORMALIZED FREE ENERGY PREDICTED BY IDOCK:   -4.31 KCAL/MOL
REMARK 922        TOTAL FREE ENERGY PREDICTED BY IDOCK:   -8.72 KCAL/MOL
REMARK 923 INTER-LIGAND FREE ENERGY PREDICTED BY IDOCK:   -7.84 KCAL/MOL
REMARK 924 INTRA-LIGAND FREE ENERGY PREDICTED BY IDOCK:   -0.88 KCAL/MOL
REMARK 927      BINDING AFFINITY PREDICTED BY RF-SCORE:    0.00 PKD
ROOT
HETATM    1  N   UNK A   0      -7.991  19.447  68.492  1.00  0.00    -0.351 NA 
HETATM    2  H1  UNK A   0      -7.394  19.849  67.770  1.00  0.00     0.000 HD 
HETATM    3  C   UNK A   0      -8.846  18.433  68.202  1.00  0.00    -0.302 C  
HETATM    4  H2  UNK A   0      -7.944  19.812  69.444  1.00  0.00     0.000 HD 
HETATM    5  N   UNK A   0      -9.608  17.921  69.124  1.00  0.00    -0.113 N  
HETATM    6  H   UNK A   0      -9.582  18.291  70.074  1.00  0.00     0.000 HD 
HETATM    7  C   UNK A   0     -10.461  16.861  68.806  1.00  0.00    -0.343 C  
HETATM    8  C   UNK A   0     -10.386  16.375  67.425  1.00  0.00    -0.295 A  
HETATM    9  O   UNK A   0     -11.223  16.358  69.621  1.00  0.00    -0.323 OA 
HETATM   10  C   UNK A   0      -9.549  16.999  66.540  1.00  0.00    -0.278 A  
HETATM   11  N   UNK A   0      -9.597  16.385  65.332  1.00  0.00    -0.395 NA 
HETATM   12  N   UNK A   0      -8.788  18.043  66.890  1.00  0.00    -0.251 NA 
HETATM   13  H   UNK A   0      -9.069  16.653  64.502  1.00  0.00     0.000 HD 
HETATM   14  C   UNK A   0     -10.483  15.338  65.425  1.00  0.00    -0.398 A  
HETATM   15  C   UNK A   0     -10.998  15.297  66.716  1.00  0.00    -0.306 A  
ENDROOT
BRANCH  15  16
HETATM   16  C   UNK A   0     -11.950  14.277  67.254  1.00  0.00    -0.439 C  
BRANCH  16  17
HETATM   17  C   UNK A   0     -11.856  12.909  66.556  1.00  0.00    -0.473 C  
BRANCH  17  18
HETATM   18  C   UNK A   0     -11.405  11.788  67.476  1.00  0.00    -0.377 A  
HETATM   19  C   UNK A   0     -10.673  10.696  66.994  1.00  0.00    -0.317 A  
HETATM   20  C   UNK A   0     -10.372   9.616  67.822  1.00  0.00    -0.286 A  
HETATM   21  C   UNK A   0     -10.776   9.621  69.160  1.00  0.00    -0.237 A  
HETATM   22  C   UNK A   0     -11.393  10.756  69.690  1.00  0.00    -0.362 A  
HETATM   23  C   UNK A   0     -11.709  11.833  68.849  1.00  0.00    -0.384 A  
BRANCH  21  24
HETATM   24  C   UNK A   0     -10.610   8.396  69.992  1.00  0.00    -0.235 C  
HETATM   25  O   UNK A   0     -11.383   7.448  69.944  1.00  0.00    -0.195 OA 
ATOM     26  N   GLU A   1      -9.491   8.396  70.801  1.00  0.00    -0.163 N  
ATOM     27  H   GLU A   1      -8.875   9.210  70.797  1.00  0.00     0.000 HD 
BRANCH  26  28
ATOM     28  CA  GLU A   1      -9.168   7.266  71.658  1.00  0.00    -0.146 C  
ATOM     29  C   GLU A   1      -8.341   7.764  72.849  1.00  0.00    -0.140 C  
ATOM     30  O   GLU A   1      -9.094   8.144  73.906  1.00  0.00    -0.213 OA 
ATOM     31  OXT GLU A   1      -7.112   7.830  72.855  1.00  0.00    -0.069 OA 
BRANCH  28  32
ATOM     32  CB  GLU A   1      -8.394   6.193  70.879  1.00  0.00    -0.127 C  
BRANCH  32  33
ATOM     33  CG  GLU A   1      -8.771   4.783  71.329  1.00  0.00    -0.141 C  
ATOM     34  CD  GLU A   1      -8.334   3.761  70.315  1.00  0.00    -0.056 C  
ATOM     35  OE1 GLU A   1      -7.103   3.261  70.547  1.00  0.00    -0.033 OA 
ATOM     36  OE2 GLU A   1      -9.011   3.435  69.351  1.00  0.00    -0.091 OA 
ENDBRANCH  32  33
ENDBRANCH  28  32
ENDBRANCH  26  28
ENDBRANCH  21  24
ENDBRANCH  17  18
ENDBRANCH  16  17
ENDBRANCH  15  16
TORSDOF 7
ENDMDL
MODEL      174
REMARK 921   NORMALIZED FREE ENERGY PREDICTED BY IDOCK:   -4.31 KCAL/MOL
REMARK 922        TOTAL FREE ENERGY PREDICTED BY IDOCK:   -8.71 KCAL/MOL
REMARK 923 INTER-LIGAND FREE ENERGY PREDICTED BY IDOCK:   -7.17 KCAL/MOL
REMARK 924 INTRA-LIGAND FREE ENERGY PREDICTED BY IDOCK:   -1.54 KCAL/MOL
REMARK 927      BINDING AFFINITY PREDICTED BY RF-SCORE:    0.00 PKD
ROOT
HETATM    1  N   UNK A   0     -11.397  15.089  71.851  1.00  0.00    -0.540 NA 
HETATM    2  H1  UNK A   0     -11.067  16.010  72.137  1.00  0.00     0.000 HD 
HETATM    3  C   UNK A   0     -11.434  14.739  70.540  1.00  0.00    -0.249 C  
HETATM    4  H2  UNK A   0     -11.703  14.421  72.560  1.00  0.00     0.000 HD 
HETATM    5  N   UNK A   0     -11.854  13.564  70.175  1.00  0.00    -0.451 N  
HETATM    6  H   UNK A   0     -12.180  12.896  70.875  1.00  0.00     0.000 HD 
HETATM    7  C   UNK A   0     -11.859  13.220  68.821  1.00  0.00    -0.334 C  
HETATM    8  C   UNK A   0     -11.327  14.233  67.905  1.00  0.00    -0.320 A  
HETATM    9  O   UNK A   0     -12.271  12.142  68.413  1.00  0.00    -0.324 OA 
HETATM   10  C   UNK A   0     -10.917  15.439  68.405  1.00  0.00    -0.284 A  
HETATM   11  N   UNK A   0     -10.430  16.221  67.410  1.00  0.00    -0.301 NA 
HETATM   12  N   UNK A   0     -10.982  15.731  69.710  1.00  0.00    -0.286 NA 
HETATM   13  H   UNK A   0     -10.061  17.166  67.516  1.00  0.00     0.000 HD 
HETATM   14  C   UNK A   0     -10.522  15.516  66.234  1.00  0.00    -0.307 A  
HETATM   15  C   UNK A   0     -11.078  14.268  66.499  1.00  0.00    -0.323 A  
ENDROOT
BRANCH  15  16
HETATM   16  C   UNK A   0     -11.296  13.171  65.506  1.00  0.00    -0.325 C  
BRANCH  16  17
HETATM   17  C   UNK A   0     -10.069  12.268  65.298  1.00  0.00    -0.295 C  
BRANCH  17  18
HETATM   18  C   UNK A   0      -9.897  11.219  66.383  1.00  0.00    -0.243 A  
HETATM   19  C   UNK A   0     -10.578   9.996  66.331  1.00  0.00    -0.138 A  
HETATM   20  C   UNK A   0     -10.508   9.094  67.392  1.00  0.00    -0.339 A  
HETATM   21  C   UNK A   0      -9.733   9.389  68.516  1.00  0.00    -0.160 A  
HETATM   22  C   UNK A   0      -8.946  10.543  68.529  1.00  0.00    -0.147 A  
HETATM   23  C   UNK A   0      -9.033  11.456  67.467  1.00  0.00    -0.150 A  
BRANCH  21  24
HETATM   24  C   UNK A   0      -9.800   8.511  69.718  1.00  0.00    -0.186 C  
HETATM   25  O   UNK A   0     -10.854   8.101  70.187  1.00  0.00    -0.243 OA 
ATOM     26  N   GLU A   1      -8.572   8.162  70.246  1.00  0.00    -0.129 N  
ATOM     27  H   GLU A   1      -7.723   8.526  69.813  1.00  0.00     0.000 HD 
BRANCH  26  28
ATOM     28  CA  GLU A   1      -8.459   7.290  71.405  1.00  0.00    -0.114 C  
ATOM     29  C   GLU A   1      -7.762   8.053  72.538  1.00  0.00    -0.120 C  
ATOM     30  O   GLU A   1      -8.617   8.734  73.334  1.00  0.00    -0.320 OA 
ATOM     31  OXT GLU A   1      -6.544   8.066  72.712  1.00  0.00    -0.068 OA 
BRANCH  28  32
ATOM     32  CB  GLU A   1      -7.677   6.016  71.056  1.00  0.00    -0.102 C  
BRANCH  32  33
ATOM     33  CG  GLU A   1      -8.593   4.798  70.955  1.00  0.00    -0.126 C  
ATOM     34  CD  GLU A   1      -8.575   4.226  69.564  1.00  0.00    -0.076 C  
ATOM     35  OE1 GLU A   1      -7.649   3.261  69.387  1.00  0.00    -0.048 OA 
ATOM     36  OE2 GLU A   1      -9.302   4.618  68.663  1.00  0.00    -0.121 OA 
ENDBRANCH  32  33
ENDBRANCH  28  32
ENDBRANCH  26  28
ENDBRANCH  21  24
ENDBRANCH  17  18
ENDBRANCH  16  17
ENDBRANCH  15  16
TORSDOF 7
ENDMDL
MODEL      175
REMARK 921   NORMALIZED FREE ENERGY PREDICTED BY IDOCK:   -4.30 KCAL/MOL
REMARK 922        TOTAL FREE ENERGY PREDICTED BY IDOCK:   -8.70 KCAL/MOL
REMARK 923 INTER-LIGAND FREE ENERGY PREDICTED BY IDOCK:   -7.24 KCAL/MOL
REMARK 924 INTRA-LIGAND FREE ENERGY PREDICTED BY IDOCK:   -1.46 KCAL/MOL
REMARK 927      BINDING AFFINITY PREDICTED BY RF-SCORE:    0.00 PKD
ROOT
HETATM    1  N   UNK A   0     -12.301   6.614  71.120  1.00  0.00    -0.320 NA 
HETATM    2  H1  UNK A   0     -12.146   6.778  72.114  1.00  0.00     0.000 HD 
HETATM    3  C   UNK A   0     -11.295   6.775  70.223  1.00  0.00    -0.352 C  
HETATM    4  H2  UNK A   0     -13.224   6.325  70.796  1.00  0.00     0.000 HD 
HETATM    5  N   UNK A   0     -11.493   6.565  68.955  1.00  0.00    -0.615 N  
HETATM    6  H   UNK A   0     -12.417   6.294  68.619  1.00  0.00     0.000 HD 
HETATM    7  C   UNK A   0     -10.433   6.713  68.056  1.00  0.00    -0.216 C  
HETATM    8  C   UNK A   0      -9.138   7.059  68.649  1.00  0.00    -0.132 A  
HETATM    9  O   UNK A   0     -10.564   6.560  66.849  1.00  0.00    -0.263 OA 
HETATM   10  C   UNK A   0      -9.052   7.261  70.000  1.00  0.00    -0.148 A  
HETATM   11  N   UNK A   0      -7.774   7.537  70.355  1.00  0.00    -0.090 NA 
HETATM   12  N   UNK A   0     -10.114   7.152  70.807  1.00  0.00    -0.190 NA 
HETATM   13  H   UNK A   0      -7.441   7.726  71.301  1.00  0.00     0.000 HD 
HETATM   14  C   UNK A   0      -7.004   7.516  69.216  1.00  0.00    -0.068 A  
HETATM   15  C   UNK A   0      -7.819   7.221  68.128  1.00  0.00    -0.118 A  
ENDROOT
BRANCH  15  16
HETATM   16  C   UNK A   0      -7.369   7.045  66.712  1.00  0.00    -0.077 C  
BRANCH  16  17
HETATM   17  C   UNK A   0      -7.107   8.368  65.974  1.00  0.00    -0.069 C  
BRANCH  17  18
HETATM   18  C   UNK A   0      -8.175   9.420  66.217  1.00  0.00    -0.111 A  
HETATM   19  C   UNK A   0      -9.392   9.400  65.524  1.00  0.00    -0.315 A  
HETATM   20  C   UNK A   0     -10.312  10.437  65.666  1.00  0.00    -0.260 A  
HETATM   21  C   UNK A   0     -10.042  11.505  66.526  1.00  0.00    -0.246 A  
HETATM   22  C   UNK A   0      -8.894  11.477  67.321  1.00  0.00    -0.160 A  
HETATM   23  C   UNK A   0      -7.963  10.440  67.162  1.00  0.00    -0.115 A  
BRANCH  21  24
HETATM   24  C   UNK A   0     -10.940  12.694  66.541  1.00  0.00    -0.269 C  
HETATM   25  O   UNK A   0     -12.071  12.669  67.010  1.00  0.00    -0.480 OA 
ATOM     26  N   GLU A   1     -10.384  13.843  66.016  1.00  0.00    -0.297 N  
ATOM     27  H   GLU A   1      -9.434  13.811  65.644  1.00  0.00     0.000 HD 
BRANCH  26  28
ATOM     28  CA  GLU A   1     -11.118  15.099  65.979  1.00  0.00    -0.312 C  
ATOM     29  C   GLU A   1     -11.823  15.225  64.623  1.00  0.00    -0.267 C  
ATOM     30  O   GLU A   1     -13.062  14.685  64.608  1.00  0.00    -0.392 OA 
ATOM     31  OXT GLU A   1     -11.319  15.751  63.630  1.00  0.00    -0.038 OA 
BRANCH  28  32
ATOM     32  CB  GLU A   1     -10.176  16.289  66.205  1.00  0.00    -0.339 C  
BRANCH  32  33
ATOM     33  CG  GLU A   1      -9.146  15.998  67.296  1.00  0.00    -0.217 C  
ATOM     34  CD  GLU A   1      -9.459  16.769  68.549  1.00  0.00    -0.245 C  
ATOM     35  OE1 GLU A   1     -10.237  16.094  69.420  1.00  0.00    -0.237 OA 
ATOM     36  OE2 GLU A   1      -9.076  17.912  68.751  1.00  0.00    -0.280 OA 
ENDBRANCH  32  33
ENDBRANCH  28  32
ENDBRANCH  26  28
ENDBRANCH  21  24
ENDBRANCH  17  18
ENDBRANCH  16  17
ENDBRANCH  15  16
TORSDOF 7
ENDMDL
MODEL      176
REMARK 921   NORMALIZED FREE ENERGY PREDICTED BY IDOCK:   -4.26 KCAL/MOL
REMARK 922        TOTAL FREE ENERGY PREDICTED BY IDOCK:   -8.65 KCAL/MOL
REMARK 923 INTER-LIGAND FREE ENERGY PREDICTED BY IDOCK:   -7.72 KCAL/MOL
REMARK 924 INTRA-LIGAND FREE ENERGY PREDICTED BY IDOCK:   -0.92 KCAL/MOL
REMARK 927      BINDING AFFINITY PREDICTED BY RF-SCORE:    0.00 PKD
ROOT
HETATM    1  N   UNK A   0     -10.556  18.816  65.553  1.00  0.00    -0.542 NA 
HETATM    2  H1  UNK A   0     -11.106  19.283  64.833  1.00  0.00     0.000 HD 
HETATM    3  C   UNK A   0     -10.536  17.462  65.644  1.00  0.00    -0.165 C  
HETATM    4  H2  UNK A   0     -10.013  19.374  66.213  1.00  0.00     0.000 HD 
HETATM    5  N   UNK A   0      -9.834  16.866  66.563  1.00  0.00    -0.281 N  
HETATM    6  H   UNK A   0      -9.303  17.416  67.239  1.00  0.00     0.000 HD 
HETATM    7  C   UNK A   0      -9.811  15.471  66.620  1.00  0.00    -0.254 C  
HETATM    8  C   UNK A   0     -10.569  14.778  65.575  1.00  0.00    -0.374 A  
HETATM    9  O   UNK A   0      -9.195  14.854  67.479  1.00  0.00    -0.187 OA 
HETATM   10  C   UNK A   0     -11.276  15.512  64.662  1.00  0.00    -0.371 A  
HETATM   11  N   UNK A   0     -11.878  14.695  63.764  1.00  0.00    -0.737 NA 
HETATM   12  N   UNK A   0     -11.300  16.850  64.686  1.00  0.00    -0.865 NA 
HETATM   13  H   UNK A   0     -12.463  14.990  62.982  1.00  0.00     0.000 HD 
HETATM   14  C   UNK A   0     -11.562  13.398  64.093  1.00  0.00    -0.398 A  
HETATM   15  C   UNK A   0     -10.745  13.406  65.219  1.00  0.00    -0.321 A  
ENDROOT
BRANCH  15  16
HETATM   16  C   UNK A   0     -10.129  12.209  65.869  1.00  0.00    -0.270 C  
BRANCH  16  17
HETATM   17  C   UNK A   0     -10.743  11.857  67.235  1.00  0.00    -0.276 C  
BRANCH  17  18
HETATM   18  C   UNK A   0     -10.416  10.449  67.701  1.00  0.00    -0.277 A  
HETATM   19  C   UNK A   0     -10.851   9.324  66.990  1.00  0.00    -0.077 A  
HETATM   20  C   UNK A   0     -10.651   8.038  67.492  1.00  0.00    -0.302 A  
HETATM   21  C   UNK A   0      -9.986   7.854  68.707  1.00  0.00    -0.194 A  
HETATM   22  C   UNK A   0      -9.433   8.955  69.365  1.00  0.00    -0.161 A  
HETATM   23  C   UNK A   0      -9.652  10.247  68.865  1.00  0.00    -0.193 A  
BRANCH  21  24
HETATM   24  C   UNK A   0      -9.930   6.501  69.327  1.00  0.00    -0.153 C  
HETATM   25  O   UNK A   0     -10.783   6.085  70.101  1.00  0.00    -0.255 OA 
ATOM     26  N   GLU A   1      -8.854   5.730  68.932  1.00  0.00    -0.110 N  
ATOM     27  H   GLU A   1      -8.176   6.122  68.278  1.00  0.00     0.000 HD 
BRANCH  26  28
ATOM     28  CA  GLU A   1      -8.664   4.374  69.424  1.00  0.00    -0.086 C  
ATOM     29  C   GLU A   1      -7.219   4.219  69.912  1.00  0.00    -0.046 C  
ATOM     30  O   GLU A   1      -7.052   4.543  71.214  1.00  0.00    -0.041 OA 
ATOM     31  OXT GLU A   1      -6.286   3.849  69.198  1.00  0.00    -0.028 OA 
BRANCH  28  32
ATOM     32  CB  GLU A   1      -8.972   3.346  68.326  1.00  0.00    -0.184 C  
BRANCH  32  33
ATOM     33  CG  GLU A   1      -9.614   3.999  67.103  1.00  0.00    -0.231 C  
ATOM     34  CD  GLU A   1      -8.759   3.804  65.880  1.00  0.00    -0.116 C  
ATOM     35  OE1 GLU A   1      -9.072   2.699  65.172  1.00  0.00    -0.136 OA 
ATOM     36  OE2 GLU A   1      -7.844   4.552  65.570  1.00  0.00    -0.092 OA 
ENDBRANCH  32  33
ENDBRANCH  28  32
ENDBRANCH  26  28
ENDBRANCH  21  24
ENDBRANCH  17  18
ENDBRANCH  16  17
ENDBRANCH  15  16
TORSDOF 7
ENDMDL
MODEL      177
REMARK 921   NORMALIZED FREE ENERGY PREDICTED BY IDOCK:   -4.20 KCAL/MOL
REMARK 922        TOTAL FREE ENERGY PREDICTED BY IDOCK:   -8.57 KCAL/MOL
REMARK 923 INTER-LIGAND FREE ENERGY PREDICTED BY IDOCK:   -8.39 KCAL/MOL
REMARK 924 INTRA-LIGAND FREE ENERGY PREDICTED BY IDOCK:   -0.18 KCAL/MOL
REMARK 927      BINDING AFFINITY PREDICTED BY RF-SCORE:    0.00 PKD
ROOT
HETATM    1  N   UNK A   0     -12.619  14.862  63.612  1.00  0.00    -0.899 NA 
HETATM    2  H1  UNK A   0     -12.441  14.791  62.610  1.00  0.00     0.000 HD 
HETATM    3  C   UNK A   0     -11.998  14.031  64.489  1.00  0.00    -0.448 C  
HETATM    4  H2  UNK A   0     -13.272  15.565  63.959  1.00  0.00     0.000 HD 
HETATM    5  N   UNK A   0     -12.225  14.121  65.766  1.00  0.00    -0.431 N  
HETATM    6  H   UNK A   0     -12.890  14.809  66.121  1.00  0.00     0.000 HD 
HETATM    7  C   UNK A   0     -11.555  13.272  66.649  1.00  0.00    -0.365 C  
HETATM    8  C   UNK A   0     -10.587  12.354  66.040  1.00  0.00    -0.286 A  
HETATM    9  O   UNK A   0     -11.748  13.287  67.858  1.00  0.00    -0.317 OA 
HETATM   10  C   UNK A   0     -10.437  12.346  64.680  1.00  0.00    -0.309 A  
HETATM   11  N   UNK A   0      -9.478  11.460  64.317  1.00  0.00    -0.381 NA 
HETATM   12  N   UNK A   0     -11.144  13.152  63.878  1.00  0.00    -0.363 NA 
HETATM   13  H   UNK A   0      -9.173  11.262  63.364  1.00  0.00     0.000 HD 
HETATM   14  C   UNK A   0      -8.989  10.873  65.460  1.00  0.00    -0.197 A  
HETATM   15  C   UNK A   0      -9.656  11.405  66.559  1.00  0.00    -0.220 A  
ENDROOT
BRANCH  15  16
HETATM   16  C   UNK A   0      -9.386  11.083  67.994  1.00  0.00    -0.163 C  
BRANCH  16  17
HETATM   17  C   UNK A   0      -7.942  11.375  68.437  1.00  0.00    -0.142 C  
BRANCH  17  18
HETATM   18  C   UNK A   0      -7.579  12.849  68.386  1.00  0.00    -0.133 A  
HETATM   19  C   UNK A   0      -8.488  13.839  68.781  1.00  0.00     0.026 A  
HETATM   20  C   UNK A   0      -8.190  15.191  68.615  1.00  0.00    -0.154 A  
HETATM   21  C   UNK A   0      -6.963  15.579  68.071  1.00  0.00    -0.144 A  
HETATM   22  C   UNK A   0      -5.995  14.611  67.791  1.00  0.00    -0.119 A  
HETATM   23  C   UNK A   0      -6.306  13.252  67.944  1.00  0.00    -0.144 A  
BRANCH  21  24
HETATM   24  C   UNK A   0      -6.718  17.008  67.731  1.00  0.00    -0.148 C  
HETATM   25  O   UNK A   0      -5.731  17.625  68.111  1.00  0.00    -0.150 OA 
ATOM     26  N   GLU A   1      -7.677  17.580  66.918  1.00  0.00    -0.203 N  
ATOM     27  H   GLU A   1      -8.477  17.019  66.624  1.00  0.00     0.000 HD 
BRANCH  26  28
ATOM     28  CA  GLU A   1      -7.576  18.961  66.472  1.00  0.00    -0.251 C  
ATOM     29  C   GLU A   1      -6.232  19.157  65.759  1.00  0.00    -0.214 C  
ATOM     30  O   GLU A   1      -6.284  18.900  64.433  1.00  0.00    -0.475 OA 
ATOM     31  OXT GLU A   1      -5.195  19.502  66.326  1.00  0.00    -0.158 OA 
BRANCH  28  32
ATOM     32  CB  GLU A   1      -7.700  19.929  67.657  1.00  0.00    -0.326 C  
BRANCH  32  33
ATOM     33  CG  GLU A   1      -8.515  19.324  68.799  1.00  0.00    -0.382 C  
ATOM     34  CD  GLU A   1      -9.989  19.504  68.561  1.00  0.00    -0.446 C  
ATOM     35  OE1 GLU A   1     -10.562  18.470  67.909  1.00  0.00    -0.392 OA 
ATOM     36  OE2 GLU A   1     -10.610  20.503  68.894  1.00  0.00    -0.050 OA 
ENDBRANCH  32  33
ENDBRANCH  28  32
ENDBRANCH  26  28
ENDBRANCH  21  24
ENDBRANCH  17  18
ENDBRANCH  16  17
ENDBRANCH  15  16
TORSDOF 7
ENDMDL
MODEL      178
REMARK 921   NORMALIZED FREE ENERGY PREDICTED BY IDOCK:   -4.20 KCAL/MOL
REMARK 922        TOTAL FREE ENERGY PREDICTED BY IDOCK:   -8.56 KCAL/MOL
REMARK 923 INTER-LIGAND FREE ENERGY PREDICTED BY IDOCK:   -7.66 KCAL/MOL
REMARK 924 INTRA-LIGAND FREE ENERGY PREDICTED BY IDOCK:   -0.90 KCAL/MOL
REMARK 927      BINDING AFFINITY PREDICTED BY RF-SCORE:    0.00 PKD
ROOT
HETATM    1  N   UNK A   0     -11.184   6.786  73.380  1.00  0.00    -0.492 NA 
HETATM    2  H1  UNK A   0     -11.618   7.024  74.272  1.00  0.00     0.000 HD 
HETATM    3  C   UNK A   0     -11.279   7.623  72.315  1.00  0.00    -0.293 C  
HETATM    4  H2  UNK A   0     -10.672   5.908  73.288  1.00  0.00     0.000 HD 
HETATM    5  N   UNK A   0     -10.726   7.319  71.178  1.00  0.00    -0.227 N  
HETATM    6  H   UNK A   0     -10.228   6.435  71.070  1.00  0.00     0.000 HD 
HETATM    7  C   UNK A   0     -10.817   8.209  70.105  1.00  0.00    -0.241 C  
HETATM    8  C   UNK A   0     -11.513   9.469  70.380  1.00  0.00    -0.297 A  
HETATM    9  O   UNK A   0     -10.344   7.967  69.002  1.00  0.00    -0.210 OA 
HETATM   10  C   UNK A   0     -12.061   9.676  71.617  1.00  0.00    -0.402 A  
HETATM   11  N   UNK A   0     -12.627  10.906  71.683  1.00  0.00    -0.364 NA 
HETATM   12  N   UNK A   0     -11.984   8.764  72.594  1.00  0.00    -0.227 NA 
HETATM   13  H   UNK A   0     -13.103  11.305  72.492  1.00  0.00     0.000 HD 
HETATM   14  C   UNK A   0     -12.449  11.519  70.465  1.00  0.00    -0.280 A  
HETATM   15  C   UNK A   0     -11.757  10.655  69.623  1.00  0.00    -0.368 A  
ENDROOT
BRANCH  15  16
HETATM   16  C   UNK A   0     -11.307  10.956  68.229  1.00  0.00    -0.374 C  
BRANCH  16  17
HETATM   17  C   UNK A   0      -9.795  11.212  68.105  1.00  0.00    -0.188 C  
BRANCH  17  18
HETATM   18  C   UNK A   0      -9.438  12.684  67.983  1.00  0.00    -0.209 A  
HETATM   19  C   UNK A   0      -8.195  13.172  68.407  1.00  0.00    -0.130 A  
HETATM   20  C   UNK A   0      -7.926  14.540  68.404  1.00  0.00    -0.141 A  
HETATM   21  C   UNK A   0      -8.889  15.445  67.950  1.00  0.00    -0.168 A  
HETATM   22  C   UNK A   0     -10.082  14.967  67.404  1.00  0.00    -0.228 A  
HETATM   23  C   UNK A   0     -10.355  13.592  67.425  1.00  0.00    -0.237 A  
BRANCH  21  24
HETATM   24  C   UNK A   0      -8.668  16.909  68.113  1.00  0.00    -0.226 C  
HETATM   25  O   UNK A   0      -9.256  17.584  68.949  1.00  0.00    -0.245 OA 
ATOM     26  N   GLU A   1      -7.718  17.446  67.267  1.00  0.00    -0.195 N  
ATOM     27  H   GLU A   1      -7.252  16.838  66.592  1.00  0.00     0.000 HD 
BRANCH  26  28
ATOM     28  CA  GLU A   1      -7.364  18.857  67.312  1.00  0.00    -0.224 C  
ATOM     29  C   GLU A   1      -8.101  19.593  66.187  1.00  0.00    -0.346 C  
ATOM     30  O   GLU A   1      -9.320  20.051  66.550  1.00  0.00    -0.365 OA 
ATOM     31  OXT GLU A   1      -7.648  19.748  65.053  1.00  0.00    -0.192 OA 
BRANCH  28  32
ATOM     32  CB  GLU A   1      -5.847  19.045  67.172  1.00  0.00    -0.156 C  
BRANCH  32  33
ATOM     33  CG  GLU A   1      -5.219  19.567  68.463  1.00  0.00    -0.203 C  
ATOM     34  CD  GLU A   1      -6.215  19.548  69.591  1.00  0.00    -0.303 C  
ATOM     35  OE1 GLU A   1      -6.195  18.407  70.311  1.00  0.00    -0.087 OA 
ATOM     36  OE2 GLU A   1      -6.995  20.461  69.818  1.00  0.00    -0.047 OA 
ENDBRANCH  32  33
ENDBRANCH  28  32
ENDBRANCH  26  28
ENDBRANCH  21  24
ENDBRANCH  17  18
ENDBRANCH  16  17
ENDBRANCH  15  16
TORSDOF 7
ENDMDL
MODEL      179
REMARK 921   NORMALIZED FREE ENERGY PREDICTED BY IDOCK:   -4.19 KCAL/MOL
REMARK 922        TOTAL FREE ENERGY PREDICTED BY IDOCK:   -8.55 KCAL/MOL
REMARK 923 INTER-LIGAND FREE ENERGY PREDICTED BY IDOCK:   -7.15 KCAL/MOL
REMARK 924 INTRA-LIGAND FREE ENERGY PREDICTED BY IDOCK:   -1.40 KCAL/MOL
REMARK 927      BINDING AFFINITY PREDICTED BY RF-SCORE:    0.00 PKD
ROOT
HETATM    1  N   UNK A   0     -12.643  13.608  72.420  1.00  0.00    -0.062 NA 
HETATM    2  H1  UNK A   0     -12.696  14.565  72.769  1.00  0.00     0.000 HD 
HETATM    3  C   UNK A   0     -12.449  13.358  71.100  1.00  0.00    -0.327 C  
HETATM    4  H2  UNK A   0     -12.738  12.829  73.072  1.00  0.00     0.000 HD 
HETATM    5  N   UNK A   0     -12.381  12.138  70.656  1.00  0.00    -0.342 N  
HETATM    6  H   UNK A   0     -12.493  11.352  71.297  1.00  0.00     0.000 HD 
HETATM    7  C   UNK A   0     -12.155  11.908  69.297  1.00  0.00    -0.210 C  
HETATM    8  C   UNK A   0     -11.962  13.104  68.472  1.00  0.00    -0.324 A  
HETATM    9  O   UNK A   0     -12.112  10.784  68.814  1.00  0.00    -0.451 OA 
HETATM   10  C   UNK A   0     -12.061  14.340  69.051  1.00  0.00    -0.285 A  
HETATM   11  N   UNK A   0     -11.819  15.310  68.135  1.00  0.00    -0.477 NA 
HETATM   12  N   UNK A   0     -12.328  14.500  70.352  1.00  0.00    -0.319 NA 
HETATM   13  H   UNK A   0     -11.830  16.315  68.309  1.00  0.00     0.000 HD 
HETATM   14  C   UNK A   0     -11.556  14.700  66.932  1.00  0.00    -0.362 A  
HETATM   15  C   UNK A   0     -11.635  13.322  67.099  1.00  0.00    -0.402 A  
ENDROOT
BRANCH  15  16
HETATM   16  C   UNK A   0     -11.360  12.290  66.052  1.00  0.00    -0.398 C  
BRANCH  16  17
HETATM   17  C   UNK A   0      -9.886  11.857  65.978  1.00  0.00    -0.258 C  
BRANCH  17  18
HETATM   18  C   UNK A   0      -9.581  10.605  66.783  1.00  0.00    -0.200 A  
HETATM   19  C   UNK A   0      -8.847  10.664  67.974  1.00  0.00    -0.130 A  
HETATM   20  C   UNK A   0      -8.469   9.498  68.639  1.00  0.00    -0.119 A  
HETATM   21  C   UNK A   0      -8.841   8.249  68.135  1.00  0.00    -0.139 A  
HETATM   22  C   UNK A   0      -9.680   8.176  67.021  1.00  0.00    -0.275 A  
HETATM   23  C   UNK A   0     -10.044   9.351  66.346  1.00  0.00    -0.332 A  
BRANCH  21  24
HETATM   24  C   UNK A   0      -8.289   7.006  68.744  1.00  0.00    -0.122 C  
HETATM   25  O   UNK A   0      -7.147   6.927  69.178  1.00  0.00    -0.078 OA 
ATOM     26  N   GLU A   1      -9.180   5.954  68.813  1.00  0.00    -0.115 N  
ATOM     27  H   GLU A   1     -10.122   6.075  68.443  1.00  0.00     0.000 HD 
BRANCH  26  28
ATOM     28  CA  GLU A   1      -8.808   4.676  69.403  1.00  0.00    -0.088 C  
ATOM     29  C   GLU A   1      -8.551   3.665  68.280  1.00  0.00    -0.097 C  
ATOM     30  O   GLU A   1      -7.270   3.656  67.846  1.00  0.00    -0.054 OA 
ATOM     31  OXT GLU A   1      -9.417   2.934  67.798  1.00  0.00    -0.210 OA 
BRANCH  28  32
ATOM     32  CB  GLU A   1      -9.911   4.166  70.341  1.00  0.00    -0.237 C  
BRANCH  32  33
ATOM     33  CG  GLU A   1     -10.225   5.172  71.447  1.00  0.00    -0.282 C  
ATOM     34  CD  GLU A   1      -9.988   4.569  72.804  1.00  0.00    -0.160 C  
ATOM     35  OE1 GLU A   1      -8.742   4.779  73.280  1.00  0.00    -0.105 OA 
ATOM     36  OE2 GLU A   1     -10.828   3.921  73.410  1.00  0.00    -0.191 OA 
ENDBRANCH  32  33
ENDBRANCH  28  32
ENDBRANCH  26  28
ENDBRANCH  21  24
ENDBRANCH  17  18
ENDBRANCH  16  17
ENDBRANCH  15  16
TORSDOF 7
ENDMDL
MODEL      180
REMARK 921   NORMALIZED FREE ENERGY PREDICTED BY IDOCK:   -4.17 KCAL/MOL
REMARK 922        TOTAL FREE ENERGY PREDICTED BY IDOCK:   -8.53 KCAL/MOL
REMARK 923 INTER-LIGAND FREE ENERGY PREDICTED BY IDOCK:   -6.81 KCAL/MOL
REMARK 924 INTRA-LIGAND FREE ENERGY PREDICTED BY IDOCK:   -1.71 KCAL/MOL
REMARK 927      BINDING AFFINITY PREDICTED BY RF-SCORE:    0.00 PKD
ROOT
HETATM    1  N   UNK A   0      -8.023  10.869  62.420  1.00  0.00    -0.348 NA 
HETATM    2  H1  UNK A   0      -8.811  10.585  61.839  1.00  0.00     0.000 HD 
HETATM    3  C   UNK A   0      -7.703  10.177  63.544  1.00  0.00    -0.144 C  
HETATM    4  H2  UNK A   0      -7.469  11.683  62.154  1.00  0.00     0.000 HD 
HETATM    5  N   UNK A   0      -6.697  10.540  64.285  1.00  0.00    -0.350 N  
HETATM    6  H   UNK A   0      -6.149  11.363  64.037  1.00  0.00     0.000 HD 
HETATM    7  C   UNK A   0      -6.374   9.796  65.423  1.00  0.00    -0.082 C  
HETATM    8  C   UNK A   0      -7.195   8.606  65.661  1.00  0.00    -0.084 A  
HETATM    9  O   UNK A   0      -5.459  10.104  66.176  1.00  0.00    -0.047 OA 
HETATM   10  C   UNK A   0      -8.233   8.327  64.814  1.00  0.00    -0.144 A  
HETATM   11  N   UNK A   0      -8.846   7.176  65.181  1.00  0.00    -0.361 NA 
HETATM   12  N   UNK A   0      -8.527   9.105  63.764  1.00  0.00    -0.187 NA 
HETATM   13  H   UNK A   0      -9.646   6.747  64.716  1.00  0.00     0.000 HD 
HETATM   14  C   UNK A   0      -8.200   6.688  66.293  1.00  0.00    -0.120 A  
HETATM   15  C   UNK A   0      -7.162   7.553  66.625  1.00  0.00    -0.083 A  
ENDROOT
BRANCH  15  16
HETATM   16  C   UNK A   0      -6.177   7.361  67.734  1.00  0.00    -0.044 C  
BRANCH  16  17
HETATM   17  C   UNK A   0      -6.765   7.593  69.136  1.00  0.00    -0.048 C  
BRANCH  17  18
HETATM   18  C   UNK A   0      -7.952   8.540  69.146  1.00  0.00    -0.112 A  
HETATM   19  C   UNK A   0      -9.260   8.070  69.320  1.00  0.00    -0.152 A  
HETATM   20  C   UNK A   0     -10.351   8.931  69.205  1.00  0.00    -0.221 A  
HETATM   21  C   UNK A   0     -10.150  10.287  68.938  1.00  0.00    -0.216 A  
HETATM   22  C   UNK A   0      -8.850  10.797  68.890  1.00  0.00    -0.154 A  
HETATM   23  C   UNK A   0      -7.757   9.924  68.989  1.00  0.00    -0.089 A  
BRANCH  21  24
HETATM   24  C   UNK A   0     -11.315  11.167  68.641  1.00  0.00    -0.277 C  
HETATM   25  O   UNK A   0     -12.455  10.910  69.005  1.00  0.00    -0.425 OA 
ATOM     26  N   GLU A   1     -11.004  12.321  67.948  1.00  0.00    -0.214 N  
ATOM     27  H   GLU A   1     -10.036  12.490  67.674  1.00  0.00     0.000 HD 
BRANCH  26  28
ATOM     28  CA  GLU A   1     -12.022  13.301  67.600  1.00  0.00    -0.322 C  
ATOM     29  C   GLU A   1     -12.011  13.513  66.081  1.00  0.00    -0.412 C  
ATOM     30  O   GLU A   1     -12.826  12.666  65.413  1.00  0.00    -0.582 OA 
ATOM     31  OXT GLU A   1     -11.323  14.358  65.508  1.00  0.00    -0.319 OA 
BRANCH  28  32
ATOM     32  CB  GLU A   1     -11.773  14.629  68.328  1.00  0.00    -0.359 C  
BRANCH  32  33
ATOM     33  CG  GLU A   1     -10.331  14.746  68.818  1.00  0.00    -0.248 C  
ATOM     34  CD  GLU A   1      -9.669  15.972  68.251  1.00  0.00    -0.214 C  
ATOM     35  OE1 GLU A   1      -9.785  17.062  69.039  1.00  0.00    -0.259 OA 
ATOM     36  OE2 GLU A   1      -9.108  15.995  67.166  1.00  0.00    -0.199 OA 
ENDBRANCH  32  33
ENDBRANCH  28  32
ENDBRANCH  26  28
ENDBRANCH  21  24
ENDBRANCH  17  18
ENDBRANCH  16  17
ENDBRANCH  15  16
TORSDOF 7
ENDMDL
MODEL      181
REMARK 921   NORMALIZED FREE ENERGY PREDICTED BY IDOCK:   -4.14 KCAL/MOL
REMARK 922        TOTAL FREE ENERGY PREDICTED BY IDOCK:   -8.48 KCAL/MOL
REMARK 923 INTER-LIGAND FREE ENERGY PREDICTED BY IDOCK:   -7.80 KCAL/MOL
REMARK 924 INTRA-LIGAND FREE ENERGY PREDICTED BY IDOCK:   -0.68 KCAL/MOL
REMARK 927      BINDING AFFINITY PREDICTED BY RF-SCORE:    0.00 PKD
ROOT
HETATM    1  N   UNK A   0     -13.088   6.836  72.170  1.00  0.00    -0.549 NA 
HETATM    2  H1  UNK A   0     -13.281   7.394  73.001  1.00  0.00     0.000 HD 
HETATM    3  C   UNK A   0     -11.954   7.032  71.449  1.00  0.00    -0.340 C  
HETATM    4  H2  UNK A   0     -13.755   6.122  71.877  1.00  0.00     0.000 HD 
HETATM    5  N   UNK A   0     -11.708   6.320  70.389  1.00  0.00    -0.316 N  
HETATM    6  H   UNK A   0     -12.377   5.617  70.077  1.00  0.00     0.000 HD 
HETATM    7  C   UNK A   0     -10.522   6.525  69.680  1.00  0.00    -0.216 C  
HETATM    8  C   UNK A   0      -9.609   7.526  70.239  1.00  0.00    -0.165 A  
HETATM    9  O   UNK A   0     -10.248   5.908  68.658  1.00  0.00    -0.160 OA 
HETATM   10  C   UNK A   0      -9.979   8.218  71.359  1.00  0.00    -0.194 A  
HETATM   11  N   UNK A   0      -8.992   9.067  71.737  1.00  0.00    -0.357 NA 
HETATM   12  N   UNK A   0     -11.152   8.013  71.971  1.00  0.00    -0.273 NA 
HETATM   13  H   UNK A   0      -9.016   9.696  72.539  1.00  0.00     0.000 HD 
HETATM   14  C   UNK A   0      -7.953   8.931  70.847  1.00  0.00    -0.148 A  
HETATM   15  C   UNK A   0      -8.298   7.977  69.895  1.00  0.00    -0.121 A  
ENDROOT
BRANCH  15  16
HETATM   16  C   UNK A   0      -7.427   7.487  68.783  1.00  0.00    -0.097 C  
BRANCH  16  17
HETATM   17  C   UNK A   0      -7.977   7.796  67.380  1.00  0.00    -0.119 C  
BRANCH  17  18
HETATM   18  C   UNK A   0      -8.418   9.240  67.207  1.00  0.00    -0.125 A  
HETATM   19  C   UNK A   0      -7.488  10.285  67.137  1.00  0.00    -0.092 A  
HETATM   20  C   UNK A   0      -7.908  11.614  67.101  1.00  0.00    -0.163 A  
HETATM   21  C   UNK A   0      -9.271  11.921  67.111  1.00  0.00    -0.183 A  
HETATM   22  C   UNK A   0     -10.211  10.890  67.050  1.00  0.00    -0.256 A  
HETATM   23  C   UNK A   0      -9.785   9.556  67.103  1.00  0.00    -0.221 A  
BRANCH  21  24
HETATM   24  C   UNK A   0      -9.714  13.337  67.252  1.00  0.00    -0.231 C  
HETATM   25  O   UNK A   0     -10.699  13.666  67.900  1.00  0.00    -0.240 OA 
ATOM     26  N   GLU A   1      -8.903  14.260  66.622  1.00  0.00    -0.434 N  
ATOM     27  H   GLU A   1      -8.089  13.933  66.101  1.00  0.00     0.000 HD 
BRANCH  26  28
ATOM     28  CA  GLU A   1      -9.179  15.687  66.684  1.00  0.00    -0.266 C  
ATOM     29  C   GLU A   1      -8.822  16.205  68.082  1.00  0.00    -0.184 C  
ATOM     30  O   GLU A   1      -7.538  16.611  68.194  1.00  0.00    -0.162 OA 
ATOM     31  OXT GLU A   1      -9.612  16.241  69.026  1.00  0.00    -0.237 OA 
BRANCH  28  32
ATOM     32  CB  GLU A   1     -10.654  15.972  66.367  1.00  0.00    -0.284 C  
BRANCH  32  33
ATOM     33  CG  GLU A   1     -10.935  15.906  64.867  1.00  0.00    -0.427 C  
ATOM     34  CD  GLU A   1     -11.573  14.596  64.497  1.00  0.00    -0.370 C  
ATOM     35  OE1 GLU A   1     -12.923  14.626  64.518  1.00  0.00    -0.491 OA 
ATOM     36  OE2 GLU A   1     -10.938  13.585  64.236  1.00  0.00    -0.383 OA 
ENDBRANCH  32  33
ENDBRANCH  28  32
ENDBRANCH  26  28
ENDBRANCH  21  24
ENDBRANCH  17  18
ENDBRANCH  16  17
ENDBRANCH  15  16
TORSDOF 7
ENDMDL
MODEL      182
REMARK 921   NORMALIZED FREE ENERGY PREDICTED BY IDOCK:   -4.14 KCAL/MOL
REMARK 922        TOTAL FREE ENERGY PREDICTED BY IDOCK:   -8.48 KCAL/MOL
REMARK 923 INTER-LIGAND FREE ENERGY PREDICTED BY IDOCK:   -7.58 KCAL/MOL
REMARK 924 INTRA-LIGAND FREE ENERGY PREDICTED BY IDOCK:   -0.90 KCAL/MOL
REMARK 927      BINDING AFFINITY PREDICTED BY RF-SCORE:    0.00 PKD
ROOT
HETATM    1  N   UNK A   0     -11.869  15.515  71.941  1.00  0.00    -0.388 NA 
HETATM    2  H1  UNK A   0     -11.427  16.236  72.510  1.00  0.00     0.000 HD 
HETATM    3  C   UNK A   0     -11.743  15.522  70.589  1.00  0.00    -0.357 C  
HETATM    4  H2  UNK A   0     -12.412  14.780  72.393  1.00  0.00     0.000 HD 
HETATM    5  N   UNK A   0     -12.306  14.601  69.863  1.00  0.00    -0.452 N  
HETATM    6  H   UNK A   0     -12.867  13.872  70.305  1.00  0.00     0.000 HD 
HETATM    7  C   UNK A   0     -12.140  14.617  68.476  1.00  0.00    -0.194 C  
HETATM    8  C   UNK A   0     -11.278  15.679  67.949  1.00  0.00    -0.328 A  
HETATM    9  O   UNK A   0     -12.670  13.797  67.738  1.00  0.00     0.300 OA 
HETATM   10  C   UNK A   0     -10.743  16.596  68.812  1.00  0.00    -0.342 A  
HETATM   11  N   UNK A   0      -9.954  17.470  68.140  1.00  0.00    -0.303 NA 
HETATM   12  N   UNK A   0     -10.977  16.560  70.129  1.00  0.00    -0.304 NA 
HETATM   13  H   UNK A   0      -9.438  18.250  68.549  1.00  0.00     0.000 HD 
HETATM   14  C   UNK A   0      -9.971  17.120  66.810  1.00  0.00    -0.291 A  
HETATM   15  C   UNK A   0     -10.787  16.006  66.649  1.00  0.00    -0.179 A  
ENDROOT
BRANCH  15  16
HETATM   16  C   UNK A   0     -11.032  15.270  65.370  1.00  0.00    -0.380 C  
BRANCH  16  17
HETATM   17  C   UNK A   0      -9.978  14.193  65.060  1.00  0.00    -0.216 C  
BRANCH  17  18
HETATM   18  C   UNK A   0      -9.970  13.049  66.059  1.00  0.00    -0.277 A  
HETATM   19  C   UNK A   0     -10.897  12.001  65.977  1.00  0.00    -0.329 A  
HETATM   20  C   UNK A   0     -10.959  11.023  66.968  1.00  0.00    -0.333 A  
HETATM   21  C   UNK A   0     -10.075  11.061  68.050  1.00  0.00    -0.198 A  
HETATM   22  C   UNK A   0      -9.062  12.022  68.081  1.00  0.00    -0.191 A  
HETATM   23  C   UNK A   0      -9.015  13.014  67.091  1.00  0.00    -0.223 A  
BRANCH  21  24
HETATM   24  C   UNK A   0     -10.257  10.123  69.193  1.00  0.00    -0.214 C  
HETATM   25  O   UNK A   0     -11.040  10.334  70.111  1.00  0.00    -0.276 OA 
ATOM     26  N   GLU A   1      -9.497   8.972  69.121  1.00  0.00    -0.152 N  
ATOM     27  H   GLU A   1      -8.866   8.842  68.331  1.00  0.00     0.000 HD 
BRANCH  26  28
ATOM     28  CA  GLU A   1      -9.575   7.940  70.144  1.00  0.00    -0.175 C  
ATOM     29  C   GLU A   1      -8.321   8.013  71.022  1.00  0.00    -0.116 C  
ATOM     30  O   GLU A   1      -8.451   8.846  72.080  1.00  0.00    -0.367 OA 
ATOM     31  OXT GLU A   1      -7.283   7.391  70.794  1.00  0.00    -0.066 OA 
BRANCH  28  32
ATOM     32  CB  GLU A   1      -9.704   6.549  69.508  1.00  0.00    -0.161 C  
BRANCH  32  33
ATOM     33  CG  GLU A   1     -10.809   5.725  70.167  1.00  0.00    -0.383 C  
ATOM     34  CD  GLU A   1     -10.717   5.804  71.666  1.00  0.00    -0.256 C  
ATOM     35  OE1 GLU A   1     -11.453   6.800  72.202  1.00  0.00    -0.262 OA 
ATOM     36  OE2 GLU A   1     -10.016   5.063  72.339  1.00  0.00    -0.167 OA 
ENDBRANCH  32  33
ENDBRANCH  28  32
ENDBRANCH  26  28
ENDBRANCH  21  24
ENDBRANCH  17  18
ENDBRANCH  16  17
ENDBRANCH  15  16
TORSDOF 7
ENDMDL
MODEL      183
REMARK 921   NORMALIZED FREE ENERGY PREDICTED BY IDOCK:   -4.11 KCAL/MOL
REMARK 922        TOTAL FREE ENERGY PREDICTED BY IDOCK:   -8.44 KCAL/MOL
REMARK 923 INTER-LIGAND FREE ENERGY PREDICTED BY IDOCK:   -7.20 KCAL/MOL
REMARK 924 INTRA-LIGAND FREE ENERGY PREDICTED BY IDOCK:   -1.24 KCAL/MOL
REMARK 927      BINDING AFFINITY PREDICTED BY RF-SCORE:    0.00 PKD
ROOT
HETATM    1  N   UNK A   0     -10.939   4.310  74.255  1.00  0.00    -0.232 NA 
HETATM    2  H1  UNK A   0     -11.356   4.768  75.065  1.00  0.00     0.000 HD 
HETATM    3  C   UNK A   0     -10.803   4.971  73.077  1.00  0.00    -0.273 C  
HETATM    4  H2  UNK A   0     -10.620   3.344  74.331  1.00  0.00     0.000 HD 
HETATM    5  N   UNK A   0     -10.271   4.387  72.043  1.00  0.00    -0.183 N  
HETATM    6  H   UNK A   0      -9.966   3.416  72.104  1.00  0.00     0.000 HD 
HETATM    7  C   UNK A   0     -10.120   5.097  70.850  1.00  0.00    -0.232 C  
HETATM    8  C   UNK A   0     -10.548   6.499  70.883  1.00  0.00    -0.275 A  
HETATM    9  O   UNK A   0      -9.656   4.594  69.835  1.00  0.00    -0.152 OA 
HETATM   10  C   UNK A   0     -11.100   7.003  72.029  1.00  0.00    -0.243 A  
HETATM   11  N   UNK A   0     -11.397   8.316  71.872  1.00  0.00    -0.286 NA 
HETATM   12  N   UNK A   0     -11.264   6.260  73.130  1.00  0.00    -0.166 NA 
HETATM   13  H   UNK A   0     -11.816   8.925  72.574  1.00  0.00     0.000 HD 
HETATM   14  C   UNK A   0     -11.033   8.682  70.597  1.00  0.00    -0.240 A  
HETATM   15  C   UNK A   0     -10.498   7.575  69.947  1.00  0.00    -0.232 A  
ENDROOT
BRANCH  15  16
HETATM   16  C   UNK A   0      -9.927   7.556  68.565  1.00  0.00    -0.177 C  
BRANCH  16  17
HETATM   17  C   UNK A   0     -10.455   8.681  67.657  1.00  0.00    -0.311 C  
BRANCH  17  18
HETATM   18  C   UNK A   0      -9.621   9.949  67.717  1.00  0.00    -0.163 A  
HETATM   19  C   UNK A   0     -10.180  11.205  67.449  1.00  0.00    -0.221 A  
HETATM   20  C   UNK A   0      -9.381  12.345  67.386  1.00  0.00    -0.181 A  
HETATM   21  C   UNK A   0      -8.005  12.253  67.615  1.00  0.00    -0.161 A  
HETATM   22  C   UNK A   0      -7.452  11.033  68.010  1.00  0.00    -0.090 A  
HETATM   23  C   UNK A   0      -8.257   9.885  68.055  1.00  0.00    -0.113 A  
BRANCH  21  24
HETATM   24  C   UNK A   0      -7.130  13.433  67.374  1.00  0.00    -0.094 C  
HETATM   25  O   UNK A   0      -5.934  13.338  67.129  1.00  0.00    -0.304 OA 
ATOM     26  N   GLU A   1      -7.780  14.651  67.414  1.00  0.00    -0.195 N  
ATOM     27  H   GLU A   1      -8.780  14.674  67.616  1.00  0.00     0.000 HD 
BRANCH  26  28
ATOM     28  CA  GLU A   1      -7.076  15.902  67.174  1.00  0.00    -0.204 C  
ATOM     29  C   GLU A   1      -6.779  16.573  68.520  1.00  0.00    -0.145 C  
ATOM     30  O   GLU A   1      -5.598  16.197  69.061  1.00  0.00    -0.112 OA 
ATOM     31  OXT GLU A   1      -7.537  17.368  69.076  1.00  0.00    -0.245 OA 
BRANCH  28  32
ATOM     32  CB  GLU A   1      -7.906  16.834  66.281  1.00  0.00    -0.334 C  
BRANCH  32  33
ATOM     33  CG  GLU A   1      -9.323  16.304  66.072  1.00  0.00    -0.361 C  
ATOM     34  CD  GLU A   1     -10.346  17.317  66.509  1.00  0.00    -0.308 C  
ATOM     35  OE1 GLU A   1     -10.751  18.139  65.518  1.00  0.00    -0.599 OA 
ATOM     36  OE2 GLU A   1     -10.751  17.415  67.658  1.00  0.00    -0.363 OA 
ENDBRANCH  32  33
ENDBRANCH  28  32
ENDBRANCH  26  28
ENDBRANCH  21  24
ENDBRANCH  17  18
ENDBRANCH  16  17
ENDBRANCH  15  16
TORSDOF 7
ENDMDL
MODEL      184
REMARK 921   NORMALIZED FREE ENERGY PREDICTED BY IDOCK:   -4.11 KCAL/MOL
REMARK 922        TOTAL FREE ENERGY PREDICTED BY IDOCK:   -8.43 KCAL/MOL
REMARK 923 INTER-LIGAND FREE ENERGY PREDICTED BY IDOCK:   -7.55 KCAL/MOL
REMARK 924 INTRA-LIGAND FREE ENERGY PREDICTED BY IDOCK:   -0.88 KCAL/MOL
REMARK 927      BINDING AFFINITY PREDICTED BY RF-SCORE:    0.00 PKD
ROOT
HETATM    1  N   UNK A   0      -7.540  19.217  67.349  1.00  0.00    -0.233 NA 
HETATM    2  H1  UNK A   0      -6.874  19.306  66.583  1.00  0.00     0.000 HD 
HETATM    3  C   UNK A   0      -8.520  18.277  67.314  1.00  0.00    -0.250 C  
HETATM    4  H2  UNK A   0      -7.470  19.842  68.153  1.00  0.00     0.000 HD 
HETATM    5  N   UNK A   0      -9.369  18.164  68.292  1.00  0.00    -0.294 N  
HETATM    6  H   UNK A   0      -9.319  18.796  69.091  1.00  0.00     0.000 HD 
HETATM    7  C   UNK A   0     -10.352  17.172  68.242  1.00  0.00    -0.354 C  
HETATM    8  C   UNK A   0     -10.307  16.288  67.074  1.00  0.00    -0.292 A  
HETATM    9  O   UNK A   0     -11.198  17.035  69.116  1.00  0.00    -0.064 OA 
HETATM   10  C   UNK A   0      -9.368  16.508  66.103  1.00  0.00    -0.304 A  
HETATM   11  N   UNK A   0      -9.467  15.571  65.129  1.00  0.00    -0.235 NA 
HETATM   12  N   UNK A   0      -8.480  17.507  66.182  1.00  0.00    -0.484 NA 
HETATM   13  H   UNK A   0      -8.885  15.509  64.294  1.00  0.00     0.000 HD 
HETATM   14  C   UNK A   0     -10.492  14.718  65.466  1.00  0.00    -0.359 A  
HETATM   15  C   UNK A   0     -11.043  15.132  66.674  1.00  0.00    -0.308 A  
ENDROOT
BRANCH  15  16
HETATM   16  C   UNK A   0     -12.141  14.445  67.423  1.00  0.00    -0.348 C  
BRANCH  16  17
HETATM   17  C   UNK A   0     -11.780  14.097  68.877  1.00  0.00    -0.369 C  
BRANCH  17  18
HETATM   18  C   UNK A   0     -11.120  12.738  69.028  1.00  0.00    -0.285 A  
HETATM   19  C   UNK A   0      -9.834  12.490  68.529  1.00  0.00    -0.153 A  
HETATM   20  C   UNK A   0      -9.288  11.208  68.565  1.00  0.00    -0.190 A  
HETATM   21  C   UNK A   0     -10.011  10.151  69.125  1.00  0.00    -0.221 A  
HETATM   22  C   UNK A   0     -11.238  10.405  69.742  1.00  0.00    -0.353 A  
HETATM   23  C   UNK A   0     -11.791  11.693  69.689  1.00  0.00    -0.419 A  
BRANCH  21  24
HETATM   24  C   UNK A   0      -9.505   8.756  69.003  1.00  0.00    -0.160 C  
HETATM   25  O   UNK A   0      -9.050   8.300  67.962  1.00  0.00    -0.137 OA 
ATOM     26  N   GLU A   1      -9.554   8.020  70.171  1.00  0.00    -0.174 N  
ATOM     27  H   GLU A   1      -9.937   8.451  71.013  1.00  0.00     0.000 HD 
BRANCH  26  28
ATOM     28  CA  GLU A   1      -9.075   6.648  70.230  1.00  0.00    -0.156 C  
ATOM     29  C   GLU A   1     -10.260   5.717  70.513  1.00  0.00    -0.221 C  
ATOM     30  O   GLU A   1     -10.882   5.282  69.393  1.00  0.00    -0.177 OA 
ATOM     31  OXT GLU A   1     -10.632   5.398  71.642  1.00  0.00    -0.227 OA 
BRANCH  28  32
ATOM     32  CB  GLU A   1      -8.000   6.491  71.315  1.00  0.00    -0.108 C  
BRANCH  32  33
ATOM     33  CG  GLU A   1      -7.952   7.702  72.245  1.00  0.00    -0.123 C  
ATOM     34  CD  GLU A   1      -8.504   7.359  73.602  1.00  0.00    -0.161 C  
ATOM     35  OE1 GLU A   1      -7.567   6.937  74.476  1.00  0.00    -0.111 OA 
ATOM     36  OE2 GLU A   1      -9.692   7.422  73.883  1.00  0.00    -0.281 OA 
ENDBRANCH  32  33
ENDBRANCH  28  32
ENDBRANCH  26  28
ENDBRANCH  21  24
ENDBRANCH  17  18
ENDBRANCH  16  17
ENDBRANCH  15  16
TORSDOF 7
ENDMDL
MODEL      185
REMARK 921   NORMALIZED FREE ENERGY PREDICTED BY IDOCK:   -4.09 KCAL/MOL
REMARK 922        TOTAL FREE ENERGY PREDICTED BY IDOCK:   -8.41 KCAL/MOL
REMARK 923 INTER-LIGAND FREE ENERGY PREDICTED BY IDOCK:   -7.42 KCAL/MOL
REMARK 924 INTRA-LIGAND FREE ENERGY PREDICTED BY IDOCK:   -0.99 KCAL/MOL
REMARK 927      BINDING AFFINITY PREDICTED BY RF-SCORE:    0.00 PKD
ROOT
HETATM    1  N   UNK A   0      -7.218  21.351  67.001  1.00  0.00    -0.844 NA 
HETATM    2  H1  UNK A   0      -6.216  21.330  67.188  1.00  0.00     0.000 HD 
HETATM    3  C   UNK A   0      -7.971  20.228  67.121  1.00  0.00    -0.339 C  
HETATM    4  H2  UNK A   0      -7.659  22.227  66.722  1.00  0.00     0.000 HD 
HETATM    5  N   UNK A   0      -9.249  20.255  66.882  1.00  0.00    -0.472 N  
HETATM    6  H   UNK A   0      -9.697  21.122  66.584  1.00  0.00     0.000 HD 
HETATM    7  C   UNK A   0     -10.006  19.091  67.037  1.00  0.00    -0.342 C  
HETATM    8  C   UNK A   0      -9.274  17.914  67.514  1.00  0.00    -0.249 A  
HETATM    9  O   UNK A   0     -11.206  19.045  66.799  1.00  0.00    -0.066 OA 
HETATM   10  C   UNK A   0      -7.926  18.004  67.726  1.00  0.00    -0.235 A  
HETATM   11  N   UNK A   0      -7.442  16.828  68.195  1.00  0.00    -0.166 NA 
HETATM   12  N   UNK A   0      -7.243  19.136  67.515  1.00  0.00    -0.217 NA 
HETATM   13  H   UNK A   0      -6.470  16.631  68.433  1.00  0.00     0.000 HD 
HETATM   14  C   UNK A   0      -8.493  15.947  68.292  1.00  0.00    -0.170 A  
HETATM   15  C   UNK A   0      -9.656  16.586  67.876  1.00  0.00    -0.233 A  
ENDROOT
BRANCH  15  16
HETATM   16  C   UNK A   0     -11.033  16.003  67.882  1.00  0.00    -0.327 C  
BRANCH  16  17
HETATM   17  C   UNK A   0     -11.336  15.111  66.666  1.00  0.00    -0.234 C  
BRANCH  17  18
HETATM   18  C   UNK A   0     -10.808  13.694  66.807  1.00  0.00    -0.291 A  
HETATM   19  C   UNK A   0     -10.519  13.144  68.062  1.00  0.00    -0.245 A  
HETATM   20  C   UNK A   0      -9.920  11.889  68.172  1.00  0.00    -0.197 A  
HETATM   21  C   UNK A   0      -9.622  11.149  67.024  1.00  0.00    -0.201 A  
HETATM   22  C   UNK A   0     -10.021  11.626  65.773  1.00  0.00    -0.270 A  
HETATM   23  C   UNK A   0     -10.607  12.895  65.667  1.00  0.00    -0.295 A  
BRANCH  21  24
HETATM   24  C   UNK A   0      -8.826   9.895  67.134  1.00  0.00    -0.138 C  
HETATM   25  O   UNK A   0      -7.745   9.839  67.706  1.00  0.00    -0.090 OA 
ATOM     26  N   GLU A   1      -9.419   8.784  66.567  1.00  0.00    -0.200 N  
ATOM     27  H   GLU A   1     -10.325   8.884  66.108  1.00  0.00     0.000 HD 
BRANCH  26  28
ATOM     28  CA  GLU A   1      -8.786   7.475  66.609  1.00  0.00    -0.138 C  
ATOM     29  C   GLU A   1      -7.926   7.297  65.352  1.00  0.00    -0.125 C  
ATOM     30  O   GLU A   1      -6.656   7.738  65.501  1.00  0.00    -0.044 OA 
ATOM     31  OXT GLU A   1      -8.338   6.814  64.298  1.00  0.00    -0.016 OA 
BRANCH  28  32
ATOM     32  CB  GLU A   1      -9.838   6.361  66.700  1.00  0.00    -0.203 C  
BRANCH  32  33
ATOM     33  CG  GLU A   1     -11.077   6.814  67.471  1.00  0.00    -0.340 C  
ATOM     34  CD  GLU A   1     -10.798   6.872  68.949  1.00  0.00    -0.207 C  
ATOM     35  OE1 GLU A   1     -10.372   8.081  69.372  1.00  0.00    -0.210 OA 
ATOM     36  OE2 GLU A   1     -10.911   5.911  69.695  1.00  0.00    -0.315 OA 
ENDBRANCH  32  33
ENDBRANCH  28  32
ENDBRANCH  26  28
ENDBRANCH  21  24
ENDBRANCH  17  18
ENDBRANCH  16  17
ENDBRANCH  15  16
TORSDOF 7
ENDMDL
MODEL      186
REMARK 921   NORMALIZED FREE ENERGY PREDICTED BY IDOCK:   -4.09 KCAL/MOL
REMARK 922        TOTAL FREE ENERGY PREDICTED BY IDOCK:   -8.40 KCAL/MOL
REMARK 923 INTER-LIGAND FREE ENERGY PREDICTED BY IDOCK:   -8.18 KCAL/MOL
REMARK 924 INTRA-LIGAND FREE ENERGY PREDICTED BY IDOCK:   -0.22 KCAL/MOL
REMARK 927      BINDING AFFINITY PREDICTED BY RF-SCORE:    0.00 PKD
ROOT
HETATM    1  N   UNK A   0      -9.162   2.091  64.119  1.00  0.00    -0.113 NA 
HETATM    2  H1  UNK A   0      -9.906   2.090  63.422  1.00  0.00     0.000 HD 
HETATM    3  C   UNK A   0      -9.106   3.053  65.075  1.00  0.00    -0.146 C  
HETATM    4  H2  UNK A   0      -8.450   1.361  64.097  1.00  0.00     0.000 HD 
HETATM    5  N   UNK A   0      -8.157   3.055  65.964  1.00  0.00    -0.085 N  
HETATM    6  H   UNK A   0      -7.430   2.340  65.939  1.00  0.00     0.000 HD 
HETATM    7  C   UNK A   0      -8.137   4.042  66.953  1.00  0.00    -0.097 C  
HETATM    8  C   UNK A   0      -9.252   4.992  66.927  1.00  0.00    -0.120 A  
HETATM    9  O   UNK A   0      -7.253   4.115  67.797  1.00  0.00    -0.062 OA 
HETATM   10  C   UNK A   0     -10.192   4.895  65.938  1.00  0.00    -0.223 A  
HETATM   11  N   UNK A   0     -11.153   5.836  66.106  1.00  0.00    -0.710 NA 
HETATM   12  N   UNK A   0     -10.133   3.955  64.986  1.00  0.00    -0.186 NA 
HETATM   13  H   UNK A   0     -11.966   5.977  65.506  1.00  0.00     0.000 HD 
HETATM   14  C   UNK A   0     -10.838   6.567  67.227  1.00  0.00    -0.390 A  
HETATM   15  C   UNK A   0      -9.657   6.072  67.770  1.00  0.00    -0.113 A  
ENDROOT
BRANCH  15  16
HETATM   16  C   UNK A   0      -8.998   6.545  69.026  1.00  0.00    -0.129 C  
BRANCH  16  17
HETATM   17  C   UNK A   0      -9.871   7.491  69.868  1.00  0.00    -0.187 C  
BRANCH  17  18
HETATM   18  C   UNK A   0      -9.834   8.933  69.394  1.00  0.00    -0.183 A  
HETATM   19  C   UNK A   0     -10.972   9.748  69.441  1.00  0.00    -0.241 A  
HETATM   20  C   UNK A   0     -10.958  11.028  68.891  1.00  0.00    -0.277 A  
HETATM   21  C   UNK A   0      -9.793  11.529  68.303  1.00  0.00    -0.203 A  
HETATM   22  C   UNK A   0      -8.615  10.781  68.362  1.00  0.00    -0.141 A  
HETATM   23  C   UNK A   0      -8.638   9.487  68.902  1.00  0.00    -0.128 A  
BRANCH  21  24
HETATM   24  C   UNK A   0      -9.829  12.820  67.561  1.00  0.00    -0.211 C  
HETATM   25  O   UNK A   0      -8.884  13.238  66.904  1.00  0.00    -0.220 OA 
ATOM     26  N   GLU A   1     -11.029  13.498  67.643  1.00  0.00    -0.259 N  
ATOM     27  H   GLU A   1     -11.787  13.102  68.199  1.00  0.00     0.000 HD 
BRANCH  26  28
ATOM     28  CA  GLU A   1     -11.240  14.763  66.955  1.00  0.00    -0.345 C  
ATOM     29  C   GLU A   1     -11.509  14.486  65.471  1.00  0.00    -0.343 C  
ATOM     30  O   GLU A   1     -12.817  14.297  65.187  1.00  0.00    -0.659 OA 
ATOM     31  OXT GLU A   1     -10.630  14.424  64.611  1.00  0.00    -0.415 OA 
BRANCH  28  32
ATOM     32  CB  GLU A   1     -10.021  15.682  67.116  1.00  0.00    -0.240 C  
BRANCH  32  33
ATOM     33  CG  GLU A   1     -10.431  17.147  67.260  1.00  0.00    -0.313 C  
ATOM     34  CD  GLU A   1      -9.955  17.955  66.083  1.00  0.00    -0.283 C  
ATOM     35  OE1 GLU A   1     -10.857  18.037  65.083  1.00  0.00    -0.665 OA 
ATOM     36  OE2 GLU A   1      -8.846  18.464  66.018  1.00  0.00    -0.498 OA 
ENDBRANCH  32  33
ENDBRANCH  28  32
ENDBRANCH  26  28
ENDBRANCH  21  24
ENDBRANCH  17  18
ENDBRANCH  16  17
ENDBRANCH  15  16
TORSDOF 7
ENDMDL
MODEL      187
REMARK 921   NORMALIZED FREE ENERGY PREDICTED BY IDOCK:   -4.09 KCAL/MOL
REMARK 922        TOTAL FREE ENERGY PREDICTED BY IDOCK:   -8.40 KCAL/MOL
REMARK 923 INTER-LIGAND FREE ENERGY PREDICTED BY IDOCK:   -7.69 KCAL/MOL
REMARK 924 INTRA-LIGAND FREE ENERGY PREDICTED BY IDOCK:   -0.72 KCAL/MOL
REMARK 927      BINDING AFFINITY PREDICTED BY RF-SCORE:    0.00 PKD
ROOT
HETATM    1  N   UNK A   0      -9.516   3.178  74.339  1.00  0.00    -0.089 NA 
HETATM    2  H1  UNK A   0      -9.642   3.334  75.338  1.00  0.00     0.000 HD 
HETATM    3  C   UNK A   0      -9.917   4.108  73.434  1.00  0.00    -0.130 C  
HETATM    4  H2  UNK A   0      -9.082   2.314  74.014  1.00  0.00     0.000 HD 
HETATM    5  N   UNK A   0      -9.755   3.910  72.159  1.00  0.00    -0.151 N  
HETATM    6  H   UNK A   0      -9.340   3.041  71.824  1.00  0.00     0.000 HD 
HETATM    7  C   UNK A   0     -10.154   4.894  71.251  1.00  0.00    -0.199 C  
HETATM    8  C   UNK A   0     -10.695   6.123  71.839  1.00  0.00    -0.277 A  
HETATM    9  O   UNK A   0     -10.057   4.753  70.038  1.00  0.00    -0.239 OA 
HETATM   10  C   UNK A   0     -10.823   6.215  73.198  1.00  0.00    -0.254 A  
HETATM   11  N   UNK A   0     -11.308   7.432  73.544  1.00  0.00    -0.558 NA 
HETATM   12  N   UNK A   0     -10.468   5.218  74.018  1.00  0.00    -0.265 NA 
HETATM   13  H   UNK A   0     -11.495   7.756  74.493  1.00  0.00     0.000 HD 
HETATM   14  C   UNK A   0     -11.503   8.154  72.391  1.00  0.00    -0.397 A  
HETATM   15  C   UNK A   0     -11.132   7.372  71.302  1.00  0.00    -0.269 A  
ENDROOT
BRANCH  15  16
HETATM   16  C   UNK A   0     -11.133   7.799  69.869  1.00  0.00    -0.142 C  
BRANCH  16  17
HETATM   17  C   UNK A   0      -9.769   8.305  69.370  1.00  0.00    -0.177 C  
BRANCH  17  18
HETATM   18  C   UNK A   0      -9.837   9.665  68.697  1.00  0.00    -0.171 A  
HETATM   19  C   UNK A   0      -9.083   9.952  67.551  1.00  0.00    -0.145 A  
HETATM   20  C   UNK A   0      -9.060  11.239  67.015  1.00  0.00    -0.167 A  
HETATM   21  C   UNK A   0      -9.812  12.259  67.602  1.00  0.00    -0.196 A  
HETATM   22  C   UNK A   0     -10.668  11.962  68.665  1.00  0.00    -0.266 A  
HETATM   23  C   UNK A   0     -10.675  10.670  69.212  1.00  0.00    -0.275 A  
BRANCH  21  24
HETATM   24  C   UNK A   0      -9.648  13.665  67.139  1.00  0.00    -0.241 C  
HETATM   25  O   UNK A   0     -10.096  14.073  66.074  1.00  0.00    -0.295 OA 
ATOM     26  N   GLU A   1      -8.979  14.490  68.022  1.00  0.00    -0.174 N  
ATOM     27  H   GLU A   1      -8.632  14.100  68.899  1.00  0.00     0.000 HD 
BRANCH  26  28
ATOM     28  CA  GLU A   1      -8.757  15.898  67.733  1.00  0.00    -0.170 C  
ATOM     29  C   GLU A   1      -7.280  16.231  67.980  1.00  0.00    -0.132 C  
ATOM     30  O   GLU A   1      -6.498  16.049  66.892  1.00  0.00    -0.295 OA 
ATOM     31  OXT GLU A   1      -6.831  16.613  69.060  1.00  0.00    -0.182 OA 
BRANCH  28  32
ATOM     32  CB  GLU A   1      -9.658  16.783  68.605  1.00  0.00    -0.255 C  
BRANCH  32  33
ATOM     33  CG  GLU A   1      -9.338  18.267  68.428  1.00  0.00    -0.328 C  
ATOM     34  CD  GLU A   1      -9.778  18.753  67.075  1.00  0.00    -0.311 C  
ATOM     35  OE1 GLU A   1     -11.030  19.256  67.061  1.00  0.00    -0.454 OA 
ATOM     36  OE2 GLU A   1      -9.085  18.673  66.071  1.00  0.00    -0.487 OA 
ENDBRANCH  32  33
ENDBRANCH  28  32
ENDBRANCH  26  28
ENDBRANCH  21  24
ENDBRANCH  17  18
ENDBRANCH  16  17
ENDBRANCH  15  16
TORSDOF 7
ENDMDL
MODEL      188
REMARK 921   NORMALIZED FREE ENERGY PREDICTED BY IDOCK:   -4.09 KCAL/MOL
REMARK 922        TOTAL FREE ENERGY PREDICTED BY IDOCK:   -8.40 KCAL/MOL
REMARK 923 INTER-LIGAND FREE ENERGY PREDICTED BY IDOCK:   -6.72 KCAL/MOL
REMARK 924 INTRA-LIGAND FREE ENERGY PREDICTED BY IDOCK:   -1.69 KCAL/MOL
REMARK 927      BINDING AFFINITY PREDICTED BY RF-SCORE:    0.00 PKD
ROOT
HETATM    1  N   UNK A   0     -12.981   8.229  72.519  1.00  0.00    -0.588 NA 
HETATM    2  H1  UNK A   0     -12.749   8.552  73.457  1.00  0.00     0.000 HD 
HETATM    3  C   UNK A   0     -12.040   7.650  71.730  1.00  0.00    -0.305 C  
HETATM    4  H2  UNK A   0     -13.933   8.343  72.168  1.00  0.00     0.000 HD 
HETATM    5  N   UNK A   0     -12.336   7.238  70.532  1.00  0.00    -0.585 N  
HETATM    6  H   UNK A   0     -13.280   7.364  70.166  1.00  0.00     0.000 HD 
HETATM    7  C   UNK A   0     -11.356   6.623  69.750  1.00  0.00    -0.354 C  
HETATM    8  C   UNK A   0     -10.048   6.449  70.389  1.00  0.00    -0.221 A  
HETATM    9  O   UNK A   0     -11.564   6.242  68.606  1.00  0.00    -0.125 OA 
HETATM   10  C   UNK A   0      -9.852   6.929  71.655  1.00  0.00    -0.168 A  
HETATM   11  N   UNK A   0      -8.597   6.642  72.079  1.00  0.00    -0.124 NA 
HETATM   12  N   UNK A   0     -10.817   7.555  72.339  1.00  0.00    -0.255 NA 
HETATM   13  H   UNK A   0      -8.198   6.888  72.985  1.00  0.00     0.000 HD 
HETATM   14  C   UNK A   0      -7.955   5.961  71.072  1.00  0.00    -0.116 A  
HETATM   15  C   UNK A   0      -8.827   5.819  69.998  1.00  0.00    -0.139 A  
ENDROOT
BRANCH  15  16
HETATM   16  C   UNK A   0      -8.545   5.088  68.724  1.00  0.00    -0.090 C  
BRANCH  16  17
HETATM   17  C   UNK A   0      -7.478   5.761  67.844  1.00  0.00    -0.078 C  
BRANCH  17  18
HETATM   18  C   UNK A   0      -7.824   7.189  67.457  1.00  0.00    -0.112 A  
HETATM   19  C   UNK A   0      -7.087   8.276  67.942  1.00  0.00    -0.083 A  
HETATM   20  C   UNK A   0      -7.488   9.586  67.679  1.00  0.00    -0.091 A  
HETATM   21  C   UNK A   0      -8.623   9.831  66.903  1.00  0.00    -0.128 A  
HETATM   22  C   UNK A   0      -9.295   8.762  66.305  1.00  0.00    -0.283 A  
HETATM   23  C   UNK A   0      -8.898   7.447  66.586  1.00  0.00    -0.157 A  
BRANCH  21  24
HETATM   24  C   UNK A   0      -9.149  11.219  66.772  1.00  0.00    -0.174 C  
HETATM   25  O   UNK A   0      -9.976  11.542  65.928  1.00  0.00    -0.214 OA 
ATOM     26  N   GLU A   1      -8.658  12.112  67.703  1.00  0.00    -0.157 N  
ATOM     27  H   GLU A   1      -7.976  11.789  68.390  1.00  0.00     0.000 HD 
BRANCH  26  28
ATOM     28  CA  GLU A   1      -9.089  13.501  67.731  1.00  0.00    -0.207 C  
ATOM     29  C   GLU A   1      -7.885  14.390  68.067  1.00  0.00    -0.140 C  
ATOM     30  O   GLU A   1      -7.193  14.793  66.978  1.00  0.00    -0.127 OA 
ATOM     31  OXT GLU A   1      -7.559  14.704  69.211  1.00  0.00    -0.147 OA 
BRANCH  28  32
ATOM     32  CB  GLU A   1     -10.210  13.706  68.759  1.00  0.00    -0.155 C  
BRANCH  32  33
ATOM     33  CG  GLU A   1     -11.389  14.475  68.167  1.00  0.00    -0.319 C  
ATOM     34  CD  GLU A   1     -11.655  15.734  68.946  1.00  0.00    -0.394 C  
ATOM     35  OE1 GLU A   1     -11.004  16.814  68.467  1.00  0.00    -0.345 OA 
ATOM     36  OE2 GLU A   1     -12.365  15.776  69.939  1.00  0.00    -0.338 OA 
ENDBRANCH  32  33
ENDBRANCH  28  32
ENDBRANCH  26  28
ENDBRANCH  21  24
ENDBRANCH  17  18
ENDBRANCH  16  17
ENDBRANCH  15  16
TORSDOF 7
ENDMDL
MODEL      189
REMARK 921   NORMALIZED FREE ENERGY PREDICTED BY IDOCK:   -4.08 KCAL/MOL
REMARK 922        TOTAL FREE ENERGY PREDICTED BY IDOCK:   -8.39 KCAL/MOL
REMARK 923 INTER-LIGAND FREE ENERGY PREDICTED BY IDOCK:   -7.00 KCAL/MOL
REMARK 924 INTRA-LIGAND FREE ENERGY PREDICTED BY IDOCK:   -1.40 KCAL/MOL
REMARK 927      BINDING AFFINITY PREDICTED BY RF-SCORE:    0.00 PKD
ROOT
HETATM    1  N   UNK A   0     -12.131   6.316  71.636  1.00  0.00    -0.254 NA 
HETATM    2  H1  UNK A   0     -11.744   6.198  72.572  1.00  0.00     0.000 HD 
HETATM    3  C   UNK A   0     -11.320   6.361  70.548  1.00  0.00    -0.375 C  
HETATM    4  H2  UNK A   0     -13.141   6.400  71.516  1.00  0.00     0.000 HD 
HETATM    5  N   UNK A   0     -11.814   6.510  69.355  1.00  0.00    -0.554 N  
HETATM    6  H   UNK A   0     -12.821   6.614  69.226  1.00  0.00     0.000 HD 
HETATM    7  C   UNK A   0     -10.960   6.528  68.250  1.00  0.00    -0.281 C  
HETATM    8  C   UNK A   0      -9.538   6.323  68.541  1.00  0.00    -0.128 A  
HETATM    9  O   UNK A   0     -11.361   6.696  67.106  1.00  0.00    -0.343 OA 
HETATM   10  C   UNK A   0      -9.134   6.182  69.840  1.00  0.00    -0.143 A  
HETATM   11  N   UNK A   0      -7.796   5.971  69.898  1.00  0.00    -0.102 NA 
HETATM   12  N   UNK A   0      -9.994   6.222  70.865  1.00  0.00    -0.184 NA 
HETATM   13  H   UNK A   0      -7.246   5.834  70.746  1.00  0.00     0.000 HD 
HETATM   14  C   UNK A   0      -7.311   5.974  68.611  1.00  0.00    -0.085 A  
HETATM   15  C   UNK A   0      -8.368   6.191  67.733  1.00  0.00    -0.116 A  
ENDROOT
BRANCH  15  16
HETATM   16  C   UNK A   0      -8.283   6.209  66.240  1.00  0.00    -0.116 C  
BRANCH  16  17
HETATM   17  C   UNK A   0      -7.638   7.483  65.668  1.00  0.00    -0.091 C  
BRANCH  17  18
HETATM   18  C   UNK A   0      -8.247   8.765  66.209  1.00  0.00    -0.115 A  
HETATM   19  C   UNK A   0      -9.557   9.144  65.886  1.00  0.00    -0.343 A  
HETATM   20  C   UNK A   0     -10.062  10.380  66.286  1.00  0.00    -0.292 A  
HETATM   21  C   UNK A   0      -9.272  11.252  67.041  1.00  0.00    -0.173 A  
HETATM   22  C   UNK A   0      -8.013  10.837  67.481  1.00  0.00    -0.110 A  
HETATM   23  C   UNK A   0      -7.503   9.600  67.061  1.00  0.00    -0.091 A  
BRANCH  21  24
HETATM   24  C   UNK A   0      -9.747  12.637  67.315  1.00  0.00    -0.207 C  
HETATM   25  O   UNK A   0     -10.387  12.937  68.315  1.00  0.00    -0.232 OA 
ATOM     26  N   GLU A   1      -9.376  13.571  66.368  1.00  0.00    -0.421 N  
ATOM     27  H   GLU A   1      -8.835  13.269  65.557  1.00  0.00     0.000 HD 
BRANCH  26  28
ATOM     28  CA  GLU A   1      -9.736  14.975  66.498  1.00  0.00    -0.266 C  
ATOM     29  C   GLU A   1     -10.956  15.261  65.615  1.00  0.00    -0.344 C  
ATOM     30  O   GLU A   1     -12.136  15.065  66.246  1.00  0.00    -0.071 OA 
ATOM     31  OXT GLU A   1     -10.887  15.620  64.439  1.00  0.00    -0.334 OA 
BRANCH  28  32
ATOM     32  CB  GLU A   1      -8.562  15.880  66.099  1.00  0.00    -0.276 C  
BRANCH  32  33
ATOM     33  CG  GLU A   1      -7.740  16.310  67.313  1.00  0.00    -0.210 C  
ATOM     34  CD  GLU A   1      -6.578  17.170  66.897  1.00  0.00    -0.205 C  
ATOM     35  OE1 GLU A   1      -6.853  18.491  66.901  1.00  0.00    -0.188 OA 
ATOM     36  OE2 GLU A   1      -5.494  16.720  66.554  1.00  0.00    -0.346 OA 
ENDBRANCH  32  33
ENDBRANCH  28  32
ENDBRANCH  26  28
ENDBRANCH  21  24
ENDBRANCH  17  18
ENDBRANCH  16  17
ENDBRANCH  15  16
TORSDOF 7
ENDMDL
MODEL      190
REMARK 921   NORMALIZED FREE ENERGY PREDICTED BY IDOCK:   -4.05 KCAL/MOL
REMARK 922        TOTAL FREE ENERGY PREDICTED BY IDOCK:   -8.34 KCAL/MOL
REMARK 923 INTER-LIGAND FREE ENERGY PREDICTED BY IDOCK:   -7.34 KCAL/MOL
REMARK 924 INTRA-LIGAND FREE ENERGY PREDICTED BY IDOCK:   -1.00 KCAL/MOL
REMARK 927      BINDING AFFINITY PREDICTED BY RF-SCORE:    0.00 PKD
ROOT
HETATM    1  N   UNK A   0      -6.079   8.486  74.539  1.00  0.00    -0.121 NA 
HETATM    2  H1  UNK A   0      -5.089   8.491  74.294  1.00  0.00     0.000 HD 
HETATM    3  C   UNK A   0      -7.006   7.994  73.677  1.00  0.00    -0.123 C  
HETATM    4  H2  UNK A   0      -6.376   8.855  75.442  1.00  0.00     0.000 HD 
HETATM    5  N   UNK A   0      -8.268   7.987  73.990  1.00  0.00    -0.240 N  
HETATM    6  H   UNK A   0      -8.577   8.370  74.883  1.00  0.00     0.000 HD 
HETATM    7  C   UNK A   0      -9.199   7.452  73.096  1.00  0.00    -0.176 C  
HETATM    8  C   UNK A   0      -8.645   6.885  71.862  1.00  0.00    -0.118 A  
HETATM    9  O   UNK A   0     -10.403   7.444  73.319  1.00  0.00    -0.285 OA 
HETATM   10  C   UNK A   0      -7.297   6.955  71.640  1.00  0.00    -0.084 A  
HETATM   11  N   UNK A   0      -6.980   6.350  70.469  1.00  0.00    -0.062 NA 
HETATM   12  N   UNK A   0      -6.457   7.524  72.513  1.00  0.00    -0.054 NA 
HETATM   13  H   UNK A   0      -6.045   6.264  70.071  1.00  0.00     0.000 HD 
HETATM   14  C   UNK A   0      -8.143   5.874  69.911  1.00  0.00    -0.116 A  
HETATM   15  C   UNK A   0      -9.207   6.187  70.750  1.00  0.00    -0.163 A  
ENDROOT
BRANCH  15  16
HETATM   16  C   UNK A   0     -10.636   5.800  70.544  1.00  0.00    -0.359 C  
BRANCH  16  17
HETATM   17  C   UNK A   0     -11.601   6.996  70.467  1.00  0.00    -0.364 C  
BRANCH  17  18
HETATM   18  C   UNK A   0     -11.025   8.191  69.728  1.00  0.00    -0.133 A  
HETATM   19  C   UNK A   0     -10.685   9.372  70.401  1.00  0.00    -0.317 A  
HETATM   20  C   UNK A   0     -10.273  10.503  69.697  1.00  0.00    -0.207 A  
HETATM   21  C   UNK A   0     -10.171  10.465  68.304  1.00  0.00    -0.184 A  
HETATM   22  C   UNK A   0     -10.381   9.261  67.629  1.00  0.00    -0.311 A  
HETATM   23  C   UNK A   0     -10.811   8.131  68.340  1.00  0.00     0.036 A  
BRANCH  21  24
HETATM   24  C   UNK A   0      -9.905  11.718  67.543  1.00  0.00    -0.186 C  
HETATM   25  O   UNK A   0      -9.198  11.754  66.543  1.00  0.00    -0.192 OA 
ATOM     26  N   GLU A   1     -10.548  12.837  68.033  1.00  0.00    -0.220 N  
ATOM     27  H   GLU A   1     -11.131  12.751  68.866  1.00  0.00     0.000 HD 
BRANCH  26  28
ATOM     28  CA  GLU A   1     -10.415  14.137  67.392  1.00  0.00    -0.271 C  
ATOM     29  C   GLU A   1     -10.398  15.226  68.471  1.00  0.00    -0.231 C  
ATOM     30  O   GLU A   1      -9.158  15.506  68.933  1.00  0.00    -0.188 OA 
ATOM     31  OXT GLU A   1     -11.405  15.791  68.896  1.00  0.00    -0.309 OA 
BRANCH  28  32
ATOM     32  CB  GLU A   1     -11.565  14.379  66.404  1.00  0.00    -0.383 C  
BRANCH  32  33
ATOM     33  CG  GLU A   1     -11.050  14.708  65.004  1.00  0.00    -0.401 C  
ATOM     34  CD  GLU A   1     -11.644  15.997  64.503  1.00  0.00    -0.205 C  
ATOM     35  OE1 GLU A   1     -10.896  17.084  64.787  1.00  0.00    -0.820 OA 
ATOM     36  OE2 GLU A   1     -12.718  16.065  63.924  1.00  0.00    -0.557 OA 
ENDBRANCH  32  33
ENDBRANCH  28  32
ENDBRANCH  26  28
ENDBRANCH  21  24
ENDBRANCH  17  18
ENDBRANCH  16  17
ENDBRANCH  15  16
TORSDOF 7
ENDMDL
MODEL      191
REMARK 921   NORMALIZED FREE ENERGY PREDICTED BY IDOCK:   -4.01 KCAL/MOL
REMARK 922        TOTAL FREE ENERGY PREDICTED BY IDOCK:   -8.30 KCAL/MOL
REMARK 923 INTER-LIGAND FREE ENERGY PREDICTED BY IDOCK:   -6.20 KCAL/MOL
REMARK 924 INTRA-LIGAND FREE ENERGY PREDICTED BY IDOCK:   -2.10 KCAL/MOL
REMARK 927      BINDING AFFINITY PREDICTED BY RF-SCORE:    0.00 PKD
ROOT
HETATM    1  N   UNK A   0      -5.173   9.684  70.458  1.00  0.00    -0.035 NA 
HETATM    2  H1  UNK A   0      -5.195   9.585  71.472  1.00  0.00     0.000 HD 
HETATM    3  C   UNK A   0      -5.485  10.867  69.868  1.00  0.00    -0.050 C  
HETATM    4  H2  UNK A   0      -4.913   8.885  69.879  1.00  0.00     0.000 HD 
HETATM    5  N   UNK A   0      -5.456  10.994  68.574  1.00  0.00    -0.043 N  
HETATM    6  H   UNK A   0      -5.215  10.195  67.986  1.00  0.00     0.000 HD 
HETATM    7  C   UNK A   0      -5.757  12.228  67.993  1.00  0.00    -0.064 C  
HETATM    8  C   UNK A   0      -6.044  13.320  68.929  1.00  0.00    -0.083 A  
HETATM    9  O   UNK A   0      -5.777  12.402  66.781  1.00  0.00    -0.301 OA 
HETATM   10  C   UNK A   0      -6.050  13.065  70.273  1.00  0.00    -0.071 A  
HETATM   11  N   UNK A   0      -6.301  14.202  70.967  1.00  0.00    -0.404 NA 
HETATM   12  N   UNK A   0      -5.801  11.847  70.771  1.00  0.00    -0.338 NA 
HETATM   13  H   UNK A   0      -6.360  14.284  71.982  1.00  0.00     0.000 HD 
HETATM   14  C   UNK A   0      -6.463  15.223  70.062  1.00  0.00    -0.138 A  
HETATM   15  C   UNK A   0      -6.310  14.714  68.777  1.00  0.00    -0.087 A  
ENDROOT
BRANCH  15  16
HETATM   16  C   UNK A   0      -6.351  15.502  67.506  1.00  0.00    -0.165 C  
BRANCH  16  17
HETATM   17  C   UNK A   0      -7.774  15.799  67.003  1.00  0.00    -0.267 C  
BRANCH  17  18
HETATM   18  C   UNK A   0      -8.778  14.714  67.352  1.00  0.00    -0.209 A  
HETATM   19  C   UNK A   0      -9.553  14.782  68.516  1.00  0.00    -0.218 A  
HETATM   20  C   UNK A   0     -10.381  13.723  68.888  1.00  0.00    -0.146 A  
HETATM   21  C   UNK A   0     -10.467  12.583  68.084  1.00  0.00    -0.238 A  
HETATM   22  C   UNK A   0      -9.802  12.552  66.857  1.00  0.00    -0.229 A  
HETATM   23  C   UNK A   0      -8.957  13.612  66.496  1.00  0.00    -0.068 A  
BRANCH  21  24
HETATM   24  C   UNK A   0     -11.210  11.386  68.569  1.00  0.00    -0.250 C  
HETATM   25  O   UNK A   0     -12.402  11.209  68.355  1.00  0.00    -0.556 OA 
ATOM     26  N   GLU A   1     -10.438  10.467  69.253  1.00  0.00    -0.220 N  
ATOM     27  H   GLU A   1      -9.447  10.660  69.398  1.00  0.00     0.000 HD 
BRANCH  26  28
ATOM     28  CA  GLU A   1     -11.003   9.230  69.771  1.00  0.00    -0.196 C  
ATOM     29  C   GLU A   1     -11.019   9.293  71.303  1.00  0.00    -0.351 C  
ATOM     30  O   GLU A   1     -12.151   9.834  71.808  1.00  0.00    -0.390 OA 
ATOM     31  OXT GLU A   1     -10.095   8.906  72.018  1.00  0.00    -0.332 OA 
BRANCH  28  32
ATOM     32  CB  GLU A   1     -10.194   8.017  69.292  1.00  0.00    -0.214 C  
BRANCH  32  33
ATOM     33  CG  GLU A   1      -9.878   8.099  67.800  1.00  0.00    -0.209 C  
ATOM     34  CD  GLU A   1      -8.395   8.025  67.560  1.00  0.00    -0.123 C  
ATOM     35  OE1 GLU A   1      -7.942   6.770  67.355  1.00  0.00    -0.111 OA 
ATOM     36  OE2 GLU A   1      -7.658   9.000  67.581  1.00  0.00    -0.091 OA 
ENDBRANCH  32  33
ENDBRANCH  28  32
ENDBRANCH  26  28
ENDBRANCH  21  24
ENDBRANCH  17  18
ENDBRANCH  16  17
ENDBRANCH  15  16
TORSDOF 7
ENDMDL
MODEL      192
REMARK 921   NORMALIZED FREE ENERGY PREDICTED BY IDOCK:   -3.98 KCAL/MOL
REMARK 922        TOTAL FREE ENERGY PREDICTED BY IDOCK:   -8.25 KCAL/MOL
REMARK 923 INTER-LIGAND FREE ENERGY PREDICTED BY IDOCK:   -7.26 KCAL/MOL
REMARK 924 INTRA-LIGAND FREE ENERGY PREDICTED BY IDOCK:   -0.99 KCAL/MOL
REMARK 927      BINDING AFFINITY PREDICTED BY RF-SCORE:    0.00 PKD
ROOT
HETATM    1  N   UNK A   0      -9.558  18.885  68.637  1.00  0.00    -0.373 NA 
HETATM    2  H1  UNK A   0      -8.889  19.338  68.016  1.00  0.00     0.000 HD 
HETATM    3  C   UNK A   0     -10.015  17.634  68.374  1.00  0.00    -0.356 C  
HETATM    4  H2  UNK A   0      -9.888  19.378  69.467  1.00  0.00     0.000 HD 
HETATM    5  N   UNK A   0     -10.869  17.056  69.166  1.00  0.00    -0.315 N  
HETATM    6  H   UNK A   0     -11.219  17.549  69.989  1.00  0.00     0.000 HD 
HETATM    7  C   UNK A   0     -11.305  15.759  68.886  1.00  0.00    -0.356 C  
HETATM    8  C   UNK A   0     -10.705  15.126  67.708  1.00  0.00    -0.279 A  
HETATM    9  O   UNK A   0     -12.129  15.174  69.576  1.00  0.00    -0.310 OA 
HETATM   10  C   UNK A   0      -9.819  15.836  66.944  1.00  0.00    -0.236 A  
HETATM   11  N   UNK A   0      -9.353  15.070  65.927  1.00  0.00    -0.467 NA 
HETATM   12  N   UNK A   0      -9.475  17.097  67.235  1.00  0.00    -0.241 NA 
HETATM   13  H   UNK A   0      -8.683  15.361  65.216  1.00  0.00     0.000 HD 
HETATM   14  C   UNK A   0      -9.945  13.833  66.024  1.00  0.00    -0.306 A  
HETATM   15  C   UNK A   0     -10.797  13.827  67.123  1.00  0.00    -0.288 A  
ENDROOT
BRANCH  15  16
HETATM   16  C   UNK A   0     -11.588  12.658  67.618  1.00  0.00    -0.414 C  
BRANCH  16  17
HETATM   17  C   UNK A   0     -11.255  11.335  66.907  1.00  0.00    -0.300 C  
BRANCH  17  18
HETATM   18  C   UNK A   0     -10.841  10.225  67.857  1.00  0.00    -0.337 A  
HETATM   19  C   UNK A   0     -10.663  10.462  69.226  1.00  0.00    -0.270 A  
HETATM   20  C   UNK A   0     -10.165   9.467  70.066  1.00  0.00    -0.281 A  
HETATM   21  C   UNK A   0      -9.858   8.204  69.553  1.00  0.00    -0.181 A  
HETATM   22  C   UNK A   0     -10.150   7.910  68.219  1.00  0.00    -0.225 A  
HETATM   23  C   UNK A   0     -10.635   8.919  67.375  1.00  0.00    -0.305 A  
BRANCH  21  24
HETATM   24  C   UNK A   0      -9.163   7.203  70.410  1.00  0.00    -0.156 C  
HETATM   25  O   UNK A   0      -8.479   7.513  71.377  1.00  0.00    -0.110 OA 
ATOM     26  N   GLU A   1      -9.377   5.887  70.049  1.00  0.00    -0.146 N  
ATOM     27  H   GLU A   1      -9.962   5.683  69.238  1.00  0.00     0.000 HD 
BRANCH  26  28
ATOM     28  CA  GLU A   1      -8.792   4.785  70.797  1.00  0.00    -0.121 C  
ATOM     29  C   GLU A   1      -7.805   4.037  69.892  1.00  0.00    -0.052 C  
ATOM     30  O   GLU A   1      -6.547   4.530  69.944  1.00  0.00    -0.031 OA 
ATOM     31  OXT GLU A   1      -8.113   3.088  69.171  1.00  0.00    -0.055 OA 
BRANCH  28  32
ATOM     32  CB  GLU A   1      -9.880   3.830  71.305  1.00  0.00    -0.219 C  
BRANCH  32  33
ATOM     33  CG  GLU A   1     -10.554   4.361  72.569  1.00  0.00    -0.203 C  
ATOM     34  CD  GLU A   1      -9.621   4.287  73.747  1.00  0.00    -0.112 C  
ATOM     35  OE1 GLU A   1      -8.897   5.410  73.935  1.00  0.00    -0.121 OA 
ATOM     36  OE2 GLU A   1      -9.500   3.295  74.451  1.00  0.00    -0.091 OA 
ENDBRANCH  32  33
ENDBRANCH  28  32
ENDBRANCH  26  28
ENDBRANCH  21  24
ENDBRANCH  17  18
ENDBRANCH  16  17
ENDBRANCH  15  16
TORSDOF 7
ENDMDL
MODEL      193
REMARK 921   NORMALIZED FREE ENERGY PREDICTED BY IDOCK:   -3.97 KCAL/MOL
REMARK 922        TOTAL FREE ENERGY PREDICTED BY IDOCK:   -8.23 KCAL/MOL
REMARK 923 INTER-LIGAND FREE ENERGY PREDICTED BY IDOCK:   -6.50 KCAL/MOL
REMARK 924 INTRA-LIGAND FREE ENERGY PREDICTED BY IDOCK:   -1.73 KCAL/MOL
REMARK 927      BINDING AFFINITY PREDICTED BY RF-SCORE:    0.00 PKD
ROOT
HETATM    1  N   UNK A   0      -7.679   8.743  74.094  1.00  0.00    -0.405 NA 
HETATM    2  H1  UNK A   0      -6.856   8.375  74.570  1.00  0.00     0.000 HD 
HETATM    3  C   UNK A   0      -8.251   8.065  73.066  1.00  0.00    -0.179 C  
HETATM    4  H2  UNK A   0      -8.079   9.633  74.395  1.00  0.00     0.000 HD 
HETATM    5  N   UNK A   0      -9.301   8.535  72.460  1.00  0.00    -0.271 N  
HETATM    6  H   UNK A   0      -9.697   9.432  72.742  1.00  0.00     0.000 HD 
HETATM    7  C   UNK A   0      -9.885   7.805  71.422  1.00  0.00    -0.167 C  
HETATM    8  C   UNK A   0      -9.267   6.508  71.129  1.00  0.00    -0.156 A  
HETATM    9  O   UNK A   0     -10.855   8.208  70.793  1.00  0.00    -0.220 OA 
HETATM   10  C   UNK A   0      -8.159   6.120  71.831  1.00  0.00    -0.107 A  
HETATM   11  N   UNK A   0      -7.760   4.885  71.439  1.00  0.00    -0.086 NA 
HETATM   12  N   UNK A   0      -7.614   6.885  72.785  1.00  0.00    -0.089 NA 
HETATM   13  H   UNK A   0      -6.961   4.368  71.806  1.00  0.00     0.000 HD 
HETATM   14  C   UNK A   0      -8.623   4.453  70.460  1.00  0.00    -0.081 A  
HETATM   15  C   UNK A   0      -9.579   5.438  70.236  1.00  0.00    -0.236 A  
ENDROOT
BRANCH  15  16
HETATM   16  C   UNK A   0     -10.737   5.345  69.294  1.00  0.00    -0.198 C  
BRANCH  16  17
HETATM   17  C   UNK A   0     -10.327   5.224  67.816  1.00  0.00    -0.196 C  
BRANCH  17  18
HETATM   18  C   UNK A   0     -10.051   6.562  67.153  1.00  0.00    -0.223 A  
HETATM   19  C   UNK A   0      -8.968   6.736  66.282  1.00  0.00    -0.170 A  
HETATM   20  C   UNK A   0      -8.652   7.997  65.777  1.00  0.00    -0.174 A  
HETATM   21  C   UNK A   0      -9.434   9.105  66.114  1.00  0.00    -0.309 A  
HETATM   22  C   UNK A   0     -10.591   8.928  66.875  1.00  0.00    -0.254 A  
HETATM   23  C   UNK A   0     -10.894   7.661  67.395  1.00  0.00    -0.240 A  
BRANCH  21  24
HETATM   24  C   UNK A   0      -8.995  10.473  65.719  1.00  0.00    -0.180 C  
HETATM   25  O   UNK A   0      -8.915  10.837  64.553  1.00  0.00    -0.192 OA 
ATOM     26  N   GLU A   1      -8.716  11.317  66.776  1.00  0.00    -0.160 N  
ATOM     27  H   GLU A   1      -8.805  10.964  67.730  1.00  0.00     0.000 HD 
BRANCH  26  28
ATOM     28  CA  GLU A   1      -8.299  12.694  66.565  1.00  0.00     0.194 C  
ATOM     29  C   GLU A   1      -7.151  13.021  67.528  1.00  0.00    -0.154 C  
ATOM     30  O   GLU A   1      -5.928  12.742  67.022  1.00  0.00    -0.307 OA 
ATOM     31  OXT GLU A   1      -7.309  13.480  68.659  1.00  0.00    -0.108 OA 
BRANCH  28  32
ATOM     32  CB  GLU A   1      -9.472  13.660  66.782  1.00  0.00    -0.275 C  
BRANCH  32  33
ATOM     33  CG  GLU A   1     -10.691  12.948  67.367  1.00  0.00    -0.252 C  
ATOM     34  CD  GLU A   1     -11.896  13.139  66.488  1.00  0.00    -0.400 C  
ATOM     35  OE1 GLU A   1     -12.054  12.166  65.566  1.00  0.00    -0.517 OA 
ATOM     36  OE2 GLU A   1     -12.647  14.100  66.571  1.00  0.00    -0.394 OA 
ENDBRANCH  32  33
ENDBRANCH  28  32
ENDBRANCH  26  28
ENDBRANCH  21  24
ENDBRANCH  17  18
ENDBRANCH  16  17
ENDBRANCH  15  16
TORSDOF 7
ENDMDL
MODEL      194
REMARK 921   NORMALIZED FREE ENERGY PREDICTED BY IDOCK:   -3.95 KCAL/MOL
REMARK 922        TOTAL FREE ENERGY PREDICTED BY IDOCK:   -8.21 KCAL/MOL
REMARK 923 INTER-LIGAND FREE ENERGY PREDICTED BY IDOCK:   -6.93 KCAL/MOL
REMARK 924 INTRA-LIGAND FREE ENERGY PREDICTED BY IDOCK:   -1.29 KCAL/MOL
REMARK 927      BINDING AFFINITY PREDICTED BY RF-SCORE:    0.00 PKD
ROOT
HETATM    1  N   UNK A   0     -10.062  20.246  66.009  1.00  0.00    -0.585 NA 
HETATM    2  H1  UNK A   0     -11.067  20.393  65.926  1.00  0.00     0.000 HD 
HETATM    3  C   UNK A   0      -9.566  19.253  66.790  1.00  0.00    -0.334 C  
HETATM    4  H2  UNK A   0      -9.421  20.854  65.498  1.00  0.00     0.000 HD 
HETATM    5  N   UNK A   0      -8.283  19.066  66.895  1.00  0.00    -0.266 N  
HETATM    6  H   UNK A   0      -7.634  19.680  66.403  1.00  0.00     0.000 HD 
HETATM    7  C   UNK A   0      -7.799  18.021  67.686  1.00  0.00    -0.220 C  
HETATM    8  C   UNK A   0      -8.817  17.171  68.312  1.00  0.00    -0.245 A  
HETATM    9  O   UNK A   0      -6.604  17.813  67.849  1.00  0.00    -0.183 OA 
HETATM   10  C   UNK A   0     -10.140  17.470  68.134  1.00  0.00    -0.341 A  
HETATM   11  N   UNK A   0     -10.919  16.553  68.759  1.00  0.00    -0.333 NA 
HETATM   12  N   UNK A   0     -10.545  18.516  67.402  1.00  0.00    -0.424 NA 
HETATM   13  H   UNK A   0     -11.938  16.547  68.781  1.00  0.00     0.000 HD 
HETATM   14  C   UNK A   0     -10.091  15.635  69.361  1.00  0.00    -0.269 A  
HETATM   15  C   UNK A   0      -8.769  15.985  69.105  1.00  0.00    -0.248 A  
ENDROOT
BRANCH  15  16
HETATM   16  C   UNK A   0      -7.557  15.218  69.528  1.00  0.00    -0.219 C  
BRANCH  16  17
HETATM   17  C   UNK A   0      -7.069  14.200  68.483  1.00  0.00    -0.103 C  
BRANCH  17  18
HETATM   18  C   UNK A   0      -7.493  12.773  68.785  1.00  0.00    -0.048 A  
HETATM   19  C   UNK A   0      -6.748  11.956  69.645  1.00  0.00    -0.009 A  
HETATM   20  C   UNK A   0      -7.077  10.612  69.819  1.00  0.00    -0.140 A  
HETATM   21  C   UNK A   0      -8.176  10.066  69.151  1.00  0.00    -0.137 A  
HETATM   22  C   UNK A   0      -9.005  10.896  68.393  1.00  0.00    -0.154 A  
HETATM   23  C   UNK A   0      -8.660  12.242  68.208  1.00  0.00    -0.172 A  
BRANCH  21  24
HETATM   24  C   UNK A   0      -8.420   8.597  69.197  1.00  0.00    -0.124 C  
HETATM   25  O   UNK A   0      -7.561   7.788  69.525  1.00  0.00    -0.095 OA 
ATOM     26  N   GLU A   1      -9.708   8.216  68.875  1.00  0.00    -0.154 N  
ATOM     27  H   GLU A   1     -10.388   8.931  68.616  1.00  0.00     0.000 HD 
BRANCH  26  28
ATOM     28  CA  GLU A   1     -10.119   6.821  68.895  1.00  0.00    -0.164 C  
ATOM     29  C   GLU A   1     -10.248   6.317  67.453  1.00  0.00    -0.180 C  
ATOM     30  O   GLU A   1      -9.099   5.805  66.957  1.00  0.00    -0.114 OA 
ATOM     31  OXT GLU A   1     -11.284   6.378  66.791  1.00  0.00    -0.327 OA 
BRANCH  28  32
ATOM     32  CB  GLU A   1     -11.450   6.654  69.641  1.00  0.00    -0.358 C  
BRANCH  32  33
ATOM     33  CG  GLU A   1     -11.443   7.383  70.984  1.00  0.00    -0.307 C  
ATOM     34  CD  GLU A   1     -10.894   6.500  72.071  1.00  0.00    -0.234 C  
ATOM     35  OE1 GLU A   1      -9.562   6.628  72.251  1.00  0.00    -0.148 OA 
ATOM     36  OE2 GLU A   1     -11.576   5.714  72.711  1.00  0.00    -0.297 OA 
ENDBRANCH  32  33
ENDBRANCH  28  32
ENDBRANCH  26  28
ENDBRANCH  21  24
ENDBRANCH  17  18
ENDBRANCH  16  17
ENDBRANCH  15  16
TORSDOF 7
ENDMDL
MODEL      195
REMARK 921   NORMALIZED FREE ENERGY PREDICTED BY IDOCK:   -3.95 KCAL/MOL
REMARK 922        TOTAL FREE ENERGY PREDICTED BY IDOCK:   -8.20 KCAL/MOL
REMARK 923 INTER-LIGAND FREE ENERGY PREDICTED BY IDOCK:   -7.90 KCAL/MOL
REMARK 924 INTRA-LIGAND FREE ENERGY PREDICTED BY IDOCK:   -0.30 KCAL/MOL
REMARK 927      BINDING AFFINITY PREDICTED BY RF-SCORE:    0.00 PKD
ROOT
HETATM    1  N   UNK A   0      -8.603  15.236  69.828  1.00  0.00    -0.388 NA 
HETATM    2  H1  UNK A   0      -8.021  16.068  69.745  1.00  0.00     0.000 HD 
HETATM    3  C   UNK A   0      -9.478  14.899  68.846  1.00  0.00    -0.209 C  
HETATM    4  H2  UNK A   0      -8.527  14.649  70.659  1.00  0.00     0.000 HD 
HETATM    5  N   UNK A   0     -10.221  13.837  68.952  1.00  0.00    -0.399 N  
HETATM    6  H   UNK A   0     -10.166  13.254  69.788  1.00  0.00     0.000 HD 
HETATM    7  C   UNK A   0     -11.096  13.498  67.917  1.00  0.00    -0.265 C  
HETATM    8  C   UNK A   0     -11.063  14.376  66.743  1.00  0.00    -0.323 A  
HETATM    9  O   UNK A   0     -11.842  12.529  67.971  1.00  0.00    -0.346 OA 
HETATM   10  C   UNK A   0     -10.242  15.470  66.748  1.00  0.00    -0.280 A  
HETATM   11  N   UNK A   0     -10.330  16.131  65.567  1.00  0.00    -0.473 NA 
HETATM   12  N   UNK A   0      -9.460  15.772  67.791  1.00  0.00    -0.211 NA 
HETATM   13  H   UNK A   0      -9.821  16.978  65.314  1.00  0.00     0.000 HD 
HETATM   14  C   UNK A   0     -11.227  15.458  64.771  1.00  0.00    -0.395 A  
HETATM   15  C   UNK A   0     -11.708  14.355  65.469  1.00  0.00    -0.352 A  
ENDROOT
BRANCH  15  16
HETATM   16  C   UNK A   0     -12.657  13.325  64.944  1.00  0.00    -0.444 C  
BRANCH  16  17
HETATM   17  C   UNK A   0     -12.159  12.608  63.678  1.00  0.00    -0.632 C  
BRANCH  17  18
HETATM   18  C   UNK A   0     -11.056  11.600  63.947  1.00  0.00    -0.477 A  
HETATM   19  C   UNK A   0     -10.097  11.288  62.974  1.00  0.00    -0.327 A  
HETATM   20  C   UNK A   0      -9.165  10.274  63.188  1.00  0.00    -0.311 A  
HETATM   21  C   UNK A   0      -9.158   9.568  64.395  1.00  0.00    -0.234 A  
HETATM   22  C   UNK A   0     -10.021   9.952  65.424  1.00  0.00    -0.349 A  
HETATM   23  C   UNK A   0     -10.968  10.961  65.197  1.00  0.00    -0.031 A  
BRANCH  21  24
HETATM   24  C   UNK A   0      -8.283   8.373  64.553  1.00  0.00    -0.146 C  
HETATM   25  O   UNK A   0      -7.112   8.351  64.194  1.00  0.00    -0.080 OA 
ATOM     26  N   GLU A   1      -8.885   7.295  65.171  1.00  0.00    -0.355 N  
ATOM     27  H   GLU A   1      -9.862   7.368  65.457  1.00  0.00     0.000 HD 
BRANCH  26  28
ATOM     28  CA  GLU A   1      -8.162   6.058  65.425  1.00  0.00    -0.141 C  
ATOM     29  C   GLU A   1      -7.207   6.273  66.605  1.00  0.00    -0.074 C  
ATOM     30  O   GLU A   1      -7.766   6.005  67.806  1.00  0.00    -0.098 OA 
ATOM     31  OXT GLU A   1      -6.045   6.663  66.489  1.00  0.00    -0.031 OA 
BRANCH  28  32
ATOM     32  CB  GLU A   1      -7.384   5.614  64.179  1.00  0.00    -0.062 C  
BRANCH  32  33
ATOM     33  CG  GLU A   1      -8.319   5.222  63.036  1.00  0.00    -0.111 C  
ATOM     34  CD  GLU A   1      -8.921   3.865  63.277  1.00  0.00    -0.108 C  
ATOM     35  OE1 GLU A   1     -10.103   3.904  63.928  1.00  0.00    -0.178 OA 
ATOM     36  OE2 GLU A   1      -8.381   2.819  62.947  1.00  0.00    -0.073 OA 
ENDBRANCH  32  33
ENDBRANCH  28  32
ENDBRANCH  26  28
ENDBRANCH  21  24
ENDBRANCH  17  18
ENDBRANCH  16  17
ENDBRANCH  15  16
TORSDOF 7
ENDMDL
MODEL      196
REMARK 921   NORMALIZED FREE ENERGY PREDICTED BY IDOCK:   -3.94 KCAL/MOL
REMARK 922        TOTAL FREE ENERGY PREDICTED BY IDOCK:   -8.19 KCAL/MOL
REMARK 923 INTER-LIGAND FREE ENERGY PREDICTED BY IDOCK:   -6.86 KCAL/MOL
REMARK 924 INTRA-LIGAND FREE ENERGY PREDICTED BY IDOCK:   -1.33 KCAL/MOL
REMARK 927      BINDING AFFINITY PREDICTED BY RF-SCORE:    0.00 PKD
ROOT
HETATM    1  N   UNK A   0      -9.715   4.793  72.337  1.00  0.00    -0.151 NA 
HETATM    2  H1  UNK A   0     -10.485   5.230  72.841  1.00  0.00     0.000 HD 
HETATM    3  C   UNK A   0      -9.616   4.902  70.987  1.00  0.00    -0.174 C  
HETATM    4  H2  UNK A   0      -9.009   4.268  72.853  1.00  0.00     0.000 HD 
HETATM    5  N   UNK A   0      -8.632   4.344  70.344  1.00  0.00    -0.076 N  
HETATM    6  H   UNK A   0      -7.932   3.801  70.849  1.00  0.00     0.000 HD 
HETATM    7  C   UNK A   0      -8.540   4.492  68.958  1.00  0.00    -0.083 C  
HETATM    8  C   UNK A   0      -9.570   5.330  68.336  1.00  0.00    -0.176 A  
HETATM    9  O   UNK A   0      -7.657   3.967  68.293  1.00  0.00    -0.065 OA 
HETATM   10  C   UNK A   0     -10.562   5.861  69.116  1.00  0.00    -0.299 A  
HETATM   11  N   UNK A   0     -11.392   6.627  68.367  1.00  0.00    -0.571 NA 
HETATM   12  N   UNK A   0     -10.626   5.645  70.435  1.00  0.00    -0.286 NA 
HETATM   13  H   UNK A   0     -12.209   7.135  68.705  1.00  0.00     0.000 HD 
HETATM   14  C   UNK A   0     -10.938   6.599  67.069  1.00  0.00    -0.393 A  
HETATM   15  C   UNK A   0      -9.801   5.799  67.008  1.00  0.00    -0.171 A  
ENDROOT
BRANCH  15  16
HETATM   16  C   UNK A   0      -8.963   5.550  65.794  1.00  0.00    -0.158 C  
BRANCH  16  17
HETATM   17  C   UNK A   0      -7.671   6.385  65.749  1.00  0.00    -0.092 C  
BRANCH  17  18
HETATM   18  C   UNK A   0      -7.892   7.860  66.037  1.00  0.00    -0.095 A  
HETATM   19  C   UNK A   0      -7.644   8.402  67.304  1.00  0.00    -0.097 A  
HETATM   20  C   UNK A   0      -7.966   9.728  67.590  1.00  0.00    -0.105 A  
HETATM   21  C   UNK A   0      -8.521  10.545  66.602  1.00  0.00    -0.129 A  
HETATM   22  C   UNK A   0      -8.656  10.059  65.299  1.00  0.00    -0.166 A  
HETATM   23  C   UNK A   0      -8.346   8.720  65.021  1.00  0.00    -0.180 A  
BRANCH  21  24
HETATM   24  C   UNK A   0      -9.027  11.901  66.955  1.00  0.00    -0.190 C  
HETATM   25  O   UNK A   0      -8.587  12.553  67.894  1.00  0.00    -0.160 OA 
ATOM     26  N   GLU A   1     -10.013  12.385  66.118  1.00  0.00    -0.248 N  
ATOM     27  H   GLU A   1     -10.339  11.803  65.346  1.00  0.00     0.000 HD 
BRANCH  26  28
ATOM     28  CA  GLU A   1     -10.597  13.704  66.308  1.00  0.00    -0.289 C  
ATOM     29  C   GLU A   1     -12.122  13.594  66.202  1.00  0.00    -0.436 C  
ATOM     30  O   GLU A   1     -12.727  13.332  67.382  1.00  0.00     0.168 OA 
ATOM     31  OXT GLU A   1     -12.751  13.716  65.150  1.00  0.00    -0.611 OA 
BRANCH  28  32
ATOM     32  CB  GLU A   1     -10.058  14.696  65.268  1.00  0.00    -0.393 C  
BRANCH  32  33
ATOM     33  CG  GLU A   1     -10.185  16.142  65.745  1.00  0.00    -0.397 C  
ATOM     34  CD  GLU A   1      -8.948  16.575  66.483  1.00  0.00    -0.278 C  
ATOM     35  OE1 GLU A   1      -8.022  17.157  65.692  1.00  0.00    -0.381 OA 
ATOM     36  OE2 GLU A   1      -8.776  16.390  67.679  1.00  0.00    -0.181 OA 
ENDBRANCH  32  33
ENDBRANCH  28  32
ENDBRANCH  26  28
ENDBRANCH  21  24
ENDBRANCH  17  18
ENDBRANCH  16  17
ENDBRANCH  15  16
TORSDOF 7
ENDMDL
MODEL      197
REMARK 921   NORMALIZED FREE ENERGY PREDICTED BY IDOCK:   -3.94 KCAL/MOL
REMARK 922        TOTAL FREE ENERGY PREDICTED BY IDOCK:   -8.19 KCAL/MOL
REMARK 923 INTER-LIGAND FREE ENERGY PREDICTED BY IDOCK:   -8.28 KCAL/MOL
REMARK 924 INTRA-LIGAND FREE ENERGY PREDICTED BY IDOCK:    0.09 KCAL/MOL
REMARK 927      BINDING AFFINITY PREDICTED BY RF-SCORE:    0.00 PKD
ROOT
HETATM    1  N   UNK A   0      -6.498   4.058  64.769  1.00  0.00    -0.041 NA 
HETATM    2  H1  UNK A   0      -6.955   3.822  63.889  1.00  0.00     0.000 HD 
HETATM    3  C   UNK A   0      -7.190   4.655  65.773  1.00  0.00    -0.076 C  
HETATM    4  H2  UNK A   0      -5.509   3.842  64.897  1.00  0.00     0.000 HD 
HETATM    5  N   UNK A   0      -6.607   4.955  66.897  1.00  0.00    -0.049 N  
HETATM    6  H   UNK A   0      -5.614   4.760  67.027  1.00  0.00     0.000 HD 
HETATM    7  C   UNK A   0      -7.347   5.547  67.923  1.00  0.00    -0.073 C  
HETATM    8  C   UNK A   0      -8.774   5.740  67.650  1.00  0.00    -0.107 A  
HETATM    9  O   UNK A   0      -6.849   5.880  68.991  1.00  0.00    -0.058 OA 
HETATM   10  C   UNK A   0      -9.275   5.390  66.426  1.00  0.00    -0.147 A  
HETATM   11  N   UNK A   0     -10.611   5.613  66.382  1.00  0.00    -0.475 NA 
HETATM   12  N   UNK A   0      -8.506   4.871  65.461  1.00  0.00    -0.125 NA 
HETATM   13  H   UNK A   0     -11.223   5.436  65.585  1.00  0.00     0.000 HD 
HETATM   14  C   UNK A   0     -10.996   6.121  67.600  1.00  0.00    -0.302 A  
HETATM   15  C   UNK A   0      -9.877   6.216  68.421  1.00  0.00    -0.142 A  
ENDROOT
BRANCH  15  16
HETATM   16  C   UNK A   0      -9.867   6.664  69.848  1.00  0.00    -0.180 C  
BRANCH  16  17
HETATM   17  C   UNK A   0     -11.219   7.210  70.339  1.00  0.00    -0.320 C  
BRANCH  17  18
HETATM   18  C   UNK A   0     -11.303   8.727  70.320  1.00  0.00    -0.162 A  
HETATM   19  C   UNK A   0     -12.176   9.421  71.168  1.00  0.00    -0.402 A  
HETATM   20  C   UNK A   0     -12.334  10.801  71.056  1.00  0.00    -0.509 A  
HETATM   21  C   UNK A   0     -11.599  11.518  70.108  1.00  0.00    -0.336 A  
HETATM   22  C   UNK A   0     -10.631  10.862  69.344  1.00  0.00    -0.233 A  
HETATM   23  C   UNK A   0     -10.489   9.471  69.448  1.00  0.00    -0.231 A  
BRANCH  21  24
HETATM   24  C   UNK A   0     -11.897  12.959  69.870  1.00  0.00    -0.303 C  
HETATM   25  O   UNK A   0     -12.332  13.383  68.807  1.00  0.00    -0.205 OA 
ATOM     26  N   GLU A   1     -11.678  13.780  70.958  1.00  0.00    -0.433 N  
ATOM     27  H   GLU A   1     -11.321  13.374  71.823  1.00  0.00     0.000 HD 
BRANCH  26  28
ATOM     28  CA  GLU A   1     -11.943  15.210  70.902  1.00  0.00    -0.328 C  
ATOM     29  C   GLU A   1     -13.322  15.486  71.512  1.00  0.00    -0.509 C  
ATOM     30  O   GLU A   1     -13.286  15.707  72.845  1.00  0.00    -0.465 OA 
ATOM     31  OXT GLU A   1     -14.371  15.495  70.868  1.00  0.00    -0.392 OA 
BRANCH  28  32
ATOM     32  CB  GLU A   1     -11.885  15.720  69.455  1.00  0.00    -0.359 C  
BRANCH  32  33
ATOM     33  CG  GLU A   1     -10.503  16.268  69.102  1.00  0.00    -0.280 C  
ATOM     34  CD  GLU A   1     -10.517  16.929  67.751  1.00  0.00    -0.340 C  
ATOM     35  OE1 GLU A   1     -10.780  18.252  67.798  1.00  0.00    -0.411 OA 
ATOM     36  OE2 GLU A   1     -10.342  16.325  66.703  1.00  0.00    -0.291 OA 
ENDBRANCH  32  33
ENDBRANCH  28  32
ENDBRANCH  26  28
ENDBRANCH  21  24
ENDBRANCH  17  18
ENDBRANCH  16  17
ENDBRANCH  15  16
TORSDOF 7
ENDMDL
MODEL      198
REMARK 921   NORMALIZED FREE ENERGY PREDICTED BY IDOCK:   -3.93 KCAL/MOL
REMARK 922        TOTAL FREE ENERGY PREDICTED BY IDOCK:   -8.19 KCAL/MOL
REMARK 923 INTER-LIGAND FREE ENERGY PREDICTED BY IDOCK:   -7.17 KCAL/MOL
REMARK 924 INTRA-LIGAND FREE ENERGY PREDICTED BY IDOCK:   -1.02 KCAL/MOL
REMARK 927      BINDING AFFINITY PREDICTED BY RF-SCORE:    0.00 PKD
ROOT
HETATM    1  N   UNK A   0     -11.613   6.264  68.537  1.00  0.00    -0.341 NA 
HETATM    2  H1  UNK A   0     -12.487   6.432  68.040  1.00  0.00     0.000 HD 
HETATM    3  C   UNK A   0     -10.435   6.732  68.050  1.00  0.00    -0.211 C  
HETATM    4  H2  UNK A   0     -11.624   5.737  69.411  1.00  0.00     0.000 HD 
HETATM    5  N   UNK A   0      -9.320   6.518  68.684  1.00  0.00    -0.126 N  
HETATM    6  H   UNK A   0      -9.318   5.977  69.549  1.00  0.00     0.000 HD 
HETATM    7  C   UNK A   0      -8.125   7.032  68.174  1.00  0.00    -0.119 C  
HETATM    8  C   UNK A   0      -8.246   7.833  66.953  1.00  0.00    -0.116 A  
HETATM    9  O   UNK A   0      -7.041   6.839  68.708  1.00  0.00    -0.080 OA 
HETATM   10  C   UNK A   0      -9.474   7.986  66.371  1.00  0.00    -0.201 A  
HETATM   11  N   UNK A   0      -9.383   8.783  65.278  1.00  0.00    -0.445 NA 
HETATM   12  N   UNK A   0     -10.580   7.428  66.879  1.00  0.00    -0.332 NA 
HETATM   13  H   UNK A   0     -10.153   9.053  64.666  1.00  0.00     0.000 HD 
HETATM   14  C   UNK A   0      -8.068   9.161  65.139  1.00  0.00    -0.130 A  
HETATM   15  C   UNK A   0      -7.325   8.589  66.166  1.00  0.00    -0.081 A  
ENDROOT
BRANCH  15  16
HETATM   16  C   UNK A   0      -5.865   8.795  66.417  1.00  0.00    -0.051 C  
BRANCH  16  17
HETATM   17  C   UNK A   0      -5.563   9.746  67.588  1.00  0.00    -0.036 C  
BRANCH  17  18
HETATM   18  C   UNK A   0      -6.656  10.772  67.832  1.00  0.00    -0.063 A  
HETATM   19  C   UNK A   0      -7.656  10.560  68.790  1.00  0.00    -0.101 A  
HETATM   20  C   UNK A   0      -8.721  11.451  68.919  1.00  0.00    -0.012 A  
HETATM   21  C   UNK A   0      -8.791  12.586  68.107  1.00  0.00    -0.191 A  
HETATM   22  C   UNK A   0      -7.738  12.879  67.239  1.00  0.00    -0.122 A  
HETATM   23  C   UNK A   0      -6.678  11.972  67.100  1.00  0.00    -0.136 A  
BRANCH  21  24
HETATM   24  C   UNK A   0     -10.014  13.437  68.123  1.00  0.00    -0.237 C  
HETATM   25  O   UNK A   0     -10.933  13.299  67.326  1.00  0.00    -0.261 OA 
ATOM     26  N   GLU A   1     -10.048  14.378  69.133  1.00  0.00    -0.398 N  
ATOM     27  H   GLU A   1      -9.258  14.447  69.775  1.00  0.00     0.000 HD 
BRANCH  26  28
ATOM     28  CA  GLU A   1     -11.182  15.273  69.305  1.00  0.00    -0.284 C  
ATOM     29  C   GLU A   1     -10.760  16.694  68.913  1.00  0.00    -0.337 C  
ATOM     30  O   GLU A   1     -10.947  16.969  67.602  1.00  0.00    -0.290 OA 
ATOM     31  OXT GLU A   1     -10.283  17.513  69.698  1.00  0.00    -0.088 OA 
BRANCH  28  32
ATOM     32  CB  GLU A   1     -11.685  15.245  70.755  1.00  0.00    -0.377 C  
BRANCH  32  33
ATOM     33  CG  GLU A   1     -13.196  15.457  70.835  1.00  0.00    -0.512 C  
ATOM     34  CD  GLU A   1     -13.753  14.876  72.106  1.00  0.00    -0.444 C  
ATOM     35  OE1 GLU A   1     -13.805  15.756  73.127  1.00  0.00    -0.508 OA 
ATOM     36  OE2 GLU A   1     -14.097  13.708  72.220  1.00  0.00    -0.535 OA 
ENDBRANCH  32  33
ENDBRANCH  28  32
ENDBRANCH  26  28
ENDBRANCH  21  24
ENDBRANCH  17  18
ENDBRANCH  16  17
ENDBRANCH  15  16
TORSDOF 7
ENDMDL
MODEL      199
REMARK 921   NORMALIZED FREE ENERGY PREDICTED BY IDOCK:   -3.92 KCAL/MOL
REMARK 922        TOTAL FREE ENERGY PREDICTED BY IDOCK:   -8.17 KCAL/MOL
REMARK 923 INTER-LIGAND FREE ENERGY PREDICTED BY IDOCK:   -7.69 KCAL/MOL
REMARK 924 INTRA-LIGAND FREE ENERGY PREDICTED BY IDOCK:   -0.48 KCAL/MOL
REMARK 927      BINDING AFFINITY PREDICTED BY RF-SCORE:    0.00 PKD
ROOT
HETATM    1  N   UNK A   0     -12.394   7.022  71.779  1.00  0.00    -0.343 NA 
HETATM    2  H1  UNK A   0     -12.183   7.453  72.679  1.00  0.00     0.000 HD 
HETATM    3  C   UNK A   0     -11.496   7.061  70.761  1.00  0.00    -0.318 C  
HETATM    4  H2  UNK A   0     -13.292   6.557  71.642  1.00  0.00     0.000 HD 
HETATM    5  N   UNK A   0     -11.766   6.512  69.614  1.00  0.00    -0.643 N  
HETATM    6  H   UNK A   0     -12.667   6.061  69.461  1.00  0.00     0.000 HD 
HETATM    7  C   UNK A   0     -10.814   6.544  68.591  1.00  0.00    -0.295 C  
HETATM    8  C   UNK A   0      -9.535   7.176  68.930  1.00  0.00    -0.142 A  
HETATM    9  O   UNK A   0     -11.020   6.073  67.480  1.00  0.00    -0.304 OA 
HETATM   10  C   UNK A   0      -9.369   7.726  70.172  1.00  0.00    -0.153 A  
HETATM   11  N   UNK A   0      -8.116   8.227  70.302  1.00  0.00    -0.102 NA 
HETATM   12  N   UNK A   0     -10.336   7.707  71.097  1.00  0.00    -0.200 NA 
HETATM   13  H   UNK A   0      -7.737   8.689  71.128  1.00  0.00     0.000 HD 
HETATM   14  C   UNK A   0      -7.446   8.002  69.122  1.00  0.00    -0.095 A  
HETATM   15  C   UNK A   0      -8.298   7.348  68.239  1.00  0.00    -0.125 A  
ENDROOT
BRANCH  15  16
HETATM   16  C   UNK A   0      -7.945   6.867  66.867  1.00  0.00    -0.109 C  
BRANCH  16  17
HETATM   17  C   UNK A   0      -8.767   7.525  65.746  1.00  0.00    -0.142 C  
BRANCH  17  18
HETATM   18  C   UNK A   0      -8.981   9.016  65.947  1.00  0.00    -0.233 A  
HETATM   19  C   UNK A   0      -7.915   9.922  65.883  1.00  0.00    -0.115 A  
HETATM   20  C   UNK A   0      -8.102  11.269  66.190  1.00  0.00    -0.065 A  
HETATM   21  C   UNK A   0      -9.370  11.740  66.544  1.00  0.00    -0.217 A  
HETATM   22  C   UNK A   0     -10.467  10.878  66.488  1.00  0.00    -0.308 A  
HETATM   23  C   UNK A   0     -10.270   9.520  66.195  1.00  0.00    -0.272 A  
BRANCH  21  24
HETATM   24  C   UNK A   0      -9.533  13.135  67.041  1.00  0.00    -0.242 C  
HETATM   25  O   UNK A   0     -10.380  13.454  67.866  1.00  0.00    -0.228 OA 
ATOM     26  N   GLU A   1      -8.628  14.041  66.525  1.00  0.00    -0.425 N  
ATOM     27  H   GLU A   1      -7.937  13.721  65.845  1.00  0.00     0.000 HD 
BRANCH  26  28
ATOM     28  CA  GLU A   1      -8.633  15.439  66.926  1.00  0.00    -0.259 C  
ATOM     29  C   GLU A   1      -7.814  15.592  68.213  1.00  0.00    -0.128 C  
ATOM     30  O   GLU A   1      -6.501  15.827  67.991  1.00  0.00    -0.116 OA 
ATOM     31  OXT GLU A   1      -8.287  15.500  69.346  1.00  0.00    -0.242 OA 
BRANCH  28  32
ATOM     32  CB  GLU A   1     -10.068  15.940  67.141  1.00  0.00    -0.264 C  
BRANCH  32  33
ATOM     33  CG  GLU A   1     -10.504  16.903  66.038  1.00  0.00    -0.297 C  
ATOM     34  CD  GLU A   1     -10.162  18.323  66.399  1.00  0.00    -0.403 C  
ATOM     35  OE1 GLU A   1      -8.951  18.718  65.952  1.00  0.00    -0.462 OA 
ATOM     36  OE2 GLU A   1     -10.891  19.045  67.062  1.00  0.00    -0.445 OA 
ENDBRANCH  32  33
ENDBRANCH  28  32
ENDBRANCH  26  28
ENDBRANCH  21  24
ENDBRANCH  17  18
ENDBRANCH  16  17
ENDBRANCH  15  16
TORSDOF 7
ENDMDL
MODEL      200
REMARK 921   NORMALIZED FREE ENERGY PREDICTED BY IDOCK:   -3.91 KCAL/MOL
REMARK 922        TOTAL FREE ENERGY PREDICTED BY IDOCK:   -8.15 KCAL/MOL
REMARK 923 INTER-LIGAND FREE ENERGY PREDICTED BY IDOCK:   -6.65 KCAL/MOL
REMARK 924 INTRA-LIGAND FREE ENERGY PREDICTED BY IDOCK:   -1.50 KCAL/MOL
REMARK 927      BINDING AFFINITY PREDICTED BY RF-SCORE:    0.00 PKD
ROOT
HETATM    1  N   UNK A   0     -10.857  11.383  62.857  1.00  0.00    -0.771 NA 
HETATM    2  H1  UNK A   0     -11.760  11.803  63.075  1.00  0.00     0.000 HD 
HETATM    3  C   UNK A   0     -10.089  10.838  63.834  1.00  0.00    -0.333 C  
HETATM    4  H2  UNK A   0     -10.526  11.374  61.891  1.00  0.00     0.000 HD 
HETATM    5  N   UNK A   0      -8.937  10.302  63.556  1.00  0.00    -0.218 N  
HETATM    6  H   UNK A   0      -8.589  10.305  62.597  1.00  0.00     0.000 HD 
HETATM    7  C   UNK A   0      -8.178   9.725  64.577  1.00  0.00    -0.156 C  
HETATM    8  C   UNK A   0      -8.790   9.734  65.909  1.00  0.00    -0.175 A  
HETATM    9  O   UNK A   0      -7.073   9.234  64.383  1.00  0.00    -0.090 OA 
HETATM   10  C   UNK A   0     -10.008  10.332  66.082  1.00  0.00    -0.238 A  
HETATM   11  N   UNK A   0     -10.417  10.206  67.368  1.00  0.00    -0.238 NA 
HETATM   12  N   UNK A   0     -10.668  10.914  65.073  1.00  0.00    -0.206 NA 
HETATM   13  H   UNK A   0     -11.288  10.564  67.759  1.00  0.00     0.000 HD 
HETATM   14  C   UNK A   0      -9.448   9.512  68.054  1.00  0.00    -0.132 A  
HETATM   15  C   UNK A   0      -8.414   9.198  67.178  1.00  0.00    -0.120 A  
ENDROOT
BRANCH  15  16
HETATM   16  C   UNK A   0      -7.194   8.397  67.505  1.00  0.00    -0.088 C  
BRANCH  16  17
HETATM   17  C   UNK A   0      -5.890   9.212  67.481  1.00  0.00    -0.046 C  
BRANCH  17  18
HETATM   18  C   UNK A   0      -6.066  10.650  67.940  1.00  0.00    -0.050 A  
HETATM   19  C   UNK A   0      -6.253  10.968  69.291  1.00  0.00    -0.059 A  
HETATM   20  C   UNK A   0      -6.535  12.275  69.685  1.00  0.00    -0.073 A  
HETATM   21  C   UNK A   0      -6.610  13.296  68.733  1.00  0.00    -0.099 A  
HETATM   22  C   UNK A   0      -6.300  13.020  67.400  1.00  0.00    -0.096 A  
HETATM   23  C   UNK A   0      -6.033  11.701  67.006  1.00  0.00    -0.138 A  
BRANCH  21  24
HETATM   24  C   UNK A   0      -7.085  14.651  69.131  1.00  0.00    -0.135 C  
HETATM   25  O   UNK A   0      -6.486  15.359  69.931  1.00  0.00    -0.161 OA 
ATOM     26  N   GLU A   1      -8.240  15.066  68.499  1.00  0.00    -0.143 N  
ATOM     27  H   GLU A   1      -8.696  14.439  67.836  1.00  0.00     0.000 HD 
BRANCH  26  28
ATOM     28  CA  GLU A   1      -8.824  16.374  68.755  1.00  0.00    -0.246 C  
ATOM     29  C   GLU A   1     -10.332  16.212  68.977  1.00  0.00    -0.258 C  
ATOM     30  O   GLU A   1     -10.665  15.988  70.269  1.00  0.00    -0.311 OA 
ATOM     31  OXT GLU A   1     -11.171  16.265  68.078  1.00  0.00    -0.334 OA 
BRANCH  28  32
ATOM     32  CB  GLU A   1      -8.554  17.331  67.586  1.00  0.00    -0.218 C  
BRANCH  32  33
ATOM     33  CG  GLU A   1      -8.203  18.736  68.073  1.00  0.00    -0.317 C  
ATOM     34  CD  GLU A   1      -9.412  19.631  68.044  1.00  0.00    -0.354 C  
ATOM     35  OE1 GLU A   1     -10.102  19.647  69.204  1.00  0.00    -0.438 OA 
ATOM     36  OE2 GLU A   1      -9.762  20.260  67.057  1.00  0.00    -0.409 OA 
ENDBRANCH  32  33
ENDBRANCH  28  32
ENDBRANCH  26  28
ENDBRANCH  21  24
ENDBRANCH  17  18
ENDBRANCH  16  17
ENDBRANCH  15  16
TORSDOF 7
ENDMDL
MODEL      201
REMARK 921   NORMALIZED FREE ENERGY PREDICTED BY IDOCK:   -3.90 KCAL/MOL
REMARK 922        TOTAL FREE ENERGY PREDICTED BY IDOCK:   -8.14 KCAL/MOL
REMARK 923 INTER-LIGAND FREE ENERGY PREDICTED BY IDOCK:   -7.35 KCAL/MOL
REMARK 924 INTRA-LIGAND FREE ENERGY PREDICTED BY IDOCK:   -0.80 KCAL/MOL
REMARK 927      BINDING AFFINITY PREDICTED BY RF-SCORE:    0.00 PKD
ROOT
HETATM    1  N   UNK A   0      -6.055   5.144  73.079  1.00  0.00    -0.030 NA 
HETATM    2  H1  UNK A   0      -5.512   4.523  72.481  1.00  0.00     0.000 HD 
HETATM    3  C   UNK A   0      -7.165   5.768  72.607  1.00  0.00    -0.090 C  
HETATM    4  H2  UNK A   0      -5.762   5.299  74.044  1.00  0.00     0.000 HD 
HETATM    5  N   UNK A   0      -7.859   6.561  73.370  1.00  0.00    -0.092 N  
HETATM    6  H   UNK A   0      -7.563   6.736  74.330  1.00  0.00     0.000 HD 
HETATM    7  C   UNK A   0      -9.011   7.170  72.867  1.00  0.00    -0.131 C  
HETATM    8  C   UNK A   0      -9.373   6.814  71.492  1.00  0.00    -0.153 A  
HETATM    9  O   UNK A   0      -9.688   7.950  73.526  1.00  0.00    -0.290 OA 
HETATM   10  C   UNK A   0      -8.561   5.971  70.783  1.00  0.00    -0.135 A  
HETATM   11  N   UNK A   0      -9.081   5.739  69.553  1.00  0.00    -0.129 NA 
HETATM   12  N   UNK A   0      -7.440   5.454  71.302  1.00  0.00    -0.090 NA 
HETATM   13  H   UNK A   0      -8.671   5.147  68.831  1.00  0.00     0.000 HD 
HETATM   14  C   UNK A   0     -10.257   6.444  69.451  1.00  0.00    -0.192 A  
HETATM   15  C   UNK A   0     -10.476   7.129  70.642  1.00  0.00    -0.226 A  
ENDROOT
BRANCH  15  16
HETATM   16  C   UNK A   0     -11.671   7.966  70.970  1.00  0.00    -0.293 C  
BRANCH  16  17
HETATM   17  C   UNK A   0     -11.327   9.412  71.367  1.00  0.00    -0.451 C  
BRANCH  17  18
HETATM   18  C   UNK A   0     -10.736  10.228  70.230  1.00  0.00    -0.310 A  
HETATM   19  C   UNK A   0      -9.389  10.103  69.864  1.00  0.00    -0.134 A  
HETATM   20  C   UNK A   0      -8.829  10.943  68.903  1.00  0.00    -0.143 A  
HETATM   21  C   UNK A   0      -9.614  11.910  68.270  1.00  0.00    -0.201 A  
HETATM   22  C   UNK A   0     -10.986  11.963  68.528  1.00  0.00    -0.277 A  
HETATM   23  C   UNK A   0     -11.541  11.127  69.508  1.00  0.00    -0.392 A  
BRANCH  21  24
HETATM   24  C   UNK A   0      -8.977  12.919  67.378  1.00  0.00    -0.199 C  
HETATM   25  O   UNK A   0      -7.789  12.894  67.085  1.00  0.00    -0.156 OA 
ATOM     26  N   GLU A   1      -9.842  13.872  66.875  1.00  0.00    -0.260 N  
ATOM     27  H   GLU A   1     -10.825  13.843  67.146  1.00  0.00     0.000 HD 
BRANCH  26  28
ATOM     28  CA  GLU A   1      -9.386  14.915  65.969  1.00  0.00    -0.241 C  
ATOM     29  C   GLU A   1      -9.430  16.263  66.698  1.00  0.00    -0.248 C  
ATOM     30  O   GLU A   1      -8.286  16.557  67.355  1.00  0.00    -0.156 OA 
ATOM     31  OXT GLU A   1     -10.408  17.011  66.705  1.00  0.00    -0.309 OA 
BRANCH  28  32
ATOM     32  CB  GLU A   1     -10.257  14.960  64.706  1.00  0.00    -0.153 C  
BRANCH  32  33
ATOM     33  CG  GLU A   1     -11.736  14.754  65.029  1.00  0.00    -0.364 C  
ATOM     34  CD  GLU A   1     -12.316  13.640  64.202  1.00  0.00    -0.330 C  
ATOM     35  OE1 GLU A   1     -12.252  12.432  64.801  1.00  0.00    -0.429 OA 
ATOM     36  OE2 GLU A   1     -12.774  13.799  63.080  1.00  0.00    -0.743 OA 
ENDBRANCH  32  33
ENDBRANCH  28  32
ENDBRANCH  26  28
ENDBRANCH  21  24
ENDBRANCH  17  18
ENDBRANCH  16  17
ENDBRANCH  15  16
TORSDOF 7
ENDMDL
MODEL      202
REMARK 921   NORMALIZED FREE ENERGY PREDICTED BY IDOCK:   -3.88 KCAL/MOL
REMARK 922        TOTAL FREE ENERGY PREDICTED BY IDOCK:   -8.11 KCAL/MOL
REMARK 923 INTER-LIGAND FREE ENERGY PREDICTED BY IDOCK:   -7.01 KCAL/MOL
REMARK 924 INTRA-LIGAND FREE ENERGY PREDICTED BY IDOCK:   -1.10 KCAL/MOL
REMARK 927      BINDING AFFINITY PREDICTED BY RF-SCORE:    0.00 PKD
ROOT
HETATM    1  N   UNK A   0      -6.549  20.259  69.682  1.00  0.00    -0.242 NA 
HETATM    2  H1  UNK A   0      -5.647  20.099  70.129  1.00  0.00     0.000 HD 
HETATM    3  C   UNK A   0      -7.134  19.291  68.930  1.00  0.00    -0.350 C  
HETATM    4  H2  UNK A   0      -7.018  21.157  69.801  1.00  0.00     0.000 HD 
HETATM    5  N   UNK A   0      -8.285  19.495  68.360  1.00  0.00    -0.342 N  
HETATM    6  H   UNK A   0      -8.753  20.396  68.458  1.00  0.00     0.000 HD 
HETATM    7  C   UNK A   0      -8.877  18.474  67.612  1.00  0.00    -0.271 C  
HETATM    8  C   UNK A   0      -8.144  17.205  67.574  1.00  0.00    -0.196 A  
HETATM    9  O   UNK A   0      -9.943  18.616  67.027  1.00  0.00    -0.310 OA 
HETATM   10  C   UNK A   0      -6.936  17.110  68.209  1.00  0.00    -0.187 A  
HETATM   11  N   UNK A   0      -6.436  15.856  68.087  1.00  0.00    -0.119 NA 
HETATM   12  N   UNK A   0      -6.394  18.140  68.871  1.00  0.00    -0.216 NA 
HETATM   13  H   UNK A   0      -5.551  15.523  68.468  1.00  0.00     0.000 HD 
HETATM   14  C   UNK A   0      -7.333  15.113  67.356  1.00  0.00    -0.205 A  
HETATM   15  C   UNK A   0      -8.414  15.919  67.016  1.00  0.00    -0.248 A  
ENDROOT
BRANCH  15  16
HETATM   16  C   UNK A   0      -9.638  15.485  66.274  1.00  0.00    -0.338 C  
BRANCH  16  17
HETATM   17  C   UNK A   0     -10.649  14.713  67.139  1.00  0.00    -0.282 C  
BRANCH  17  18
HETATM   18  C   UNK A   0     -10.393  13.216  67.179  1.00  0.00    -0.247 A  
HETATM   19  C   UNK A   0     -10.642  12.402  66.066  1.00  0.00    -0.286 A  
HETATM   20  C   UNK A   0     -10.520  11.016  66.153  1.00  0.00    -0.301 A  
HETATM   21  C   UNK A   0     -10.122  10.419  67.352  1.00  0.00    -0.237 A  
HETATM   22  C   UNK A   0      -9.746  11.221  68.431  1.00  0.00    -0.194 A  
HETATM   23  C   UNK A   0      -9.886  12.614  68.344  1.00  0.00    -0.200 A  
BRANCH  21  24
HETATM   24  C   UNK A   0     -10.164   8.937  67.495  1.00  0.00    -0.248 C  
HETATM   25  O   UNK A   0     -10.122   8.173  66.538  1.00  0.00    -0.267 OA 
ATOM     26  N   GLU A   1     -10.219   8.484  68.798  1.00  0.00    -0.198 N  
ATOM     27  H   GLU A   1     -10.245   9.164  69.559  1.00  0.00     0.000 HD 
BRANCH  26  28
ATOM     28  CA  GLU A   1     -10.240   7.064  69.114  1.00  0.00    -0.187 C  
ATOM     29  C   GLU A   1     -10.926   6.865  70.471  1.00  0.00    -0.273 C  
ATOM     30  O   GLU A   1     -12.265   6.701  70.379  1.00  0.00    -0.332 OA 
ATOM     31  OXT GLU A   1     -10.333   6.866  71.550  1.00  0.00    -0.203 OA 
BRANCH  28  32
ATOM     32  CB  GLU A   1      -8.817   6.489  69.143  1.00  0.00    -0.128 C  
BRANCH  32  33
ATOM     33  CG  GLU A   1      -8.724   5.168  68.383  1.00  0.00    -0.104 C  
ATOM     34  CD  GLU A   1      -8.506   4.019  69.328  1.00  0.00    -0.076 C  
ATOM     35  OE1 GLU A   1      -9.649   3.436  69.745  1.00  0.00    -0.175 OA 
ATOM     36  OE2 GLU A   1      -7.402   3.662  69.713  1.00  0.00    -0.045 OA 
ENDBRANCH  32  33
ENDBRANCH  28  32
ENDBRANCH  26  28
ENDBRANCH  21  24
ENDBRANCH  17  18
ENDBRANCH  16  17
ENDBRANCH  15  16
TORSDOF 7
ENDMDL
MODEL      203
REMARK 921   NORMALIZED FREE ENERGY PREDICTED BY IDOCK:   -3.87 KCAL/MOL
REMARK 922        TOTAL FREE ENERGY PREDICTED BY IDOCK:   -8.10 KCAL/MOL
REMARK 923 INTER-LIGAND FREE ENERGY PREDICTED BY IDOCK:   -6.26 KCAL/MOL
REMARK 924 INTRA-LIGAND FREE ENERGY PREDICTED BY IDOCK:   -1.85 KCAL/MOL
REMARK 927      BINDING AFFINITY PREDICTED BY RF-SCORE:    0.00 PKD
ROOT
HETATM    1  N   UNK A   0     -10.538  11.920  64.825  1.00  0.00    -0.285 NA 
HETATM    2  H1  UNK A   0     -11.534  11.736  64.941  1.00  0.00     0.000 HD 
HETATM    3  C   UNK A   0      -9.619  10.952  65.077  1.00  0.00    -0.251 C  
HETATM    4  H2  UNK A   0     -10.228  12.841  64.516  1.00  0.00     0.000 HD 
HETATM    5  N   UNK A   0      -8.348  11.186  64.928  1.00  0.00    -0.362 N  
HETATM    6  H   UNK A   0      -8.028  12.110  64.638  1.00  0.00     0.000 HD 
HETATM    7  C   UNK A   0      -7.425  10.166  65.170  1.00  0.00    -0.141 C  
HETATM    8  C   UNK A   0      -7.993   8.865  65.536  1.00  0.00    -0.107 A  
HETATM    9  O   UNK A   0      -6.216  10.333  65.077  1.00  0.00    -0.116 OA 
HETATM   10  C   UNK A   0      -9.349   8.740  65.667  1.00  0.00    -0.150 A  
HETATM   11  N   UNK A   0      -9.677   7.462  65.976  1.00  0.00    -0.419 NA 
HETATM   12  N   UNK A   0     -10.184   9.768  65.470  1.00  0.00    -0.178 NA 
HETATM   13  H   UNK A   0     -10.620   7.104  66.127  1.00  0.00     0.000 HD 
HETATM   14  C   UNK A   0      -8.514   6.733  66.050  1.00  0.00    -0.142 A  
HETATM   15  C   UNK A   0      -7.439   7.573  65.781  1.00  0.00    -0.079 A  
ENDROOT
BRANCH  15  16
HETATM   16  C   UNK A   0      -6.001   7.166  65.702  1.00  0.00    -0.037 C  
BRANCH  16  17
HETATM   17  C   UNK A   0      -5.172   7.569  66.933  1.00  0.00    -0.023 C  
BRANCH  17  18
HETATM   18  C   UNK A   0      -6.016   7.887  68.155  1.00  0.00    -0.041 A  
HETATM   19  C   UNK A   0      -6.616   6.872  68.912  1.00  0.00    -0.044 A  
HETATM   20  C   UNK A   0      -7.488   7.180  69.956  1.00  0.00    -0.086 A  
HETATM   21  C   UNK A   0      -7.756   8.513  70.279  1.00  0.00    -0.077 A  
HETATM   22  C   UNK A   0      -7.068   9.534  69.619  1.00  0.00    -0.072 A  
HETATM   23  C   UNK A   0      -6.206   9.220  68.559  1.00  0.00    -0.049 A  
BRANCH  21  24
HETATM   24  C   UNK A   0      -8.817   8.839  71.271  1.00  0.00    -0.226 C  
HETATM   25  O   UNK A   0      -8.617   8.862  72.479  1.00  0.00    -0.396 OA 
ATOM     26  N   GLU A   1     -10.045   9.152  70.722  1.00  0.00    -0.245 N  
ATOM     27  H   GLU A   1     -10.156   9.125  69.708  1.00  0.00     0.000 HD 
BRANCH  26  28
ATOM     28  CA  GLU A   1     -11.182   9.519  71.551  1.00  0.00    -0.367 C  
ATOM     29  C   GLU A   1     -12.015   8.264  71.838  1.00  0.00    -0.330 C  
ATOM     30  O   GLU A   1     -11.623   7.600  72.949  1.00  0.00    -0.325 OA 
ATOM     31  OXT GLU A   1     -12.944   7.876  71.130  1.00  0.00    -0.229 OA 
BRANCH  28  32
ATOM     32  CB  GLU A   1     -12.042  10.585  70.858  1.00  0.00    -0.487 C  
BRANCH  32  33
ATOM     33  CG  GLU A   1     -11.965  10.475  69.337  1.00  0.00    -0.230 C  
ATOM     34  CD  GLU A   1     -11.261  11.667  68.747  1.00  0.00    -0.245 C  
ATOM     35  OE1 GLU A   1      -9.931  11.493  68.600  1.00  0.00    -0.210 OA 
ATOM     36  OE2 GLU A   1     -11.828  12.711  68.459  1.00  0.00    -0.306 OA 
ENDBRANCH  32  33
ENDBRANCH  28  32
ENDBRANCH  26  28
ENDBRANCH  21  24
ENDBRANCH  17  18
ENDBRANCH  16  17
ENDBRANCH  15  16
TORSDOF 7
ENDMDL
MODEL      204
REMARK 921   NORMALIZED FREE ENERGY PREDICTED BY IDOCK:   -3.87 KCAL/MOL
REMARK 922        TOTAL FREE ENERGY PREDICTED BY IDOCK:   -8.09 KCAL/MOL
REMARK 923 INTER-LIGAND FREE ENERGY PREDICTED BY IDOCK:   -6.62 KCAL/MOL
REMARK 924 INTRA-LIGAND FREE ENERGY PREDICTED BY IDOCK:   -1.47 KCAL/MOL
REMARK 927      BINDING AFFINITY PREDICTED BY RF-SCORE:    0.00 PKD
ROOT
HETATM    1  N   UNK A   0     -11.902   6.426  69.984  1.00  0.00    -0.504 NA 
HETATM    2  H1  UNK A   0     -12.265   6.715  70.892  1.00  0.00     0.000 HD 
HETATM    3  C   UNK A   0     -10.645   6.763  69.597  1.00  0.00    -0.233 C  
HETATM    4  H2  UNK A   0     -12.491   5.876  69.358  1.00  0.00     0.000 HD 
HETATM    5  N   UNK A   0     -10.182   6.393  68.439  1.00  0.00    -0.160 N  
HETATM    6  H   UNK A   0     -10.771   5.860  67.799  1.00  0.00     0.000 HD 
HETATM    7  C   UNK A   0      -8.876   6.732  68.076  1.00  0.00    -0.119 C  
HETATM    8  C   UNK A   0      -8.102   7.459  69.087  1.00  0.00    -0.120 A  
HETATM    9  O   UNK A   0      -8.395   6.440  66.989  1.00  0.00    -0.112 OA 
HETATM   10  C   UNK A   0      -8.698   7.798  70.271  1.00  0.00    -0.143 A  
HETATM   11  N   UNK A   0      -7.814   8.432  71.080  1.00  0.00    -0.090 NA 
HETATM   12  N   UNK A   0      -9.971   7.489  70.544  1.00  0.00    -0.184 NA 
HETATM   13  H   UNK A   0      -8.005   8.787  72.016  1.00  0.00     0.000 HD 
HETATM   14  C   UNK A   0      -6.613   8.510  70.414  1.00  0.00    -0.036 A  
HETATM   15  C   UNK A   0      -6.751   7.914  69.165  1.00  0.00    -0.048 A  
ENDROOT
BRANCH  15  16
HETATM   16  C   UNK A   0      -5.667   7.733  68.150  1.00  0.00    -0.032 C  
BRANCH  16  17
HETATM   17  C   UNK A   0      -5.846   8.596  66.889  1.00  0.00    -0.049 C  
BRANCH  17  18
HETATM   18  C   UNK A   0      -6.462   9.956  67.168  1.00  0.00    -0.069 A  
HETATM   19  C   UNK A   0      -7.821  10.204  66.937  1.00  0.00    -0.107 A  
HETATM   20  C   UNK A   0      -8.349  11.487  67.080  1.00  0.00    -0.165 A  
HETATM   21  C   UNK A   0      -7.527  12.543  67.482  1.00  0.00    -0.151 A  
HETATM   22  C   UNK A   0      -6.202  12.290  67.840  1.00  0.00    -0.089 A  
HETATM   23  C   UNK A   0      -5.672  11.001  67.679  1.00  0.00    -0.043 A  
BRANCH  21  24
HETATM   24  C   UNK A   0      -8.048  13.939  67.462  1.00  0.00    -0.182 C  
HETATM   25  O   UNK A   0      -7.343  14.917  67.678  1.00  0.00    -0.153 OA 
ATOM     26  N   GLU A   1      -9.387  14.051  67.144  1.00  0.00    -0.232 N  
ATOM     27  H   GLU A   1      -9.928  13.204  66.966  1.00  0.00     0.000 HD 
BRANCH  26  28
ATOM     28  CA  GLU A   1     -10.046  15.345  67.057  1.00  0.00    -0.249 C  
ATOM     29  C   GLU A   1     -10.967  15.518  68.270  1.00  0.00    -0.305 C  
ATOM     30  O   GLU A   1     -10.354  16.082  69.336  1.00  0.00    -0.234 OA 
ATOM     31  OXT GLU A   1     -12.148  15.171  68.294  1.00  0.00    -0.226 OA 
BRANCH  28  32
ATOM     32  CB  GLU A   1     -10.849  15.462  65.754  1.00  0.00    -0.349 C  
BRANCH  32  33
ATOM     33  CG  GLU A   1     -10.751  14.192  64.912  1.00  0.00    -0.444 C  
ATOM     34  CD  GLU A   1     -12.105  13.561  64.733  1.00  0.00    -0.404 C  
ATOM     35  OE1 GLU A   1     -12.753  13.974  63.624  1.00  0.00    -0.778 OA 
ATOM     36  OE2 GLU A   1     -12.594  12.774  65.531  1.00  0.00    -0.611 OA 
ENDBRANCH  32  33
ENDBRANCH  28  32
ENDBRANCH  26  28
ENDBRANCH  21  24
ENDBRANCH  17  18
ENDBRANCH  16  17
ENDBRANCH  15  16
TORSDOF 7
ENDMDL
MODEL      205
REMARK 921   NORMALIZED FREE ENERGY PREDICTED BY IDOCK:   -3.87 KCAL/MOL
REMARK 922        TOTAL FREE ENERGY PREDICTED BY IDOCK:   -8.09 KCAL/MOL
REMARK 923 INTER-LIGAND FREE ENERGY PREDICTED BY IDOCK:   -6.43 KCAL/MOL
REMARK 924 INTRA-LIGAND FREE ENERGY PREDICTED BY IDOCK:   -1.66 KCAL/MOL
REMARK 927      BINDING AFFINITY PREDICTED BY RF-SCORE:    0.00 PKD
ROOT
HETATM    1  N   UNK A   0     -10.504  13.365  66.247  1.00  0.00    -0.284 NA 
HETATM    2  H1  UNK A   0     -11.252  13.555  66.913  1.00  0.00     0.000 HD 
HETATM    3  C   UNK A   0     -10.021  12.107  66.083  1.00  0.00    -0.233 C  
HETATM    4  H2  UNK A   0     -10.113  14.131  65.697  1.00  0.00     0.000 HD 
HETATM    5  N   UNK A   0      -9.067  11.865  65.234  1.00  0.00    -0.414 N  
HETATM    6  H   UNK A   0      -8.657  12.627  64.693  1.00  0.00     0.000 HD 
HETATM    7  C   UNK A   0      -8.605  10.557  65.066  1.00  0.00    -0.176 C  
HETATM    8  C   UNK A   0      -9.294   9.532  65.856  1.00  0.00    -0.285 A  
HETATM    9  O   UNK A   0      -7.690  10.271  64.305  1.00  0.00    -0.152 OA 
HETATM   10  C   UNK A   0     -10.283   9.908  66.724  1.00  0.00    -0.236 A  
HETATM   11  N   UNK A   0     -10.815   8.819  67.332  1.00  0.00    -0.451 NA 
HETATM   12  N   UNK A   0     -10.650  11.185  66.878  1.00  0.00    -0.246 NA 
HETATM   13  H   UNK A   0     -11.566   8.825  68.022  1.00  0.00     0.000 HD 
HETATM   14  C   UNK A   0     -10.163   7.707  66.855  1.00  0.00    -0.294 A  
HETATM   15  C   UNK A   0      -9.204   8.109  65.931  1.00  0.00    -0.158 A  
ENDROOT
BRANCH  15  16
HETATM   16  C   UNK A   0      -8.316   7.208  65.134  1.00  0.00    -0.081 C  
BRANCH  16  17
HETATM   17  C   UNK A   0      -7.010   6.827  65.852  1.00  0.00    -0.064 C  
BRANCH  17  18
HETATM   18  C   UNK A   0      -7.152   6.743  67.362  1.00  0.00    -0.084 A  
HETATM   19  C   UNK A   0      -7.586   5.569  67.991  1.00  0.00    -0.081 A  
HETATM   20  C   UNK A   0      -7.829   5.542  69.364  1.00  0.00    -0.087 A  
HETATM   21  C   UNK A   0      -7.618   6.685  70.138  1.00  0.00    -0.096 A  
HETATM   22  C   UNK A   0      -7.063   7.824  69.550  1.00  0.00    -0.063 A  
HETATM   23  C   UNK A   0      -6.836   7.852  68.166  1.00  0.00    -0.068 A  
BRANCH  21  24
HETATM   24  C   UNK A   0      -8.045   6.707  71.565  1.00  0.00    -0.111 C  
HETATM   25  O   UNK A   0      -7.253   6.748  72.498  1.00  0.00    -0.075 OA 
ATOM     26  N   GLU A   1      -9.413   6.714  71.758  1.00  0.00    -0.152 N  
ATOM     27  H   GLU A   1     -10.029   6.686  70.945  1.00  0.00     0.000 HD 
BRANCH  26  28
ATOM     28  CA  GLU A   1      -9.997   6.760  73.089  1.00  0.00    -0.192 C  
ATOM     29  C   GLU A   1     -10.493   5.359  73.465  1.00  0.00    -0.247 C  
ATOM     30  O   GLU A   1      -9.555   4.601  74.076  1.00  0.00    -0.119 OA 
ATOM     31  OXT GLU A   1     -11.627   4.943  73.228  1.00  0.00    -0.336 OA 
BRANCH  28  32
ATOM     32  CB  GLU A   1     -11.151   7.770  73.146  1.00  0.00    -0.336 C  
BRANCH  32  33
ATOM     33  CG  GLU A   1     -11.767   8.004  71.768  1.00  0.00    -0.335 C  
ATOM     34  CD  GLU A   1     -11.495   9.403  71.288  1.00  0.00    -0.363 C  
ATOM     35  OE1 GLU A   1     -10.369   9.514  70.551  1.00  0.00    -0.248 OA 
ATOM     36  OE2 GLU A   1     -12.203  10.360  71.563  1.00  0.00    -0.367 OA 
ENDBRANCH  32  33
ENDBRANCH  28  32
ENDBRANCH  26  28
ENDBRANCH  21  24
ENDBRANCH  17  18
ENDBRANCH  16  17
ENDBRANCH  15  16
TORSDOF 7
ENDMDL
MODEL      206
REMARK 921   NORMALIZED FREE ENERGY PREDICTED BY IDOCK:   -3.86 KCAL/MOL
REMARK 922        TOTAL FREE ENERGY PREDICTED BY IDOCK:   -8.09 KCAL/MOL
REMARK 923 INTER-LIGAND FREE ENERGY PREDICTED BY IDOCK:   -6.44 KCAL/MOL
REMARK 924 INTRA-LIGAND FREE ENERGY PREDICTED BY IDOCK:   -1.65 KCAL/MOL
REMARK 927      BINDING AFFINITY PREDICTED BY RF-SCORE:    0.00 PKD
ROOT
HETATM    1  N   UNK A   0     -10.722  15.315  70.468  1.00  0.00    -0.484 NA 
HETATM    2  H1  UNK A   0     -11.672  15.346  70.836  1.00  0.00     0.000 HD 
HETATM    3  C   UNK A   0     -10.415  14.534  69.401  1.00  0.00    -0.123 C  
HETATM    4  H2  UNK A   0      -9.994  15.879  70.907  1.00  0.00     0.000 HD 
HETATM    5  N   UNK A   0      -9.202  14.495  68.931  1.00  0.00    -0.323 N  
HETATM    6  H   UNK A   0      -8.463  15.040  69.375  1.00  0.00     0.000 HD 
HETATM    7  C   UNK A   0      -8.918  13.702  67.817  1.00  0.00    -0.196 C  
HETATM    8  C   UNK A   0     -10.060  12.997  67.228  1.00  0.00    -0.235 A  
HETATM    9  O   UNK A   0      -7.792  13.600  67.348  1.00  0.00    -0.166 OA 
HETATM   10  C   UNK A   0     -11.291  13.110  67.815  1.00  0.00    -0.290 A  
HETATM   11  N   UNK A   0     -12.216  12.415  67.107  1.00  0.00    -0.418 NA 
HETATM   12  N   UNK A   0     -11.495  13.848  68.913  1.00  0.00    -0.279 NA 
HETATM   13  H   UNK A   0     -13.208  12.338  67.331  1.00  0.00     0.000 HD 
HETATM   14  C   UNK A   0     -11.580  11.834  66.036  1.00  0.00    -0.134 A  
HETATM   15  C   UNK A   0     -10.232  12.173  66.075  1.00  0.00    -0.265 A  
ENDROOT
BRANCH  15  16
HETATM   16  C   UNK A   0      -9.199  11.796  65.061  1.00  0.00     0.103 C  
BRANCH  16  17
HETATM   17  C   UNK A   0      -8.126  10.832  65.596  1.00  0.00    -0.112 C  
BRANCH  17  18
HETATM   18  C   UNK A   0      -8.686   9.730  66.477  1.00  0.00    -0.139 A  
HETATM   19  C   UNK A   0      -9.510   8.724  65.955  1.00  0.00    -0.302 A  
HETATM   20  C   UNK A   0     -10.117   7.790  66.793  1.00  0.00    -0.341 A  
HETATM   21  C   UNK A   0      -9.891   7.831  68.172  1.00  0.00    -0.190 A  
HETATM   22  C   UNK A   0      -8.972   8.744  68.694  1.00  0.00    -0.138 A  
HETATM   23  C   UNK A   0      -8.377   9.692  67.849  1.00  0.00    -0.117 A  
BRANCH  21  24
HETATM   24  C   UNK A   0     -10.675   6.949  69.081  1.00  0.00    -0.234 C  
HETATM   25  O   UNK A   0     -11.482   6.122  68.675  1.00  0.00    -0.223 OA 
ATOM     26  N   GLU A   1     -10.397   7.111  70.424  1.00  0.00    -0.201 N  
ATOM     27  H   GLU A   1      -9.710   7.811  70.708  1.00  0.00     0.000 HD 
BRANCH  26  28
ATOM     28  CA  GLU A   1     -11.057   6.311  71.443  1.00  0.00    -0.284 C  
ATOM     29  C   GLU A   1     -11.660   7.245  72.498  1.00  0.00    -0.245 C  
ATOM     30  O   GLU A   1     -12.923   7.635  72.214  1.00  0.00    -0.150 OA 
ATOM     31  OXT GLU A   1     -11.062   7.625  73.505  1.00  0.00    -0.315 OA 
BRANCH  28  32
ATOM     32  CB  GLU A   1     -10.069   5.333  72.095  1.00  0.00    -0.241 C  
BRANCH  32  33
ATOM     33  CG  GLU A   1     -10.008   4.004  71.344  1.00  0.00    -0.210 C  
ATOM     34  CD  GLU A   1      -8.708   3.868  70.600  1.00  0.00    -0.073 C  
ATOM     35  OE1 GLU A   1      -7.740   3.251  71.309  1.00  0.00    -0.046 OA 
ATOM     36  OE2 GLU A   1      -8.527   4.303  69.472  1.00  0.00    -0.070 OA 
ENDBRANCH  32  33
ENDBRANCH  28  32
ENDBRANCH  26  28
ENDBRANCH  21  24
ENDBRANCH  17  18
ENDBRANCH  16  17
ENDBRANCH  15  16
TORSDOF 7
ENDMDL
MODEL      207
REMARK 921   NORMALIZED FREE ENERGY PREDICTED BY IDOCK:   -3.86 KCAL/MOL
REMARK 922        TOTAL FREE ENERGY PREDICTED BY IDOCK:   -8.09 KCAL/MOL
REMARK 923 INTER-LIGAND FREE ENERGY PREDICTED BY IDOCK:   -7.32 KCAL/MOL
REMARK 924 INTRA-LIGAND FREE ENERGY PREDICTED BY IDOCK:   -0.76 KCAL/MOL
REMARK 927      BINDING AFFINITY PREDICTED BY RF-SCORE:    0.00 PKD
ROOT
HETATM    1  N   UNK A   0      -7.342  10.754  69.415  1.00  0.00    -0.132 NA 
HETATM    2  H1  UNK A   0      -6.366  10.651  69.137  1.00  0.00     0.000 HD 
HETATM    3  C   UNK A   0      -8.313  10.943  68.485  1.00  0.00    -0.142 C  
HETATM    4  H2  UNK A   0      -7.591  10.715  70.403  1.00  0.00     0.000 HD 
HETATM    5  N   UNK A   0      -9.558  11.075  68.839  1.00  0.00    -0.291 N  
HETATM    6  H   UNK A   0      -9.814  11.055  69.826  1.00  0.00     0.000 HD 
HETATM    7  C   UNK A   0     -10.541  11.243  67.860  1.00  0.00    -0.194 C  
HETATM    8  C   UNK A   0     -10.071  11.209  66.472  1.00  0.00    -0.265 A  
HETATM    9  O   UNK A   0     -11.724  11.403  68.132  1.00  0.00    -0.459 OA 
HETATM   10  C   UNK A   0      -8.733  11.071  66.222  1.00  0.00    -0.176 A  
HETATM   11  N   UNK A   0      -8.505  11.028  64.886  1.00  0.00    -0.377 NA 
HETATM   12  N   UNK A   0      -7.829  10.962  67.203  1.00  0.00    -0.122 NA 
HETATM   13  H   UNK A   0      -7.596  10.930  64.435  1.00  0.00     0.000 HD 
HETATM   14  C   UNK A   0      -9.717  11.142  64.246  1.00  0.00    -0.271 A  
HETATM   15  C   UNK A   0     -10.721  11.257  65.202  1.00  0.00    -0.312 A  
ENDROOT
BRANCH  15  16
HETATM   16  C   UNK A   0     -12.189  11.343  64.932  1.00  0.00     0.825 C  
BRANCH  16  17
HETATM   17  C   UNK A   0     -12.689  12.771  64.654  1.00  0.00    -0.439 C  
BRANCH  17  18
HETATM   18  C   UNK A   0     -11.816  13.849  65.274  1.00  0.00    -0.365 A  
HETATM   19  C   UNK A   0     -10.755  14.427  64.565  1.00  0.00    -0.236 A  
HETATM   20  C   UNK A   0      -9.887  15.325  65.185  1.00  0.00    -0.164 A  
HETATM   21  C   UNK A   0     -10.080  15.681  66.522  1.00  0.00    -0.293 A  
HETATM   22  C   UNK A   0     -11.206  15.215  67.204  1.00  0.00    -0.320 A  
HETATM   23  C   UNK A   0     -12.067  14.299  66.582  1.00  0.00    -0.448 A  
BRANCH  21  24
HETATM   24  C   UNK A   0      -9.055  16.497  67.231  1.00  0.00    -0.204 C  
HETATM   25  O   UNK A   0      -8.888  16.452  68.443  1.00  0.00    -0.199 OA 
ATOM     26  N   GLU A   1      -8.278  17.288  66.407  1.00  0.00    -0.271 N  
ATOM     27  H   GLU A   1      -8.455  17.283  65.402  1.00  0.00     0.000 HD 
BRANCH  26  28
ATOM     28  CA  GLU A   1      -7.214  18.128  66.936  1.00  0.00    -0.205 C  
ATOM     29  C   GLU A   1      -6.002  17.249  67.265  1.00  0.00    -0.140 C  
ATOM     30  O   GLU A   1      -5.148  17.098  66.227  1.00  0.00    -0.307 OA 
ATOM     31  OXT GLU A   1      -5.815  16.713  68.358  1.00  0.00    -0.117 OA 
BRANCH  28  32
ATOM     32  CB  GLU A   1      -7.684  18.882  68.188  1.00  0.00    -0.316 C  
BRANCH  32  33
ATOM     33  CG  GLU A   1      -8.481  20.135  67.829  1.00  0.00    -0.311 C  
ATOM     34  CD  GLU A   1      -9.946  19.937  68.107  1.00  0.00    -0.427 C  
ATOM     35  OE1 GLU A   1     -10.321  20.329  69.342  1.00  0.00    -0.185 OA 
ATOM     36  OE2 GLU A   1     -10.723  19.438  67.306  1.00  0.00    -0.459 OA 
ENDBRANCH  32  33
ENDBRANCH  28  32
ENDBRANCH  26  28
ENDBRANCH  21  24
ENDBRANCH  17  18
ENDBRANCH  16  17
ENDBRANCH  15  16
TORSDOF 7
ENDMDL
MODEL      208
REMARK 921   NORMALIZED FREE ENERGY PREDICTED BY IDOCK:   -3.86 KCAL/MOL
REMARK 922        TOTAL FREE ENERGY PREDICTED BY IDOCK:   -8.08 KCAL/MOL
REMARK 923 INTER-LIGAND FREE ENERGY PREDICTED BY IDOCK:   -6.88 KCAL/MOL
REMARK 924 INTRA-LIGAND FREE ENERGY PREDICTED BY IDOCK:   -1.20 KCAL/MOL
REMARK 927      BINDING AFFINITY PREDICTED BY RF-SCORE:    0.00 PKD
ROOT
HETATM    1  N   UNK A   0     -12.405  13.227  62.883  1.00  0.00    -0.823 NA 
HETATM    2  H1  UNK A   0     -12.042  13.062  61.945  1.00  0.00     0.000 HD 
HETATM    3  C   UNK A   0     -11.762  12.734  63.973  1.00  0.00    -0.426 C  
HETATM    4  H2  UNK A   0     -13.261  13.768  63.005  1.00  0.00     0.000 HD 
HETATM    5  N   UNK A   0     -12.224  12.945  65.171  1.00  0.00    -0.444 N  
HETATM    6  H   UNK A   0     -13.090  13.469  65.301  1.00  0.00     0.000 HD 
HETATM    7  C   UNK A   0     -11.530  12.448  66.277  1.00  0.00    -0.371 C  
HETATM    8  C   UNK A   0     -10.276  11.750  65.981  1.00  0.00    -0.265 A  
HETATM    9  O   UNK A   0     -11.930  12.587  67.426  1.00  0.00    -0.456 OA 
HETATM   10  C   UNK A   0      -9.892  11.585  64.678  1.00  0.00    -0.246 A  
HETATM   11  N   UNK A   0      -8.696  10.950  64.616  1.00  0.00    -0.347 NA 
HETATM   12  N   UNK A   0     -10.624  12.041  63.655  1.00  0.00    -0.411 NA 
HETATM   13  H   UNK A   0      -8.191  10.705  63.764  1.00  0.00     0.000 HD 
HETATM   14  C   UNK A   0      -8.286  10.692  65.902  1.00  0.00    -0.161 A  
HETATM   15  C   UNK A   0      -9.245  11.177  66.786  1.00  0.00    -0.183 A  
ENDROOT
BRANCH  15  16
HETATM   16  C   UNK A   0      -9.159  11.153  68.279  1.00  0.00    -0.162 C  
BRANCH  16  17
HETATM   17  C   UNK A   0      -7.756  11.466  68.827  1.00  0.00    -0.135 C  
BRANCH  17  18
HETATM   18  C   UNK A   0      -7.350  12.920  68.659  1.00  0.00    -0.099 A  
HETATM   19  C   UNK A   0      -6.014  13.323  68.775  1.00  0.00    -0.076 A  
HETATM   20  C   UNK A   0      -5.670  14.674  68.741  1.00  0.00    -0.086 A  
HETATM   21  C   UNK A   0      -6.657  15.647  68.564  1.00  0.00    -0.114 A  
HETATM   22  C   UNK A   0      -7.975  15.256  68.318  1.00  0.00    -0.132 A  
HETATM   23  C   UNK A   0      -8.319  13.898  68.370  1.00  0.00    -0.157 A  
BRANCH  21  24
HETATM   24  C   UNK A   0      -6.313  17.090  68.705  1.00  0.00    -0.172 C  
HETATM   25  O   UNK A   0      -5.244  17.480  69.158  1.00  0.00    -0.166 OA 
ATOM     26  N   GLU A   1      -7.284  17.961  68.251  1.00  0.00    -0.227 N  
ATOM     27  H   GLU A   1      -8.155  17.583  67.877  1.00  0.00     0.000 HD 
BRANCH  26  28
ATOM     28  CA  GLU A   1      -7.097  19.403  68.294  1.00  0.00    -0.284 C  
ATOM     29  C   GLU A   1      -7.498  19.918  69.681  1.00  0.00     0.113 C  
ATOM     30  O   GLU A   1      -6.479  19.920  70.570  1.00  0.00    -0.282 OA 
ATOM     31  OXT GLU A   1      -8.635  20.284  69.978  1.00  0.00     0.797 OA 
BRANCH  28  32
ATOM     32  CB  GLU A   1      -7.928  20.094  67.204  1.00  0.00    -0.363 C  
BRANCH  32  33
ATOM     33  CG  GLU A   1      -8.538  19.086  66.232  1.00  0.00    -0.281 C  
ATOM     34  CD  GLU A   1     -10.029  19.265  66.138  1.00  0.00    -0.397 C  
ATOM     35  OE1 GLU A   1     -10.413  20.104  65.153  1.00  0.00    -0.142 OA 
ATOM     36  OE2 GLU A   1     -10.822  18.732  66.900  1.00  0.00    -0.379 OA 
ENDBRANCH  32  33
ENDBRANCH  28  32
ENDBRANCH  26  28
ENDBRANCH  21  24
ENDBRANCH  17  18
ENDBRANCH  16  17
ENDBRANCH  15  16
TORSDOF 7
ENDMDL
MODEL      209
REMARK 921   NORMALIZED FREE ENERGY PREDICTED BY IDOCK:   -3.85 KCAL/MOL
REMARK 922        TOTAL FREE ENERGY PREDICTED BY IDOCK:   -8.07 KCAL/MOL
REMARK 923 INTER-LIGAND FREE ENERGY PREDICTED BY IDOCK:   -7.78 KCAL/MOL
REMARK 924 INTRA-LIGAND FREE ENERGY PREDICTED BY IDOCK:   -0.29 KCAL/MOL
REMARK 927      BINDING AFFINITY PREDICTED BY RF-SCORE:    0.00 PKD
ROOT
HETATM    1  N   UNK A   0     -10.496   3.333  64.407  1.00  0.00    -0.425 NA 
HETATM    2  H1  UNK A   0      -9.863   2.979  63.690  1.00  0.00     0.000 HD 
HETATM    3  C   UNK A   0     -10.174   4.429  65.140  1.00  0.00    -0.179 C  
HETATM    4  H2  UNK A   0     -11.384   2.857  64.574  1.00  0.00     0.000 HD 
HETATM    5  N   UNK A   0     -10.982   4.880  66.054  1.00  0.00    -0.750 N  
HETATM    6  H   UNK A   0     -11.863   4.401  66.241  1.00  0.00     0.000 HD 
HETATM    7  C   UNK A   0     -10.638   6.024  66.778  1.00  0.00    -0.291 C  
HETATM    8  C   UNK A   0      -9.374   6.662  66.398  1.00  0.00    -0.175 A  
HETATM    9  O   UNK A   0     -11.341   6.479  67.670  1.00  0.00    -0.268 OA 
HETATM   10  C   UNK A   0      -8.603   6.092  65.423  1.00  0.00    -0.124 A  
HETATM   11  N   UNK A   0      -7.499   6.844  65.194  1.00  0.00    -0.088 NA 
HETATM   12  N   UNK A   0      -8.961   4.965  64.795  1.00  0.00    -0.149 NA 
HETATM   13  H   UNK A   0      -6.763   6.641  64.517  1.00  0.00     0.000 HD 
HETATM   14  C   UNK A   0      -7.545   7.931  66.035  1.00  0.00    -0.086 A  
HETATM   15  C   UNK A   0      -8.701   7.854  66.805  1.00  0.00    -0.143 A  
ENDROOT
BRANCH  15  16
HETATM   16  C   UNK A   0      -9.164   8.867  67.804  1.00  0.00    -0.153 C  
BRANCH  16  17
HETATM   17  C   UNK A   0     -10.232   9.832  67.262  1.00  0.00    -0.289 C  
BRANCH  17  18
HETATM   18  C   UNK A   0      -9.734  11.259  67.104  1.00  0.00    -0.201 A  
HETATM   19  C   UNK A   0      -8.466  11.645  67.555  1.00  0.00    -0.150 A  
HETATM   20  C   UNK A   0      -8.069  12.981  67.516  1.00  0.00    -0.179 A  
HETATM   21  C   UNK A   0      -8.927  13.954  66.998  1.00  0.00    -0.251 A  
HETATM   22  C   UNK A   0     -10.142  13.570  66.426  1.00  0.00    -0.294 A  
HETATM   23  C   UNK A   0     -10.544  12.227  66.484  1.00  0.00    -0.263 A  
BRANCH  21  24
HETATM   24  C   UNK A   0      -8.576  15.397  67.119  1.00  0.00    -0.210 C  
HETATM   25  O   UNK A   0      -7.656  15.913  66.497  1.00  0.00    -0.182 OA 
ATOM     26  N   GLU A   1      -9.393  16.121  67.964  1.00  0.00    -0.202 N  
ATOM     27  H   GLU A   1     -10.150  15.643  68.453  1.00  0.00     0.000 HD 
BRANCH  26  28
ATOM     28  CA  GLU A   1      -9.202  17.548  68.175  1.00  0.00    -0.277 C  
ATOM     29  C   GLU A   1      -9.713  18.306  66.945  1.00  0.00    -0.315 C  
ATOM     30  O   GLU A   1     -11.023  18.633  67.020  1.00  0.00    -0.320 OA 
ATOM     31  OXT GLU A   1      -9.017  18.587  65.969  1.00  0.00    -0.491 OA 
BRANCH  28  32
ATOM     32  CB  GLU A   1      -7.722  17.870  68.427  1.00  0.00    -0.292 C  
BRANCH  32  33
ATOM     33  CG  GLU A   1      -7.550  19.177  69.199  1.00  0.00    -0.273 C  
ATOM     34  CD  GLU A   1      -6.772  20.179  68.391  1.00  0.00    -0.302 C  
ATOM     35  OE1 GLU A   1      -7.548  20.989  67.641  1.00  0.00    -0.240 OA 
ATOM     36  OE2 GLU A   1      -5.551  20.237  68.383  1.00  0.00    -0.219 OA 
ENDBRANCH  32  33
ENDBRANCH  28  32
ENDBRANCH  26  28
ENDBRANCH  21  24
ENDBRANCH  17  18
ENDBRANCH  16  17
ENDBRANCH  15  16
TORSDOF 7
ENDMDL
MODEL      210
REMARK 921   NORMALIZED FREE ENERGY PREDICTED BY IDOCK:   -3.84 KCAL/MOL
REMARK 922        TOTAL FREE ENERGY PREDICTED BY IDOCK:   -8.06 KCAL/MOL
REMARK 923 INTER-LIGAND FREE ENERGY PREDICTED BY IDOCK:   -8.35 KCAL/MOL
REMARK 924 INTRA-LIGAND FREE ENERGY PREDICTED BY IDOCK:    0.29 KCAL/MOL
REMARK 927      BINDING AFFINITY PREDICTED BY RF-SCORE:    0.00 PKD
ROOT
HETATM    1  N   UNK A   0      -7.583  21.256  66.968  1.00  0.00    -0.768 NA 
HETATM    2  H1  UNK A   0      -6.834  21.368  67.651  1.00  0.00     0.000 HD 
HETATM    3  C   UNK A   0      -8.312  20.111  66.917  1.00  0.00    -0.315 C  
HETATM    4  H2  UNK A   0      -7.788  22.013  66.316  1.00  0.00     0.000 HD 
HETATM    5  N   UNK A   0      -9.267  19.968  66.046  1.00  0.00    -0.542 N  
HETATM    6  H   UNK A   0      -9.467  20.712  65.378  1.00  0.00     0.000 HD 
HETATM    7  C   UNK A   0     -10.018  18.790  66.031  1.00  0.00    -0.255 C  
HETATM    8  C   UNK A   0      -9.680  17.805  67.062  1.00  0.00    -0.290 A  
HETATM    9  O   UNK A   0     -10.908  18.583  65.216  1.00  0.00    -0.606 OA 
HETATM   10  C   UNK A   0      -8.648  18.064  67.923  1.00  0.00    -0.257 A  
HETATM   11  N   UNK A   0      -8.515  17.055  68.818  1.00  0.00    -0.255 NA 
HETATM   12  N   UNK A   0      -7.930  19.192  67.859  1.00  0.00    -0.276 NA 
HETATM   13  H   UNK A   0      -7.823  17.002  69.565  1.00  0.00     0.000 HD 
HETATM   14  C   UNK A   0      -9.478  16.113  68.540  1.00  0.00    -0.216 A  
HETATM   15  C   UNK A   0     -10.227  16.544  67.450  1.00  0.00    -0.287 A  
ENDROOT
BRANCH  15  16
HETATM   16  C   UNK A   0     -11.410  15.844  66.861  1.00  0.00     0.123 C  
BRANCH  16  17
HETATM   17  C   UNK A   0     -11.055  14.870  65.724  1.00  0.00    -0.342 C  
BRANCH  17  18
HETATM   18  C   UNK A   0     -10.793  13.452  66.201  1.00  0.00    -0.287 A  
HETATM   19  C   UNK A   0     -11.819  12.658  66.730  1.00  0.00    -0.440 A  
HETATM   20  C   UNK A   0     -11.544  11.405  67.276  1.00  0.00    -0.232 A  
HETATM   21  C   UNK A   0     -10.237  10.912  67.280  1.00  0.00    -0.242 A  
HETATM   22  C   UNK A   0      -9.225  11.632  66.642  1.00  0.00    -0.196 A  
HETATM   23  C   UNK A   0      -9.503  12.900  66.110  1.00  0.00    -0.161 A  
BRANCH  21  24
HETATM   24  C   UNK A   0      -9.917   9.658  68.020  1.00  0.00    -0.160 C  
HETATM   25  O   UNK A   0      -8.957   8.949  67.746  1.00  0.00    -0.134 OA 
ATOM     26  N   GLU A   1     -10.771   9.373  69.067  1.00  0.00    -0.306 N  
ATOM     27  H   GLU A   1     -11.552  10.001  69.256  1.00  0.00     0.000 HD 
BRANCH  26  28
ATOM     28  CA  GLU A   1     -10.584   8.199  69.906  1.00  0.00    -0.239 C  
ATOM     29  C   GLU A   1     -10.039   8.643  71.269  1.00  0.00    -0.242 C  
ATOM     30  O   GLU A   1     -11.007   8.934  72.167  1.00  0.00    -0.362 OA 
ATOM     31  OXT GLU A   1      -8.841   8.743  71.533  1.00  0.00    -0.202 OA 
BRANCH  28  32
ATOM     32  CB  GLU A   1      -9.625   7.201  69.245  1.00  0.00    -0.155 C  
BRANCH  32  33
ATOM     33  CG  GLU A   1     -10.138   5.766  69.350  1.00  0.00    -0.277 C  
ATOM     34  CD  GLU A   1     -10.357   5.378  70.787  1.00  0.00    -0.251 C  
ATOM     35  OE1 GLU A   1     -11.610   5.618  71.227  1.00  0.00    -0.027 OA 
ATOM     36  OE2 GLU A   1      -9.479   4.921  71.503  1.00  0.00    -0.144 OA 
ENDBRANCH  32  33
ENDBRANCH  28  32
ENDBRANCH  26  28
ENDBRANCH  21  24
ENDBRANCH  17  18
ENDBRANCH  16  17
ENDBRANCH  15  16
TORSDOF 7
ENDMDL
MODEL      211
REMARK 921   NORMALIZED FREE ENERGY PREDICTED BY IDOCK:   -3.84 KCAL/MOL
REMARK 922        TOTAL FREE ENERGY PREDICTED BY IDOCK:   -8.06 KCAL/MOL
REMARK 923 INTER-LIGAND FREE ENERGY PREDICTED BY IDOCK:   -6.63 KCAL/MOL
REMARK 924 INTRA-LIGAND FREE ENERGY PREDICTED BY IDOCK:   -1.42 KCAL/MOL
REMARK 927      BINDING AFFINITY PREDICTED BY RF-SCORE:    0.00 PKD
ROOT
HETATM    1  N   UNK A   0     -11.183   4.799  65.663  1.00  0.00    -0.927 NA 
HETATM    2  H1  UNK A   0     -11.318   3.804  65.835  1.00  0.00     0.000 HD 
HETATM    3  C   UNK A   0     -10.107   5.453  66.172  1.00  0.00    -0.135 C  
HETATM    4  H2  UNK A   0     -11.863   5.310  65.100  1.00  0.00     0.000 HD 
HETATM    5  N   UNK A   0      -9.934   6.723  65.952  1.00  0.00    -0.193 N  
HETATM    6  H   UNK A   0     -10.619   7.246  65.406  1.00  0.00     0.000 HD 
HETATM    7  C   UNK A   0      -8.805   7.366  66.466  1.00  0.00    -0.148 C  
HETATM    8  C   UNK A   0      -7.862   6.513  67.195  1.00  0.00    -0.108 A  
HETATM    9  O   UNK A   0      -8.602   8.565  66.319  1.00  0.00    -0.117 OA 
HETATM   10  C   UNK A   0      -8.154   5.188  67.368  1.00  0.00    -0.100 A  
HETATM   11  N   UNK A   0      -7.149   4.566  68.033  1.00  0.00    -0.063 NA 
HETATM   12  N   UNK A   0      -9.277   4.635  66.893  1.00  0.00    -0.120 NA 
HETATM   13  H   UNK A   0      -7.119   3.579  68.289  1.00  0.00     0.000 HD 
HETATM   14  C   UNK A   0      -6.178   5.501  68.302  1.00  0.00    -0.030 A  
HETATM   15  C   UNK A   0      -6.585   6.731  67.795  1.00  0.00    -0.058 A  
ENDROOT
BRANCH  15  16
HETATM   16  C   UNK A   0      -5.794   8.000  67.822  1.00  0.00    -0.042 C  
BRANCH  16  17
HETATM   17  C   UNK A   0      -6.164   8.939  68.983  1.00  0.00    -0.044 C  
BRANCH  17  18
HETATM   18  C   UNK A   0      -6.483  10.356  68.538  1.00  0.00    -0.051 A  
HETATM   19  C   UNK A   0      -6.772  11.365  69.465  1.00  0.00    -0.119 A  
HETATM   20  C   UNK A   0      -7.182  12.629  69.042  1.00  0.00     0.009 A  
HETATM   21  C   UNK A   0      -7.287  12.914  67.678  1.00  0.00    -0.145 A  
HETATM   22  C   UNK A   0      -6.879  11.962  66.740  1.00  0.00    -0.006 A  
HETATM   23  C   UNK A   0      -6.483  10.687  67.171  1.00  0.00    -0.075 A  
BRANCH  21  24
HETATM   24  C   UNK A   0      -7.892  14.199  67.230  1.00  0.00    -0.132 C  
HETATM   25  O   UNK A   0      -7.323  15.278  67.339  1.00  0.00    -0.183 OA 
ATOM     26  N   GLU A   1      -9.138  14.078  66.647  1.00  0.00    -0.392 N  
ATOM     27  H   GLU A   1      -9.565  13.154  66.575  1.00  0.00     0.000 HD 
BRANCH  26  28
ATOM     28  CA  GLU A   1      -9.857  15.234  66.133  1.00  0.00    -0.307 C  
ATOM     29  C   GLU A   1     -10.855  15.712  67.193  1.00  0.00    -0.297 C  
ATOM     30  O   GLU A   1     -10.336  16.618  68.052  1.00  0.00    -0.278 OA 
ATOM     31  OXT GLU A   1     -12.016  15.311  67.278  1.00  0.00    -0.104 OA 
BRANCH  28  32
ATOM     32  CB  GLU A   1     -10.586  14.887  64.828  1.00  0.00    -0.336 C  
BRANCH  32  33
ATOM     33  CG  GLU A   1     -10.517  13.392  64.519  1.00  0.00    -0.431 C  
ATOM     34  CD  GLU A   1     -11.889  12.776  64.538  1.00  0.00    -0.379 C  
ATOM     35  OE1 GLU A   1     -12.494  12.766  63.331  1.00  0.00    -0.682 OA 
ATOM     36  OE2 GLU A   1     -12.426  12.355  65.551  1.00  0.00    -0.643 OA 
ENDBRANCH  32  33
ENDBRANCH  28  32
ENDBRANCH  26  28
ENDBRANCH  21  24
ENDBRANCH  17  18
ENDBRANCH  16  17
ENDBRANCH  15  16
TORSDOF 7
ENDMDL
MODEL      212
REMARK 921   NORMALIZED FREE ENERGY PREDICTED BY IDOCK:   -3.83 KCAL/MOL
REMARK 922        TOTAL FREE ENERGY PREDICTED BY IDOCK:   -8.05 KCAL/MOL
REMARK 923 INTER-LIGAND FREE ENERGY PREDICTED BY IDOCK:   -6.89 KCAL/MOL
REMARK 924 INTRA-LIGAND FREE ENERGY PREDICTED BY IDOCK:   -1.16 KCAL/MOL
REMARK 927      BINDING AFFINITY PREDICTED BY RF-SCORE:    0.00 PKD
ROOT
HETATM    1  N   UNK A   0     -12.315   6.021  72.762  1.00  0.00    -0.427 NA 
HETATM    2  H1  UNK A   0     -12.027   6.249  73.713  1.00  0.00     0.000 HD 
HETATM    3  C   UNK A   0     -11.421   6.036  71.741  1.00  0.00    -0.253 C  
HETATM    4  H2  UNK A   0     -13.289   5.779  72.576  1.00  0.00     0.000 HD 
HETATM    5  N   UNK A   0     -11.789   5.745  70.528  1.00  0.00     0.479 N  
HETATM    6  H   UNK A   0     -12.764   5.520  70.329  1.00  0.00     0.000 HD 
HETATM    7  C   UNK A   0     -10.844   5.743  69.500  1.00  0.00    -0.340 C  
HETATM    8  C   UNK A   0      -9.464   6.035  69.902  1.00  0.00    -0.175 A  
HETATM    9  O   UNK A   0     -11.134   5.508  68.334  1.00  0.00     0.001 OA 
HETATM   10  C   UNK A   0      -9.197   6.333  71.210  1.00  0.00    -0.152 A  
HETATM   11  N   UNK A   0      -7.868   6.537  71.386  1.00  0.00    -0.099 NA 
HETATM   12  N   UNK A   0     -10.154   6.367  72.146  1.00  0.00    -0.177 NA 
HETATM   13  H   UNK A   0      -7.408   6.773  72.265  1.00  0.00     0.000 HD 
HETATM   14  C   UNK A   0      -7.251   6.371  70.169  1.00  0.00    -0.084 A  
HETATM   15  C   UNK A   0      -8.213   6.056  69.215  1.00  0.00    -0.115 A  
ENDROOT
BRANCH  15  16
HETATM   16  C   UNK A   0      -7.957   5.738  67.776  1.00  0.00    -0.098 C  
BRANCH  16  17
HETATM   17  C   UNK A   0      -7.869   6.979  66.871  1.00  0.00    -0.107 C  
BRANCH  17  18
HETATM   18  C   UNK A   0      -8.828   8.088  67.269  1.00  0.00    -0.135 A  
HETATM   19  C   UNK A   0     -10.174   8.064  66.883  1.00  0.00    -0.385 A  
HETATM   20  C   UNK A   0     -11.013   9.145  67.149  1.00  0.00     0.074 A  
HETATM   21  C   UNK A   0     -10.525  10.263  67.831  1.00  0.00    -0.253 A  
HETATM   22  C   UNK A   0      -9.223  10.249  68.336  1.00  0.00    -0.136 A  
HETATM   23  C   UNK A   0      -8.378   9.167  68.051  1.00  0.00    -0.120 A  
BRANCH  21  24
HETATM   24  C   UNK A   0     -11.369  11.484  67.957  1.00  0.00    -0.298 C  
HETATM   25  O   UNK A   0     -12.245  11.605  68.804  1.00  0.00    -0.416 OA 
ATOM     26  N   GLU A   1     -11.062  12.492  67.064  1.00  0.00    -0.267 N  
ATOM     27  H   GLU A   1     -10.317  12.342  66.383  1.00  0.00     0.000 HD 
BRANCH  26  28
ATOM     28  CA  GLU A   1     -11.774  13.761  67.070  1.00  0.00    -0.390 C  
ATOM     29  C   GLU A   1     -11.896  14.271  65.629  1.00  0.00    -0.373 C  
ATOM     30  O   GLU A   1     -13.007  13.833  64.995  1.00  0.00    -0.732 OA 
ATOM     31  OXT GLU A   1     -11.066  14.997  65.083  1.00  0.00    -0.359 OA 
BRANCH  28  32
ATOM     32  CB  GLU A   1     -11.046  14.792  67.944  1.00  0.00    -0.301 C  
BRANCH  32  33
ATOM     33  CG  GLU A   1     -12.013  15.547  68.854  1.00  0.00    -0.306 C  
ATOM     34  CD  GLU A   1     -11.815  15.152  70.292  1.00  0.00    -0.311 C  
ATOM     35  OE1 GLU A   1     -10.938  15.936  70.953  1.00  0.00    -0.309 OA 
ATOM     36  OE2 GLU A   1     -12.367  14.192  70.811  1.00  0.00    -0.322 OA 
ENDBRANCH  32  33
ENDBRANCH  28  32
ENDBRANCH  26  28
ENDBRANCH  21  24
ENDBRANCH  17  18
ENDBRANCH  16  17
ENDBRANCH  15  16
TORSDOF 7
ENDMDL
MODEL      213
REMARK 921   NORMALIZED FREE ENERGY PREDICTED BY IDOCK:   -3.83 KCAL/MOL
REMARK 922        TOTAL FREE ENERGY PREDICTED BY IDOCK:   -8.04 KCAL/MOL
REMARK 923 INTER-LIGAND FREE ENERGY PREDICTED BY IDOCK:   -6.92 KCAL/MOL
REMARK 924 INTRA-LIGAND FREE ENERGY PREDICTED BY IDOCK:   -1.12 KCAL/MOL
REMARK 927      BINDING AFFINITY PREDICTED BY RF-SCORE:    0.00 PKD
ROOT
HETATM    1  N   UNK A   0      -7.632   3.715  64.628  1.00  0.00    -0.075 NA 
HETATM    2  H1  UNK A   0      -8.209   3.571  63.800  1.00  0.00     0.000 HD 
HETATM    3  C   UNK A   0      -8.077   4.473  65.663  1.00  0.00    -0.106 C  
HETATM    4  H2  UNK A   0      -6.709   3.284  64.679  1.00  0.00     0.000 HD 
HETATM    5  N   UNK A   0      -7.341   4.657  66.719  1.00  0.00    -0.080 N  
HETATM    6  H   UNK A   0      -6.409   4.246  66.772  1.00  0.00     0.000 HD 
HETATM    7  C   UNK A   0      -7.833   5.421  67.780  1.00  0.00    -0.096 C  
HETATM    8  C   UNK A   0      -9.200   5.926  67.622  1.00  0.00    -0.104 A  
HETATM    9  O   UNK A   0      -7.176   5.655  68.787  1.00  0.00    -0.076 OA 
HETATM   10  C   UNK A   0      -9.877   5.672  66.461  1.00  0.00    -0.168 A  
HETATM   11  N   UNK A   0     -11.128   6.191  66.522  1.00  0.00    -0.749 NA 
HETATM   12  N   UNK A   0      -9.336   4.974  65.456  1.00  0.00    -0.158 NA 
HETATM   13  H   UNK A   0     -11.835   6.140  65.788  1.00  0.00     0.000 HD 
HETATM   14  C   UNK A   0     -11.275   6.797  67.747  1.00  0.00    -0.108 A  
HETATM   15  C   UNK A   0     -10.093   6.654  68.465  1.00  0.00    -0.166 A  
ENDROOT
BRANCH  15  16
HETATM   16  C   UNK A   0      -9.851   7.117  69.866  1.00  0.00    -0.174 C  
BRANCH  16  17
HETATM   17  C   UNK A   0     -10.772   8.267  70.309  1.00  0.00    -0.237 C  
BRANCH  17  18
HETATM   18  C   UNK A   0     -10.385   9.614  69.724  1.00  0.00    -0.266 A  
HETATM   19  C   UNK A   0     -11.353  10.563  69.372  1.00  0.00    -0.331 A  
HETATM   20  C   UNK A   0     -10.993  11.744  68.724  1.00  0.00    -0.281 A  
HETATM   21  C   UNK A   0      -9.651  12.008  68.436  1.00  0.00    -0.190 A  
HETATM   22  C   UNK A   0      -8.663  11.134  68.893  1.00  0.00    -0.086 A  
HETATM   23  C   UNK A   0      -9.031   9.940  69.530  1.00  0.00    -0.224 A  
BRANCH  21  24
HETATM   24  C   UNK A   0      -9.288  13.179  67.589  1.00  0.00    -0.205 C  
HETATM   25  O   UNK A   0      -9.427  13.191  66.373  1.00  0.00    -0.257 OA 
ATOM     26  N   GLU A   1      -8.813  14.270  68.289  1.00  0.00    -0.179 N  
ATOM     27  H   GLU A   1      -8.723  14.210  69.303  1.00  0.00     0.000 HD 
BRANCH  26  28
ATOM     28  CA  GLU A   1      -8.437  15.504  67.616  1.00  0.00    -0.166 C  
ATOM     29  C   GLU A   1      -6.962  15.804  67.911  1.00  0.00    -0.140 C  
ATOM     30  O   GLU A   1      -6.111  15.247  67.020  1.00  0.00    -0.217 OA 
ATOM     31  OXT GLU A   1      -6.573  16.473  68.868  1.00  0.00    -0.152 OA 
BRANCH  28  32
ATOM     32  CB  GLU A   1      -9.323  16.670  68.076  1.00  0.00    -0.227 C  
BRANCH  32  33
ATOM     33  CG  GLU A   1     -10.656  16.698  67.329  1.00  0.00    -0.281 C  
ATOM     34  CD  GLU A   1     -10.472  17.195  65.922  1.00  0.00    -0.258 C  
ATOM     35  OE1 GLU A   1     -10.250  16.212  65.025  1.00  0.00    -0.535 OA 
ATOM     36  OE2 GLU A   1     -10.488  18.379  65.617  1.00  0.00    -0.624 OA 
ENDBRANCH  32  33
ENDBRANCH  28  32
ENDBRANCH  26  28
ENDBRANCH  21  24
ENDBRANCH  17  18
ENDBRANCH  16  17
ENDBRANCH  15  16
TORSDOF 7
ENDMDL
MODEL      214
REMARK 921   NORMALIZED FREE ENERGY PREDICTED BY IDOCK:   -3.79 KCAL/MOL
REMARK 922        TOTAL FREE ENERGY PREDICTED BY IDOCK:   -7.98 KCAL/MOL
REMARK 923 INTER-LIGAND FREE ENERGY PREDICTED BY IDOCK:   -7.66 KCAL/MOL
REMARK 924 INTRA-LIGAND FREE ENERGY PREDICTED BY IDOCK:   -0.32 KCAL/MOL
REMARK 927      BINDING AFFINITY PREDICTED BY RF-SCORE:    0.00 PKD
ROOT
HETATM    1  N   UNK A   0     -13.118  13.737  65.159  1.00  0.00    -0.751 NA 
HETATM    2  H1  UNK A   0     -13.627  14.023  64.323  1.00  0.00     0.000 HD 
HETATM    3  C   UNK A   0     -12.117  12.823  65.086  1.00  0.00    -0.450 C  
HETATM    4  H2  UNK A   0     -13.364  14.144  66.061  1.00  0.00     0.000 HD 
HETATM    5  N   UNK A   0     -11.468  12.459  66.152  1.00  0.00    -0.359 N  
HETATM    6  H   UNK A   0     -11.719  12.847  67.062  1.00  0.00     0.000 HD 
HETATM    7  C   UNK A   0     -10.426  11.535  66.046  1.00  0.00    -0.252 C  
HETATM    8  C   UNK A   0     -10.116  11.077  64.688  1.00  0.00    -0.370 A  
HETATM    9  O   UNK A   0      -9.798  11.131  67.016  1.00  0.00    -0.181 OA 
HETATM   10  C   UNK A   0     -10.873  11.526  63.641  1.00  0.00    -0.415 A  
HETATM   11  N   UNK A   0     -10.411  11.018  62.473  1.00  0.00    -0.534 NA 
HETATM   12  N   UNK A   0     -11.894  12.376  63.810  1.00  0.00    -0.455 NA 
HETATM   13  H   UNK A   0     -10.798  11.196  61.546  1.00  0.00     0.000 HD 
HETATM   14  C   UNK A   0      -9.329  10.219  62.758  1.00  0.00    -0.314 A  
HETATM   15  C   UNK A   0      -9.112  10.229  64.131  1.00  0.00    -0.284 A  
ENDROOT
BRANCH  15  16
HETATM   16  C   UNK A   0      -7.999   9.538  64.852  1.00  0.00    -0.121 C  
BRANCH  16  17
HETATM   17  C   UNK A   0      -8.147   8.007  64.904  1.00  0.00    -0.147 C  
BRANCH  17  18
HETATM   18  C   UNK A   0      -8.351   7.466  66.309  1.00  0.00    -0.132 A  
HETATM   19  C   UNK A   0      -9.400   6.587  66.608  1.00  0.00    -0.184 A  
HETATM   20  C   UNK A   0      -9.650   6.194  67.921  1.00  0.00    -0.118 A  
HETATM   21  C   UNK A   0      -8.838   6.655  68.961  1.00  0.00    -0.128 A  
HETATM   22  C   UNK A   0      -7.712   7.427  68.666  1.00  0.00    -0.120 A  
HETATM   23  C   UNK A   0      -7.474   7.834  67.345  1.00  0.00    -0.093 A  
BRANCH  21  24
HETATM   24  C   UNK A   0      -9.212   6.379  70.376  1.00  0.00    -0.155 C  
HETATM   25  O   UNK A   0      -8.389   6.291  71.278  1.00  0.00    -0.121 OA 
ATOM     26  N   GLU A   1     -10.570   6.266  70.602  1.00  0.00    -0.232 N  
ATOM     27  H   GLU A   1     -11.214   6.355  69.816  1.00  0.00     0.000 HD 
BRANCH  26  28
ATOM     28  CA  GLU A   1     -11.105   6.022  71.933  1.00  0.00    -0.277 C  
ATOM     29  C   GLU A   1     -11.179   7.352  72.692  1.00  0.00    -0.332 C  
ATOM     30  O   GLU A   1     -12.348   8.009  72.516  1.00  0.00    -0.289 OA 
ATOM     31  OXT GLU A   1     -10.267   7.801  73.387  1.00  0.00    -0.328 OA 
BRANCH  28  32
ATOM     32  CB  GLU A   1     -10.233   5.017  72.697  1.00  0.00    -0.236 C  
BRANCH  32  33
ATOM     33  CG  GLU A   1     -10.297   3.623  72.075  1.00  0.00    -0.067 C  
ATOM     34  CD  GLU A   1      -9.067   2.826  72.416  1.00  0.00    -0.087 C  
ATOM     35  OE1 GLU A   1      -9.197   2.084  73.536  1.00  0.00    -0.074 OA 
ATOM     36  OE2 GLU A   1      -8.033   2.868  71.766  1.00  0.00    -0.055 OA 
ENDBRANCH  32  33
ENDBRANCH  28  32
ENDBRANCH  26  28
ENDBRANCH  21  24
ENDBRANCH  17  18
ENDBRANCH  16  17
ENDBRANCH  15  16
TORSDOF 7
ENDMDL
MODEL      215
REMARK 921   NORMALIZED FREE ENERGY PREDICTED BY IDOCK:   -3.76 KCAL/MOL
REMARK 922        TOTAL FREE ENERGY PREDICTED BY IDOCK:   -7.95 KCAL/MOL
REMARK 923 INTER-LIGAND FREE ENERGY PREDICTED BY IDOCK:   -7.23 KCAL/MOL
REMARK 924 INTRA-LIGAND FREE ENERGY PREDICTED BY IDOCK:   -0.71 KCAL/MOL
REMARK 927      BINDING AFFINITY PREDICTED BY RF-SCORE:    0.00 PKD
ROOT
HETATM    1  N   UNK A   0     -13.145  10.300  71.145  1.00  0.00    -0.391 NA 
HETATM    2  H1  UNK A   0     -13.268  10.388  72.154  1.00  0.00     0.000 HD 
HETATM    3  C   UNK A   0     -11.969   9.869  70.622  1.00  0.00    -0.277 C  
HETATM    4  H2  UNK A   0     -13.917  10.539  70.522  1.00  0.00     0.000 HD 
HETATM    5  N   UNK A   0     -11.813   9.757  69.336  1.00  0.00    -0.378 N  
HETATM    6  H   UNK A   0     -12.572  10.011  68.704  1.00  0.00     0.000 HD 
HETATM    7  C   UNK A   0     -10.600   9.288  68.825  1.00  0.00    -0.193 C  
HETATM    8  C   UNK A   0      -9.594   8.907  69.820  1.00  0.00    -0.175 A  
HETATM    9  O   UNK A   0     -10.382   9.190  67.624  1.00  0.00    -0.224 OA 
HETATM   10  C   UNK A   0      -9.870   9.075  71.149  1.00  0.00    -0.300 A  
HETATM   11  N   UNK A   0      -8.834   8.636  71.905  1.00  0.00    -0.264 NA 
HETATM   12  N   UNK A   0     -11.034   9.576  71.580  1.00  0.00    -0.318 NA 
HETATM   13  H   UNK A   0      -8.786   8.649  72.924  1.00  0.00     0.000 HD 
HETATM   14  C   UNK A   0      -7.857   8.172  71.056  1.00  0.00    -0.090 A  
HETATM   15  C   UNK A   0      -8.293   8.323  69.744  1.00  0.00    -0.123 A  
ENDROOT
BRANCH  15  16
HETATM   16  C   UNK A   0      -7.559   7.889  68.515  1.00  0.00    -0.105 C  
BRANCH  16  17
HETATM   17  C   UNK A   0      -6.485   8.886  68.047  1.00  0.00    -0.057 C  
BRANCH  17  18
HETATM   18  C   UNK A   0      -6.998  10.310  67.913  1.00  0.00    -0.083 A  
HETATM   19  C   UNK A   0      -6.700  11.287  68.871  1.00  0.00    -0.081 A  
HETATM   20  C   UNK A   0      -7.276  12.555  68.802  1.00  0.00    -0.089 A  
HETATM   21  C   UNK A   0      -8.144  12.877  67.755  1.00  0.00    -0.166 A  
HETATM   22  C   UNK A   0      -8.350  11.959  66.723  1.00  0.00    -0.153 A  
HETATM   23  C   UNK A   0      -7.782  10.679  66.806  1.00  0.00    -0.127 A  
BRANCH  21  24
HETATM   24  C   UNK A   0      -8.893  14.164  67.779  1.00  0.00    -0.185 C  
HETATM   25  O   UNK A   0      -9.553  14.569  66.831  1.00  0.00    -0.232 OA 
ATOM     26  N   GLU A   1      -8.816  14.854  68.973  1.00  0.00    -0.267 N  
ATOM     27  H   GLU A   1      -8.257  14.469  69.734  1.00  0.00     0.000 HD 
BRANCH  26  28
ATOM     28  CA  GLU A   1      -9.511  16.117  69.171  1.00  0.00    -0.251 C  
ATOM     29  C   GLU A   1     -10.960  15.829  69.581  1.00  0.00    -0.306 C  
ATOM     30  O   GLU A   1     -11.128  15.710  70.918  1.00  0.00    -0.329 OA 
ATOM     31  OXT GLU A   1     -11.890  15.703  68.785  1.00  0.00    -0.370 OA 
BRANCH  28  32
ATOM     32  CB  GLU A   1      -9.474  16.968  67.894  1.00  0.00    -0.245 C  
BRANCH  32  33
ATOM     33  CG  GLU A   1      -8.884  18.353  68.153  1.00  0.00    -0.319 C  
ATOM     34  CD  GLU A   1      -9.165  19.280  67.002  1.00  0.00    -0.307 C  
ATOM     35  OE1 GLU A   1     -10.305  19.989  67.143  1.00  0.00    -0.425 OA 
ATOM     36  OE2 GLU A   1      -8.451  19.363  66.014  1.00  0.00    -0.404 OA 
ENDBRANCH  32  33
ENDBRANCH  28  32
ENDBRANCH  26  28
ENDBRANCH  21  24
ENDBRANCH  17  18
ENDBRANCH  16  17
ENDBRANCH  15  16
TORSDOF 7
ENDMDL
MODEL      216
REMARK 921   NORMALIZED FREE ENERGY PREDICTED BY IDOCK:   -3.76 KCAL/MOL
REMARK 922        TOTAL FREE ENERGY PREDICTED BY IDOCK:   -7.94 KCAL/MOL
REMARK 923 INTER-LIGAND FREE ENERGY PREDICTED BY IDOCK:   -8.21 KCAL/MOL
REMARK 924 INTRA-LIGAND FREE ENERGY PREDICTED BY IDOCK:    0.27 KCAL/MOL
REMARK 927      BINDING AFFINITY PREDICTED BY RF-SCORE:    0.00 PKD
ROOT
HETATM    1  N   UNK A   0     -13.667   8.263  72.578  1.00  0.00    -0.590 NA 
HETATM    2  H1  UNK A   0     -13.683   8.877  73.391  1.00  0.00     0.000 HD 
HETATM    3  C   UNK A   0     -12.498   7.970  71.951  1.00  0.00    -0.330 C  
HETATM    4  H2  UNK A   0     -14.539   7.862  72.232  1.00  0.00     0.000 HD 
HETATM    5  N   UNK A   0     -12.477   7.186  70.914  1.00  0.00    -0.557 N  
HETATM    6  H   UNK A   0     -13.346   6.795  70.549  1.00  0.00     0.000 HD 
HETATM    7  C   UNK A   0     -11.259   6.882  70.301  1.00  0.00    -0.316 C  
HETATM    8  C   UNK A   0     -10.067   7.457  70.933  1.00  0.00    -0.188 A  
HETATM    9  O   UNK A   0     -11.178   6.175  69.305  1.00  0.00    -0.387 OA 
HETATM   10  C   UNK A   0     -10.214   8.274  72.020  1.00  0.00    -0.269 A  
HETATM   11  N   UNK A   0      -9.002   8.675  72.476  1.00  0.00    -0.380 NA 
HETATM   12  N   UNK A   0     -11.414   8.570  72.535  1.00  0.00    -0.352 NA 
HETATM   13  H   UNK A   0      -8.834   9.287  73.274  1.00  0.00     0.000 HD 
HETATM   14  C   UNK A   0      -8.040   8.110  71.672  1.00  0.00    -0.124 A  
HETATM   15  C   UNK A   0      -8.664   7.342  70.695  1.00  0.00    -0.147 A  
ENDROOT
BRANCH  15  16
HETATM   16  C   UNK A   0      -7.980   6.511  69.656  1.00  0.00    -0.120 C  
BRANCH  16  17
HETATM   17  C   UNK A   0      -6.816   7.230  68.953  1.00  0.00    -0.072 C  
BRANCH  17  18
HETATM   18  C   UNK A   0      -7.141   8.657  68.547  1.00  0.00    -0.073 A  
HETATM   19  C   UNK A   0      -6.509   9.751  69.151  1.00  0.00    -0.044 A  
HETATM   20  C   UNK A   0      -6.903  11.056  68.857  1.00  0.00    -0.079 A  
HETATM   21  C   UNK A   0      -7.924  11.291  67.933  1.00  0.00    -0.118 A  
HETATM   22  C   UNK A   0      -8.476  10.220  67.227  1.00  0.00    -0.125 A  
HETATM   23  C   UNK A   0      -8.088   8.908  67.538  1.00  0.00    -0.109 A  
BRANCH  21  24
HETATM   24  C   UNK A   0      -8.463  12.668  67.753  1.00  0.00    -0.172 C  
HETATM   25  O   UNK A   0      -8.045  13.442  66.901  1.00  0.00    -0.060 OA 
ATOM     26  N   GLU A   1      -9.501  12.996  68.603  1.00  0.00    -0.406 N  
ATOM     27  H   GLU A   1      -9.815  12.311  69.291  1.00  0.00     0.000 HD 
BRANCH  26  28
ATOM     28  CA  GLU A   1     -10.157  14.293  68.543  1.00  0.00    -0.246 C  
ATOM     29  C   GLU A   1     -11.674  14.082  68.469  1.00  0.00    -0.352 C  
ATOM     30  O   GLU A   1     -12.268  14.017  69.681  1.00  0.00    -0.334 OA 
ATOM     31  OXT GLU A   1     -12.303  13.967  67.417  1.00  0.00    -0.322 OA 
BRANCH  28  32
ATOM     32  CB  GLU A   1      -9.668  15.097  67.330  1.00  0.00    -0.210 C  
BRANCH  32  33
ATOM     33  CG  GLU A   1     -10.264  16.503  67.304  1.00  0.00    -0.287 C  
ATOM     34  CD  GLU A   1      -9.932  17.204  66.015  1.00  0.00    -0.253 C  
ATOM     35  OE1 GLU A   1     -10.863  17.037  65.052  1.00  0.00    -0.678 OA 
ATOM     36  OE2 GLU A   1      -8.902  17.837  65.837  1.00  0.00    -0.512 OA 
ENDBRANCH  32  33
ENDBRANCH  28  32
ENDBRANCH  26  28
ENDBRANCH  21  24
ENDBRANCH  17  18
ENDBRANCH  16  17
ENDBRANCH  15  16
TORSDOF 7
ENDMDL
MODEL      217
REMARK 921   NORMALIZED FREE ENERGY PREDICTED BY IDOCK:   -3.76 KCAL/MOL
REMARK 922        TOTAL FREE ENERGY PREDICTED BY IDOCK:   -7.94 KCAL/MOL
REMARK 923 INTER-LIGAND FREE ENERGY PREDICTED BY IDOCK:   -7.05 KCAL/MOL
REMARK 924 INTRA-LIGAND FREE ENERGY PREDICTED BY IDOCK:   -0.89 KCAL/MOL
REMARK 927      BINDING AFFINITY PREDICTED BY RF-SCORE:    0.00 PKD
ROOT
HETATM    1  N   UNK A   0      -9.970  20.588  66.434  1.00  0.00    -0.577 NA 
HETATM    2  H1  UNK A   0     -10.954  20.853  66.425  1.00  0.00     0.000 HD 
HETATM    3  C   UNK A   0      -9.571  19.410  66.980  1.00  0.00    -0.329 C  
HETATM    4  H2  UNK A   0      -9.276  21.215  66.027  1.00  0.00     0.000 HD 
HETATM    5  N   UNK A   0      -8.315  19.072  66.990  1.00  0.00    -0.270 N  
HETATM    6  H   UNK A   0      -7.612  19.701  66.603  1.00  0.00     0.000 HD 
HETATM    7  C   UNK A   0      -7.935  17.844  67.536  1.00  0.00    -0.213 C  
HETATM    8  C   UNK A   0      -9.027  16.997  68.022  1.00  0.00    -0.230 A  
HETATM    9  O   UNK A   0      -6.767  17.483  67.603  1.00  0.00    -0.157 OA 
HETATM   10  C   UNK A   0     -10.313  17.462  67.964  1.00  0.00    -0.362 A  
HETATM   11  N   UNK A   0     -11.176  16.525  68.427  1.00  0.00    -0.337 NA 
HETATM   12  N   UNK A   0     -10.613  18.671  67.474  1.00  0.00    -0.423 NA 
HETATM   13  H   UNK A   0     -12.189  16.621  68.490  1.00  0.00     0.000 HD 
HETATM   14  C   UNK A   0     -10.443  15.422  68.798  1.00  0.00    -0.231 A  
HETATM   15  C   UNK A   0      -9.096  15.676  68.561  1.00  0.00    -0.196 A  
ENDROOT
BRANCH  15  16
HETATM   16  C   UNK A   0      -7.968  14.716  68.770  1.00  0.00    -0.151 C  
BRANCH  16  17
HETATM   17  C   UNK A   0      -7.641  13.862  67.534  1.00  0.00    -0.190 C  
BRANCH  17  18
HETATM   18  C   UNK A   0      -8.160  12.438  67.627  1.00  0.00    -0.168 A  
HETATM   19  C   UNK A   0      -7.743  11.448  66.727  1.00  0.00    -0.150 A  
HETATM   20  C   UNK A   0      -8.317  10.178  66.746  1.00  0.00    -0.122 A  
HETATM   21  C   UNK A   0      -9.305   9.866  67.684  1.00  0.00    -0.156 A  
HETATM   22  C   UNK A   0      -9.640  10.798  68.669  1.00  0.00    -0.187 A  
HETATM   23  C   UNK A   0      -9.072  12.080  68.635  1.00  0.00    -0.030 A  
BRANCH  21  24
HETATM   24  C   UNK A   0     -10.041   8.574  67.589  1.00  0.00    -0.213 C  
HETATM   25  O   UNK A   0     -10.683   8.244  66.600  1.00  0.00    -0.202 OA 
ATOM     26  N   GLU A   1      -9.913   7.756  68.694  1.00  0.00    -0.177 N  
ATOM     27  H   GLU A   1      -9.360   8.076  69.489  1.00  0.00     0.000 HD 
BRANCH  26  28
ATOM     28  CA  GLU A   1     -10.548   6.448  68.753  1.00  0.00    -0.251 C  
ATOM     29  C   GLU A   1     -10.676   6.021  70.220  1.00  0.00    -0.300 C  
ATOM     30  O   GLU A   1     -11.828   6.429  70.800  1.00  0.00    -0.361 OA 
ATOM     31  OXT GLU A   1      -9.818   5.383  70.830  1.00  0.00    -0.170 OA 
BRANCH  28  32
ATOM     32  CB  GLU A   1      -9.737   5.411  67.963  1.00  0.00    -0.169 C  
BRANCH  32  33
ATOM     33  CG  GLU A   1     -10.532   4.847  66.786  1.00  0.00    -0.237 C  
ATOM     34  CD  GLU A   1      -9.611   4.314  65.723  1.00  0.00    -0.189 C  
ATOM     35  OE1 GLU A   1      -9.323   3.003  65.862  1.00  0.00    -0.147 OA 
ATOM     36  OE2 GLU A   1      -9.138   5.005  64.832  1.00  0.00    -0.149 OA 
ENDBRANCH  32  33
ENDBRANCH  28  32
ENDBRANCH  26  28
ENDBRANCH  21  24
ENDBRANCH  17  18
ENDBRANCH  16  17
ENDBRANCH  15  16
TORSDOF 7
ENDMDL
MODEL      218
REMARK 921   NORMALIZED FREE ENERGY PREDICTED BY IDOCK:   -3.76 KCAL/MOL
REMARK 922        TOTAL FREE ENERGY PREDICTED BY IDOCK:   -7.94 KCAL/MOL
REMARK 923 INTER-LIGAND FREE ENERGY PREDICTED BY IDOCK:   -6.86 KCAL/MOL
REMARK 924 INTRA-LIGAND FREE ENERGY PREDICTED BY IDOCK:   -1.07 KCAL/MOL
REMARK 927      BINDING AFFINITY PREDICTED BY RF-SCORE:    0.00 PKD
ROOT
HETATM    1  N   UNK A   0     -11.604   2.486  73.621  1.00  0.00    -0.179 NA 
HETATM    2  H1  UNK A   0     -11.505   1.473  73.559  1.00  0.00     0.000 HD 
HETATM    3  C   UNK A   0     -10.710   3.311  73.018  1.00  0.00    -0.125 C  
HETATM    4  H2  UNK A   0     -12.386   2.885  74.142  1.00  0.00     0.000 HD 
HETATM    5  N   UNK A   0     -10.837   4.603  73.096  1.00  0.00    -0.241 N  
HETATM    6  H   UNK A   0     -11.604   5.011  73.630  1.00  0.00     0.000 HD 
HETATM    7  C   UNK A   0      -9.917   5.428  72.445  1.00  0.00    -0.171 C  
HETATM    8  C   UNK A   0      -8.882   4.741  71.668  1.00  0.00    -0.145 A  
HETATM    9  O   UNK A   0      -9.965   6.650  72.507  1.00  0.00    -0.169 OA 
HETATM   10  C   UNK A   0      -8.845   3.373  71.664  1.00  0.00    -0.091 A  
HETATM   11  N   UNK A   0      -7.843   2.930  70.865  1.00  0.00    -0.046 NA 
HETATM   12  N   UNK A   0      -9.726   2.632  72.347  1.00  0.00    -0.125 NA 
HETATM   13  H   UNK A   0      -7.602   1.955  70.690  1.00  0.00     0.000 HD 
HETATM   14  C   UNK A   0      -7.209   4.028  70.334  1.00  0.00    -0.041 A  
HETATM   15  C   UNK A   0      -7.827   5.179  70.811  1.00  0.00    -0.088 A  
ENDROOT
BRANCH  15  16
HETATM   16  C   UNK A   0      -7.485   6.585  70.432  1.00  0.00    -0.094 C  
BRANCH  16  17
HETATM   17  C   UNK A   0      -7.782   6.924  68.961  1.00  0.00    -0.110 C  
BRANCH  17  18
HETATM   18  C   UNK A   0      -8.913   7.923  68.786  1.00  0.00    -0.141 A  
HETATM   19  C   UNK A   0      -9.433   8.223  67.521  1.00  0.00    -0.182 A  
HETATM   20  C   UNK A   0     -10.384   9.230  67.360  1.00  0.00    -0.327 A  
HETATM   21  C   UNK A   0     -10.852   9.939  68.469  1.00  0.00    -0.257 A  
HETATM   22  C   UNK A   0     -10.441   9.566  69.751  1.00  0.00    -0.253 A  
HETATM   23  C   UNK A   0      -9.471   8.565  69.906  1.00  0.00    -0.163 A  
BRANCH  21  24
HETATM   24  C   UNK A   0     -11.731  11.127  68.276  1.00  0.00    -0.252 C  
HETATM   25  O   UNK A   0     -12.646  11.410  69.039  1.00  0.00    -0.271 OA 
ATOM     26  N   GLU A   1     -11.410  11.910  67.185  1.00  0.00    -0.320 N  
ATOM     27  H   GLU A   1     -10.632  11.633  66.586  1.00  0.00     0.000 HD 
BRANCH  26  28
ATOM     28  CA  GLU A   1     -12.152  13.121  66.869  1.00  0.00    -0.316 C  
ATOM     29  C   GLU A   1     -12.145  13.328  65.350  1.00  0.00    -0.422 C  
ATOM     30  O   GLU A   1     -13.176  12.722  64.719  1.00  0.00    -0.812 OA 
ATOM     31  OXT GLU A   1     -11.285  13.968  64.746  1.00  0.00    -0.344 OA 
BRANCH  28  32
ATOM     32  CB  GLU A   1     -11.542  14.337  67.579  1.00  0.00    -0.390 C  
BRANCH  32  33
ATOM     33  CG  GLU A   1     -10.191  14.006  68.211  1.00  0.00    -0.249 C  
ATOM     34  CD  GLU A   1      -9.116  14.920  67.691  1.00  0.00    -0.183 C  
ATOM     35  OE1 GLU A   1      -8.939  16.028  68.440  1.00  0.00    -0.179 OA 
ATOM     36  OE2 GLU A   1      -8.483  14.704  66.669  1.00  0.00    -0.177 OA 
ENDBRANCH  32  33
ENDBRANCH  28  32
ENDBRANCH  26  28
ENDBRANCH  21  24
ENDBRANCH  17  18
ENDBRANCH  16  17
ENDBRANCH  15  16
TORSDOF 7
ENDMDL
MODEL      219
REMARK 921   NORMALIZED FREE ENERGY PREDICTED BY IDOCK:   -3.73 KCAL/MOL
REMARK 922        TOTAL FREE ENERGY PREDICTED BY IDOCK:   -7.90 KCAL/MOL
REMARK 923 INTER-LIGAND FREE ENERGY PREDICTED BY IDOCK:   -5.48 KCAL/MOL
REMARK 924 INTRA-LIGAND FREE ENERGY PREDICTED BY IDOCK:   -2.41 KCAL/MOL
REMARK 927      BINDING AFFINITY PREDICTED BY RF-SCORE:    0.00 PKD
ROOT
HETATM    1  N   UNK A   0     -11.505   6.535  67.488  1.00  0.00    -0.714 NA 
HETATM    2  H1  UNK A   0     -12.386   6.906  67.841  1.00  0.00     0.000 HD 
HETATM    3  C   UNK A   0     -10.564   7.361  66.961  1.00  0.00    -0.344 C  
HETATM    4  H2  UNK A   0     -11.327   5.532  67.532  1.00  0.00     0.000 HD 
HETATM    5  N   UNK A   0      -9.440   6.888  66.510  1.00  0.00    -0.222 N  
HETATM    6  H   UNK A   0      -9.261   5.884  66.532  1.00  0.00     0.000 HD 
HETATM    7  C   UNK A   0      -8.479   7.761  65.995  1.00  0.00    -0.139 C  
HETATM    8  C   UNK A   0      -8.817   9.187  66.053  1.00  0.00    -0.200 A  
HETATM    9  O   UNK A   0      -7.415   7.375  65.529  1.00  0.00    -0.081 OA 
HETATM   10  C   UNK A   0     -10.036   9.566  66.545  1.00  0.00    -0.261 A  
HETATM   11  N   UNK A   0     -10.144  10.917  66.547  1.00  0.00    -0.215 NA 
HETATM   12  N   UNK A   0     -10.938   8.679  66.981  1.00  0.00     0.059 NA 
HETATM   13  H   UNK A   0     -10.951  11.454  66.864  1.00  0.00     0.000 HD 
HETATM   14  C   UNK A   0      -8.973  11.436  66.046  1.00  0.00    -0.197 A  
HETATM   15  C   UNK A   0      -8.118  10.388  65.725  1.00  0.00    -0.155 A  
ENDROOT
BRANCH  15  16
HETATM   16  C   UNK A   0      -6.721  10.517  65.207  1.00  0.00    -0.049 C  
BRANCH  16  17
HETATM   17  C   UNK A   0      -5.743  11.156  66.208  1.00  0.00    -0.144 C  
BRANCH  17  18
HETATM   18  C   UNK A   0      -5.869  10.602  67.616  1.00  0.00    -0.044 A  
HETATM   19  C   UNK A   0      -5.501   9.285  67.919  1.00  0.00    -0.034 A  
HETATM   20  C   UNK A   0      -5.735   8.750  69.185  1.00  0.00    -0.036 A  
HETATM   21  C   UNK A   0      -6.321   9.534  70.182  1.00  0.00    -0.063 A  
HETATM   22  C   UNK A   0      -6.574  10.886  69.937  1.00  0.00    -0.148 A  
HETATM   23  C   UNK A   0      -6.353  11.414  68.657  1.00  0.00    -0.053 A  
BRANCH  21  24
HETATM   24  C   UNK A   0      -6.731   8.913  71.472  1.00  0.00    -0.079 C  
HETATM   25  O   UNK A   0      -6.129   9.096  72.522  1.00  0.00    -0.239 OA 
ATOM     26  N   GLU A   1      -7.872   8.138  71.402  1.00  0.00    -0.092 N  
ATOM     27  H   GLU A   1      -8.340   8.024  70.502  1.00  0.00     0.000 HD 
BRANCH  26  28
ATOM     28  CA  GLU A   1      -8.423   7.480  72.577  1.00  0.00    -0.116 C  
ATOM     29  C   GLU A   1      -8.523   5.974  72.305  1.00  0.00    -0.117 C  
ATOM     30  O   GLU A   1      -7.406   5.291  72.643  1.00  0.00    -0.090 OA 
ATOM     31  OXT GLU A   1      -9.510   5.427  71.814  1.00  0.00    -0.145 OA 
BRANCH  28  32
ATOM     32  CB  GLU A   1      -9.803   8.054  72.928  1.00  0.00    -0.357 C  
BRANCH  32  33
ATOM     33  CG  GLU A   1     -10.330   8.974  71.828  1.00  0.00    -0.407 C  
ATOM     34  CD  GLU A   1     -11.604   8.431  71.239  1.00  0.00    -0.283 C  
ATOM     35  OE1 GLU A   1     -12.719   8.891  71.844  1.00  0.00    -0.328 OA 
ATOM     36  OE2 GLU A   1     -11.633   7.623  70.322  1.00  0.00    -0.195 OA 
ENDBRANCH  32  33
ENDBRANCH  28  32
ENDBRANCH  26  28
ENDBRANCH  21  24
ENDBRANCH  17  18
ENDBRANCH  16  17
ENDBRANCH  15  16
TORSDOF 7
ENDMDL
MODEL      220
REMARK 921   NORMALIZED FREE ENERGY PREDICTED BY IDOCK:   -3.69 KCAL/MOL
REMARK 922        TOTAL FREE ENERGY PREDICTED BY IDOCK:   -7.84 KCAL/MOL
REMARK 923 INTER-LIGAND FREE ENERGY PREDICTED BY IDOCK:   -5.81 KCAL/MOL
REMARK 924 INTRA-LIGAND FREE ENERGY PREDICTED BY IDOCK:   -2.02 KCAL/MOL
REMARK 927      BINDING AFFINITY PREDICTED BY RF-SCORE:    0.00 PKD
ROOT
HETATM    1  N   UNK A   0     -11.707  12.265  63.118  1.00  0.00    -0.721 NA 
HETATM    2  H1  UNK A   0     -11.571  12.812  62.268  1.00  0.00     0.000 HD 
HETATM    3  C   UNK A   0     -10.722  11.460  63.592  1.00  0.00    -0.401 C  
HETATM    4  H2  UNK A   0     -12.595  12.324  63.618  1.00  0.00     0.000 HD 
HETATM    5  N   UNK A   0     -10.896  10.762  64.676  1.00  0.00    -0.144 N  
HETATM    6  H   UNK A   0     -11.787  10.801  65.173  1.00  0.00     0.000 HD 
HETATM    7  C   UNK A   0      -9.858   9.961  65.157  1.00  0.00    -0.278 C  
HETATM    8  C   UNK A   0      -8.607  10.014  64.396  1.00  0.00    -0.199 A  
HETATM    9  O   UNK A   0      -9.971   9.258  66.153  1.00  0.00    -0.279 OA 
HETATM   10  C   UNK A   0      -8.543  10.782  63.265  1.00  0.00    -0.107 A  
HETATM   11  N   UNK A   0      -7.301  10.727  62.726  1.00  0.00    -0.350 NA 
HETATM   12  N   UNK A   0      -9.588  11.494  62.824  1.00  0.00    -0.297 NA 
HETATM   13  H   UNK A   0      -6.990  11.208  61.882  1.00  0.00     0.000 HD 
HETATM   14  C   UNK A   0      -6.533   9.906  63.518  1.00  0.00    -0.124 A  
HETATM   15  C   UNK A   0      -7.311   9.440  64.572  1.00  0.00    -0.105 A  
ENDROOT
BRANCH  15  16
HETATM   16  C   UNK A   0      -6.845   8.568  65.694  1.00  0.00    -0.067 C  
BRANCH  16  17
HETATM   17  C   UNK A   0      -5.894   9.274  66.676  1.00  0.00    -0.055 C  
BRANCH  17  18
HETATM   18  C   UNK A   0      -6.456  10.568  67.239  1.00  0.00    -0.071 A  
HETATM   19  C   UNK A   0      -7.569  10.573  68.090  1.00  0.00    -0.091 A  
HETATM   20  C   UNK A   0      -8.150  11.771  68.501  1.00  0.00    -0.140 A  
HETATM   21  C   UNK A   0      -7.611  12.992  68.087  1.00  0.00    -0.136 A  
HETATM   22  C   UNK A   0      -6.427  13.008  67.345  1.00  0.00    -0.107 A  
HETATM   23  C   UNK A   0      -5.857  11.800  66.920  1.00  0.00    -0.143 A  
BRANCH  21  24
HETATM   24  C   UNK A   0      -8.333  14.262  68.379  1.00  0.00    -0.164 C  
HETATM   25  O   UNK A   0      -8.439  14.725  69.508  1.00  0.00    -0.058 OA 
ATOM     26  N   GLU A   1      -8.848  14.901  67.268  1.00  0.00    -0.189 N  
ATOM     27  H   GLU A   1      -8.725  14.476  66.349  1.00  0.00     0.000 HD 
BRANCH  26  28
ATOM     28  CA  GLU A   1      -9.560  16.166  67.376  1.00  0.00    -0.229 C  
ATOM     29  C   GLU A   1     -10.849  16.084  66.550  1.00  0.00    -0.167 C  
ATOM     30  O   GLU A   1     -11.907  15.612  67.248  1.00  0.00     0.047 OA 
ATOM     31  OXT GLU A   1     -10.928  16.399  65.362  1.00  0.00    -0.271 OA 
BRANCH  28  32
ATOM     32  CB  GLU A   1      -8.684  17.329  66.889  1.00  0.00    -0.261 C  
BRANCH  32  33
ATOM     33  CG  GLU A   1      -7.308  16.849  66.431  1.00  0.00    -0.302 C  
ATOM     34  CD  GLU A   1      -6.218  17.492  67.243  1.00  0.00    -0.141 C  
ATOM     35  OE1 GLU A   1      -5.855  16.775  68.327  1.00  0.00    -0.117 OA 
ATOM     36  OE2 GLU A   1      -5.725  18.578  66.972  1.00  0.00    -0.146 OA 
ENDBRANCH  32  33
ENDBRANCH  28  32
ENDBRANCH  26  28
ENDBRANCH  21  24
ENDBRANCH  17  18
ENDBRANCH  16  17
ENDBRANCH  15  16
TORSDOF 7
ENDMDL
MODEL      221
REMARK 921   NORMALIZED FREE ENERGY PREDICTED BY IDOCK:   -3.68 KCAL/MOL
REMARK 922        TOTAL FREE ENERGY PREDICTED BY IDOCK:   -7.83 KCAL/MOL
REMARK 923 INTER-LIGAND FREE ENERGY PREDICTED BY IDOCK:   -7.38 KCAL/MOL
REMARK 924 INTRA-LIGAND FREE ENERGY PREDICTED BY IDOCK:   -0.45 KCAL/MOL
REMARK 927      BINDING AFFINITY PREDICTED BY RF-SCORE:    0.00 PKD
ROOT
HETATM    1  N   UNK A   0     -11.411   4.096  64.723  1.00  0.00    -0.911 NA 
HETATM    2  H1  UNK A   0     -11.035   3.282  64.238  1.00  0.00     0.000 HD 
HETATM    3  C   UNK A   0     -10.693   4.725  65.688  1.00  0.00    -0.141 C  
HETATM    4  H2  UNK A   0     -12.339   4.443  64.478  1.00  0.00     0.000 HD 
HETATM    5  N   UNK A   0     -11.173   5.764  66.306  1.00  0.00    -0.734 N  
HETATM    6  H   UNK A   0     -12.107   6.107  66.081  1.00  0.00     0.000 HD 
HETATM    7  C   UNK A   0     -10.403   6.407  67.277  1.00  0.00    -0.218 C  
HETATM    8  C   UNK A   0      -9.058   5.863  67.489  1.00  0.00    -0.106 A  
HETATM    9  O   UNK A   0     -10.810   7.370  67.914  1.00  0.00    -0.172 OA 
HETATM   10  C   UNK A   0      -8.664   4.759  66.782  1.00  0.00    -0.107 A  
HETATM   11  N   UNK A   0      -7.385   4.433  67.093  1.00  0.00    -0.072 NA 
HETATM   12  N   UNK A   0      -9.465   4.154  65.897  1.00  0.00    -0.165 NA 
HETATM   13  H   UNK A   0      -6.855   3.652  66.706  1.00  0.00     0.000 HD 
HETATM   14  C   UNK A   0      -6.931   5.339  68.022  1.00  0.00    -0.062 A  
HETATM   15  C   UNK A   0      -7.946   6.249  68.296  1.00  0.00    -0.108 A  
ENDROOT
BRANCH  15  16
HETATM   16  C   UNK A   0      -7.846   7.431  69.207  1.00  0.00    -0.116 C  
BRANCH  16  17
HETATM   17  C   UNK A   0      -6.909   8.537  68.692  1.00  0.00    -0.063 C  
BRANCH  17  18
HETATM   18  C   UNK A   0      -7.624   9.839  68.375  1.00  0.00    -0.080 A  
HETATM   19  C   UNK A   0      -7.033  10.819  67.567  1.00  0.00    -0.084 A  
HETATM   20  C   UNK A   0      -7.645  12.058  67.384  1.00  0.00    -0.151 A  
HETATM   21  C   UNK A   0      -8.876  12.331  67.987  1.00  0.00    -0.182 A  
HETATM   22  C   UNK A   0      -9.539  11.321  68.689  1.00  0.00    -0.195 A  
HETATM   23  C   UNK A   0      -8.912  10.082  68.884  1.00  0.00    -0.152 A  
BRANCH  21  24
HETATM   24  C   UNK A   0      -9.440  13.708  67.937  1.00  0.00    -0.213 C  
HETATM   25  O   UNK A   0     -10.077  14.134  66.981  1.00  0.00    -0.255 OA 
ATOM     26  N   GLU A   1      -9.220  14.463  69.072  1.00  0.00    -0.387 N  
ATOM     27  H   GLU A   1      -8.689  14.058  69.843  1.00  0.00     0.000 HD 
BRANCH  26  28
ATOM     28  CA  GLU A   1      -9.727  15.822  69.196  1.00  0.00    -0.250 C  
ATOM     29  C   GLU A   1     -11.194  15.768  69.637  1.00  0.00    -0.319 C  
ATOM     30  O   GLU A   1     -11.353  15.757  70.980  1.00  0.00    -0.341 OA 
ATOM     31  OXT GLU A   1     -12.147  15.725  68.859  1.00  0.00    -0.333 OA 
BRANCH  28  32
ATOM     32  CB  GLU A   1      -9.594  16.578  67.868  1.00  0.00    -0.233 C  
BRANCH  32  33
ATOM     33  CG  GLU A   1      -8.350  17.465  67.843  1.00  0.00    -0.230 C  
ATOM     34  CD  GLU A   1      -7.392  17.017  66.774  1.00  0.00    -0.230 C  
ATOM     35  OE1 GLU A   1      -7.577  17.633  65.587  1.00  0.00    -0.521 OA 
ATOM     36  OE2 GLU A   1      -6.546  16.152  66.946  1.00  0.00    -0.255 OA 
ENDBRANCH  32  33
ENDBRANCH  28  32
ENDBRANCH  26  28
ENDBRANCH  21  24
ENDBRANCH  17  18
ENDBRANCH  16  17
ENDBRANCH  15  16
TORSDOF 7
ENDMDL
MODEL      222
REMARK 921   NORMALIZED FREE ENERGY PREDICTED BY IDOCK:   -3.68 KCAL/MOL
REMARK 922        TOTAL FREE ENERGY PREDICTED BY IDOCK:   -7.83 KCAL/MOL
REMARK 923 INTER-LIGAND FREE ENERGY PREDICTED BY IDOCK:   -6.43 KCAL/MOL
REMARK 924 INTRA-LIGAND FREE ENERGY PREDICTED BY IDOCK:   -1.40 KCAL/MOL
REMARK 927      BINDING AFFINITY PREDICTED BY RF-SCORE:    0.00 PKD
ROOT
HETATM    1  N   UNK A   0      -8.731  19.094  67.298  1.00  0.00    -0.282 NA 
HETATM    2  H1  UNK A   0      -8.256  19.386  66.445  1.00  0.00     0.000 HD 
HETATM    3  C   UNK A   0      -9.545  18.008  67.305  1.00  0.00    -0.269 C  
HETATM    4  H2  UNK A   0      -8.592  19.625  68.159  1.00  0.00     0.000 HD 
HETATM    5  N   UNK A   0     -10.151  17.636  68.393  1.00  0.00    -0.345 N  
HETATM    6  H   UNK A   0     -10.033  18.171  69.254  1.00  0.00     0.000 HD 
HETATM    7  C   UNK A   0     -10.964  16.499  68.379  1.00  0.00    -0.348 C  
HETATM    8  C   UNK A   0     -11.027  15.777  67.105  1.00  0.00    -0.244 A  
HETATM    9  O   UNK A   0     -11.584  16.117  69.362  1.00  0.00    -0.321 OA 
HETATM   10  C   UNK A   0     -10.349  16.269  66.022  1.00  0.00    -0.349 A  
HETATM   11  N   UNK A   0     -10.504  15.447  64.956  1.00  0.00    -0.416 NA 
HETATM   12  N   UNK A   0      -9.623  17.392  66.083  1.00  0.00    -0.460 NA 
HETATM   13  H   UNK A   0     -10.101  15.584  64.029  1.00  0.00     0.000 HD 
HETATM   14  C   UNK A   0     -11.299  14.395  65.344  1.00  0.00    -0.339 A  
HETATM   15  C   UNK A   0     -11.648  14.564  66.680  1.00  0.00    -0.385 A  
ENDROOT
BRANCH  15  16
HETATM   16  C   UNK A   0     -12.455  13.615  67.507  1.00  0.00     0.117 C  
BRANCH  16  17
HETATM   17  C   UNK A   0     -11.634  12.856  68.563  1.00  0.00    -0.358 C  
BRANCH  17  18
HETATM   18  C   UNK A   0     -10.484  12.056  67.976  1.00  0.00    -0.224 A  
HETATM   19  C   UNK A   0      -9.186  12.579  67.915  1.00  0.00    -0.200 A  
HETATM   20  C   UNK A   0      -8.166  11.886  67.264  1.00  0.00    -0.170 A  
HETATM   21  C   UNK A   0      -8.421  10.642  66.682  1.00  0.00    -0.137 A  
HETATM   22  C   UNK A   0      -9.675  10.048  66.845  1.00  0.00    -0.237 A  
HETATM   23  C   UNK A   0     -10.702  10.756  67.485  1.00  0.00    -0.312 A  
BRANCH  21  24
HETATM   24  C   UNK A   0      -7.382   9.988  65.838  1.00  0.00    -0.115 C  
HETATM   25  O   UNK A   0      -6.292  10.496  65.609  1.00  0.00    -0.120 OA 
ATOM     26  N   GLU A   1      -7.730   8.740  65.359  1.00  0.00    -0.087 N  
ATOM     27  H   GLU A   1      -8.649   8.359  65.585  1.00  0.00     0.000 HD 
BRANCH  26  28
ATOM     28  CA  GLU A   1      -6.819   7.955  64.539  1.00  0.00    -0.062 C  
ATOM     29  C   GLU A   1      -7.294   8.001  63.082  1.00  0.00    -0.104 C  
ATOM     30  O   GLU A   1      -6.779   9.035  62.380  1.00  0.00    -0.095 OA 
ATOM     31  OXT GLU A   1      -8.078   7.191  62.587  1.00  0.00    -0.127 OA 
BRANCH  28  32
ATOM     32  CB  GLU A   1      -6.750   6.504  65.036  1.00  0.00    -0.042 C  
BRANCH  32  33
ATOM     33  CG  GLU A   1      -8.036   6.087  65.746  1.00  0.00    -0.123 C  
ATOM     34  CD  GLU A   1      -7.742   5.563  67.125  1.00  0.00    -0.100 C  
ATOM     35  OE1 GLU A   1      -7.789   6.511  68.085  1.00  0.00    -0.103 OA 
ATOM     36  OE2 GLU A   1      -7.454   4.399  67.358  1.00  0.00    -0.072 OA 
ENDBRANCH  32  33
ENDBRANCH  28  32
ENDBRANCH  26  28
ENDBRANCH  21  24
ENDBRANCH  17  18
ENDBRANCH  16  17
ENDBRANCH  15  16
TORSDOF 7
ENDMDL
MODEL      223
REMARK 921   NORMALIZED FREE ENERGY PREDICTED BY IDOCK:   -3.67 KCAL/MOL
REMARK 922        TOTAL FREE ENERGY PREDICTED BY IDOCK:   -7.82 KCAL/MOL
REMARK 923 INTER-LIGAND FREE ENERGY PREDICTED BY IDOCK:   -7.77 KCAL/MOL
REMARK 924 INTRA-LIGAND FREE ENERGY PREDICTED BY IDOCK:   -0.05 KCAL/MOL
REMARK 927      BINDING AFFINITY PREDICTED BY RF-SCORE:    0.00 PKD
ROOT
HETATM    1  N   UNK A   0     -13.813  16.205  73.395  1.00  0.00    -0.788 NA 
HETATM    2  H1  UNK A   0     -13.710  17.188  73.147  1.00  0.00     0.000 HD 
HETATM    3  C   UNK A   0     -13.497  15.226  72.508  1.00  0.00    -0.485 C  
HETATM    4  H2  UNK A   0     -14.159  15.953  74.322  1.00  0.00     0.000 HD 
HETATM    5  N   UNK A   0     -13.630  13.972  72.825  1.00  0.00    -0.500 N  
HETATM    6  H   UNK A   0     -13.991  13.710  73.742  1.00  0.00     0.000 HD 
HETATM    7  C   UNK A   0     -13.274  12.985  71.903  1.00  0.00    -0.430 C  
HETATM    8  C   UNK A   0     -12.721  13.467  70.634  1.00  0.00    -0.275 A  
HETATM    9  O   UNK A   0     -13.404  11.789  72.131  1.00  0.00    -0.497 OA 
HETATM   10  C   UNK A   0     -12.635  14.814  70.411  1.00  0.00    -0.346 A  
HETATM   11  N   UNK A   0     -12.070  15.057  69.202  1.00  0.00    -0.525 NA 
HETATM   12  N   UNK A   0     -13.037  15.716  71.314  1.00  0.00    -0.500 NA 
HETATM   13  H   UNK A   0     -11.892  15.975  68.796  1.00  0.00     0.000 HD 
HETATM   14  C   UNK A   0     -11.780  13.845  68.620  1.00  0.00    -0.361 A  
HETATM   15  C   UNK A   0     -12.171  12.827  69.482  1.00  0.00    -0.161 A  
ENDROOT
BRANCH  15  16
HETATM   16  C   UNK A   0     -11.980  11.360  69.258  1.00  0.00    -0.400 C  
BRANCH  16  17
HETATM   17  C   UNK A   0     -11.069  10.685  70.297  1.00  0.00    -0.310 C  
BRANCH  17  18
HETATM   18  C   UNK A   0     -10.181   9.601  69.711  1.00  0.00    -0.262 A  
HETATM   19  C   UNK A   0     -10.452   9.033  68.460  1.00  0.00    -0.232 A  
HETATM   20  C   UNK A   0      -9.704   7.955  67.987  1.00  0.00    -0.182 A  
HETATM   21  C   UNK A   0      -8.652   7.441  68.750  1.00  0.00    -0.129 A  
HETATM   22  C   UNK A   0      -8.286   8.077  69.939  1.00  0.00    -0.121 A  
HETATM   23  C   UNK A   0      -9.052   9.150  70.418  1.00  0.00    -0.270 A  
BRANCH  21  24
HETATM   24  C   UNK A   0      -7.971   6.185  68.328  1.00  0.00    -0.107 C  
HETATM   25  O   UNK A   0      -6.777   6.130  68.062  1.00  0.00    -0.059 OA 
ATOM     26  N   GLU A   1      -8.787   5.071  68.293  1.00  0.00    -0.101 N  
ATOM     27  H   GLU A   1      -9.774   5.171  68.531  1.00  0.00     0.000 HD 
BRANCH  26  28
ATOM     28  CA  GLU A   1      -8.274   3.760  67.927  1.00  0.00    -0.088 C  
ATOM     29  C   GLU A   1      -7.749   3.060  69.186  1.00  0.00    -0.047 C  
ATOM     30  O   GLU A   1      -8.690   2.335  69.831  1.00  0.00    -0.052 OA 
ATOM     31  OXT GLU A   1      -6.590   3.150  69.591  1.00  0.00    -0.032 OA 
BRANCH  28  32
ATOM     32  CB  GLU A   1      -7.161   3.882  66.877  1.00  0.00    -0.063 C  
BRANCH  32  33
ATOM     33  CG  GLU A   1      -7.658   3.521  65.479  1.00  0.00    -0.078 C  
ATOM     34  CD  GLU A   1      -8.511   4.623  64.911  1.00  0.00    -0.135 C  
ATOM     35  OE1 GLU A   1      -7.818   5.524  64.185  1.00  0.00    -0.089 OA 
ATOM     36  OE2 GLU A   1      -9.713   4.718  65.113  1.00  0.00    -0.141 OA 
ENDBRANCH  32  33
ENDBRANCH  28  32
ENDBRANCH  26  28
ENDBRANCH  21  24
ENDBRANCH  17  18
ENDBRANCH  16  17
ENDBRANCH  15  16
TORSDOF 7
ENDMDL
MODEL      224
REMARK 921   NORMALIZED FREE ENERGY PREDICTED BY IDOCK:   -3.67 KCAL/MOL
REMARK 922        TOTAL FREE ENERGY PREDICTED BY IDOCK:   -7.81 KCAL/MOL
REMARK 923 INTER-LIGAND FREE ENERGY PREDICTED BY IDOCK:   -7.20 KCAL/MOL
REMARK 924 INTRA-LIGAND FREE ENERGY PREDICTED BY IDOCK:   -0.61 KCAL/MOL
REMARK 927      BINDING AFFINITY PREDICTED BY RF-SCORE:    0.00 PKD
ROOT
HETATM    1  N   UNK A   0     -11.651  19.995  67.417  1.00  0.00     0.811 NA 
HETATM    2  H1  UNK A   0     -12.165  20.285  68.249  1.00  0.00     0.000 HD 
HETATM    3  C   UNK A   0     -10.316  19.755  67.472  1.00  0.00    -0.440 C  
HETATM    4  H2  UNK A   0     -12.147  19.884  66.532  1.00  0.00     0.000 HD 
HETATM    5  N   UNK A   0      -9.661  19.385  66.411  1.00  0.00    -0.359 N  
HETATM    6  H   UNK A   0     -10.145  19.289  65.518  1.00  0.00     0.000 HD 
HETATM    7  C   UNK A   0      -8.292  19.120  66.501  1.00  0.00    -0.315 C  
HETATM    8  C   UNK A   0      -7.706  19.242  67.839  1.00  0.00    -0.318 A  
HETATM    9  O   UNK A   0      -7.616  18.798  65.533  1.00  0.00    -0.476 OA 
HETATM   10  C   UNK A   0      -8.495  19.645  68.882  1.00  0.00    -0.193 A  
HETATM   11  N   UNK A   0      -7.781  19.664  70.034  1.00  0.00     0.388 NA 
HETATM   12  N   UNK A   0      -9.793  19.933  68.726  1.00  0.00    -0.359 NA 
HETATM   13  H   UNK A   0      -8.133  19.927  70.954  1.00  0.00     0.000 HD 
HETATM   14  C   UNK A   0      -6.497  19.265  69.742  1.00  0.00    -0.224 A  
HETATM   15  C   UNK A   0      -6.409  18.992  68.382  1.00  0.00    -0.247 A  
ENDROOT
BRANCH  15  16
HETATM   16  C   UNK A   0      -5.204  18.475  67.663  1.00  0.00    -0.159 C  
BRANCH  16  17
HETATM   17  C   UNK A   0      -5.163  16.942  67.540  1.00  0.00    -0.150 C  
BRANCH  17  18
HETATM   18  C   UNK A   0      -6.517  16.282  67.742  1.00  0.00    -0.161 A  
HETATM   19  C   UNK A   0      -6.938  15.850  69.006  1.00  0.00    -0.156 A  
HETATM   20  C   UNK A   0      -8.126  15.137  69.159  1.00  0.00    -0.214 A  
HETATM   21  C   UNK A   0      -8.930  14.865  68.049  1.00  0.00    -0.172 A  
HETATM   22  C   UNK A   0      -8.591  15.399  66.803  1.00  0.00    -0.308 A  
HETATM   23  C   UNK A   0      -7.387  16.100  66.652  1.00  0.00    -0.156 A  
BRANCH  21  24
HETATM   24  C   UNK A   0     -10.102  13.955  68.184  1.00  0.00    -0.250 C  
HETATM   25  O   UNK A   0     -10.874  13.999  69.134  1.00  0.00    -0.245 OA 
ATOM     26  N   GLU A   1     -10.275  13.077  67.133  1.00  0.00    -0.241 N  
ATOM     27  H   GLU A   1      -9.607  13.087  66.362  1.00  0.00     0.000 HD 
BRANCH  26  28
ATOM     28  CA  GLU A   1     -11.386  12.138  67.096  1.00  0.00    -0.331 C  
ATOM     29  C   GLU A   1     -10.856  10.728  67.380  1.00  0.00    -0.290 C  
ATOM     30  O   GLU A   1     -10.842  10.412  68.695  1.00  0.00    -0.205 OA 
ATOM     31  OXT GLU A   1     -10.465   9.950  66.509  1.00  0.00    -0.209 OA 
BRANCH  28  32
ATOM     32  CB  GLU A   1     -12.093  12.181  65.734  1.00  0.00    -0.155 C  
BRANCH  32  33
ATOM     33  CG  GLU A   1     -12.760  13.532  65.485  1.00  0.00    -0.493 C  
ATOM     34  CD  GLU A   1     -12.042  14.294  64.404  1.00  0.00    -0.468 C  
ATOM     35  OE1 GLU A   1     -12.537  14.077  63.168  1.00  0.00    -0.733 OA 
ATOM     36  OE2 GLU A   1     -11.078  15.016  64.614  1.00  0.00    -0.372 OA 
ENDBRANCH  32  33
ENDBRANCH  28  32
ENDBRANCH  26  28
ENDBRANCH  21  24
ENDBRANCH  17  18
ENDBRANCH  16  17
ENDBRANCH  15  16
TORSDOF 7
ENDMDL
MODEL      225
REMARK 921   NORMALIZED FREE ENERGY PREDICTED BY IDOCK:   -3.63 KCAL/MOL
REMARK 922        TOTAL FREE ENERGY PREDICTED BY IDOCK:   -7.76 KCAL/MOL
REMARK 923 INTER-LIGAND FREE ENERGY PREDICTED BY IDOCK:   -6.84 KCAL/MOL
REMARK 924 INTRA-LIGAND FREE ENERGY PREDICTED BY IDOCK:   -0.91 KCAL/MOL
REMARK 927      BINDING AFFINITY PREDICTED BY RF-SCORE:    0.00 PKD
ROOT
HETATM    1  N   UNK A   0     -12.739  14.183  72.595  1.00  0.00    -0.308 NA 
HETATM    2  H1  UNK A   0     -12.676  15.163  72.870  1.00  0.00     0.000 HD 
HETATM    3  C   UNK A   0     -12.516  13.807  71.309  1.00  0.00    -0.345 C  
HETATM    4  H2  UNK A   0     -12.973  13.478  73.293  1.00  0.00     0.000 HD 
HETATM    5  N   UNK A   0     -12.596  12.557  70.958  1.00  0.00    -0.326 N  
HETATM    6  H   UNK A   0     -12.847  11.847  71.645  1.00  0.00     0.000 HD 
HETATM    7  C   UNK A   0     -12.337  12.193  69.634  1.00  0.00    -0.004 C  
HETATM    8  C   UNK A   0     -11.939  13.284  68.739  1.00  0.00    -0.335 A  
HETATM    9  O   UNK A   0     -12.426  11.039  69.236  1.00  0.00    -0.400 OA 
HETATM   10  C   UNK A   0     -11.895  14.564  69.222  1.00  0.00    -0.323 A  
HETATM   11  N   UNK A   0     -11.476  15.418  68.257  1.00  0.00    -0.345 NA 
HETATM   12  N   UNK A   0     -12.202  14.860  70.491  1.00  0.00    -0.305 NA 
HETATM   13  H   UNK A   0     -11.357  16.426  68.358  1.00  0.00     0.000 HD 
HETATM   14  C   UNK A   0     -11.241  14.686  67.117  1.00  0.00    -0.344 A  
HETATM   15  C   UNK A   0     -11.518  13.348  67.377  1.00  0.00    -0.368 A  
ENDROOT
BRANCH  15  16
HETATM   16  C   UNK A   0     -11.337  12.209  66.424  1.00  0.00    -0.411 C  
BRANCH  16  17
HETATM   17  C   UNK A   0      -9.866  11.846  66.161  1.00  0.00    -0.254 C  
BRANCH  17  18
HETATM   18  C   UNK A   0      -9.327  10.784  67.105  1.00  0.00    -0.171 A  
HETATM   19  C   UNK A   0      -7.954  10.655  67.350  1.00  0.00    -0.111 A  
HETATM   20  C   UNK A   0      -7.461   9.602  68.120  1.00  0.00    -0.082 A  
HETATM   21  C   UNK A   0      -8.339   8.670  68.681  1.00  0.00    -0.122 A  
HETATM   22  C   UNK A   0      -9.718   8.858  68.554  1.00  0.00    -0.172 A  
HETATM   23  C   UNK A   0     -10.207   9.908  67.764  1.00  0.00    -0.241 A  
BRANCH  21  24
HETATM   24  C   UNK A   0      -7.804   7.452  69.350  1.00  0.00    -0.122 C  
HETATM   25  O   UNK A   0      -6.676   7.021  69.148  1.00  0.00    -0.046 OA 
ATOM     26  N   GLU A   1      -8.669   6.861  70.250  1.00  0.00    -0.143 N  
ATOM     27  H   GLU A   1      -9.596   7.265  70.386  1.00  0.00     0.000 HD 
BRANCH  26  28
ATOM     28  CA  GLU A   1      -8.292   5.678  71.008  1.00  0.00    -0.122 C  
ATOM     29  C   GLU A   1      -9.151   4.495  70.545  1.00  0.00    -0.115 C  
ATOM     30  O   GLU A   1      -8.612   3.809  69.512  1.00  0.00    -0.063 OA 
ATOM     31  OXT GLU A   1     -10.235   4.193  71.045  1.00  0.00    -0.119 OA 
BRANCH  28  32
ATOM     32  CB  GLU A   1      -8.471   5.913  72.514  1.00  0.00    -0.116 C  
BRANCH  32  33
ATOM     33  CG  GLU A   1      -9.178   7.237  72.800  1.00  0.00    -0.178 C  
ATOM     34  CD  GLU A   1      -8.180   8.340  73.029  1.00  0.00    -0.164 C  
ATOM     35  OE1 GLU A   1      -7.856   9.017  71.907  1.00  0.00    -0.345 OA 
ATOM     36  OE2 GLU A   1      -7.681   8.583  74.117  1.00  0.00    -0.344 OA 
ENDBRANCH  32  33
ENDBRANCH  28  32
ENDBRANCH  26  28
ENDBRANCH  21  24
ENDBRANCH  17  18
ENDBRANCH  16  17
ENDBRANCH  15  16
TORSDOF 7
ENDMDL
MODEL      226
REMARK 921   NORMALIZED FREE ENERGY PREDICTED BY IDOCK:   -3.60 KCAL/MOL
REMARK 922        TOTAL FREE ENERGY PREDICTED BY IDOCK:   -7.71 KCAL/MOL
REMARK 923 INTER-LIGAND FREE ENERGY PREDICTED BY IDOCK:   -7.44 KCAL/MOL
REMARK 924 INTRA-LIGAND FREE ENERGY PREDICTED BY IDOCK:   -0.27 KCAL/MOL
REMARK 927      BINDING AFFINITY PREDICTED BY RF-SCORE:    0.00 PKD
ROOT
HETATM    1  N   UNK A   0     -13.035  13.904  65.504  1.00  0.00    -0.697 NA 
HETATM    2  H1  UNK A   0     -13.496  14.286  64.680  1.00  0.00     0.000 HD 
HETATM    3  C   UNK A   0     -12.105  12.921  65.388  1.00  0.00    -0.454 C  
HETATM    4  H2  UNK A   0     -13.274  14.265  66.428  1.00  0.00     0.000 HD 
HETATM    5  N   UNK A   0     -11.516  12.434  66.441  1.00  0.00    -0.352 N  
HETATM    6  H   UNK A   0     -11.762  12.775  67.370  1.00  0.00     0.000 HD 
HETATM    7  C   UNK A   0     -10.545  11.440  66.291  1.00  0.00    -0.263 C  
HETATM    8  C   UNK A   0     -10.234  11.055  64.912  1.00  0.00    -0.373 A  
HETATM    9  O   UNK A   0      -9.978  10.921  67.244  1.00  0.00    -0.179 OA 
HETATM   10  C   UNK A   0     -10.925  11.635  63.883  1.00  0.00    -0.407 A  
HETATM   11  N   UNK A   0     -10.471  11.174  62.691  1.00  0.00    -0.642 NA 
HETATM   12  N   UNK A   0     -11.881  12.548  64.089  1.00  0.00    -0.379 NA 
HETATM   13  H   UNK A   0     -10.817  11.447  61.771  1.00  0.00     0.000 HD 
HETATM   14  C   UNK A   0      -9.462  10.274  62.942  1.00  0.00    -0.301 A  
HETATM   15  C   UNK A   0      -9.283  10.171  64.318  1.00  0.00    -0.312 A  
ENDROOT
BRANCH  15  16
HETATM   16  C   UNK A   0      -8.247   9.346  65.012  1.00  0.00    -0.139 C  
BRANCH  16  17
HETATM   17  C   UNK A   0      -8.626   7.862  65.154  1.00  0.00    -0.052 C  
BRANCH  17  18
HETATM   18  C   UNK A   0      -8.795   7.416  66.596  1.00  0.00    -0.157 A  
HETATM   19  C   UNK A   0      -7.826   7.698  67.567  1.00  0.00    -0.119 A  
HETATM   20  C   UNK A   0      -7.933   7.179  68.857  1.00  0.00    -0.120 A  
HETATM   21  C   UNK A   0      -9.029   6.385  69.206  1.00  0.00    -0.133 A  
HETATM   22  C   UNK A   0     -10.067   6.201  68.291  1.00  0.00    -0.182 A  
HETATM   23  C   UNK A   0      -9.947   6.711  66.990  1.00  0.00    -0.223 A  
BRANCH  21  24
HETATM   24  C   UNK A   0      -9.053   5.688  70.523  1.00  0.00    -0.145 C  
HETATM   25  O   UNK A   0      -8.590   4.567  70.692  1.00  0.00    -0.090 OA 
ATOM     26  N   GLU A   1      -9.608   6.421  71.553  1.00  0.00    -0.159 N  
ATOM     27  H   GLU A   1      -9.973   7.354  71.359  1.00  0.00     0.000 HD 
BRANCH  26  28
ATOM     28  CA  GLU A   1      -9.686   5.896  72.908  1.00  0.00    -0.155 C  
ATOM     29  C   GLU A   1     -10.835   4.885  72.986  1.00  0.00    -0.265 C  
ATOM     30  O   GLU A   1     -10.461   3.620  72.689  1.00  0.00    -0.163 OA 
ATOM     31  OXT GLU A   1     -11.995   5.181  73.276  1.00  0.00    -0.128 OA 
BRANCH  28  32
ATOM     32  CB  GLU A   1      -9.899   7.030  73.921  1.00  0.00    -0.354 C  
BRANCH  32  33
ATOM     33  CG  GLU A   1      -8.590   7.739  74.263  1.00  0.00    -0.268 C  
ATOM     34  CD  GLU A   1      -7.424   7.065  73.593  1.00  0.00    -0.079 C  
ATOM     35  OE1 GLU A   1      -7.123   7.580  72.382  1.00  0.00    -0.068 OA 
ATOM     36  OE2 GLU A   1      -6.823   6.117  74.077  1.00  0.00    -0.078 OA 
ENDBRANCH  32  33
ENDBRANCH  28  32
ENDBRANCH  26  28
ENDBRANCH  21  24
ENDBRANCH  17  18
ENDBRANCH  16  17
ENDBRANCH  15  16
TORSDOF 7
ENDMDL
MODEL      227
REMARK 921   NORMALIZED FREE ENERGY PREDICTED BY IDOCK:   -3.59 KCAL/MOL
REMARK 922        TOTAL FREE ENERGY PREDICTED BY IDOCK:   -7.70 KCAL/MOL
REMARK 923 INTER-LIGAND FREE ENERGY PREDICTED BY IDOCK:   -6.44 KCAL/MOL
REMARK 924 INTRA-LIGAND FREE ENERGY PREDICTED BY IDOCK:   -1.26 KCAL/MOL
REMARK 927      BINDING AFFINITY PREDICTED BY RF-SCORE:    0.00 PKD
ROOT
HETATM    1  N   UNK A   0     -10.581  11.521  63.257  1.00  0.00    -0.606 NA 
HETATM    2  H1  UNK A   0     -11.484  11.994  63.275  1.00  0.00     0.000 HD 
HETATM    3  C   UNK A   0      -9.908  11.262  64.407  1.00  0.00    -0.269 C  
HETATM    4  H2  UNK A   0     -10.179  11.239  62.362  1.00  0.00     0.000 HD 
HETATM    5  N   UNK A   0      -8.756  10.658  64.383  1.00  0.00    -0.270 N  
HETATM    6  H   UNK A   0      -8.337  10.389  63.493  1.00  0.00     0.000 HD 
HETATM    7  C   UNK A   0      -8.095  10.381  65.582  1.00  0.00    -0.156 C  
HETATM    8  C   UNK A   0      -8.806  10.768  66.805  1.00  0.00    -0.147 A  
HETATM    9  O   UNK A   0      -6.996   9.844  65.624  1.00  0.00    -0.095 OA 
HETATM   10  C   UNK A   0     -10.013  11.404  66.705  1.00  0.00    -0.208 A  
HETATM   11  N   UNK A   0     -10.522  11.646  67.938  1.00  0.00    -0.187 NA 
HETATM   12  N   UNK A   0     -10.576  11.687  65.524  1.00  0.00    -0.271 NA 
HETATM   13  H   UNK A   0     -11.408  12.107  68.142  1.00  0.00     0.000 HD 
HETATM   14  C   UNK A   0      -9.631  11.160  68.866  1.00  0.00    -0.142 A  
HETATM   15  C   UNK A   0      -8.545  10.604  68.199  1.00  0.00    -0.123 A  
ENDROOT
BRANCH  15  16
HETATM   16  C   UNK A   0      -7.380   9.914  68.834  1.00  0.00    -0.078 C  
BRANCH  16  17
HETATM   17  C   UNK A   0      -6.036  10.629  68.612  1.00  0.00    -0.039 C  
BRANCH  17  18
HETATM   18  C   UNK A   0      -6.137  12.143  68.681  1.00  0.00    -0.057 A  
HETATM   19  C   UNK A   0      -6.124  12.820  69.907  1.00  0.00    -0.122 A  
HETATM   20  C   UNK A   0      -6.340  14.196  69.966  1.00  0.00    -0.135 A  
HETATM   21  C   UNK A   0      -6.549  14.926  68.792  1.00  0.00    -0.087 A  
HETATM   22  C   UNK A   0      -6.437  14.289  67.554  1.00  0.00    -0.064 A  
HETATM   23  C   UNK A   0      -6.236  12.902  67.502  1.00  0.00    -0.154 A  
BRANCH  21  24
HETATM   24  C   UNK A   0      -6.954  16.357  68.868  1.00  0.00    -0.186 C  
HETATM   25  O   UNK A   0      -6.488  17.140  69.686  1.00  0.00    -0.241 OA 
ATOM     26  N   GLU A   1      -7.876  16.747  67.916  1.00  0.00    -0.169 N  
ATOM     27  H   GLU A   1      -8.227  16.056  67.253  1.00  0.00     0.000 HD 
BRANCH  26  28
ATOM     28  CA  GLU A   1      -8.358  18.117  67.836  1.00  0.00    -0.250 C  
ATOM     29  C   GLU A   1      -9.881  18.121  68.016  1.00  0.00    -0.325 C  
ATOM     30  O   GLU A   1     -10.270  18.230  69.306  1.00  0.00    -0.275 OA 
ATOM     31  OXT GLU A   1     -10.684  18.023  67.089  1.00  0.00    -0.356 OA 
BRANCH  28  32
ATOM     32  CB  GLU A   1      -7.975  18.753  66.492  1.00  0.00    -0.294 C  
BRANCH  32  33
ATOM     33  CG  GLU A   1      -7.917  20.277  66.582  1.00  0.00    -0.301 C  
ATOM     34  CD  GLU A   1      -6.591  20.732  67.127  1.00  0.00    -0.307 C  
ATOM     35  OE1 GLU A   1      -5.669  20.980  66.173  1.00  0.00    -0.212 OA 
ATOM     36  OE2 GLU A   1      -6.352  20.836  68.322  1.00  0.00    -0.313 OA 
ENDBRANCH  32  33
ENDBRANCH  28  32
ENDBRANCH  26  28
ENDBRANCH  21  24
ENDBRANCH  17  18
ENDBRANCH  16  17
ENDBRANCH  15  16
TORSDOF 7
ENDMDL
MODEL      228
REMARK 921   NORMALIZED FREE ENERGY PREDICTED BY IDOCK:   -3.58 KCAL/MOL
REMARK 922        TOTAL FREE ENERGY PREDICTED BY IDOCK:   -7.69 KCAL/MOL
REMARK 923 INTER-LIGAND FREE ENERGY PREDICTED BY IDOCK:   -5.99 KCAL/MOL
REMARK 924 INTRA-LIGAND FREE ENERGY PREDICTED BY IDOCK:   -1.70 KCAL/MOL
REMARK 927      BINDING AFFINITY PREDICTED BY RF-SCORE:    0.00 PKD
ROOT
HETATM    1  N   UNK A   0      -9.679   4.810  72.350  1.00  0.00    -0.151 NA 
HETATM    2  H1  UNK A   0     -10.354   5.343  72.898  1.00  0.00     0.000 HD 
HETATM    3  C   UNK A   0      -9.686   4.866  70.994  1.00  0.00    -0.185 C  
HETATM    4  H2  UNK A   0      -8.990   4.228  72.827  1.00  0.00     0.000 HD 
HETATM    5  N   UNK A   0      -8.825   4.186  70.295  1.00  0.00    -0.081 N  
HETATM    6  H   UNK A   0      -8.145   3.587  70.762  1.00  0.00     0.000 HD 
HETATM    7  C   UNK A   0      -8.838   4.280  68.901  1.00  0.00    -0.100 C  
HETATM    8  C   UNK A   0      -9.824   5.204  68.333  1.00  0.00    -0.211 A  
HETATM    9  O   UNK A   0      -8.074   3.643  68.188  1.00  0.00    -0.081 OA 
HETATM   10  C   UNK A   0     -10.684   5.863  69.170  1.00  0.00    -0.324 A  
HETATM   11  N   UNK A   0     -11.491   6.690  68.462  1.00  0.00    -0.559 NA 
HETATM   12  N   UNK A   0     -10.657   5.696  70.498  1.00  0.00    -0.278 NA 
HETATM   13  H   UNK A   0     -12.218   7.293  68.846  1.00  0.00     0.000 HD 
HETATM   14  C   UNK A   0     -11.155   6.573  67.133  1.00  0.00    -0.360 A  
HETATM   15  C   UNK A   0     -10.118   5.654  67.011  1.00  0.00    -0.223 A  
ENDROOT
BRANCH  15  16
HETATM   16  C   UNK A   0      -9.418   5.279  65.743  1.00  0.00    -0.132 C  
BRANCH  16  17
HETATM   17  C   UNK A   0      -8.063   5.981  65.550  1.00  0.00    -0.133 C  
BRANCH  17  18
HETATM   18  C   UNK A   0      -8.057   7.426  66.018  1.00  0.00    -0.124 A  
HETATM   19  C   UNK A   0      -7.385   7.814  67.184  1.00  0.00    -0.091 A  
HETATM   20  C   UNK A   0      -7.489   9.116  67.670  1.00  0.00    -0.084 A  
HETATM   21  C   UNK A   0      -8.249  10.065  66.981  1.00  0.00    -0.117 A  
HETATM   22  C   UNK A   0      -8.819   9.731  65.751  1.00  0.00    -0.180 A  
HETATM   23  C   UNK A   0      -8.727   8.415  65.275  1.00  0.00    -0.148 A  
BRANCH  21  24
HETATM   24  C   UNK A   0      -8.503  11.400  67.591  1.00  0.00    -0.130 C  
HETATM   25  O   UNK A   0      -7.675  11.990  68.275  1.00  0.00    -0.113 OA 
ATOM     26  N   GLU A   1      -9.738  11.943  67.297  1.00  0.00    -0.183 N  
ATOM     27  H   GLU A   1     -10.389  11.412  66.717  1.00  0.00     0.000 HD 
BRANCH  26  28
ATOM     28  CA  GLU A   1     -10.136  13.252  67.793  1.00  0.00    -0.229 C  
ATOM     29  C   GLU A   1     -11.494  13.128  68.494  1.00  0.00    -0.303 C  
ATOM     30  O   GLU A   1     -11.396  12.836  69.811  1.00  0.00    -0.166 OA 
ATOM     31  OXT GLU A   1     -12.577  13.265  67.926  1.00  0.00     0.181 OA 
BRANCH  28  32
ATOM     32  CB  GLU A   1     -10.214  14.270  66.647  1.00  0.00    -0.272 C  
BRANCH  32  33
ATOM     33  CG  GLU A   1      -9.949  13.618  65.291  1.00  0.00    -0.229 C  
ATOM     34  CD  GLU A   1     -11.221  13.080  64.696  1.00  0.00    -0.326 C  
ATOM     35  OE1 GLU A   1     -11.858  13.959  63.894  1.00  0.00    -0.374 OA 
ATOM     36  OE2 GLU A   1     -11.661  11.966  64.938  1.00  0.00    -0.290 OA 
ENDBRANCH  32  33
ENDBRANCH  28  32
ENDBRANCH  26  28
ENDBRANCH  21  24
ENDBRANCH  17  18
ENDBRANCH  16  17
ENDBRANCH  15  16
TORSDOF 7
ENDMDL
MODEL      229
REMARK 921   NORMALIZED FREE ENERGY PREDICTED BY IDOCK:   -3.55 KCAL/MOL
REMARK 922        TOTAL FREE ENERGY PREDICTED BY IDOCK:   -7.65 KCAL/MOL
REMARK 923 INTER-LIGAND FREE ENERGY PREDICTED BY IDOCK:   -7.52 KCAL/MOL
REMARK 924 INTRA-LIGAND FREE ENERGY PREDICTED BY IDOCK:   -0.13 KCAL/MOL
REMARK 927      BINDING AFFINITY PREDICTED BY RF-SCORE:    0.00 PKD
ROOT
HETATM    1  N   UNK A   0     -14.120  13.126  72.693  1.00  0.00    -0.710 NA 
HETATM    2  H1  UNK A   0     -14.658  13.946  72.971  1.00  0.00     0.000 HD 
HETATM    3  C   UNK A   0     -13.326  13.156  71.592  1.00  0.00    -0.308 C  
HETATM    4  H2  UNK A   0     -14.178  12.273  73.249  1.00  0.00     0.000 HD 
HETATM    5  N   UNK A   0     -12.638  12.110  71.237  1.00  0.00    -0.307 N  
HETATM    6  H   UNK A   0     -12.704  11.247  71.776  1.00  0.00     0.000 HD 
HETATM    7  C   UNK A   0     -11.810  12.176  70.114  1.00  0.00    -0.287 C  
HETATM    8  C   UNK A   0     -11.752  13.476  69.440  1.00  0.00    -0.381 A  
HETATM    9  O   UNK A   0     -11.163  11.217  69.713  1.00  0.00    -0.257 OA 
HETATM   10  C   UNK A   0     -12.526  14.505  69.901  1.00  0.00    -0.252 A  
HETATM   11  N   UNK A   0     -12.307  15.625  69.170  1.00  0.00    -0.587 NA 
HETATM   12  N   UNK A   0     -13.340  14.369  70.956  1.00  0.00    -0.343 NA 
HETATM   13  H   UNK A   0     -12.758  16.529  69.308  1.00  0.00     0.000 HD 
HETATM   14  C   UNK A   0     -11.371  15.326  68.208  1.00  0.00    -0.336 A  
HETATM   15  C   UNK A   0     -10.998  13.993  68.342  1.00  0.00    -0.269 A  
ENDROOT
BRANCH  15  16
HETATM   16  C   UNK A   0      -9.961  13.282  67.533  1.00  0.00    -0.223 C  
BRANCH  16  17
HETATM   17  C   UNK A   0     -10.475  12.767  66.178  1.00  0.00    -0.284 C  
BRANCH  17  18
HETATM   18  C   UNK A   0     -10.076  11.331  65.885  1.00  0.00    -0.291 A  
HETATM   19  C   UNK A   0     -10.343  10.298  66.793  1.00  0.00    -0.288 A  
HETATM   20  C   UNK A   0      -9.864   9.008  66.570  1.00  0.00    -0.338 A  
HETATM   21  C   UNK A   0      -9.128   8.721  65.417  1.00  0.00    -0.194 A  
HETATM   22  C   UNK A   0      -8.963   9.706  64.440  1.00  0.00    -0.276 A  
HETATM   23  C   UNK A   0      -9.432  11.006  64.677  1.00  0.00    -0.270 A  
BRANCH  21  24
HETATM   24  C   UNK A   0      -8.468   7.394  65.266  1.00  0.00    -0.056 C  
HETATM   25  O   UNK A   0      -7.343   7.256  64.803  1.00  0.00    -0.071 OA 
ATOM     26  N   GLU A   1      -9.213   6.325  65.725  1.00  0.00    -0.357 N  
ATOM     27  H   GLU A   1     -10.142   6.495  66.109  1.00  0.00     0.000 HD 
BRANCH  26  28
ATOM     28  CA  GLU A   1      -8.705   4.962  65.675  1.00  0.00    -0.135 C  
ATOM     29  C   GLU A   1      -7.750   4.743  66.854  1.00  0.00    -0.091 C  
ATOM     30  O   GLU A   1      -8.368   4.301  67.973  1.00  0.00    -0.093 OA 
ATOM     31  OXT GLU A   1      -6.538   4.956  66.809  1.00  0.00    -0.047 OA 
BRANCH  28  32
ATOM     32  CB  GLU A   1      -7.985   4.696  64.346  1.00  0.00    -0.098 C  
BRANCH  32  33
ATOM     33  CG  GLU A   1      -8.825   3.827  63.411  1.00  0.00    -0.101 C  
ATOM     34  CD  GLU A   1      -8.627   2.367  63.714  1.00  0.00    -0.086 C  
ATOM     35  OE1 GLU A   1      -9.516   1.873  64.601  1.00  0.00    -0.134 OA 
ATOM     36  OE2 GLU A   1      -7.729   1.693  63.231  1.00  0.00    -0.052 OA 
ENDBRANCH  32  33
ENDBRANCH  28  32
ENDBRANCH  26  28
ENDBRANCH  21  24
ENDBRANCH  17  18
ENDBRANCH  16  17
ENDBRANCH  15  16
TORSDOF 7
ENDMDL
MODEL      230
REMARK 921   NORMALIZED FREE ENERGY PREDICTED BY IDOCK:   -3.52 KCAL/MOL
REMARK 922        TOTAL FREE ENERGY PREDICTED BY IDOCK:   -7.61 KCAL/MOL
REMARK 923 INTER-LIGAND FREE ENERGY PREDICTED BY IDOCK:   -6.53 KCAL/MOL
REMARK 924 INTRA-LIGAND FREE ENERGY PREDICTED BY IDOCK:   -1.08 KCAL/MOL
REMARK 927      BINDING AFFINITY PREDICTED BY RF-SCORE:    0.00 PKD
ROOT
HETATM    1  N   UNK A   0     -10.488   2.199  73.120  1.00  0.00    -0.125 NA 
HETATM    2  H1  UNK A   0      -9.930   1.677  73.796  1.00  0.00     0.000 HD 
HETATM    3  C   UNK A   0     -10.370   3.547  73.014  1.00  0.00    -0.165 C  
HETATM    4  H2  UNK A   0     -11.142   1.701  72.516  1.00  0.00     0.000 HD 
HETATM    5  N   UNK A   0     -11.081   4.212  72.152  1.00  0.00     0.374 N  
HETATM    6  H   UNK A   0     -11.751   3.725  71.557  1.00  0.00     0.000 HD 
HETATM    7  C   UNK A   0     -10.922   5.596  72.045  1.00  0.00    -0.243 C  
HETATM    8  C   UNK A   0      -9.900   6.189  72.913  1.00  0.00    -0.174 A  
HETATM    9  O   UNK A   0     -11.583   6.280  71.276  1.00  0.00    -0.308 OA 
HETATM   10  C   UNK A   0      -9.217   5.388  73.787  1.00  0.00    -0.125 A  
HETATM   11  N   UNK A   0      -8.298   6.112  74.471  1.00  0.00    -0.123 NA 
HETATM   12  N   UNK A   0      -9.446   4.072  73.879  1.00  0.00    -0.098 NA 
HETATM   13  H   UNK A   0      -7.660   5.755  75.182  1.00  0.00     0.000 HD 
HETATM   14  C   UNK A   0      -8.380   7.415  74.040  1.00  0.00    -0.179 A  
HETATM   15  C   UNK A   0      -9.369   7.505  73.066  1.00  0.00    -0.242 A  
ENDROOT
BRANCH  15  16
HETATM   16  C   UNK A   0      -9.738   8.733  72.296  1.00  0.00    -0.282 C  
BRANCH  16  17
HETATM   17  C   UNK A   0      -9.081   8.817  70.907  1.00  0.00    -0.256 C  
BRANCH  17  18
HETATM   18  C   UNK A   0      -9.684   9.889  70.016  1.00  0.00    -0.274 A  
HETATM   19  C   UNK A   0      -8.890  10.651  69.150  1.00  0.00    -0.133 A  
HETATM   20  C   UNK A   0      -9.435  11.712  68.428  1.00  0.00    -0.193 A  
HETATM   21  C   UNK A   0     -10.795  12.014  68.541  1.00  0.00    -0.267 A  
HETATM   22  C   UNK A   0     -11.625  11.185  69.298  1.00  0.00    -0.388 A  
HETATM   23  C   UNK A   0     -11.069  10.130  70.035  1.00  0.00    -0.368 A  
BRANCH  21  24
HETATM   24  C   UNK A   0     -11.337  13.251  67.911  1.00  0.00    -0.284 C  
HETATM   25  O   UNK A   0     -12.508  13.369  67.573  1.00  0.00    -0.135 OA 
ATOM     26  N   GLU A   1     -10.421  14.274  67.767  1.00  0.00    -0.244 N  
ATOM     27  H   GLU A   1      -9.458  14.126  68.071  1.00  0.00     0.000 HD 
BRANCH  26  28
ATOM     28  CA  GLU A   1     -10.793  15.558  67.193  1.00  0.00    -0.316 C  
ATOM     29  C   GLU A   1     -10.563  15.513  65.678  1.00  0.00    -0.373 C  
ATOM     30  O   GLU A   1     -11.636  15.072  64.983  1.00  0.00    -0.366 OA 
ATOM     31  OXT GLU A   1      -9.507  15.831  65.132  1.00  0.00    -0.213 OA 
BRANCH  28  32
ATOM     32  CB  GLU A   1      -9.980  16.696  67.825  1.00  0.00    -0.262 C  
BRANCH  32  33
ATOM     33  CG  GLU A   1      -8.727  16.175  68.527  1.00  0.00    -0.200 C  
ATOM     34  CD  GLU A   1      -7.485  16.597  67.792  1.00  0.00    -0.155 C  
ATOM     35  OE1 GLU A   1      -6.968  17.765  68.230  1.00  0.00    -0.208 OA 
ATOM     36  OE2 GLU A   1      -7.002  15.966  66.863  1.00  0.00    -0.206 OA 
ENDBRANCH  32  33
ENDBRANCH  28  32
ENDBRANCH  26  28
ENDBRANCH  21  24
ENDBRANCH  17  18
ENDBRANCH  16  17
ENDBRANCH  15  16
TORSDOF 7
ENDMDL
MODEL      231
REMARK 921   NORMALIZED FREE ENERGY PREDICTED BY IDOCK:   -3.51 KCAL/MOL
REMARK 922        TOTAL FREE ENERGY PREDICTED BY IDOCK:   -7.59 KCAL/MOL
REMARK 923 INTER-LIGAND FREE ENERGY PREDICTED BY IDOCK:   -7.32 KCAL/MOL
REMARK 924 INTRA-LIGAND FREE ENERGY PREDICTED BY IDOCK:   -0.27 KCAL/MOL
REMARK 927      BINDING AFFINITY PREDICTED BY RF-SCORE:    0.00 PKD
ROOT
HETATM    1  N   UNK A   0     -10.480  18.283  67.312  1.00  0.00    -0.392 NA 
HETATM    2  H1  UNK A   0     -10.454  19.152  67.845  1.00  0.00     0.000 HD 
HETATM    3  C   UNK A   0     -10.779  17.105  67.918  1.00  0.00    -0.355 C  
HETATM    4  H2  UNK A   0     -10.280  18.299  66.312  1.00  0.00     0.000 HD 
HETATM    5  N   UNK A   0     -10.814  15.997  67.239  1.00  0.00    -0.293 N  
HETATM    6  H   UNK A   0     -10.597  16.000  66.242  1.00  0.00     0.000 HD 
HETATM    7  C   UNK A   0     -11.148  14.802  67.881  1.00  0.00    -0.293 C  
HETATM    8  C   UNK A   0     -11.488  14.916  69.303  1.00  0.00    -0.324 A  
HETATM    9  O   UNK A   0     -11.168  13.723  67.303  1.00  0.00    -0.293 OA 
HETATM   10  C   UNK A   0     -11.410  16.138  69.913  1.00  0.00    -0.317 A  
HETATM   11  N   UNK A   0     -11.793  16.042  71.210  1.00  0.00    -0.498 NA 
HETATM   12  N   UNK A   0     -11.036  17.243  69.257  1.00  0.00     0.069 NA 
HETATM   13  H   UNK A   0     -11.826  16.807  71.884  1.00  0.00     0.000 HD 
HETATM   14  C   UNK A   0     -12.127  14.732  71.457  1.00  0.00    -0.350 A  
HETATM   15  C   UNK A   0     -11.950  13.995  70.290  1.00  0.00    -0.409 A  
ENDROOT
BRANCH  15  16
HETATM   16  C   UNK A   0     -12.257  12.542  70.110  1.00  0.00    -0.307 C  
BRANCH  16  17
HETATM   17  C   UNK A   0     -11.116  11.741  69.461  1.00  0.00    -0.199 C  
BRANCH  17  18
HETATM   18  C   UNK A   0     -10.858  10.403  70.131  1.00  0.00    -0.333 A  
HETATM   19  C   UNK A   0     -11.907   9.622  70.632  1.00  0.00    -0.331 A  
HETATM   20  C   UNK A   0     -11.650   8.457  71.353  1.00  0.00    -0.332 A  
HETATM   21  C   UNK A   0     -10.334   8.036  71.563  1.00  0.00    -0.258 A  
HETATM   22  C   UNK A   0      -9.282   8.731  70.961  1.00  0.00    -0.278 A  
HETATM   23  C   UNK A   0      -9.545   9.912  70.252  1.00  0.00    -0.184 A  
BRANCH  21  24
HETATM   24  C   UNK A   0     -10.055   6.895  72.479  1.00  0.00    -0.172 C  
HETATM   25  O   UNK A   0     -10.450   6.857  73.637  1.00  0.00    -0.317 OA 
ATOM     26  N   GLU A   1      -9.342   5.859  71.908  1.00  0.00    -0.151 N  
ATOM     27  H   GLU A   1      -9.042   5.938  70.936  1.00  0.00     0.000 HD 
BRANCH  26  28
ATOM     28  CA  GLU A   1      -9.007   4.657  72.658  1.00  0.00    -0.123 C  
ATOM     29  C   GLU A   1      -7.618   4.831  73.284  1.00  0.00    -0.091 C  
ATOM     30  O   GLU A   1      -7.648   5.396  74.512  1.00  0.00    -0.088 OA 
ATOM     31  OXT GLU A   1      -6.568   4.506  72.731  1.00  0.00    -0.042 OA 
BRANCH  28  32
ATOM     32  CB  GLU A   1      -9.035   3.421  71.749  1.00  0.00    -0.155 C  
BRANCH  32  33
ATOM     33  CG  GLU A   1      -8.245   3.646  70.461  1.00  0.00    -0.070 C  
ATOM     34  CD  GLU A   1      -9.170   3.875  69.297  1.00  0.00    -0.157 C  
ATOM     35  OE1 GLU A   1      -9.456   5.176  69.081  1.00  0.00    -0.116 OA 
ATOM     36  OE2 GLU A   1      -9.648   2.971  68.628  1.00  0.00    -0.164 OA 
ENDBRANCH  32  33
ENDBRANCH  28  32
ENDBRANCH  26  28
ENDBRANCH  21  24
ENDBRANCH  17  18
ENDBRANCH  16  17
ENDBRANCH  15  16
TORSDOF 7
ENDMDL
MODEL      232
REMARK 921   NORMALIZED FREE ENERGY PREDICTED BY IDOCK:   -3.51 KCAL/MOL
REMARK 922        TOTAL FREE ENERGY PREDICTED BY IDOCK:   -7.59 KCAL/MOL
REMARK 923 INTER-LIGAND FREE ENERGY PREDICTED BY IDOCK:   -6.61 KCAL/MOL
REMARK 924 INTRA-LIGAND FREE ENERGY PREDICTED BY IDOCK:   -0.98 KCAL/MOL
REMARK 927      BINDING AFFINITY PREDICTED BY RF-SCORE:    0.00 PKD
ROOT
HETATM    1  N   UNK A   0     -12.550   4.682  73.296  1.00  0.00     0.018 NA 
HETATM    2  H1  UNK A   0     -11.956   3.967  73.715  1.00  0.00     0.000 HD 
HETATM    3  C   UNK A   0     -12.018   5.836  72.818  1.00  0.00    -0.012 C  
HETATM    4  H2  UNK A   0     -13.557   4.528  73.235  1.00  0.00     0.000 HD 
HETATM    5  N   UNK A   0     -12.775   6.748  72.283  1.00  0.00    -0.543 N  
HETATM    6  H   UNK A   0     -13.785   6.611  72.235  1.00  0.00     0.000 HD 
HETATM    7  C   UNK A   0     -12.199   7.916  71.777  1.00  0.00    -0.310 C  
HETATM    8  C   UNK A   0     -10.737   7.991  71.854  1.00  0.00    -0.311 A  
HETATM    9  O   UNK A   0     -12.862   8.823  71.290  1.00  0.00    -0.302 OA 
HETATM   10  C   UNK A   0     -10.045   6.969  72.445  1.00  0.00    -0.174 A  
HETATM   11  N   UNK A   0      -8.712   7.208  72.388  1.00  0.00    -0.123 NA 
HETATM   12  N   UNK A   0     -10.656   5.894  72.958  1.00  0.00    -0.228 NA 
HETATM   13  H   UNK A   0      -7.977   6.604  72.756  1.00  0.00     0.000 HD 
HETATM   14  C   UNK A   0      -8.524   8.410  71.748  1.00  0.00    -0.165 A  
HETATM   15  C   UNK A   0      -9.765   8.932  71.398  1.00  0.00    -0.370 A  
ENDROOT
BRANCH  15  16
HETATM   16  C   UNK A   0     -10.007  10.195  70.634  1.00  0.00     0.255 C  
BRANCH  16  17
HETATM   17  C   UNK A   0      -9.678  10.087  69.135  1.00  0.00    -0.217 C  
BRANCH  17  18
HETATM   18  C   UNK A   0      -8.882  11.267  68.604  1.00  0.00    -0.141 A  
HETATM   19  C   UNK A   0      -7.573  11.519  69.034  1.00  0.00    -0.058 A  
HETATM   20  C   UNK A   0      -6.898  12.671  68.634  1.00  0.00    -0.091 A  
HETATM   21  C   UNK A   0      -7.513  13.583  67.772  1.00  0.00    -0.168 A  
HETATM   22  C   UNK A   0      -8.766  13.284  67.231  1.00  0.00    -0.214 A  
HETATM   23  C   UNK A   0      -9.448  12.133  67.650  1.00  0.00    -0.187 A  
BRANCH  21  24
HETATM   24  C   UNK A   0      -6.863  14.893  67.488  1.00  0.00    -0.161 C  
HETATM   25  O   UNK A   0      -5.678  15.001  67.200  1.00  0.00    -0.245 OA 
ATOM     26  N   GLU A   1      -7.712  15.981  67.539  1.00  0.00    -0.141 N  
ATOM     27  H   GLU A   1      -8.694  15.834  67.777  1.00  0.00     0.000 HD 
BRANCH  26  28
ATOM     28  CA  GLU A   1      -7.243  17.330  67.262  1.00  0.00    -0.165 C  
ATOM     29  C   GLU A   1      -7.251  18.138  68.565  1.00  0.00    -0.268 C  
ATOM     30  O   GLU A   1      -6.094  18.050  69.260  1.00  0.00    -0.218 OA 
ATOM     31  OXT GLU A   1      -8.212  18.796  68.962  1.00  0.00    -0.253 OA 
BRANCH  28  32
ATOM     32  CB  GLU A   1      -8.126  18.009  66.205  1.00  0.00    -0.259 C  
BRANCH  32  33
ATOM     33  CG  GLU A   1      -9.594  17.614  66.354  1.00  0.00    -0.285 C  
ATOM     34  CD  GLU A   1     -10.494  18.795  66.114  1.00  0.00    -0.446 C  
ATOM     35  OE1 GLU A   1     -10.893  18.919  64.831  1.00  0.00    -0.340 OA 
ATOM     36  OE2 GLU A   1     -10.811  19.591  66.986  1.00  0.00    -0.487 OA 
ENDBRANCH  32  33
ENDBRANCH  28  32
ENDBRANCH  26  28
ENDBRANCH  21  24
ENDBRANCH  17  18
ENDBRANCH  16  17
ENDBRANCH  15  16
TORSDOF 7
ENDMDL
MODEL      233
REMARK 921   NORMALIZED FREE ENERGY PREDICTED BY IDOCK:   -3.49 KCAL/MOL
REMARK 922        TOTAL FREE ENERGY PREDICTED BY IDOCK:   -7.57 KCAL/MOL
REMARK 923 INTER-LIGAND FREE ENERGY PREDICTED BY IDOCK:   -8.58 KCAL/MOL
REMARK 924 INTRA-LIGAND FREE ENERGY PREDICTED BY IDOCK:    1.01 KCAL/MOL
REMARK 927      BINDING AFFINITY PREDICTED BY RF-SCORE:    0.00 PKD
ROOT
HETATM    1  N   UNK A   0      -7.722   9.817  62.755  1.00  0.00    -0.120 NA 
HETATM    2  H1  UNK A   0      -7.976   9.374  61.873  1.00  0.00     0.000 HD 
HETATM    3  C   UNK A   0      -8.612  10.594  63.425  1.00  0.00    -0.136 C  
HETATM    4  H2  UNK A   0      -6.787   9.675  63.139  1.00  0.00     0.000 HD 
HETATM    5  N   UNK A   0      -8.288  11.159  64.550  1.00  0.00    -0.317 N  
HETATM    6  H   UNK A   0      -7.350  11.039  64.933  1.00  0.00     0.000 HD 
HETATM    7  C   UNK A   0      -9.230  11.933  65.232  1.00  0.00     0.094 C  
HETATM    8  C   UNK A   0     -10.560  12.003  64.620  1.00  0.00    -0.351 A  
HETATM    9  O   UNK A   0      -8.976  12.515  66.279  1.00  0.00    -0.138 OA 
HETATM   10  C   UNK A   0     -10.783  11.369  63.428  1.00  0.00    -0.332 A  
HETATM   11  N   UNK A   0     -12.074  11.523  63.046  1.00  0.00    -0.920 NA 
HETATM   12  N   UNK A   0      -9.825  10.681  62.795  1.00  0.00    -0.258 NA 
HETATM   13  H   UNK A   0     -12.498  11.149  62.197  1.00  0.00     0.000 HD 
HETATM   14  C   UNK A   0     -12.713  12.272  64.006  1.00  0.00    -0.352 A  
HETATM   15  C   UNK A   0     -11.802  12.592  65.006  1.00  0.00    -0.439 A  
ENDROOT
BRANCH  15  16
HETATM   16  C   UNK A   0     -12.102  13.346  66.263  1.00  0.00    -0.475 C  
BRANCH  16  17
HETATM   17  C   UNK A   0     -10.995  13.248  67.326  1.00  0.00    -0.284 C  
BRANCH  17  18
HETATM   18  C   UNK A   0     -11.289  12.231  68.415  1.00  0.00    -0.340 A  
HETATM   19  C   UNK A   0     -11.843  12.614  69.643  1.00  0.00    -0.379 A  
HETATM   20  C   UNK A   0     -11.995  11.692  70.678  1.00  0.00    -0.356 A  
HETATM   21  C   UNK A   0     -11.617  10.360  70.494  1.00  0.00    -0.433 A  
HETATM   22  C   UNK A   0     -11.183   9.933  69.236  1.00  0.00    -0.174 A  
HETATM   23  C   UNK A   0     -11.017  10.867  68.204  1.00  0.00    -0.302 A  
BRANCH  21  24
HETATM   24  C   UNK A   0     -11.613   9.420  71.650  1.00  0.00    -0.396 C  
HETATM   25  O   UNK A   0     -12.589   9.243  72.368  1.00  0.00    -0.351 OA 
ATOM     26  N   GLU A   1     -10.429   8.733  71.831  1.00  0.00    -0.335 N  
ATOM     27  H   GLU A   1      -9.648   8.914  71.199  1.00  0.00     0.000 HD 
BRANCH  26  28
ATOM     28  CA  GLU A   1     -10.266   7.759  72.899  1.00  0.00    -0.315 C  
ATOM     29  C   GLU A   1      -8.781   7.666  73.268  1.00  0.00    -0.190 C  
ATOM     30  O   GLU A   1      -8.408   8.543  74.228  1.00  0.00    -0.264 OA 
ATOM     31  OXT GLU A   1      -7.988   6.886  72.742  1.00  0.00    -0.103 OA 
BRANCH  28  32
ATOM     32  CB  GLU A   1     -10.799   6.385  72.471  1.00  0.00    -0.268 C  
BRANCH  32  33
ATOM     33  CG  GLU A   1     -10.521   5.315  73.526  1.00  0.00    -0.280 C  
ATOM     34  CD  GLU A   1     -10.325   3.968  72.885  1.00  0.00    -0.167 C  
ATOM     35  OE1 GLU A   1      -9.037   3.690  72.592  1.00  0.00    -0.101 OA 
ATOM     36  OE2 GLU A   1     -11.243   3.206  72.622  1.00  0.00     0.203 OA 
ENDBRANCH  32  33
ENDBRANCH  28  32
ENDBRANCH  26  28
ENDBRANCH  21  24
ENDBRANCH  17  18
ENDBRANCH  16  17
ENDBRANCH  15  16
TORSDOF 7
ENDMDL
MODEL      234
REMARK 921   NORMALIZED FREE ENERGY PREDICTED BY IDOCK:   -3.48 KCAL/MOL
REMARK 922        TOTAL FREE ENERGY PREDICTED BY IDOCK:   -7.55 KCAL/MOL
REMARK 923 INTER-LIGAND FREE ENERGY PREDICTED BY IDOCK:   -7.43 KCAL/MOL
REMARK 924 INTRA-LIGAND FREE ENERGY PREDICTED BY IDOCK:   -0.12 KCAL/MOL
REMARK 927      BINDING AFFINITY PREDICTED BY RF-SCORE:    0.00 PKD
ROOT
HETATM    1  N   UNK A   0      -5.504  10.457  65.017  1.00  0.00    -0.121 NA 
HETATM    2  H1  UNK A   0      -5.364   9.736  64.310  1.00  0.00     0.000 HD 
HETATM    3  C   UNK A   0      -6.660  10.519  65.728  1.00  0.00    -0.123 C  
HETATM    4  H2  UNK A   0      -4.767  11.139  65.193  1.00  0.00     0.000 HD 
HETATM    5  N   UNK A   0      -6.838  11.439  66.630  1.00  0.00    -0.255 N  
HETATM    6  H   UNK A   0      -6.114  12.137  66.800  1.00  0.00     0.000 HD 
HETATM    7  C   UNK A   0      -8.026  11.465  67.364  1.00  0.00    -0.139 C  
HETATM    8  C   UNK A   0      -8.979  10.389  67.075  1.00  0.00    -0.150 A  
HETATM    9  O   UNK A   0      -8.266  12.323  68.204  1.00  0.00    -0.152 OA 
HETATM   10  C   UNK A   0      -8.684   9.479  66.097  1.00  0.00    -0.145 A  
HETATM   11  N   UNK A   0      -9.667   8.551  66.004  1.00  0.00    -0.451 NA 
HETATM   12  N   UNK A   0      -7.548   9.532  65.391  1.00  0.00    -0.103 NA 
HETATM   13  H   UNK A   0      -9.691   7.764  65.356  1.00  0.00     0.000 HD 
HETATM   14  C   UNK A   0     -10.628   8.858  66.939  1.00  0.00    -0.184 A  
HETATM   15  C   UNK A   0     -10.236  10.000  67.628  1.00  0.00    -0.249 A  
ENDROOT
BRANCH  15  16
HETATM   16  C   UNK A   0     -10.967  10.636  68.768  1.00  0.00    -0.292 C  
BRANCH  16  17
HETATM   17  C   UNK A   0     -12.024  11.666  68.331  1.00  0.00    -0.266 C  
BRANCH  17  18
HETATM   18  C   UNK A   0     -11.516  13.098  68.344  1.00  0.00    -0.350 A  
HETATM   19  C   UNK A   0     -11.000  13.700  67.190  1.00  0.00    -0.299 A  
HETATM   20  C   UNK A   0     -10.425  14.969  67.243  1.00  0.00    -0.265 A  
HETATM   21  C   UNK A   0     -10.379  15.671  68.450  1.00  0.00    -0.231 A  
HETATM   22  C   UNK A   0     -11.003  15.140  69.581  1.00  0.00    -0.291 A  
HETATM   23  C   UNK A   0     -11.565  13.856  69.527  1.00  0.00    -0.358 A  
BRANCH  21  24
HETATM   24  C   UNK A   0      -9.610  16.944  68.542  1.00  0.00    -0.262 C  
HETATM   25  O   UNK A   0     -10.009  17.921  69.164  1.00  0.00    -0.303 OA 
ATOM     26  N   GLU A   1      -8.388  16.927  67.899  1.00  0.00    -0.195 N  
ATOM     27  H   GLU A   1      -8.100  16.084  67.401  1.00  0.00     0.000 HD 
BRANCH  26  28
ATOM     28  CA  GLU A   1      -7.501  18.081  67.913  1.00  0.00    -0.222 C  
ATOM     29  C   GLU A   1      -6.408  17.856  68.965  1.00  0.00    -0.232 C  
ATOM     30  O   GLU A   1      -5.316  17.224  68.481  1.00  0.00    -0.140 OA 
ATOM     31  OXT GLU A   1      -6.505  18.200  70.144  1.00  0.00     0.012 OA 
BRANCH  28  32
ATOM     32  CB  GLU A   1      -8.282  19.367  68.217  1.00  0.00    -0.372 C  
BRANCH  32  33
ATOM     33  CG  GLU A   1      -8.317  20.306  67.014  1.00  0.00    -0.373 C  
ATOM     34  CD  GLU A   1      -7.045  20.207  66.218  1.00  0.00    -0.261 C  
ATOM     35  OE1 GLU A   1      -7.098  19.297  65.222  1.00  0.00    -0.446 OA 
ATOM     36  OE2 GLU A   1      -6.041  20.860  66.464  1.00  0.00    -0.218 OA 
ENDBRANCH  32  33
ENDBRANCH  28  32
ENDBRANCH  26  28
ENDBRANCH  21  24
ENDBRANCH  17  18
ENDBRANCH  16  17
ENDBRANCH  15  16
TORSDOF 7
ENDMDL
MODEL      235
REMARK 921   NORMALIZED FREE ENERGY PREDICTED BY IDOCK:   -3.45 KCAL/MOL
REMARK 922        TOTAL FREE ENERGY PREDICTED BY IDOCK:   -7.51 KCAL/MOL
REMARK 923 INTER-LIGAND FREE ENERGY PREDICTED BY IDOCK:   -6.78 KCAL/MOL
REMARK 924 INTRA-LIGAND FREE ENERGY PREDICTED BY IDOCK:   -0.73 KCAL/MOL
REMARK 927      BINDING AFFINITY PREDICTED BY RF-SCORE:    0.00 PKD
ROOT
HETATM    1  N   UNK A   0      -6.634  16.447  68.705  1.00  0.00    -0.136 NA 
HETATM    2  H1  UNK A   0      -6.435  16.320  69.696  1.00  0.00     0.000 HD 
HETATM    3  C   UNK A   0      -7.784  15.972  68.160  1.00  0.00    -0.133 C  
HETATM    4  H2  UNK A   0      -5.961  16.937  68.115  1.00  0.00     0.000 HD 
HETATM    5  N   UNK A   0      -8.038  16.134  66.894  1.00  0.00    -0.213 N  
HETATM    6  H   UNK A   0      -7.362  16.606  66.293  1.00  0.00     0.000 HD 
HETATM    7  C   UNK A   0      -9.239  15.658  66.364  1.00  0.00    -0.311 C  
HETATM    8  C   UNK A   0     -10.158  15.037  67.323  1.00  0.00    -0.235 A  
HETATM    9  O   UNK A   0      -9.521  15.752  65.176  1.00  0.00    -0.213 OA 
HETATM   10  C   UNK A   0      -9.778  14.917  68.632  1.00  0.00    -0.226 A  
HETATM   11  N   UNK A   0     -10.772  14.352  69.361  1.00  0.00    -0.378 NA 
HETATM   12  N   UNK A   0      -8.592  15.350  69.075  1.00  0.00    -0.210 NA 
HETATM   13  H   UNK A   0     -10.743  14.152  70.361  1.00  0.00     0.000 HD 
HETATM   14  C   UNK A   0     -11.824  14.095  68.514  1.00  0.00    -0.355 A  
HETATM   15  C   UNK A   0     -11.481  14.508  67.231  1.00  0.00    -0.381 A  
ENDROOT
BRANCH  15  16
HETATM   16  C   UNK A   0     -12.364  14.463  66.025  1.00  0.00    -0.337 C  
BRANCH  16  17
HETATM   17  C   UNK A   0     -12.529  13.055  65.428  1.00  0.00    -0.531 C  
BRANCH  17  18
HETATM   18  C   UNK A   0     -11.399  12.107  65.791  1.00  0.00    -0.402 A  
HETATM   19  C   UNK A   0     -10.283  11.947  64.960  1.00  0.00    -0.316 A  
HETATM   20  C   UNK A   0      -9.314  10.985  65.242  1.00  0.00    -0.245 A  
HETATM   21  C   UNK A   0      -9.432  10.180  66.378  1.00  0.00    -0.223 A  
HETATM   22  C   UNK A   0     -10.468  10.413  67.285  1.00  0.00    -0.304 A  
HETATM   23  C   UNK A   0     -11.450  11.370  66.988  1.00  0.00    -0.234 A  
BRANCH  21  24
HETATM   24  C   UNK A   0      -8.495   9.040  66.582  1.00  0.00    -0.122 C  
HETATM   25  O   UNK A   0      -7.645   8.719  65.761  1.00  0.00    -0.084 OA 
ATOM     26  N   GLU A   1      -8.635   8.388  67.791  1.00  0.00    -0.130 N  
ATOM     27  H   GLU A   1      -9.355   8.700  68.444  1.00  0.00     0.000 HD 
BRANCH  26  28
ATOM     28  CA  GLU A   1      -7.782   7.268  68.159  1.00  0.00    -0.117 C  
ATOM     29  C   GLU A   1      -8.662   6.099  68.614  1.00  0.00    -0.112 C  
ATOM     30  O   GLU A   1      -9.032   5.278  67.605  1.00  0.00    -0.109 OA 
ATOM     31  OXT GLU A   1      -9.019   5.917  69.778  1.00  0.00    -0.129 OA 
BRANCH  28  32
ATOM     32  CB  GLU A   1      -6.805   7.669  69.273  1.00  0.00    -0.052 C  
BRANCH  32  33
ATOM     33  CG  GLU A   1      -7.530   8.287  70.467  1.00  0.00    -0.067 C  
ATOM     34  CD  GLU A   1      -7.309   9.774  70.518  1.00  0.00    -0.112 C  
ATOM     35  OE1 GLU A   1      -8.255  10.484  69.866  1.00  0.00    -0.047 OA 
ATOM     36  OE2 GLU A   1      -6.349  10.296  71.065  1.00  0.00    -0.312 OA 
ENDBRANCH  32  33
ENDBRANCH  28  32
ENDBRANCH  26  28
ENDBRANCH  21  24
ENDBRANCH  17  18
ENDBRANCH  16  17
ENDBRANCH  15  16
TORSDOF 7
ENDMDL
MODEL      236
REMARK 921   NORMALIZED FREE ENERGY PREDICTED BY IDOCK:   -3.45 KCAL/MOL
REMARK 922        TOTAL FREE ENERGY PREDICTED BY IDOCK:   -7.51 KCAL/MOL
REMARK 923 INTER-LIGAND FREE ENERGY PREDICTED BY IDOCK:   -7.05 KCAL/MOL
REMARK 924 INTRA-LIGAND FREE ENERGY PREDICTED BY IDOCK:   -0.46 KCAL/MOL
REMARK 927      BINDING AFFINITY PREDICTED BY RF-SCORE:    0.00 PKD
ROOT
HETATM    1  N   UNK A   0      -7.059   1.612  71.701  1.00  0.00    -0.030 NA 
HETATM    2  H1  UNK A   0      -6.697   1.388  70.774  1.00  0.00     0.000 HD 
HETATM    3  C   UNK A   0      -8.030   2.547  71.862  1.00  0.00    -0.053 C  
HETATM    4  H2  UNK A   0      -6.686   1.126  72.517  1.00  0.00     0.000 HD 
HETATM    5  N   UNK A   0      -8.491   2.832  73.044  1.00  0.00    -0.071 N  
HETATM    6  H   UNK A   0      -8.111   2.365  73.868  1.00  0.00     0.000 HD 
HETATM    7  C   UNK A   0      -9.508   3.780  73.180  1.00  0.00    -0.109 C  
HETATM    8  C   UNK A   0     -10.014   4.355  71.930  1.00  0.00    -0.258 A  
HETATM    9  O   UNK A   0      -9.962   4.113  74.267  1.00  0.00    -0.125 OA 
HETATM   10  C   UNK A   0      -9.445   3.981  70.743  1.00  0.00    -0.170 A  
HETATM   11  N   UNK A   0     -10.070   4.594  69.707  1.00  0.00    -0.228 NA 
HETATM   12  N   UNK A   0      -8.438   3.102  70.678  1.00  0.00    -0.056 NA 
HETATM   13  H   UNK A   0      -9.840   4.486  68.719  1.00  0.00     0.000 HD 
HETATM   14  C   UNK A   0     -11.068   5.386  70.224  1.00  0.00     0.164 A  
HETATM   15  C   UNK A   0     -11.066   5.265  71.609  1.00  0.00    -0.047 A  
ENDROOT
BRANCH  15  16
HETATM   16  C   UNK A   0     -12.030   5.913  72.552  1.00  0.00    -0.173 C  
BRANCH  16  17
HETATM   17  C   UNK A   0     -11.518   7.233  73.154  1.00  0.00    -0.062 C  
BRANCH  17  18
HETATM   18  C   UNK A   0     -11.424   8.363  72.143  1.00  0.00    -0.442 A  
HETATM   19  C   UNK A   0     -12.556   9.090  71.751  1.00  0.00    -0.434 A  
HETATM   20  C   UNK A   0     -12.478  10.041  70.735  1.00  0.00    -0.386 A  
HETATM   21  C   UNK A   0     -11.257  10.300  70.106  1.00  0.00    -0.387 A  
HETATM   22  C   UNK A   0     -10.096   9.679  70.571  1.00  0.00    -0.338 A  
HETATM   23  C   UNK A   0     -10.182   8.712  71.582  1.00  0.00    -0.366 A  
BRANCH  21  24
HETATM   24  C   UNK A   0     -11.211  11.182  68.906  1.00  0.00    -0.256 C  
HETATM   25  O   UNK A   0     -11.539  12.362  68.932  1.00  0.00    -0.270 OA 
ATOM     26  N   GLU A   1     -10.733  10.574  67.762  1.00  0.00    -0.250 N  
ATOM     27  H   GLU A   1     -10.467   9.590  67.797  1.00  0.00     0.000 HD 
BRANCH  26  28
ATOM     28  CA  GLU A   1     -10.600  11.302  66.509  1.00  0.00    -0.266 C  
ATOM     29  C   GLU A   1      -9.295  12.107  66.537  1.00  0.00    -0.228 C  
ATOM     30  O   GLU A   1      -8.229  11.421  66.067  1.00  0.00    -0.107 OA 
ATOM     31  OXT GLU A   1      -9.206  13.261  66.955  1.00  0.00    -0.229 OA 
BRANCH  28  32
ATOM     32  CB  GLU A   1     -11.799  12.233  66.288  1.00  0.00    -0.387 C  
BRANCH  32  33
ATOM     33  CG  GLU A   1     -12.261  12.225  64.831  1.00  0.00    -0.410 C  
ATOM     34  CD  GLU A   1     -11.881  13.506  64.141  1.00  0.00    -0.437 C  
ATOM     35  OE1 GLU A   1     -10.682  13.453  63.523  1.00  0.00     0.093 OA 
ATOM     36  OE2 GLU A   1     -12.570  14.515  64.161  1.00  0.00    -0.730 OA 
ENDBRANCH  32  33
ENDBRANCH  28  32
ENDBRANCH  26  28
ENDBRANCH  21  24
ENDBRANCH  17  18
ENDBRANCH  16  17
ENDBRANCH  15  16
TORSDOF 7
ENDMDL
MODEL      237
REMARK 921   NORMALIZED FREE ENERGY PREDICTED BY IDOCK:   -3.43 KCAL/MOL
REMARK 922        TOTAL FREE ENERGY PREDICTED BY IDOCK:   -7.47 KCAL/MOL
REMARK 923 INTER-LIGAND FREE ENERGY PREDICTED BY IDOCK:   -6.88 KCAL/MOL
REMARK 924 INTRA-LIGAND FREE ENERGY PREDICTED BY IDOCK:   -0.59 KCAL/MOL
REMARK 927      BINDING AFFINITY PREDICTED BY RF-SCORE:    0.00 PKD
ROOT
HETATM    1  N   UNK A   0      -8.896   1.824  71.350  1.00  0.00    -0.059 NA 
HETATM    2  H1  UNK A   0      -9.034   1.885  72.358  1.00  0.00     0.000 HD 
HETATM    3  C   UNK A   0      -9.356   2.798  70.524  1.00  0.00    -0.146 C  
HETATM    4  H2  UNK A   0      -8.404   1.021  70.957  1.00  0.00     0.000 HD 
HETATM    5  N   UNK A   0      -9.180   2.720  69.238  1.00  0.00    -0.134 N  
HETATM    6  H   UNK A   0      -8.706   1.912  68.834  1.00  0.00     0.000 HD 
HETATM    7  C   UNK A   0      -9.642   3.748  68.412  1.00  0.00    -0.105 C  
HETATM    8  C   UNK A   0     -10.265   4.884  69.098  1.00  0.00    -0.186 A  
HETATM    9  O   UNK A   0      -9.533   3.718  67.193  1.00  0.00    -0.186 OA 
HETATM   10  C   UNK A   0     -10.401   4.852  70.459  1.00  0.00    -0.172 A  
HETATM   11  N   UNK A   0     -10.967   6.001  70.903  1.00  0.00    -0.287 NA 
HETATM   12  N   UNK A   0      -9.982   3.816  71.195  1.00  0.00    -0.139 NA 
HETATM   13  H   UNK A   0     -11.177   6.230  71.875  1.00  0.00     0.000 HD 
HETATM   14  C   UNK A   0     -11.208   6.803  69.813  1.00  0.00    -0.315 A  
HETATM   15  C   UNK A   0     -10.783   6.142  68.665  1.00  0.00    -0.370 A  
ENDROOT
BRANCH  15  16
HETATM   16  C   UNK A   0     -10.810   6.688  67.273  1.00  0.00    -0.456 C  
BRANCH  16  17
HETATM   17  C   UNK A   0      -9.481   7.323  66.828  1.00  0.00    -0.218 C  
BRANCH  17  18
HETATM   18  C   UNK A   0      -9.450   8.834  66.986  1.00  0.00    -0.218 A  
HETATM   19  C   UNK A   0     -10.321   9.496  67.860  1.00  0.00    -0.276 A  
HETATM   20  C   UNK A   0     -10.367  10.888  67.906  1.00  0.00    -0.216 A  
HETATM   21  C   UNK A   0      -9.521  11.646  67.092  1.00  0.00    -0.183 A  
HETATM   22  C   UNK A   0      -8.557  11.005  66.311  1.00  0.00    -0.167 A  
HETATM   23  C   UNK A   0      -8.527   9.604  66.256  1.00  0.00    -0.125 A  
BRANCH  21  24
HETATM   24  C   UNK A   0      -9.693  13.124  67.012  1.00  0.00    -0.241 C  
HETATM   25  O   UNK A   0     -10.488  13.662  66.251  1.00  0.00    -0.282 OA 
ATOM     26  N   GLU A   1      -8.910  13.845  67.891  1.00  0.00    -0.174 N  
ATOM     27  H   GLU A   1      -8.269  13.346  68.509  1.00  0.00     0.000 HD 
BRANCH  26  28
ATOM     28  CA  GLU A   1      -8.975  15.297  67.959  1.00  0.00    -0.171 C  
ATOM     29  C   GLU A   1      -7.558  15.866  67.826  1.00  0.00    -0.140 C  
ATOM     30  O   GLU A   1      -7.190  16.103  66.546  1.00  0.00    -0.153 OA 
ATOM     31  OXT GLU A   1      -6.809  16.081  68.779  1.00  0.00    -0.120 OA 
BRANCH  28  32
ATOM     32  CB  GLU A   1      -9.614  15.754  69.277  1.00  0.00    -0.270 C  
BRANCH  32  33
ATOM     33  CG  GLU A   1     -10.698  16.806  69.047  1.00  0.00    -0.331 C  
ATOM     34  CD  GLU A   1     -10.219  17.870  68.097  1.00  0.00    -0.382 C  
ATOM     35  OE1 GLU A   1     -10.513  17.614  66.804  1.00  0.00    -0.334 OA 
ATOM     36  OE2 GLU A   1      -9.594  18.859  68.450  1.00  0.00    -0.329 OA 
ENDBRANCH  32  33
ENDBRANCH  28  32
ENDBRANCH  26  28
ENDBRANCH  21  24
ENDBRANCH  17  18
ENDBRANCH  16  17
ENDBRANCH  15  16
TORSDOF 7
ENDMDL
MODEL      238
REMARK 921   NORMALIZED FREE ENERGY PREDICTED BY IDOCK:   -3.42 KCAL/MOL
REMARK 922        TOTAL FREE ENERGY PREDICTED BY IDOCK:   -7.46 KCAL/MOL
REMARK 923 INTER-LIGAND FREE ENERGY PREDICTED BY IDOCK:   -7.56 KCAL/MOL
REMARK 924 INTRA-LIGAND FREE ENERGY PREDICTED BY IDOCK:    0.11 KCAL/MOL
REMARK 927      BINDING AFFINITY PREDICTED BY RF-SCORE:    0.00 PKD
ROOT
HETATM    1  N   UNK A   0      -7.295   9.331  62.504  1.00  0.00    -0.100 NA 
HETATM    2  H1  UNK A   0      -7.644   9.055  61.587  1.00  0.00     0.000 HD 
HETATM    3  C   UNK A   0      -8.062  10.068  63.348  1.00  0.00    -0.158 C  
HETATM    4  H2  UNK A   0      -6.358   9.048  62.792  1.00  0.00     0.000 HD 
HETATM    5  N   UNK A   0      -7.617  10.418  64.519  1.00  0.00    -0.306 N  
HETATM    6  H   UNK A   0      -6.674  10.157  64.808  1.00  0.00     0.000 HD 
HETATM    7  C   UNK A   0      -8.436  11.155  65.378  1.00  0.00     0.043 C  
HETATM    8  C   UNK A   0      -9.787  11.438  64.884  1.00  0.00    -0.301 A  
HETATM    9  O   UNK A   0      -8.064  11.541  66.478  1.00  0.00    -0.164 OA 
HETATM   10  C   UNK A   0     -10.142  11.021  63.630  1.00  0.00    -0.371 A  
HETATM   11  N   UNK A   0     -11.433  11.346  63.373  1.00  0.00    -0.797 NA 
HETATM   12  N   UNK A   0      -9.297  10.359  62.830  1.00  0.00    -0.294 NA 
HETATM   13  H   UNK A   0     -11.941  11.149  62.511  1.00  0.00     0.000 HD 
HETATM   14  C   UNK A   0     -11.936  11.989  64.479  1.00  0.00    -0.268 A  
HETATM   15  C   UNK A   0     -10.939  12.066  65.446  1.00  0.00    -0.347 A  
ENDROOT
BRANCH  15  16
HETATM   16  C   UNK A   0     -11.087  12.637  66.821  1.00  0.00    -0.318 C  
BRANCH  16  17
HETATM   17  C   UNK A   0     -10.039  12.125  67.823  1.00  0.00    -0.203 C  
BRANCH  17  18
HETATM   18  C   UNK A   0     -10.515  10.940  68.646  1.00  0.00    -0.216 A  
HETATM   19  C   UNK A   0     -11.442  11.098  69.685  1.00  0.00    -0.383 A  
HETATM   20  C   UNK A   0     -11.778  10.027  70.511  1.00  0.00    -0.400 A  
HETATM   21  C   UNK A   0     -11.210   8.768  70.297  1.00  0.00    -0.212 A  
HETATM   22  C   UNK A   0     -10.385   8.562  69.189  1.00  0.00    -0.227 A  
HETATM   23  C   UNK A   0     -10.036   9.647  68.371  1.00  0.00    -0.199 A  
BRANCH  21  24
HETATM   24  C   UNK A   0     -11.432   7.674  71.283  1.00  0.00    -0.269 C  
HETATM   25  O   UNK A   0     -12.456   7.572  71.947  1.00  0.00    -0.306 OA 
ATOM     26  N   GLU A   1     -10.404   6.756  71.368  1.00  0.00    -0.202 N  
ATOM     27  H   GLU A   1      -9.575   6.884  70.787  1.00  0.00     0.000 HD 
BRANCH  26  28
ATOM     28  CA  GLU A   1     -10.472   5.612  72.264  1.00  0.00    -0.213 C  
ATOM     29  C   GLU A   1      -9.577   5.877  73.481  1.00  0.00    -0.141 C  
ATOM     30  O   GLU A   1     -10.217   6.506  74.493  1.00  0.00    -0.358 OA 
ATOM     31  OXT GLU A   1      -8.387   5.568  73.542  1.00  0.00    -0.113 OA 
BRANCH  28  32
ATOM     32  CB  GLU A   1     -10.033   4.329  71.546  1.00  0.00    -0.243 C  
BRANCH  32  33
ATOM     33  CG  GLU A   1     -10.026   4.502  70.028  1.00  0.00    -0.280 C  
ATOM     34  CD  GLU A   1      -8.623   4.452  69.489  1.00  0.00    -0.076 C  
ATOM     35  OE1 GLU A   1      -8.228   3.215  69.121  1.00  0.00    -0.058 OA 
ATOM     36  OE2 GLU A   1      -7.891   5.429  69.419  1.00  0.00    -0.086 OA 
ENDBRANCH  32  33
ENDBRANCH  28  32
ENDBRANCH  26  28
ENDBRANCH  21  24
ENDBRANCH  17  18
ENDBRANCH  16  17
ENDBRANCH  15  16
TORSDOF 7
ENDMDL
MODEL      239
REMARK 921   NORMALIZED FREE ENERGY PREDICTED BY IDOCK:   -3.40 KCAL/MOL
REMARK 922        TOTAL FREE ENERGY PREDICTED BY IDOCK:   -7.43 KCAL/MOL
REMARK 923 INTER-LIGAND FREE ENERGY PREDICTED BY IDOCK:   -6.17 KCAL/MOL
REMARK 924 INTRA-LIGAND FREE ENERGY PREDICTED BY IDOCK:   -1.26 KCAL/MOL
REMARK 927      BINDING AFFINITY PREDICTED BY RF-SCORE:    0.00 PKD
ROOT
HETATM    1  N   UNK A   0     -10.492   3.257  74.528  1.00  0.00    -0.187 NA 
HETATM    2  H1  UNK A   0     -10.974   3.776  75.262  1.00  0.00     0.000 HD 
HETATM    3  C   UNK A   0     -10.482   3.711  73.249  1.00  0.00    -0.177 C  
HETATM    4  H2  UNK A   0     -10.011   2.388  74.759  1.00  0.00     0.000 HD 
HETATM    5  N   UNK A   0      -9.867   3.049  72.313  1.00  0.00    -0.154 N  
HETATM    6  H   UNK A   0      -9.400   2.169  72.530  1.00  0.00     0.000 HD 
HETATM    7  C   UNK A   0      -9.851   3.551  71.009  1.00  0.00    -0.085 C  
HETATM    8  C   UNK A   0     -10.512   4.845  70.815  1.00  0.00    -0.166 A  
HETATM    9  O   UNK A   0      -9.316   2.960  70.079  1.00  0.00    -0.137 OA 
HETATM   10  C   UNK A   0     -11.132   5.445  71.876  1.00  0.00    -0.108 A  
HETATM   11  N   UNK A   0     -11.651   6.641  71.504  1.00  0.00    -0.294 NA 
HETATM   12  N   UNK A   0     -11.157   4.893  73.095  1.00  0.00    -0.300 NA 
HETATM   13  H   UNK A   0     -12.162   7.287  72.106  1.00  0.00     0.000 HD 
HETATM   14  C   UNK A   0     -11.367   6.829  70.172  1.00  0.00    -0.350 A  
HETATM   15  C   UNK A   0     -10.656   5.730  69.704  1.00  0.00    -0.396 A  
ENDROOT
BRANCH  15  16
HETATM   16  C   UNK A   0     -10.102   5.560  68.325  1.00  0.00    -0.226 C  
BRANCH  16  17
HETATM   17  C   UNK A   0     -10.593   6.620  67.323  1.00  0.00    -0.387 C  
BRANCH  17  18
HETATM   18  C   UNK A   0      -9.813   7.922  67.388  1.00  0.00    -0.237 A  
HETATM   19  C   UNK A   0     -10.462   9.163  67.379  1.00  0.00    -0.339 A  
HETATM   20  C   UNK A   0      -9.733  10.350  67.315  1.00  0.00    -0.195 A  
HETATM   21  C   UNK A   0      -8.337  10.317  67.285  1.00  0.00    -0.121 A  
HETATM   22  C   UNK A   0      -7.672   9.096  67.424  1.00  0.00    -0.092 A  
HETATM   23  C   UNK A   0      -8.409   7.904  67.471  1.00  0.00    -0.124 A  
BRANCH  21  24
HETATM   24  C   UNK A   0      -7.568  11.569  67.039  1.00  0.00    -0.154 C  
HETATM   25  O   UNK A   0      -6.581  11.614  66.315  1.00  0.00     0.025 OA 
ATOM     26  N   GLU A   1      -8.075  12.690  67.666  1.00  0.00    -0.160 N  
ATOM     27  H   GLU A   1      -8.904  12.598  68.254  1.00  0.00     0.000 HD 
BRANCH  26  28
ATOM     28  CA  GLU A   1      -7.458  13.998  67.509  1.00  0.00    -0.170 C  
ATOM     29  C   GLU A   1      -6.815  14.409  68.840  1.00  0.00    -0.102 C  
ATOM     30  O   GLU A   1      -5.534  13.997  68.968  1.00  0.00    -0.082 OA 
ATOM     31  OXT GLU A   1      -7.399  15.040  69.721  1.00  0.00    -0.198 OA 
BRANCH  28  32
ATOM     32  CB  GLU A   1      -8.494  15.042  67.070  1.00  0.00    -0.258 C  
BRANCH  32  33
ATOM     33  CG  GLU A   1      -9.911  14.471  67.074  1.00  0.00    -0.249 C  
ATOM     34  CD  GLU A   1     -10.723  15.059  68.194  1.00  0.00    -0.256 C  
ATOM     35  OE1 GLU A   1     -11.414  16.164  67.841  1.00  0.00    -0.248 OA 
ATOM     36  OE2 GLU A   1     -10.736  14.606  69.329  1.00  0.00    -0.244 OA 
ENDBRANCH  32  33
ENDBRANCH  28  32
ENDBRANCH  26  28
ENDBRANCH  21  24
ENDBRANCH  17  18
ENDBRANCH  16  17
ENDBRANCH  15  16
TORSDOF 7
ENDMDL
MODEL      240
REMARK 921   NORMALIZED FREE ENERGY PREDICTED BY IDOCK:   -3.38 KCAL/MOL
REMARK 922        TOTAL FREE ENERGY PREDICTED BY IDOCK:   -7.41 KCAL/MOL
REMARK 923 INTER-LIGAND FREE ENERGY PREDICTED BY IDOCK:   -6.40 KCAL/MOL
REMARK 924 INTRA-LIGAND FREE ENERGY PREDICTED BY IDOCK:   -1.01 KCAL/MOL
REMARK 927      BINDING AFFINITY PREDICTED BY RF-SCORE:    0.00 PKD
ROOT
HETATM    1  N   UNK A   0      -7.554  19.195  67.345  1.00  0.00    -0.233 NA 
HETATM    2  H1  UNK A   0      -6.882  19.278  66.583  1.00  0.00     0.000 HD 
HETATM    3  C   UNK A   0      -8.548  18.271  67.298  1.00  0.00    -0.254 C  
HETATM    4  H2  UNK A   0      -7.479  19.813  68.153  1.00  0.00     0.000 HD 
HETATM    5  N   UNK A   0      -9.406  18.165  68.269  1.00  0.00    -0.294 N  
HETATM    6  H   UNK A   0      -9.351  18.792  69.073  1.00  0.00     0.000 HD 
HETATM    7  C   UNK A   0     -10.404  17.190  68.207  1.00  0.00    -0.354 C  
HETATM    8  C   UNK A   0     -10.366  16.312  67.034  1.00  0.00    -0.292 A  
HETATM    9  O   UNK A   0     -11.259  17.061  69.075  1.00  0.00    -0.099 OA 
HETATM   10  C   UNK A   0      -9.417  16.523  66.071  1.00  0.00    -0.282 A  
HETATM   11  N   UNK A   0      -9.526  15.594  65.090  1.00  0.00    -0.195 NA 
HETATM   12  N   UNK A   0      -8.514  17.507  66.161  1.00  0.00    -0.484 NA 
HETATM   13  H   UNK A   0      -8.939  15.528  64.258  1.00  0.00     0.000 HD 
HETATM   14  C   UNK A   0     -10.566  14.756  65.414  1.00  0.00    -0.378 A  
HETATM   15  C   UNK A   0     -11.118  15.171  66.622  1.00  0.00    -0.308 A  
ENDROOT
BRANCH  15  16
HETATM   16  C   UNK A   0     -12.232  14.498  67.359  1.00  0.00    -0.165 C  
BRANCH  16  17
HETATM   17  C   UNK A   0     -11.877  14.112  68.805  1.00  0.00    -0.384 C  
BRANCH  17  18
HETATM   18  C   UNK A   0     -11.019  12.863  68.906  1.00  0.00    -0.271 A  
HETATM   19  C   UNK A   0      -9.692  12.850  68.456  1.00  0.00    -0.129 A  
HETATM   20  C   UNK A   0      -8.954  11.667  68.440  1.00  0.00    -0.176 A  
HETATM   21  C   UNK A   0      -9.525  10.476  68.899  1.00  0.00    -0.199 A  
HETATM   22  C   UNK A   0     -10.799  10.496  69.469  1.00  0.00    -0.298 A  
HETATM   23  C   UNK A   0     -11.544  11.685  69.467  1.00  0.00    -0.397 A  
BRANCH  21  24
HETATM   24  C   UNK A   0      -8.801   9.187  68.717  1.00  0.00    -0.132 C  
HETATM   25  O   UNK A   0      -8.859   8.270  69.527  1.00  0.00    -0.146 OA 
ATOM     26  N   GLU A   1      -8.085   9.088  67.541  1.00  0.00    -0.108 N  
ATOM     27  H   GLU A   1      -8.076   9.880  66.897  1.00  0.00     0.000 HD 
BRANCH  26  28
ATOM     28  CA  GLU A   1      -7.342   7.885  67.197  1.00  0.00    -0.091 C  
ATOM     29  C   GLU A   1      -5.845   8.212  67.176  1.00  0.00    -0.042 C  
ATOM     30  O   GLU A   1      -5.241   8.049  68.375  1.00  0.00    -0.030 OA 
ATOM     31  OXT GLU A   1      -5.237   8.600  66.178  1.00  0.00    -0.030 OA 
BRANCH  28  32
ATOM     32  CB  GLU A   1      -7.790   7.338  65.834  1.00  0.00    -0.106 C  
BRANCH  32  33
ATOM     33  CG  GLU A   1      -8.657   8.342  65.077  1.00  0.00    -0.102 C  
ATOM     34  CD  GLU A   1      -7.909   8.924  63.909  1.00  0.00    -0.137 C  
ATOM     35  OE1 GLU A   1      -8.089   8.244  62.757  1.00  0.00    -0.160 OA 
ATOM     36  OE2 GLU A   1      -7.178   9.900  63.995  1.00  0.00    -0.125 OA 
ENDBRANCH  32  33
ENDBRANCH  28  32
ENDBRANCH  26  28
ENDBRANCH  21  24
ENDBRANCH  17  18
ENDBRANCH  16  17
ENDBRANCH  15  16
TORSDOF 7
ENDMDL
MODEL      241
REMARK 921   NORMALIZED FREE ENERGY PREDICTED BY IDOCK:   -3.33 KCAL/MOL
REMARK 922        TOTAL FREE ENERGY PREDICTED BY IDOCK:   -7.34 KCAL/MOL
REMARK 923 INTER-LIGAND FREE ENERGY PREDICTED BY IDOCK:   -6.11 KCAL/MOL
REMARK 924 INTRA-LIGAND FREE ENERGY PREDICTED BY IDOCK:   -1.23 KCAL/MOL
REMARK 927      BINDING AFFINITY PREDICTED BY RF-SCORE:    0.00 PKD
ROOT
HETATM    1  N   UNK A   0      -5.487  15.238  70.630  1.00  0.00    -0.138 NA 
HETATM    2  H1  UNK A   0      -4.527  15.426  70.342  1.00  0.00     0.000 HD 
HETATM    3  C   UNK A   0      -6.529  15.524  69.807  1.00  0.00    -0.167 C  
HETATM    4  H2  UNK A   0      -5.667  14.830  71.548  1.00  0.00     0.000 HD 
HETATM    5  N   UNK A   0      -7.753  15.284  70.175  1.00  0.00    -0.092 N  
HETATM    6  H   UNK A   0      -7.944  14.893  71.098  1.00  0.00     0.000 HD 
HETATM    7  C   UNK A   0      -8.805  15.564  69.299  1.00  0.00    -0.256 C  
HETATM    8  C   UNK A   0      -8.419  16.078  67.982  1.00  0.00    -0.164 A  
HETATM    9  O   UNK A   0      -9.979  15.389  69.599  1.00  0.00    -0.258 OA 
HETATM   10  C   UNK A   0      -7.096  16.296  67.711  1.00  0.00    -0.133 A  
HETATM   11  N   UNK A   0      -6.942  16.737  66.438  1.00  0.00    -0.190 NA 
HETATM   12  N   UNK A   0      -6.132  16.054  68.608  1.00  0.00    -0.106 NA 
HETATM   13  H   UNK A   0      -6.058  16.973  65.987  1.00  0.00     0.000 HD 
HETATM   14  C   UNK A   0      -8.188  16.811  65.862  1.00  0.00     0.074 A  
HETATM   15  C   UNK A   0      -9.139  16.408  66.794  1.00  0.00    -0.259 A  
ENDROOT
BRANCH  15  16
HETATM   16  C   UNK A   0     -10.610  16.285  66.556  1.00  0.00    -0.256 C  
BRANCH  16  17
HETATM   17  C   UNK A   0     -10.970  15.498  65.284  1.00  0.00    -0.391 C  
BRANCH  17  18
HETATM   18  C   UNK A   0     -10.810  13.995  65.435  1.00  0.00    -0.331 A  
HETATM   19  C   UNK A   0     -10.823  13.382  66.694  1.00  0.00    -0.285 A  
HETATM   20  C   UNK A   0     -10.553  12.021  66.829  1.00  0.00    -0.260 A  
HETATM   21  C   UNK A   0     -10.288  11.241  65.700  1.00  0.00    -0.310 A  
HETATM   22  C   UNK A   0     -10.398  11.808  64.429  1.00  0.00    -0.353 A  
HETATM   23  C   UNK A   0     -10.654  13.181  64.299  1.00  0.00    -0.432 A  
BRANCH  21  24
HETATM   24  C   UNK A   0      -9.827   9.833  65.860  1.00  0.00    -0.282 C  
HETATM   25  O   UNK A   0      -9.322   9.190  64.949  1.00  0.00    -0.161 OA 
ATOM     26  N   GLU A   1      -9.982   9.317  67.131  1.00  0.00    -0.200 N  
ATOM     27  H   GLU A   1     -10.403   9.898  67.856  1.00  0.00     0.000 HD 
BRANCH  26  28
ATOM     28  CA  GLU A   1      -9.559   7.965  67.463  1.00  0.00    -0.152 C  
ATOM     29  C   GLU A   1     -10.774   7.168  67.952  1.00  0.00    -0.192 C  
ATOM     30  O   GLU A   1     -11.444   6.543  66.958  1.00  0.00    -0.223 OA 
ATOM     31  OXT GLU A   1     -11.128   7.104  69.129  1.00  0.00    -0.154 OA 
BRANCH  28  32
ATOM     32  CB  GLU A   1      -8.462   7.983  68.537  1.00  0.00    -0.128 C  
BRANCH  32  33
ATOM     33  CG  GLU A   1      -7.335   7.004  68.213  1.00  0.00    -0.097 C  
ATOM     34  CD  GLU A   1      -7.204   6.809  66.727  1.00  0.00    -0.076 C  
ATOM     35  OE1 GLU A   1      -6.329   7.655  66.145  1.00  0.00    -0.041 OA 
ATOM     36  OE2 GLU A   1      -7.851   5.987  66.094  1.00  0.00    -0.100 OA 
ENDBRANCH  32  33
ENDBRANCH  28  32
ENDBRANCH  26  28
ENDBRANCH  21  24
ENDBRANCH  17  18
ENDBRANCH  16  17
ENDBRANCH  15  16
TORSDOF 7
ENDMDL
MODEL      242
REMARK 921   NORMALIZED FREE ENERGY PREDICTED BY IDOCK:   -3.32 KCAL/MOL
REMARK 922        TOTAL FREE ENERGY PREDICTED BY IDOCK:   -7.32 KCAL/MOL
REMARK 923 INTER-LIGAND FREE ENERGY PREDICTED BY IDOCK:   -6.95 KCAL/MOL
REMARK 924 INTRA-LIGAND FREE ENERGY PREDICTED BY IDOCK:   -0.37 KCAL/MOL
REMARK 927      BINDING AFFINITY PREDICTED BY RF-SCORE:    0.00 PKD
ROOT
HETATM    1  N   UNK A   0     -13.041  13.950  65.523  1.00  0.00    -0.682 NA 
HETATM    2  H1  UNK A   0     -13.657  14.125  64.730  1.00  0.00     0.000 HD 
HETATM    3  C   UNK A   0     -12.034  13.043  65.434  1.00  0.00    -0.414 C  
HETATM    4  H2  UNK A   0     -13.183  14.462  66.394  1.00  0.00     0.000 HD 
HETATM    5  N   UNK A   0     -11.249  12.819  66.446  1.00  0.00    -0.286 N  
HETATM    6  H   UNK A   0     -11.394  13.312  67.327  1.00  0.00     0.000 HD 
HETATM    7  C   UNK A   0     -10.205  11.898  66.320  1.00  0.00    -0.216 C  
HETATM    8  C   UNK A   0     -10.055  11.281  64.999  1.00  0.00    -0.331 A  
HETATM    9  O   UNK A   0      -9.452  11.622  67.245  1.00  0.00    -0.166 OA 
HETATM   10  C   UNK A   0     -10.948  11.591  64.010  1.00  0.00    -0.383 A  
HETATM   11  N   UNK A   0     -10.623  10.947  62.862  1.00  0.00    -0.776 NA 
HETATM   12  N   UNK A   0     -11.960  12.445  64.203  1.00  0.00    -0.402 NA 
HETATM   13  H   UNK A   0     -11.126  11.007  61.977  1.00  0.00     0.000 HD 
HETATM   14  C   UNK A   0      -9.494  10.199  63.102  1.00  0.00    -0.255 A  
HETATM   15  C   UNK A   0      -9.108  10.380  64.426  1.00  0.00    -0.267 A  
ENDROOT
BRANCH  15  16
HETATM   16  C   UNK A   0      -7.897   9.792  65.078  1.00  0.00    -0.128 C  
BRANCH  16  17
HETATM   17  C   UNK A   0      -8.044   8.304  65.439  1.00  0.00    -0.135 C  
BRANCH  17  18
HETATM   18  C   UNK A   0      -8.076   8.044  66.935  1.00  0.00    -0.108 A  
HETATM   19  C   UNK A   0      -7.014   8.424  67.766  1.00  0.00    -0.075 A  
HETATM   20  C   UNK A   0      -7.000   8.071  69.114  1.00  0.00    -0.057 A  
HETATM   21  C   UNK A   0      -8.064   7.351  69.664  1.00  0.00    -0.128 A  
HETATM   22  C   UNK A   0      -9.189   7.077  68.882  1.00  0.00    -0.136 A  
HETATM   23  C   UNK A   0      -9.191   7.419  67.522  1.00  0.00    -0.140 A  
BRANCH  21  24
HETATM   24  C   UNK A   0      -7.967   6.824  71.054  1.00  0.00    -0.103 C  
HETATM   25  O   UNK A   0      -7.313   5.830  71.346  1.00  0.00    -0.079 OA 
ATOM     26  N   GLU A   1      -8.645   7.565  72.001  1.00  0.00    -0.106 N  
ATOM     27  H   GLU A   1      -9.169   8.389  71.705  1.00  0.00     0.000 HD 
BRANCH  26  28
ATOM     28  CA  GLU A   1      -8.631   7.202  73.410  1.00  0.00    -0.134 C  
ATOM     29  C   GLU A   1      -7.390   7.813  74.070  1.00  0.00    -0.135 C  
ATOM     30  O   GLU A   1      -7.597   9.057  74.558  1.00  0.00    -0.396 OA 
ATOM     31  OXT GLU A   1      -6.299   7.247  74.146  1.00  0.00    -0.076 OA 
BRANCH  28  32
ATOM     32  CB  GLU A   1      -8.632   5.676  73.580  1.00  0.00    -0.120 C  
BRANCH  32  33
ATOM     33  CG  GLU A   1     -10.042   5.096  73.484  1.00  0.00    -0.205 C  
ATOM     34  CD  GLU A   1     -10.251   4.412  72.160  1.00  0.00    -0.177 C  
ATOM     35  OE1 GLU A   1      -9.956   3.095  72.179  1.00  0.00    -0.160 OA 
ATOM     36  OE2 GLU A   1     -10.620   4.994  71.151  1.00  0.00    -0.179 OA 
ENDBRANCH  32  33
ENDBRANCH  28  32
ENDBRANCH  26  28
ENDBRANCH  21  24
ENDBRANCH  17  18
ENDBRANCH  16  17
ENDBRANCH  15  16
TORSDOF 7
ENDMDL
MODEL      243
REMARK 921   NORMALIZED FREE ENERGY PREDICTED BY IDOCK:   -3.32 KCAL/MOL
REMARK 922        TOTAL FREE ENERGY PREDICTED BY IDOCK:   -7.32 KCAL/MOL
REMARK 923 INTER-LIGAND FREE ENERGY PREDICTED BY IDOCK:   -9.47 KCAL/MOL
REMARK 924 INTRA-LIGAND FREE ENERGY PREDICTED BY IDOCK:    2.15 KCAL/MOL
REMARK 927      BINDING AFFINITY PREDICTED BY RF-SCORE:    0.00 PKD
ROOT
HETATM    1  N   UNK A   0      -9.106   2.201  64.664  1.00  0.00    -0.121 NA 
HETATM    2  H1  UNK A   0      -9.503   2.468  63.764  1.00  0.00     0.000 HD 
HETATM    3  C   UNK A   0      -9.285   2.980  65.761  1.00  0.00    -0.124 C  
HETATM    4  H2  UNK A   0      -8.568   1.337  64.741  1.00  0.00     0.000 HD 
HETATM    5  N   UNK A   0      -8.779   2.639  66.910  1.00  0.00    -0.115 N  
HETATM    6  H   UNK A   0      -8.224   1.788  66.993  1.00  0.00     0.000 HD 
HETATM    7  C   UNK A   0      -8.999   3.446  68.029  1.00  0.00    -0.139 C  
HETATM    8  C   UNK A   0      -9.849   4.620  67.811  1.00  0.00    -0.183 A  
HETATM    9  O   UNK A   0      -8.524   3.195  69.129  1.00  0.00    -0.059 OA 
HETATM   10  C   UNK A   0     -10.321   4.881  66.554  1.00  0.00    -0.270 A  
HETATM   11  N   UNK A   0     -11.109   5.984  66.565  1.00  0.00    -0.761 NA 
HETATM   12  N   UNK A   0     -10.037   4.097  65.507  1.00  0.00    -0.208 NA 
HETATM   13  H   UNK A   0     -11.584   6.390  65.759  1.00  0.00     0.000 HD 
HETATM   14  C   UNK A   0     -11.155   6.458  67.855  1.00  0.00    -0.270 A  
HETATM   15  C   UNK A   0     -10.380   5.634  68.665  1.00  0.00    -0.277 A  
ENDROOT
BRANCH  15  16
HETATM   16  C   UNK A   0     -10.209   5.762  70.145  1.00  0.00    -0.301 C  
BRANCH  16  17
HETATM   17  C   UNK A   0     -11.343   6.537  70.838  1.00  0.00    -0.393 C  
BRANCH  17  18
HETATM   18  C   UNK A   0     -11.276   8.038  70.614  1.00  0.00    -0.266 A  
HETATM   19  C   UNK A   0     -12.380   8.864  70.862  1.00  0.00    -0.129 A  
HETATM   20  C   UNK A   0     -12.345  10.220  70.538  1.00  0.00    -0.371 A  
HETATM   21  C   UNK A   0     -11.193  10.780  69.981  1.00  0.00    -0.366 A  
HETATM   22  C   UNK A   0     -10.041  10.001  69.847  1.00  0.00    -0.289 A  
HETATM   23  C   UNK A   0     -10.086   8.634  70.159  1.00  0.00    -0.196 A  
BRANCH  21  24
HETATM   24  C   UNK A   0     -11.217  12.181  69.473  1.00  0.00    -0.131 C  
HETATM   25  O   UNK A   0     -10.608  12.538  68.472  1.00  0.00    -0.234 OA 
ATOM     26  N   GLU A   1     -12.012  13.044  70.200  1.00  0.00    -0.453 N  
ATOM     27  H   GLU A   1     -12.504  12.693  71.022  1.00  0.00     0.000 HD 
BRANCH  26  28
ATOM     28  CA  GLU A   1     -12.167  14.441  69.824  1.00  0.00    -0.321 C  
ATOM     29  C   GLU A   1     -11.354  14.707  68.552  1.00  0.00    -0.284 C  
ATOM     30  O   GLU A   1     -12.049  14.490  67.413  1.00  0.00    -0.380 OA 
ATOM     31  OXT GLU A   1     -10.178  15.071  68.549  1.00  0.00    -0.217 OA 
BRANCH  28  32
ATOM     32  CB  GLU A   1     -11.706  15.367  70.958  1.00  0.00    -0.408 C  
BRANCH  32  33
ATOM     33  CG  GLU A   1     -12.853  15.719  71.903  1.00  0.00    -0.514 C  
ATOM     34  CD  GLU A   1     -12.919  14.751  73.052  1.00  0.00    -0.510 C  
ATOM     35  OE1 GLU A   1     -12.211  15.143  74.132  1.00  0.00    -0.607 OA 
ATOM     36  OE2 GLU A   1     -13.526  13.691  73.008  1.00  0.00    -0.573 OA 
ENDBRANCH  32  33
ENDBRANCH  28  32
ENDBRANCH  26  28
ENDBRANCH  21  24
ENDBRANCH  17  18
ENDBRANCH  16  17
ENDBRANCH  15  16
TORSDOF 7
ENDMDL
MODEL      244
REMARK 921   NORMALIZED FREE ENERGY PREDICTED BY IDOCK:   -3.30 KCAL/MOL
REMARK 922        TOTAL FREE ENERGY PREDICTED BY IDOCK:   -7.29 KCAL/MOL
REMARK 923 INTER-LIGAND FREE ENERGY PREDICTED BY IDOCK:   -7.53 KCAL/MOL
REMARK 924 INTRA-LIGAND FREE ENERGY PREDICTED BY IDOCK:    0.24 KCAL/MOL
REMARK 927      BINDING AFFINITY PREDICTED BY RF-SCORE:    0.00 PKD
ROOT
HETATM    1  N   UNK A   0     -13.735  16.150  73.382  1.00  0.00    -0.815 NA 
HETATM    2  H1  UNK A   0     -13.626  17.141  73.168  1.00  0.00     0.000 HD 
HETATM    3  C   UNK A   0     -13.435  15.202  72.457  1.00  0.00    -0.464 C  
HETATM    4  H2  UNK A   0     -14.073  15.868  74.302  1.00  0.00     0.000 HD 
HETATM    5  N   UNK A   0     -13.573  13.938  72.731  1.00  0.00    -0.493 N  
HETATM    6  H   UNK A   0     -13.928  13.647  73.641  1.00  0.00     0.000 HD 
HETATM    7  C   UNK A   0     -13.234  12.982  71.770  1.00  0.00    -0.392 C  
HETATM    8  C   UNK A   0     -12.690  13.506  70.514  1.00  0.00    -0.227 A  
HETATM    9  O   UNK A   0     -13.371  11.780  71.956  1.00  0.00    -0.487 OA 
HETATM   10  C   UNK A   0     -12.596  14.859  70.338  1.00  0.00    -0.343 A  
HETATM   11  N   UNK A   0     -12.041  15.141  69.133  1.00  0.00    -0.534 NA 
HETATM   12  N   UNK A   0     -12.983  15.731  71.277  1.00  0.00    -0.479 NA 
HETATM   13  H   UNK A   0     -11.860  16.072  68.759  1.00  0.00     0.000 HD 
HETATM   14  C   UNK A   0     -11.766  13.949  68.505  1.00  0.00    -0.355 A  
HETATM   15  C   UNK A   0     -12.157  12.903  69.335  1.00  0.00    -0.254 A  
ENDROOT
BRANCH  15  16
HETATM   16  C   UNK A   0     -11.979  11.444  69.056  1.00  0.00    -0.387 C  
BRANCH  16  17
HETATM   17  C   UNK A   0     -10.960  10.754  69.979  1.00  0.00    -0.280 C  
BRANCH  17  18
HETATM   18  C   UNK A   0      -9.999   9.838  69.242  1.00  0.00    -0.201 A  
HETATM   19  C   UNK A   0      -9.113  10.333  68.276  1.00  0.00    -0.139 A  
HETATM   20  C   UNK A   0      -8.323   9.468  67.520  1.00  0.00    -0.125 A  
HETATM   21  C   UNK A   0      -8.387   8.088  67.735  1.00  0.00    -0.129 A  
HETATM   22  C   UNK A   0      -9.167   7.588  68.780  1.00  0.00    -0.145 A  
HETATM   23  C   UNK A   0      -9.973   8.461  69.526  1.00  0.00    -0.190 A  
BRANCH  21  24
HETATM   24  C   UNK A   0      -7.680   7.158  66.811  1.00  0.00    -0.098 C  
HETATM   25  O   UNK A   0      -6.515   6.817  66.971  1.00  0.00    -0.040 OA 
ATOM     26  N   GLU A   1      -8.454   6.677  65.773  1.00  0.00    -0.146 N  
ATOM     27  H   GLU A   1      -9.422   6.988  65.690  1.00  0.00     0.000 HD 
BRANCH  26  28
ATOM     28  CA  GLU A   1      -7.923   5.739  64.796  1.00  0.00    -0.124 C  
ATOM     29  C   GLU A   1      -8.269   4.311  65.236  1.00  0.00    -0.106 C  
ATOM     30  O   GLU A   1      -9.461   3.877  64.769  1.00  0.00    -0.147 OA 
ATOM     31  OXT GLU A   1      -7.550   3.619  65.956  1.00  0.00    -0.079 OA 
BRANCH  28  32
ATOM     32  CB  GLU A   1      -6.404   5.901  64.650  1.00  0.00    -0.033 C  
BRANCH  32  33
ATOM     33  CG  GLU A   1      -6.041   6.815  63.481  1.00  0.00    -0.039 C  
ATOM     34  CD  GLU A   1      -6.780   8.123  63.572  1.00  0.00    -0.076 C  
ATOM     35  OE1 GLU A   1      -6.102   9.082  64.237  1.00  0.00    -0.070 OA 
ATOM     36  OE2 GLU A   1      -7.902   8.297  63.120  1.00  0.00    -0.134 OA 
ENDBRANCH  32  33
ENDBRANCH  28  32
ENDBRANCH  26  28
ENDBRANCH  21  24
ENDBRANCH  17  18
ENDBRANCH  16  17
ENDBRANCH  15  16
TORSDOF 7
ENDMDL
MODEL      245
REMARK 921   NORMALIZED FREE ENERGY PREDICTED BY IDOCK:   -3.29 KCAL/MOL
REMARK 922        TOTAL FREE ENERGY PREDICTED BY IDOCK:   -7.28 KCAL/MOL
REMARK 923 INTER-LIGAND FREE ENERGY PREDICTED BY IDOCK:   -7.01 KCAL/MOL
REMARK 924 INTRA-LIGAND FREE ENERGY PREDICTED BY IDOCK:   -0.28 KCAL/MOL
REMARK 927      BINDING AFFINITY PREDICTED BY RF-SCORE:    0.00 PKD
ROOT
HETATM    1  N   UNK A   0     -10.949   4.439  65.231  1.00  0.00    -0.846 NA 
HETATM    2  H1  UNK A   0     -10.609   3.522  64.941  1.00  0.00     0.000 HD 
HETATM    3  C   UNK A   0     -10.308   5.144  66.198  1.00  0.00    -0.236 C  
HETATM    4  H2  UNK A   0     -11.781   4.831  64.788  1.00  0.00     0.000 HD 
HETATM    5  N   UNK A   0     -10.741   6.313  66.568  1.00  0.00    -0.521 N  
HETATM    6  H   UNK A   0     -11.583   6.705  66.145  1.00  0.00     0.000 HD 
HETATM    7  C   UNK A   0     -10.049   7.028  67.548  1.00  0.00    -0.185 C  
HETATM    8  C   UNK A   0      -8.828   6.396  68.056  1.00  0.00    -0.113 A  
HETATM    9  O   UNK A   0     -10.424   8.119  67.960  1.00  0.00    -0.216 OA 
HETATM   10  C   UNK A   0      -8.474   5.157  67.595  1.00  0.00    -0.105 A  
HETATM   11  N   UNK A   0      -7.306   4.761  68.157  1.00  0.00    -0.066 NA 
HETATM   12  N   UNK A   0      -9.204   4.496  66.688  1.00  0.00    -0.126 NA 
HETATM   13  H   UNK A   0      -6.825   3.879  67.982  1.00  0.00     0.000 HD 
HETATM   14  C   UNK A   0      -6.884   5.758  69.004  1.00  0.00    -0.062 A  
HETATM   15  C   UNK A   0      -7.808   6.798  68.970  1.00  0.00    -0.111 A  
ENDROOT
BRANCH  15  16
HETATM   16  C   UNK A   0      -7.698   8.098  69.701  1.00  0.00    -0.101 C  
BRANCH  16  17
HETATM   17  C   UNK A   0      -6.528   8.979  69.230  1.00  0.00    -0.045 C  
BRANCH  17  18
HETATM   18  C   UNK A   0      -6.968  10.316  68.659  1.00  0.00    -0.066 A  
HETATM   19  C   UNK A   0      -6.450  11.524  69.144  1.00  0.00    -0.092 A  
HETATM   20  C   UNK A   0      -6.950  12.747  68.699  1.00  0.00    -0.101 A  
HETATM   21  C   UNK A   0      -7.965  12.783  67.738  1.00  0.00    -0.157 A  
HETATM   22  C   UNK A   0      -8.402  11.594  67.150  1.00  0.00    -0.164 A  
HETATM   23  C   UNK A   0      -7.908  10.366  67.614  1.00  0.00    -0.105 A  
BRANCH  21  24
HETATM   24  C   UNK A   0      -8.618  14.077  67.395  1.00  0.00    -0.203 C  
HETATM   25  O   UNK A   0      -8.015  15.016  66.890  1.00  0.00    -0.195 OA 
ATOM     26  N   GLU A   1      -9.973  14.126  67.659  1.00  0.00    -0.230 N  
ATOM     27  H   GLU A   1     -10.428  13.313  68.074  1.00  0.00     0.000 HD 
BRANCH  26  28
ATOM     28  CA  GLU A   1     -10.767  15.308  67.359  1.00  0.00    -0.293 C  
ATOM     29  C   GLU A   1     -11.277  15.214  65.917  1.00  0.00    -0.280 C  
ATOM     30  O   GLU A   1     -12.468  14.582  65.807  1.00  0.00    -0.323 OA 
ATOM     31  OXT GLU A   1     -10.669  15.652  64.940  1.00  0.00    -0.434 OA 
BRANCH  28  32
ATOM     32  CB  GLU A   1      -9.939  16.586  67.553  1.00  0.00    -0.255 C  
BRANCH  32  33
ATOM     33  CG  GLU A   1     -10.828  17.815  67.737  1.00  0.00    -0.238 C  
ATOM     34  CD  GLU A   1     -10.090  19.072  67.368  1.00  0.00    -0.370 C  
ATOM     35  OE1 GLU A   1     -10.247  19.434  66.078  1.00  0.00    -0.433 OA 
ATOM     36  OE2 GLU A   1      -9.384  19.694  68.149  1.00  0.00    -0.334 OA 
ENDBRANCH  32  33
ENDBRANCH  28  32
ENDBRANCH  26  28
ENDBRANCH  21  24
ENDBRANCH  17  18
ENDBRANCH  16  17
ENDBRANCH  15  16
TORSDOF 7
ENDMDL
MODEL      246
REMARK 921   NORMALIZED FREE ENERGY PREDICTED BY IDOCK:   -3.29 KCAL/MOL
REMARK 922        TOTAL FREE ENERGY PREDICTED BY IDOCK:   -7.28 KCAL/MOL
REMARK 923 INTER-LIGAND FREE ENERGY PREDICTED BY IDOCK:   -6.36 KCAL/MOL
REMARK 924 INTRA-LIGAND FREE ENERGY PREDICTED BY IDOCK:   -0.92 KCAL/MOL
REMARK 927      BINDING AFFINITY PREDICTED BY RF-SCORE:    0.00 PKD
ROOT
HETATM    1  N   UNK A   0      -5.889  20.762  69.859  1.00  0.00    -0.449 NA 
HETATM    2  H1  UNK A   0      -4.961  20.486  70.176  1.00  0.00     0.000 HD 
HETATM    3  C   UNK A   0      -6.618  19.949  69.051  1.00  0.00    -0.328 C  
HETATM    4  H2  UNK A   0      -6.276  21.660  70.151  1.00  0.00     0.000 HD 
HETATM    5  N   UNK A   0      -7.803  20.301  68.646  1.00  0.00     0.043 N  
HETATM    6  H   UNK A   0      -8.190  21.205  68.918  1.00  0.00     0.000 HD 
HETATM    7  C   UNK A   0      -8.542  19.436  67.836  1.00  0.00    -0.313 C  
HETATM    8  C   UNK A   0      -7.914  18.144  67.543  1.00  0.00    -0.227 A  
HETATM    9  O   UNK A   0      -9.649  19.723  67.398  1.00  0.00    -0.320 OA 
HETATM   10  C   UNK A   0      -6.658  17.887  68.021  1.00  0.00    -0.194 A  
HETATM   11  N   UNK A   0      -6.268  16.636  67.674  1.00  0.00    -0.136 NA 
HETATM   12  N   UNK A   0      -5.976  18.776  68.754  1.00  0.00    -0.209 NA 
HETATM   13  H   UNK A   0      -5.376  16.200  67.906  1.00  0.00     0.000 HD 
HETATM   14  C   UNK A   0      -7.287  16.060  66.953  1.00  0.00    -0.201 A  
HETATM   15  C   UNK A   0      -8.334  16.969  66.849  1.00  0.00    -0.247 A  
ENDROOT
BRANCH  15  16
HETATM   16  C   UNK A   0      -9.656  16.720  66.195  1.00  0.00    -0.302 C  
BRANCH  16  17
HETATM   17  C   UNK A   0     -10.626  15.887  67.051  1.00  0.00    -0.306 C  
BRANCH  17  18
HETATM   18  C   UNK A   0     -10.316  14.401  67.044  1.00  0.00    -0.263 A  
HETATM   19  C   UNK A   0     -10.389  13.644  65.868  1.00  0.00    -0.304 A  
HETATM   20  C   UNK A   0     -10.222  12.260  65.896  1.00  0.00    -0.274 A  
HETATM   21  C   UNK A   0      -9.953  11.609  67.103  1.00  0.00    -0.219 A  
HETATM   22  C   UNK A   0      -9.749  12.361  68.262  1.00  0.00    -0.218 A  
HETATM   23  C   UNK A   0      -9.935  13.750  68.232  1.00  0.00    -0.243 A  
BRANCH  21  24
HETATM   24  C   UNK A   0      -9.951  10.120  67.161  1.00  0.00    -0.196 C  
HETATM   25  O   UNK A   0     -10.961   9.460  67.369  1.00  0.00    -0.210 OA 
ATOM     26  N   GLU A   1      -8.722   9.536  66.926  1.00  0.00    -0.127 N  
ATOM     27  H   GLU A   1      -7.913  10.132  66.751  1.00  0.00     0.000 HD 
BRANCH  26  28
ATOM     28  CA  GLU A   1      -8.552   8.091  66.922  1.00  0.00    -0.128 C  
ATOM     29  C   GLU A   1      -7.248   7.740  67.647  1.00  0.00    -0.091 C  
ATOM     30  O   GLU A   1      -7.405   7.556  68.978  1.00  0.00    -0.082 OA 
ATOM     31  OXT GLU A   1      -6.154   7.644  67.092  1.00  0.00    -0.048 OA 
BRANCH  28  32
ATOM     32  CB  GLU A   1      -8.529   7.548  65.486  1.00  0.00    -0.129 C  
BRANCH  32  33
ATOM     33  CG  GLU A   1      -7.519   8.292  64.615  1.00  0.00    -0.099 C  
ATOM     34  CD  GLU A   1      -8.204   8.971  63.460  1.00  0.00    -0.178 C  
ATOM     35  OE1 GLU A   1      -8.573  10.243  63.722  1.00  0.00    -0.167 OA 
ATOM     36  OE2 GLU A   1      -8.439   8.420  62.395  1.00  0.00    -0.196 OA 
ENDBRANCH  32  33
ENDBRANCH  28  32
ENDBRANCH  26  28
ENDBRANCH  21  24
ENDBRANCH  17  18
ENDBRANCH  16  17
ENDBRANCH  15  16
TORSDOF 7
ENDMDL
MODEL      247
REMARK 921   NORMALIZED FREE ENERGY PREDICTED BY IDOCK:   -3.24 KCAL/MOL
REMARK 922        TOTAL FREE ENERGY PREDICTED BY IDOCK:   -7.20 KCAL/MOL
REMARK 923 INTER-LIGAND FREE ENERGY PREDICTED BY IDOCK:   -7.77 KCAL/MOL
REMARK 924 INTRA-LIGAND FREE ENERGY PREDICTED BY IDOCK:    0.56 KCAL/MOL
REMARK 927      BINDING AFFINITY PREDICTED BY RF-SCORE:    0.00 PKD
ROOT
HETATM    1  N   UNK A   0      -8.244   3.682  72.238  1.00  0.00    -0.082 NA 
HETATM    2  H1  UNK A   0      -7.231   3.742  72.139  1.00  0.00     0.000 HD 
HETATM    3  C   UNK A   0      -9.016   4.797  72.179  1.00  0.00    -0.127 C  
HETATM    4  H2  UNK A   0      -8.683   2.772  72.382  1.00  0.00     0.000 HD 
HETATM    5  N   UNK A   0     -10.308   4.720  72.305  1.00  0.00    -0.200 N  
HETATM    6  H   UNK A   0     -10.755   3.818  72.468  1.00  0.00     0.000 HD 
HETATM    7  C   UNK A   0     -11.082   5.880  72.215  1.00  0.00    -0.280 C  
HETATM    8  C   UNK A   0     -10.347   7.116  71.932  1.00  0.00    -0.212 A  
HETATM    9  O   UNK A   0     -12.298   5.877  72.356  1.00  0.00    -0.198 OA 
HETATM   10  C   UNK A   0      -8.984   7.075  71.825  1.00  0.00    -0.133 A  
HETATM   11  N   UNK A   0      -8.496   8.305  71.529  1.00  0.00    -0.127 NA 
HETATM   12  N   UNK A   0      -8.290   5.940  71.969  1.00  0.00    -0.115 NA 
HETATM   13  H   UNK A   0      -7.514   8.545  71.397  1.00  0.00     0.000 HD 
HETATM   14  C   UNK A   0      -9.560   9.172  71.441  1.00  0.00    -0.246 A  
HETATM   15  C   UNK A   0     -10.735   8.468  71.686  1.00  0.00    -0.351 A  
ENDROOT
BRANCH  15  16
HETATM   16  C   UNK A   0     -12.122   9.023  71.628  1.00  0.00    -0.422 C  
BRANCH  16  17
HETATM   17  C   UNK A   0     -12.560   9.459  70.220  1.00  0.00     0.408 C  
BRANCH  17  18
HETATM   18  C   UNK A   0     -12.342  10.938  69.948  1.00  0.00    -0.354 A  
HETATM   19  C   UNK A   0     -11.824  11.388  68.727  1.00  0.00    -0.388 A  
HETATM   20  C   UNK A   0     -11.514  12.733  68.534  1.00  0.00    -0.344 A  
HETATM   21  C   UNK A   0     -11.740  13.660  69.555  1.00  0.00    -0.380 A  
HETATM   22  C   UNK A   0     -12.375  13.251  70.730  1.00  0.00    -0.425 A  
HETATM   23  C   UNK A   0     -12.669  11.894  70.926  1.00  0.00    -0.301 A  
BRANCH  21  24
HETATM   24  C   UNK A   0     -11.246  15.058  69.413  1.00  0.00    -0.284 C  
HETATM   25  O   UNK A   0     -11.126  15.823  70.363  1.00  0.00    -0.309 OA 
ATOM     26  N   GLU A   1     -10.897  15.419  68.127  1.00  0.00    -0.274 N  
ATOM     27  H   GLU A   1     -11.010  14.741  67.373  1.00  0.00     0.000 HD 
BRANCH  26  28
ATOM     28  CA  GLU A   1     -10.372  16.741  67.820  1.00  0.00    -0.318 C  
ATOM     29  C   GLU A   1      -9.151  16.592  66.905  1.00  0.00    -0.228 C  
ATOM     30  O   GLU A   1      -9.460  16.585  65.589  1.00  0.00    -0.497 OA 
ATOM     31  OXT GLU A   1      -7.995  16.476  67.313  1.00  0.00    -0.148 OA 
BRANCH  28  32
ATOM     32  CB  GLU A   1      -9.992  17.490  69.104  1.00  0.00    -0.197 C  
BRANCH  32  33
ATOM     33  CG  GLU A   1      -9.972  19.003  68.893  1.00  0.00    -0.460 C  
ATOM     34  CD  GLU A   1      -8.573  19.490  68.630  1.00  0.00    -0.325 C  
ATOM     35  OE1 GLU A   1      -8.252  19.531  67.320  1.00  0.00    -0.274 OA 
ATOM     36  OE2 GLU A   1      -7.785  19.788  69.515  1.00  0.00    -0.173 OA 
ENDBRANCH  32  33
ENDBRANCH  28  32
ENDBRANCH  26  28
ENDBRANCH  21  24
ENDBRANCH  17  18
ENDBRANCH  16  17
ENDBRANCH  15  16
TORSDOF 7
ENDMDL
MODEL      248
REMARK 921   NORMALIZED FREE ENERGY PREDICTED BY IDOCK:   -3.24 KCAL/MOL
REMARK 922        TOTAL FREE ENERGY PREDICTED BY IDOCK:   -7.20 KCAL/MOL
REMARK 923 INTER-LIGAND FREE ENERGY PREDICTED BY IDOCK:   -6.99 KCAL/MOL
REMARK 924 INTRA-LIGAND FREE ENERGY PREDICTED BY IDOCK:   -0.21 KCAL/MOL
REMARK 927      BINDING AFFINITY PREDICTED BY RF-SCORE:    0.00 PKD
ROOT
HETATM    1  N   UNK A   0     -11.123   2.701  63.739  1.00  0.00    -0.586 NA 
HETATM    2  H1  UNK A   0     -10.608   2.191  63.021  1.00  0.00     0.000 HD 
HETATM    3  C   UNK A   0     -10.547   3.732  64.408  1.00  0.00    -0.196 C  
HETATM    4  H2  UNK A   0     -12.082   2.431  63.956  1.00  0.00     0.000 HD 
HETATM    5  N   UNK A   0     -11.204   4.382  65.323  1.00  0.00    -0.905 N  
HETATM    6  H   UNK A   0     -12.158   4.109  65.561  1.00  0.00     0.000 HD 
HETATM    7  C   UNK A   0     -10.598   5.456  65.979  1.00  0.00    -0.052 C  
HETATM    8  C   UNK A   0      -9.244   5.795  65.529  1.00  0.00     0.015 A  
HETATM    9  O   UNK A   0     -11.153   6.086  66.870  1.00  0.00    -0.303 OA 
HETATM   10  C   UNK A   0      -8.651   5.034  64.560  1.00  0.00    -0.143 A  
HETATM   11  N   UNK A   0      -7.423   5.525  64.260  1.00  0.00    -0.064 NA 
HETATM   12  N   UNK A   0      -9.264   3.984  64.000  1.00  0.00    -0.141 NA 
HETATM   13  H   UNK A   0      -6.775   5.142  63.572  1.00  0.00     0.000 HD 
HETATM   14  C   UNK A   0      -7.206   6.630  65.049  1.00  0.00    -0.074 A  
HETATM   15  C   UNK A   0      -8.320   6.833  65.856  1.00  0.00    -0.137 A  
ENDROOT
BRANCH  15  16
HETATM   16  C   UNK A   0      -8.517   7.961  66.818  1.00  0.00    -0.129 C  
BRANCH  16  17
HETATM   17  C   UNK A   0      -9.538   9.010  66.346  1.00  0.00    -0.309 C  
BRANCH  17  18
HETATM   18  C   UNK A   0      -9.087  10.442  66.577  1.00  0.00    -0.175 A  
HETATM   19  C   UNK A   0      -7.781  10.739  66.987  1.00  0.00    -0.121 A  
HETATM   20  C   UNK A   0      -7.413  12.043  67.314  1.00  0.00    -0.158 A  
HETATM   21  C   UNK A   0      -8.342  13.082  67.213  1.00  0.00    -0.186 A  
HETATM   22  C   UNK A   0      -9.609  12.825  66.683  1.00  0.00    -0.255 A  
HETATM   23  C   UNK A   0      -9.979  11.509  66.372  1.00  0.00    -0.241 A  
BRANCH  21  24
HETATM   24  C   UNK A   0      -8.003  14.437  67.729  1.00  0.00    -0.158 C  
HETATM   25  O   UNK A   0      -7.927  14.696  68.924  1.00  0.00    -0.146 OA 
ATOM     26  N   GLU A   1      -7.744  15.378  66.753  1.00  0.00    -0.264 N  
ATOM     27  H   GLU A   1      -7.814  15.108  65.771  1.00  0.00     0.000 HD 
BRANCH  26  28
ATOM     28  CA  GLU A   1      -7.372  16.745  67.087  1.00  0.00    -0.187 C  
ATOM     29  C   GLU A   1      -5.845  16.837  67.183  1.00  0.00    -0.171 C  
ATOM     30  O   GLU A   1      -5.248  17.133  66.006  1.00  0.00    -0.344 OA 
ATOM     31  OXT GLU A   1      -5.206  16.649  68.218  1.00  0.00    -0.106 OA 
BRANCH  28  32
ATOM     32  CB  GLU A   1      -8.019  17.179  68.410  1.00  0.00    -0.250 C  
BRANCH  32  33
ATOM     33  CG  GLU A   1      -9.245  18.060  68.179  1.00  0.00    -0.283 C  
ATOM     34  CD  GLU A   1     -10.418  17.238  67.719  1.00  0.00    -0.371 C  
ATOM     35  OE1 GLU A   1     -11.203  16.803  68.727  1.00  0.00    -0.273 OA 
ATOM     36  OE2 GLU A   1     -10.628  16.958  66.548  1.00  0.00    -0.280 OA 
ENDBRANCH  32  33
ENDBRANCH  28  32
ENDBRANCH  26  28
ENDBRANCH  21  24
ENDBRANCH  17  18
ENDBRANCH  16  17
ENDBRANCH  15  16
TORSDOF 7
ENDMDL
MODEL      249
REMARK 921   NORMALIZED FREE ENERGY PREDICTED BY IDOCK:   -3.23 KCAL/MOL
REMARK 922        TOTAL FREE ENERGY PREDICTED BY IDOCK:   -7.20 KCAL/MOL
REMARK 923 INTER-LIGAND FREE ENERGY PREDICTED BY IDOCK:   -7.45 KCAL/MOL
REMARK 924 INTRA-LIGAND FREE ENERGY PREDICTED BY IDOCK:    0.25 KCAL/MOL
REMARK 927      BINDING AFFINITY PREDICTED BY RF-SCORE:    0.00 PKD
ROOT
HETATM    1  N   UNK A   0     -14.120  15.866  73.118  1.00  0.00    -0.546 NA 
HETATM    2  H1  UNK A   0     -14.162  16.869  72.937  1.00  0.00     0.000 HD 
HETATM    3  C   UNK A   0     -13.601  15.014  72.197  1.00  0.00    -0.427 C  
HETATM    4  H2  UNK A   0     -14.471  15.500  74.003  1.00  0.00     0.000 HD 
HETATM    5  N   UNK A   0     -13.547  13.736  72.429  1.00  0.00    -0.546 N  
HETATM    6  H   UNK A   0     -13.913  13.357  73.303  1.00  0.00     0.000 HD 
HETATM    7  C   UNK A   0     -12.986  12.883  71.475  1.00  0.00    -0.294 C  
HETATM    8  C   UNK A   0     -12.448  13.534  70.276  1.00  0.00    -0.309 A  
HETATM    9  O   UNK A   0     -12.934  11.669  71.621  1.00  0.00    -0.432 OA 
HETATM   10  C   UNK A   0     -12.568  14.890  70.140  1.00  0.00    -0.264 A  
HETATM   11  N   UNK A   0     -11.983  15.302  68.989  1.00  0.00    -0.512 NA 
HETATM   12  N   UNK A   0     -13.160  15.652  71.068  1.00  0.00    -0.514 NA 
HETATM   13  H   UNK A   0     -11.933  16.263  68.651  1.00  0.00     0.000 HD 
HETATM   14  C   UNK A   0     -11.470  14.195  68.356  1.00  0.00    -0.302 A  
HETATM   15  C   UNK A   0     -11.739  13.070  69.127  1.00  0.00    -0.378 A  
ENDROOT
BRANCH  15  16
HETATM   16  C   UNK A   0     -11.302  11.671  68.829  1.00  0.00    -0.324 C  
BRANCH  16  17
HETATM   17  C   UNK A   0     -10.417  11.549  67.577  1.00  0.00    -0.229 C  
BRANCH  17  18
HETATM   18  C   UNK A   0     -10.191  10.115  67.131  1.00  0.00    -0.278 A  
HETATM   19  C   UNK A   0     -10.748   9.036  67.830  1.00  0.00    -0.200 A  
HETATM   20  C   UNK A   0     -10.435   7.722  67.486  1.00  0.00    -0.338 A  
HETATM   21  C   UNK A   0      -9.575   7.462  66.416  1.00  0.00    -0.181 A  
HETATM   22  C   UNK A   0      -9.113   8.520  65.628  1.00  0.00    -0.189 A  
HETATM   23  C   UNK A   0      -9.418   9.840  65.989  1.00  0.00    -0.269 A  
BRANCH  21  24
HETATM   24  C   UNK A   0      -9.102   6.073  66.162  1.00  0.00    -0.147 C  
HETATM   25  O   UNK A   0      -9.567   5.095  66.734  1.00  0.00    -0.131 OA 
ATOM     26  N   GLU A   1      -8.117   5.965  65.200  1.00  0.00    -0.125 N  
ATOM     27  H   GLU A   1      -7.770   6.811  64.748  1.00  0.00     0.000 HD 
BRANCH  26  28
ATOM     28  CA  GLU A   1      -7.563   4.676  64.814  1.00  0.00    -0.076 C  
ATOM     29  C   GLU A   1      -8.061   4.321  63.408  1.00  0.00    -0.088 C  
ATOM     30  O   GLU A   1      -7.260   4.780  62.420  1.00  0.00    -0.034 OA 
ATOM     31  OXT GLU A   1      -9.094   3.690  63.181  1.00  0.00    -0.095 OA 
BRANCH  28  32
ATOM     32  CB  GLU A   1      -7.966   3.586  65.816  1.00  0.00    -0.093 C  
BRANCH  32  33
ATOM     33  CG  GLU A   1      -6.796   2.661  66.147  1.00  0.00    -0.044 C  
ATOM     34  CD  GLU A   1      -6.336   2.862  67.565  1.00  0.00    -0.032 C  
ATOM     35  OE1 GLU A   1      -6.939   2.042  68.451  1.00  0.00    -0.039 OA 
ATOM     36  OE2 GLU A   1      -5.520   3.709  67.896  1.00  0.00    -0.015 OA 
ENDBRANCH  32  33
ENDBRANCH  28  32
ENDBRANCH  26  28
ENDBRANCH  21  24
ENDBRANCH  17  18
ENDBRANCH  16  17
ENDBRANCH  15  16
TORSDOF 7
ENDMDL
MODEL      250
REMARK 921   NORMALIZED FREE ENERGY PREDICTED BY IDOCK:   -3.21 KCAL/MOL
REMARK 922        TOTAL FREE ENERGY PREDICTED BY IDOCK:   -7.17 KCAL/MOL
REMARK 923 INTER-LIGAND FREE ENERGY PREDICTED BY IDOCK:   -6.88 KCAL/MOL
REMARK 924 INTRA-LIGAND FREE ENERGY PREDICTED BY IDOCK:   -0.29 KCAL/MOL
REMARK 927      BINDING AFFINITY PREDICTED BY RF-SCORE:    0.00 PKD
ROOT
HETATM    1  N   UNK A   0      -5.730   7.601  62.341  1.00  0.00    -0.058 NA 
HETATM    2  H1  UNK A   0      -5.784   6.761  61.767  1.00  0.00     0.000 HD 
HETATM    3  C   UNK A   0      -6.548   7.765  63.413  1.00  0.00    -0.066 C  
HETATM    4  H2  UNK A   0      -5.054   8.328  62.108  1.00  0.00     0.000 HD 
HETATM    5  N   UNK A   0      -6.480   8.837  64.146  1.00  0.00    -0.072 N  
HETATM    6  H   UNK A   0      -5.819   9.577  63.910  1.00  0.00     0.000 HD 
HETATM    7  C   UNK A   0      -7.315   8.969  65.257  1.00  0.00    -0.092 C  
HETATM    8  C   UNK A   0      -8.193   7.827  65.534  1.00  0.00    -0.137 A  
HETATM    9  O   UNK A   0      -7.320   9.966  65.967  1.00  0.00    -0.098 OA 
HETATM   10  C   UNK A   0      -8.181   6.753  64.687  1.00  0.00    -0.032 A  
HETATM   11  N   UNK A   0      -9.031   5.794  65.130  1.00  0.00    -0.356 NA 
HETATM   12  N   UNK A   0      -7.392   6.703  63.607  1.00  0.00    -0.065 NA 
HETATM   13  H   UNK A   0      -9.208   4.896  64.681  1.00  0.00     0.000 HD 
HETATM   14  C   UNK A   0      -9.613   6.247  66.290  1.00  0.00    -0.075 A  
HETATM   15  C   UNK A   0      -9.116   7.514  66.578  1.00  0.00    -0.201 A  
ENDROOT
BRANCH  15  16
HETATM   16  C   UNK A   0      -9.444   8.337  67.783  1.00  0.00    -0.171 C  
BRANCH  16  17
HETATM   17  C   UNK A   0     -10.786   9.082  67.681  1.00  0.00    -0.232 C  
BRANCH  17  18
HETATM   18  C   UNK A   0     -10.635  10.591  67.581  1.00  0.00    -0.295 A  
HETATM   19  C   UNK A   0     -10.243  11.208  66.386  1.00  0.00    -0.279 A  
HETATM   20  C   UNK A   0      -9.989  12.578  66.339  1.00  0.00    -0.262 A  
HETATM   21  C   UNK A   0     -10.148  13.362  67.485  1.00  0.00    -0.227 A  
HETATM   22  C   UNK A   0     -10.661  12.787  68.649  1.00  0.00    -0.273 A  
HETATM   23  C   UNK A   0     -10.898  11.405  68.696  1.00  0.00    -0.249 A  
BRANCH  21  24
HETATM   24  C   UNK A   0      -9.708  14.785  67.479  1.00  0.00    -0.213 C  
HETATM   25  O   UNK A   0     -10.155  15.625  68.251  1.00  0.00    -0.215 OA 
ATOM     26  N   GLU A   1      -8.726  15.082  66.555  1.00  0.00    -0.425 N  
ATOM     27  H   GLU A   1      -8.383  14.343  65.940  1.00  0.00     0.000 HD 
BRANCH  26  28
ATOM     28  CA  GLU A   1      -8.167  16.420  66.436  1.00  0.00    -0.331 C  
ATOM     29  C   GLU A   1      -6.978  16.551  67.395  1.00  0.00    -0.155 C  
ATOM     30  O   GLU A   1      -5.799  16.183  66.843  1.00  0.00    -0.336 OA 
ATOM     31  OXT GLU A   1      -7.071  16.938  68.559  1.00  0.00    -0.178 OA 
BRANCH  28  32
ATOM     32  CB  GLU A   1      -9.228  17.485  66.750  1.00  0.00    -0.277 C  
BRANCH  32  33
ATOM     33  CG  GLU A   1      -8.861  18.842  66.153  1.00  0.00    -0.165 C  
ATOM     34  CD  GLU A   1      -9.997  19.818  66.300  1.00  0.00    -0.478 C  
ATOM     35  OE1 GLU A   1      -9.936  20.553  67.430  1.00  0.00    -0.442 OA 
ATOM     36  OE2 GLU A   1     -10.911  19.917  65.495  1.00  0.00    -0.426 OA 
ENDBRANCH  32  33
ENDBRANCH  28  32
ENDBRANCH  26  28
ENDBRANCH  21  24
ENDBRANCH  17  18
ENDBRANCH  16  17
ENDBRANCH  15  16
TORSDOF 7
ENDMDL
MODEL      251
REMARK 921   NORMALIZED FREE ENERGY PREDICTED BY IDOCK:   -3.12 KCAL/MOL
REMARK 922        TOTAL FREE ENERGY PREDICTED BY IDOCK:   -7.04 KCAL/MOL
REMARK 923 INTER-LIGAND FREE ENERGY PREDICTED BY IDOCK:   -6.83 KCAL/MOL
REMARK 924 INTRA-LIGAND FREE ENERGY PREDICTED BY IDOCK:   -0.21 KCAL/MOL
REMARK 927      BINDING AFFINITY PREDICTED BY RF-SCORE:    0.00 PKD
ROOT
HETATM    1  N   UNK A   0      -7.619   2.524  70.383  1.00  0.00    -0.043 NA 
HETATM    2  H1  UNK A   0      -7.369   2.626  71.366  1.00  0.00     0.000 HD 
HETATM    3  C   UNK A   0      -8.336   3.483  69.744  1.00  0.00    -0.052 C  
HETATM    4  H2  UNK A   0      -7.325   1.690  69.873  1.00  0.00     0.000 HD 
HETATM    5  N   UNK A   0      -8.655   3.352  68.489  1.00  0.00    -0.087 N  
HETATM    6  H   UNK A   0      -8.382   2.514  67.976  1.00  0.00     0.000 HD 
HETATM    7  C   UNK A   0      -9.372   4.366  67.849  1.00  0.00    -0.149 C  
HETATM    8  C   UNK A   0      -9.673   5.547  68.664  1.00  0.00    -0.186 A  
HETATM    9  O   UNK A   0      -9.727   4.288  66.680  1.00  0.00    -0.194 OA 
HETATM   10  C   UNK A   0      -9.291   5.568  69.978  1.00  0.00    -0.148 A  
HETATM   11  N   UNK A   0      -9.628   6.751  70.547  1.00  0.00    -0.169 NA 
HETATM   12  N   UNK A   0      -8.647   4.545  70.552  1.00  0.00    -0.084 NA 
HETATM   13  H   UNK A   0      -9.455   7.022  71.515  1.00  0.00     0.000 HD 
HETATM   14  C   UNK A   0     -10.243   7.522  69.589  1.00  0.00    -0.205 A  
HETATM   15  C   UNK A   0     -10.292   6.806  68.398  1.00  0.00    -0.214 A  
ENDROOT
BRANCH  15  16
HETATM   16  C   UNK A   0     -10.826   7.301  67.092  1.00  0.00    -0.378 C  
BRANCH  16  17
HETATM   17  C   UNK A   0      -9.747   7.859  66.149  1.00  0.00    -0.079 C  
BRANCH  17  18
HETATM   18  C   UNK A   0      -9.683   9.377  66.132  1.00  0.00    -0.334 A  
HETATM   19  C   UNK A   0      -9.025  10.092  67.141  1.00  0.00    -0.146 A  
HETATM   20  C   UNK A   0      -9.077  11.485  67.181  1.00  0.00    -0.167 A  
HETATM   21  C   UNK A   0      -9.771  12.190  66.195  1.00  0.00    -0.254 A  
HETATM   22  C   UNK A   0     -10.323  11.502  65.112  1.00  0.00    -0.329 A  
HETATM   23  C   UNK A   0     -10.282  10.100  65.086  1.00  0.00    -0.233 A  
BRANCH  21  24
HETATM   24  C   UNK A   0      -9.976  13.659  66.336  1.00  0.00    -0.296 C  
HETATM   25  O   UNK A   0     -10.702  14.306  65.591  1.00  0.00    -0.294 OA 
ATOM     26  N   GLU A   1      -9.309  14.235  67.399  1.00  0.00    -0.197 N  
ATOM     27  H   GLU A   1      -8.722  13.649  67.994  1.00  0.00     0.000 HD 
BRANCH  26  28
ATOM     28  CA  GLU A   1      -9.422  15.655  67.694  1.00  0.00    -0.211 C  
ATOM     29  C   GLU A   1     -10.629  15.880  68.612  1.00  0.00    -0.250 C  
ATOM     30  O   GLU A   1     -10.328  15.795  69.928  1.00  0.00    -0.294 OA 
ATOM     31  OXT GLU A   1     -11.770  16.104  68.208  1.00  0.00    -0.281 OA 
BRANCH  28  32
ATOM     32  CB  GLU A   1      -9.572  16.471  66.402  1.00  0.00    -0.309 C  
BRANCH  32  33
ATOM     33  CG  GLU A   1      -9.424  17.970  66.657  1.00  0.00    -0.300 C  
ATOM     34  CD  GLU A   1      -7.977  18.343  66.837  1.00  0.00    -0.236 C  
ATOM     35  OE1 GLU A   1      -7.366  18.708  65.691  1.00  0.00    -0.484 OA 
ATOM     36  OE2 GLU A   1      -7.395  18.290  67.910  1.00  0.00    -0.222 OA 
ENDBRANCH  32  33
ENDBRANCH  28  32
ENDBRANCH  26  28
ENDBRANCH  21  24
ENDBRANCH  17  18
ENDBRANCH  16  17
ENDBRANCH  15  16
TORSDOF 7
ENDMDL
MODEL      252
REMARK 921   NORMALIZED FREE ENERGY PREDICTED BY IDOCK:   -3.11 KCAL/MOL
REMARK 922        TOTAL FREE ENERGY PREDICTED BY IDOCK:   -7.03 KCAL/MOL
REMARK 923 INTER-LIGAND FREE ENERGY PREDICTED BY IDOCK:   -5.86 KCAL/MOL
REMARK 924 INTRA-LIGAND FREE ENERGY PREDICTED BY IDOCK:   -1.17 KCAL/MOL
REMARK 927      BINDING AFFINITY PREDICTED BY RF-SCORE:    0.00 PKD
ROOT
HETATM    1  N   UNK A   0     -10.083  20.255  66.041  1.00  0.00    -0.585 NA 
HETATM    2  H1  UNK A   0     -11.068  20.438  65.855  1.00  0.00     0.000 HD 
HETATM    3  C   UNK A   0      -9.703  19.194  66.798  1.00  0.00    -0.338 C  
HETATM    4  H2  UNK A   0      -9.373  20.877  65.652  1.00  0.00     0.000 HD 
HETATM    5  N   UNK A   0      -8.446  18.960  67.035  1.00  0.00    -0.274 N  
HETATM    6  H   UNK A   0      -7.730  19.587  66.666  1.00  0.00     0.000 HD 
HETATM    7  C   UNK A   0      -8.081  17.847  67.796  1.00  0.00    -0.231 C  
HETATM    8  C   UNK A   0      -9.184  16.987  68.236  1.00  0.00    -0.255 A  
HETATM    9  O   UNK A   0      -6.918  17.591  68.079  1.00  0.00    -0.186 OA 
HETATM   10  C   UNK A   0     -10.470  17.338  67.931  1.00  0.00    -0.382 A  
HETATM   11  N   UNK A   0     -11.337  16.404  68.394  1.00  0.00    -0.335 NA 
HETATM   12  N   UNK A   0     -10.763  18.445  67.238  1.00  0.00    -0.395 NA 
HETATM   13  H   UNK A   0     -12.352  16.428  68.298  1.00  0.00     0.000 HD 
HETATM   14  C   UNK A   0     -10.605  15.421  69.016  1.00  0.00    -0.247 A  
HETATM   15  C   UNK A   0      -9.256  15.747  68.940  1.00  0.00    -0.227 A  
ENDROOT
BRANCH  15  16
HETATM   16  C   UNK A   0      -8.118  14.915  69.441  1.00  0.00    -0.103 C  
BRANCH  16  17
HETATM   17  C   UNK A   0      -7.248  14.314  68.324  1.00  0.00    -0.117 C  
BRANCH  17  18
HETATM   18  C   UNK A   0      -7.416  12.813  68.165  1.00  0.00    -0.124 A  
HETATM   19  C   UNK A   0      -6.646  12.083  67.251  1.00  0.00    -0.145 A  
HETATM   20  C   UNK A   0      -6.893  10.730  67.027  1.00  0.00    -0.094 A  
HETATM   21  C   UNK A   0      -7.904  10.073  67.735  1.00  0.00    -0.094 A  
HETATM   22  C   UNK A   0      -8.595  10.752  68.741  1.00  0.00    -0.156 A  
HETATM   23  C   UNK A   0      -8.353  12.118  68.951  1.00  0.00     0.180 A  
BRANCH  21  24
HETATM   24  C   UNK A   0      -8.284   8.680  67.369  1.00  0.00    -0.105 C  
HETATM   25  O   UNK A   0      -8.067   8.198  66.265  1.00  0.00    -0.100 OA 
ATOM     26  N   GLU A   1      -8.872   7.957  68.388  1.00  0.00    -0.131 N  
ATOM     27  H   GLU A   1      -9.024   8.405  69.292  1.00  0.00     0.000 HD 
BRANCH  26  28
ATOM     28  CA  GLU A   1      -9.280   6.572  68.205  1.00  0.00    -0.112 C  
ATOM     29  C   GLU A   1     -10.812   6.496  68.228  1.00  0.00    -0.288 C  
ATOM     30  O   GLU A   1     -11.377   6.657  67.010  1.00  0.00    -0.348 OA 
ATOM     31  OXT GLU A   1     -11.478   6.321  69.248  1.00  0.00    -0.411 OA 
BRANCH  28  32
ATOM     32  CB  GLU A   1      -8.683   5.677  69.299  1.00  0.00    -0.108 C  
BRANCH  32  33
ATOM     33  CG  GLU A   1      -7.200   5.968  69.523  1.00  0.00    -0.070 C  
ATOM     34  CD  GLU A   1      -6.348   5.179  68.568  1.00  0.00    -0.035 C  
ATOM     35  OE1 GLU A   1      -6.070   5.835  67.421  1.00  0.00    -0.021 OA 
ATOM     36  OE2 GLU A   1      -5.967   4.038  68.787  1.00  0.00    -0.022 OA 
ENDBRANCH  32  33
ENDBRANCH  28  32
ENDBRANCH  26  28
ENDBRANCH  21  24
ENDBRANCH  17  18
ENDBRANCH  16  17
ENDBRANCH  15  16
TORSDOF 7
ENDMDL
MODEL      253
REMARK 921   NORMALIZED FREE ENERGY PREDICTED BY IDOCK:   -3.04 KCAL/MOL
REMARK 922        TOTAL FREE ENERGY PREDICTED BY IDOCK:   -6.93 KCAL/MOL
REMARK 923 INTER-LIGAND FREE ENERGY PREDICTED BY IDOCK:   -7.42 KCAL/MOL
REMARK 924 INTRA-LIGAND FREE ENERGY PREDICTED BY IDOCK:    0.49 KCAL/MOL
REMARK 927      BINDING AFFINITY PREDICTED BY RF-SCORE:    0.00 PKD
ROOT
HETATM    1  N   UNK A   0      -5.283  15.413  70.147  1.00  0.00    -0.116 NA 
HETATM    2  H1  UNK A   0      -5.457  15.042  71.080  1.00  0.00     0.000 HD 
HETATM    3  C   UNK A   0      -6.310  15.670  69.297  1.00  0.00    -0.136 C  
HETATM    4  H2  UNK A   0      -4.324  15.594  69.848  1.00  0.00     0.000 HD 
HETATM    5  N   UNK A   0      -6.087  16.143  68.106  1.00  0.00    -0.108 N  
HETATM    6  H   UNK A   0      -5.131  16.310  67.792  1.00  0.00     0.000 HD 
HETATM    7  C   UNK A   0      -7.164  16.422  67.261  1.00  0.00    -0.175 C  
HETATM    8  C   UNK A   0      -8.496  16.191  67.827  1.00  0.00    -0.165 A  
HETATM    9  O   UNK A   0      -7.017  16.839  66.119  1.00  0.00    -0.117 OA 
HETATM   10  C   UNK A   0      -8.606  15.683  69.093  1.00  0.00    -0.251 A  
HETATM   11  N   UNK A   0      -9.911  15.574  69.445  1.00  0.00    -0.266 NA 
HETATM   12  N   UNK A   0      -7.536  15.389  69.841  1.00  0.00    -0.099 NA 
HETATM   13  H   UNK A   0     -10.265  15.225  70.336  1.00  0.00     0.000 HD 
HETATM   14  C   UNK A   0     -10.672  16.018  68.390  1.00  0.00    -0.289 A  
HETATM   15  C   UNK A   0      -9.826  16.412  67.359  1.00  0.00    -0.244 A  
ENDROOT
BRANCH  15  16
HETATM   16  C   UNK A   0     -10.247  17.011  66.055  1.00  0.00    -0.337 C  
BRANCH  16  17
HETATM   17  C   UNK A   0     -11.032  16.046  65.151  1.00  0.00    -0.360 C  
BRANCH  17  18
HETATM   18  C   UNK A   0     -10.977  14.601  65.615  1.00  0.00    -0.336 A  
HETATM   19  C   UNK A   0     -12.083  13.982  66.211  1.00  0.00    -0.482 A  
HETATM   20  C   UNK A   0     -11.983  12.698  66.744  1.00  0.00    -0.362 A  
HETATM   21  C   UNK A   0     -10.777  11.997  66.667  1.00  0.00    -0.280 A  
HETATM   22  C   UNK A   0      -9.703  12.546  65.963  1.00  0.00    -0.247 A  
HETATM   23  C   UNK A   0      -9.803  13.845  65.444  1.00  0.00    -0.193 A  
BRANCH  21  24
HETATM   24  C   UNK A   0     -10.620  10.703  67.389  1.00  0.00    -0.256 C  
HETATM   25  O   UNK A   0     -11.004   9.634  66.933  1.00  0.00    -0.103 OA 
ATOM     26  N   GLU A   1      -9.973  10.797  68.606  1.00  0.00    -0.174 N  
ATOM     27  H   GLU A   1      -9.668  11.712  68.937  1.00  0.00     0.000 HD 
BRANCH  26  28
ATOM     28  CA  GLU A   1      -9.717   9.623  69.427  1.00  0.00    -0.194 C  
ATOM     29  C   GLU A   1      -8.922   8.603  68.604  1.00  0.00    -0.142 C  
ATOM     30  O   GLU A   1      -7.582   8.763  68.697  1.00  0.00    -0.093 OA 
ATOM     31  OXT GLU A   1      -9.436   7.726  67.910  1.00  0.00    -0.142 OA 
BRANCH  28  32
ATOM     32  CB  GLU A   1     -11.032   9.004  69.922  1.00  0.00    -0.204 C  
BRANCH  32  33
ATOM     33  CG  GLU A   1     -11.155   9.077  71.443  1.00  0.00    -0.399 C  
ATOM     34  CD  GLU A   1     -12.581   9.325  71.854  1.00  0.00    -0.390 C  
ATOM     35  OE1 GLU A   1     -13.284   8.195  72.079  1.00  0.00    -0.319 OA 
ATOM     36  OE2 GLU A   1     -13.073  10.440  71.946  1.00  0.00    -0.441 OA 
ENDBRANCH  32  33
ENDBRANCH  28  32
ENDBRANCH  26  28
ENDBRANCH  21  24
ENDBRANCH  17  18
ENDBRANCH  16  17
ENDBRANCH  15  16
TORSDOF 7
ENDMDL
MODEL      254
REMARK 921   NORMALIZED FREE ENERGY PREDICTED BY IDOCK:   -3.04 KCAL/MOL
REMARK 922        TOTAL FREE ENERGY PREDICTED BY IDOCK:   -6.92 KCAL/MOL
REMARK 923 INTER-LIGAND FREE ENERGY PREDICTED BY IDOCK:   -6.56 KCAL/MOL
REMARK 924 INTRA-LIGAND FREE ENERGY PREDICTED BY IDOCK:   -0.36 KCAL/MOL
REMARK 927      BINDING AFFINITY PREDICTED BY RF-SCORE:    0.00 PKD
ROOT
HETATM    1  N   UNK A   0     -11.160   6.041  66.225  1.00  0.00    -0.672 NA 
HETATM    2  H1  UNK A   0     -10.819   5.220  65.726  1.00  0.00     0.000 HD 
HETATM    3  C   UNK A   0     -10.423   6.611  67.212  1.00  0.00    -0.275 C  
HETATM    4  H2  UNK A   0     -12.067   6.438  65.980  1.00  0.00     0.000 HD 
HETATM    5  N   UNK A   0     -10.858   7.658  67.849  1.00  0.00    -0.476 N  
HETATM    6  H   UNK A   0     -11.772   8.052  67.623  1.00  0.00     0.000 HD 
HETATM    7  C   UNK A   0     -10.068   8.240  68.843  1.00  0.00    -0.199 C  
HETATM    8  C   UNK A   0      -8.755   7.626  69.055  1.00  0.00    -0.136 A  
HETATM    9  O   UNK A   0     -10.436   9.207  69.498  1.00  0.00    -0.209 OA 
HETATM   10  C   UNK A   0      -8.407   6.521  68.327  1.00  0.00    -0.117 A  
HETATM   11  N   UNK A   0      -7.150   6.124  68.643  1.00  0.00    -0.079 NA 
HETATM   12  N   UNK A   0      -9.227   5.976  67.420  1.00  0.00    -0.110 NA 
HETATM   13  H   UNK A   0      -6.654   5.328  68.243  1.00  0.00     0.000 HD 
HETATM   14  C   UNK A   0      -6.662   6.985  69.597  1.00  0.00    -0.049 A  
HETATM   15  C   UNK A   0      -7.634   7.938  69.883  1.00  0.00    -0.089 A  
ENDROOT
BRANCH  15  16
HETATM   16  C   UNK A   0      -7.487   9.093  70.822  1.00  0.00    -0.133 C  
BRANCH  16  17
HETATM   17  C   UNK A   0      -6.236   9.950  70.563  1.00  0.00    -0.101 C  
BRANCH  17  18
HETATM   18  C   UNK A   0      -6.529  11.238  69.813  1.00  0.00    -0.140 A  
HETATM   19  C   UNK A   0      -5.755  12.389  70.008  1.00  0.00    -0.141 A  
HETATM   20  C   UNK A   0      -6.108  13.597  69.408  1.00  0.00    -0.104 A  
HETATM   21  C   UNK A   0      -7.230  13.669  68.578  1.00  0.00    -0.109 A  
HETATM   22  C   UNK A   0      -7.936  12.504  68.270  1.00  0.00    -0.153 A  
HETATM   23  C   UNK A   0      -7.588  11.295  68.890  1.00  0.00    -0.126 A  
BRANCH  21  24
HETATM   24  C   UNK A   0      -7.705  14.991  68.083  1.00  0.00    -0.113 C  
HETATM   25  O   UNK A   0      -7.562  15.360  66.924  1.00  0.00    -0.196 OA 
ATOM     26  N   GLU A   1      -8.356  15.761  69.027  1.00  0.00    -0.219 N  
ATOM     27  H   GLU A   1      -8.454  15.403  69.978  1.00  0.00     0.000 HD 
BRANCH  26  28
ATOM     28  CA  GLU A   1      -8.904  17.068  68.701  1.00  0.00    -0.267 C  
ATOM     29  C   GLU A   1     -10.328  16.891  68.160  1.00  0.00    -0.336 C  
ATOM     30  O   GLU A   1     -11.276  16.911  69.124  1.00  0.00    -0.151 OA 
ATOM     31  OXT GLU A   1     -10.598  16.731  66.970  1.00  0.00    -0.305 OA 
BRANCH  28  32
ATOM     32  CB  GLU A   1      -8.025  17.788  67.669  1.00  0.00    -0.216 C  
BRANCH  32  33
ATOM     33  CG  GLU A   1      -8.290  19.293  67.649  1.00  0.00    -0.325 C  
ATOM     34  CD  GLU A   1      -8.318  19.814  66.239  1.00  0.00    -0.357 C  
ATOM     35  OE1 GLU A   1      -9.549  19.820  65.688  1.00  0.00    -0.336 OA 
ATOM     36  OE2 GLU A   1      -7.318  20.169  65.631  1.00  0.00    -0.323 OA 
ENDBRANCH  32  33
ENDBRANCH  28  32
ENDBRANCH  26  28
ENDBRANCH  21  24
ENDBRANCH  17  18
ENDBRANCH  16  17
ENDBRANCH  15  16
TORSDOF 7
ENDMDL
MODEL      255
REMARK 921   NORMALIZED FREE ENERGY PREDICTED BY IDOCK:   -3.03 KCAL/MOL
REMARK 922        TOTAL FREE ENERGY PREDICTED BY IDOCK:   -6.92 KCAL/MOL
REMARK 923 INTER-LIGAND FREE ENERGY PREDICTED BY IDOCK:   -5.66 KCAL/MOL
REMARK 924 INTRA-LIGAND FREE ENERGY PREDICTED BY IDOCK:   -1.25 KCAL/MOL
REMARK 927      BINDING AFFINITY PREDICTED BY RF-SCORE:    0.00 PKD
ROOT
HETATM    1  N   UNK A   0      -9.601   2.157  70.196  1.00  0.00    -0.057 NA 
HETATM    2  H1  UNK A   0     -10.033   1.334  69.778  1.00  0.00     0.000 HD 
HETATM    3  C   UNK A   0      -8.834   2.995  69.452  1.00  0.00    -0.094 C  
HETATM    4  H2  UNK A   0      -9.747   2.354  71.187  1.00  0.00     0.000 HD 
HETATM    5  N   UNK A   0      -8.283   4.045  69.986  1.00  0.00    -0.057 N  
HETATM    6  H   UNK A   0      -8.409   4.240  70.979  1.00  0.00     0.000 HD 
HETATM    7  C   UNK A   0      -7.520   4.904  69.192  1.00  0.00    -0.053 C  
HETATM    8  C   UNK A   0      -7.443   4.558  67.770  1.00  0.00    -0.073 A  
HETATM    9  O   UNK A   0      -6.952   5.891  69.642  1.00  0.00    -0.062 OA 
HETATM   10  C   UNK A   0      -8.060   3.422  67.323  1.00  0.00    -0.082 A  
HETATM   11  N   UNK A   0      -7.903   3.295  65.982  1.00  0.00    -0.084 NA 
HETATM   12  N   UNK A   0      -8.739   2.609  68.141  1.00  0.00    -0.091 NA 
HETATM   13  H   UNK A   0      -8.266   2.537  65.404  1.00  0.00     0.000 HD 
HETATM   14  C   UNK A   0      -7.167   4.369  65.540  1.00  0.00    -0.068 A  
HETATM   15  C   UNK A   0      -6.859   5.182  66.626  1.00  0.00    -0.063 A  
ENDROOT
BRANCH  15  16
HETATM   16  C   UNK A   0      -6.122   6.482  66.572  1.00  0.00    -0.033 C  
BRANCH  16  17
HETATM   17  C   UNK A   0      -6.201   7.186  65.207  1.00  0.00    -0.037 C  
BRANCH  17  18
HETATM   18  C   UNK A   0      -7.398   8.111  65.070  1.00  0.00    -0.082 A  
HETATM   19  C   UNK A   0      -7.774   8.641  63.829  1.00  0.00    -0.136 A  
HETATM   20  C   UNK A   0      -8.797   9.583  63.734  1.00  0.00    -0.238 A  
HETATM   21  C   UNK A   0      -9.482   9.995  64.881  1.00  0.00    -0.355 A  
HETATM   22  C   UNK A   0      -9.208   9.383  66.106  1.00  0.00    -0.241 A  
HETATM   23  C   UNK A   0      -8.167   8.448  66.199  1.00  0.00    -0.113 A  
BRANCH  21  24
HETATM   24  C   UNK A   0     -10.448  11.126  64.804  1.00  0.00    -0.323 C  
HETATM   25  O   UNK A   0     -11.142  11.345  63.819  1.00  0.00    -0.392 OA 
ATOM     26  N   GLU A   1     -10.529  11.894  65.949  1.00  0.00    -0.249 N  
ATOM     27  H   GLU A   1      -9.933  11.665  66.745  1.00  0.00     0.000 HD 
BRANCH  26  28
ATOM     28  CA  GLU A   1     -11.442  13.023  66.050  1.00  0.00    -0.335 C  
ATOM     29  C   GLU A   1     -10.659  14.320  65.818  1.00  0.00    -0.309 C  
ATOM     30  O   GLU A   1     -10.600  14.689  64.518  1.00  0.00    -0.318 OA 
ATOM     31  OXT GLU A   1     -10.118  14.968  66.714  1.00  0.00    -0.247 OA 
BRANCH  28  32
ATOM     32  CB  GLU A   1     -12.129  13.049  67.422  1.00  0.00    -0.290 C  
BRANCH  32  33
ATOM     33  CG  GLU A   1     -11.199  12.560  68.531  1.00  0.00    -0.322 C  
ATOM     34  CD  GLU A   1     -11.699  11.268  69.119  1.00  0.00    -0.341 C  
ATOM     35  OE1 GLU A   1     -11.192  10.169  68.522  1.00  0.00    -0.233 OA 
ATOM     36  OE2 GLU A   1     -12.512  11.212  70.030  1.00  0.00    -0.285 OA 
ENDBRANCH  32  33
ENDBRANCH  28  32
ENDBRANCH  26  28
ENDBRANCH  21  24
ENDBRANCH  17  18
ENDBRANCH  16  17
ENDBRANCH  15  16
TORSDOF 7
ENDMDL
MODEL      256
REMARK 921   NORMALIZED FREE ENERGY PREDICTED BY IDOCK:   -3.03 KCAL/MOL
REMARK 922        TOTAL FREE ENERGY PREDICTED BY IDOCK:   -6.91 KCAL/MOL
REMARK 923 INTER-LIGAND FREE ENERGY PREDICTED BY IDOCK:   -6.21 KCAL/MOL
REMARK 924 INTRA-LIGAND FREE ENERGY PREDICTED BY IDOCK:   -0.69 KCAL/MOL
REMARK 927      BINDING AFFINITY PREDICTED BY RF-SCORE:    0.00 PKD
ROOT
HETATM    1  N   UNK A   0      -9.328   1.969  66.959  1.00  0.00    -0.365 NA 
HETATM    2  H1  UNK A   0      -9.731   1.035  67.030  1.00  0.00     0.000 HD 
HETATM    3  C   UNK A   0      -9.163   2.741  68.063  1.00  0.00    -0.204 C  
HETATM    4  H2  UNK A   0      -9.046   2.327  66.046  1.00  0.00     0.000 HD 
HETATM    5  N   UNK A   0      -8.649   3.932  67.973  1.00  0.00    -0.094 N  
HETATM    6  H   UNK A   0      -8.381   4.307  67.062  1.00  0.00     0.000 HD 
HETATM    7  C   UNK A   0      -8.466   4.696  69.128  1.00  0.00    -0.079 C  
HETATM    8  C   UNK A   0      -8.841   4.046  70.388  1.00  0.00    -0.137 A  
HETATM    9  O   UNK A   0      -8.017   5.835  69.104  1.00  0.00    -0.095 OA 
HETATM   10  C   UNK A   0      -9.378   2.788  70.358  1.00  0.00    -0.147 A  
HETATM   11  N   UNK A   0      -9.625   2.351  71.617  1.00  0.00    -0.133 NA 
HETATM   12  N   UNK A   0      -9.575   2.122  69.214  1.00  0.00    -0.048 NA 
HETATM   13  H   UNK A   0     -10.024   1.448  71.872  1.00  0.00     0.000 HD 
HETATM   14  C   UNK A   0      -9.242   3.342  72.491  1.00  0.00    -0.098 A  
HETATM   15  C   UNK A   0      -8.747   4.418  71.763  1.00  0.00    -0.133 A  
ENDROOT
BRANCH  15  16
HETATM   16  C   UNK A   0      -8.171   5.676  72.331  1.00  0.00    -0.111 C  
BRANCH  16  17
HETATM   17  C   UNK A   0      -9.229   6.714  72.743  1.00  0.00    -0.146 C  
BRANCH  17  18
HETATM   18  C   UNK A   0      -9.317   7.898  71.796  1.00  0.00    -0.196 A  
HETATM   19  C   UNK A   0     -10.549   8.476  71.462  1.00  0.00    -0.333 A  
HETATM   20  C   UNK A   0     -10.629   9.481  70.499  1.00  0.00    -0.358 A  
HETATM   21  C   UNK A   0      -9.471   9.945  69.869  1.00  0.00    -0.256 A  
HETATM   22  C   UNK A   0      -8.223   9.471  70.282  1.00  0.00    -0.209 A  
HETATM   23  C   UNK A   0      -8.150   8.449  71.238  1.00  0.00    -0.152 A  
BRANCH  21  24
HETATM   24  C   UNK A   0      -9.576  10.887  68.720  1.00  0.00    -0.189 C  
HETATM   25  O   UNK A   0      -8.932  11.927  68.649  1.00  0.00    -0.142 OA 
ATOM     26  N   GLU A   1     -10.433  10.480  67.717  1.00  0.00    -0.207 N  
ATOM     27  H   GLU A   1     -10.940   9.601  67.822  1.00  0.00     0.000 HD 
BRANCH  26  28
ATOM     28  CA  GLU A   1     -10.631  11.272  66.512  1.00  0.00    -0.266 C  
ATOM     29  C   GLU A   1      -9.497  10.971  65.525  1.00  0.00    -0.216 C  
ATOM     30  O   GLU A   1      -9.765   9.937  64.696  1.00  0.00    -0.303 OA 
ATOM     31  OXT GLU A   1      -8.434  11.591  65.486  1.00  0.00     0.058 OA 
BRANCH  28  32
ATOM     32  CB  GLU A   1     -10.668  12.771  66.844  1.00  0.00    -0.272 C  
BRANCH  32  33
ATOM     33  CG  GLU A   1     -12.033  13.197  67.383  1.00  0.00    -0.379 C  
ATOM     34  CD  GLU A   1     -11.895  13.868  68.723  1.00  0.00    -0.361 C  
ATOM     35  OE1 GLU A   1     -11.759  15.208  68.646  1.00  0.00    -0.335 OA 
ATOM     36  OE2 GLU A   1     -11.872  13.260  69.783  1.00  0.00    -0.308 OA 
ENDBRANCH  32  33
ENDBRANCH  28  32
ENDBRANCH  26  28
ENDBRANCH  21  24
ENDBRANCH  17  18
ENDBRANCH  16  17
ENDBRANCH  15  16
TORSDOF 7
ENDMDL
MODEL      257
REMARK 921   NORMALIZED FREE ENERGY PREDICTED BY IDOCK:   -2.99 KCAL/MOL
REMARK 922        TOTAL FREE ENERGY PREDICTED BY IDOCK:   -6.86 KCAL/MOL
REMARK 923 INTER-LIGAND FREE ENERGY PREDICTED BY IDOCK:   -7.48 KCAL/MOL
REMARK 924 INTRA-LIGAND FREE ENERGY PREDICTED BY IDOCK:    0.62 KCAL/MOL
REMARK 927      BINDING AFFINITY PREDICTED BY RF-SCORE:    0.00 PKD
ROOT
HETATM    1  N   UNK A   0      -8.074   1.564  72.438  1.00  0.00    -0.045 NA 
HETATM    2  H1  UNK A   0      -7.426   0.960  71.933  1.00  0.00     0.000 HD 
HETATM    3  C   UNK A   0      -8.690   2.600  71.814  1.00  0.00    -0.073 C  
HETATM    4  H2  UNK A   0      -8.261   1.388  73.426  1.00  0.00     0.000 HD 
HETATM    5  N   UNK A   0      -9.516   3.371  72.458  1.00  0.00    -0.111 N  
HETATM    6  H   UNK A   0      -9.695   3.214  73.450  1.00  0.00     0.000 HD 
HETATM    7  C   UNK A   0     -10.156   4.415  71.785  1.00  0.00    -0.168 C  
HETATM    8  C   UNK A   0      -9.865   4.523  70.353  1.00  0.00    -0.302 A  
HETATM    9  O   UNK A   0     -10.919   5.192  72.344  1.00  0.00    -0.225 OA 
HETATM   10  C   UNK A   0      -8.972   3.656  69.784  1.00  0.00    -0.106 A  
HETATM   11  N   UNK A   0      -8.865   3.895  68.454  1.00  0.00    -0.102 NA 
HETATM   12  N   UNK A   0      -8.351   2.704  70.490  1.00  0.00    -0.048 NA 
HETATM   13  H   UNK A   0      -8.267   3.390  67.799  1.00  0.00     0.000 HD 
HETATM   14  C   UNK A   0      -9.703   4.940  68.143  1.00  0.00    -0.148 A  
HETATM   15  C   UNK A   0     -10.346   5.361  69.302  1.00  0.00    -0.322 A  
ENDROOT
BRANCH  15  16
HETATM   16  C   UNK A   0     -11.384   6.434  69.394  1.00  0.00    -0.443 C  
BRANCH  16  17
HETATM   17  C   UNK A   0     -10.957   7.642  70.245  1.00  0.00    -0.261 C  
BRANCH  17  18
HETATM   18  C   UNK A   0     -10.786   8.919  69.442  1.00  0.00    -0.133 A  
HETATM   19  C   UNK A   0     -11.149  10.166  69.966  1.00  0.00    -0.368 A  
HETATM   20  C   UNK A   0     -11.103  11.315  69.177  1.00  0.00    -0.312 A  
HETATM   21  C   UNK A   0     -10.667  11.240  67.852  1.00  0.00    -0.250 A  
HETATM   22  C   UNK A   0     -10.179  10.029  67.353  1.00  0.00    -0.269 A  
HETATM   23  C   UNK A   0     -10.244   8.874  68.145  1.00  0.00    -0.245 A  
BRANCH  21  24
HETATM   24  C   UNK A   0     -10.785  12.428  66.961  1.00  0.00    -0.239 C  
HETATM   25  O   UNK A   0      -9.891  12.788  66.206  1.00  0.00    -0.258 OA 
ATOM     26  N   GLU A   1     -12.002  13.077  67.025  1.00  0.00    -0.375 N  
ATOM     27  H   GLU A   1     -12.717  12.732  67.666  1.00  0.00     0.000 HD 
BRANCH  26  28
ATOM     28  CA  GLU A   1     -12.292  14.241  66.201  1.00  0.00    -0.387 C  
ATOM     29  C   GLU A   1     -11.808  13.972  64.771  1.00  0.00    -0.403 C  
ATOM     30  O   GLU A   1     -12.742  13.385  63.988  1.00  0.00    -0.657 OA 
ATOM     31  OXT GLU A   1     -10.680  14.245  64.362  1.00  0.00    -0.327 OA 
BRANCH  28  32
ATOM     32  CB  GLU A   1     -11.613  15.495  66.769  1.00  0.00     0.132 C  
BRANCH  32  33
ATOM     33  CG  GLU A   1     -11.526  15.451  68.293  1.00  0.00    -0.362 C  
ATOM     34  CD  GLU A   1     -10.105  15.625  68.755  1.00  0.00    -0.211 C  
ATOM     35  OE1 GLU A   1      -9.769  16.909  69.000  1.00  0.00    -0.260 OA 
ATOM     36  OE2 GLU A   1      -9.314  14.700  68.867  1.00  0.00    -0.199 OA 
ENDBRANCH  32  33
ENDBRANCH  28  32
ENDBRANCH  26  28
ENDBRANCH  21  24
ENDBRANCH  17  18
ENDBRANCH  16  17
ENDBRANCH  15  16
TORSDOF 7
ENDMDL
MODEL      258
REMARK 921   NORMALIZED FREE ENERGY PREDICTED BY IDOCK:   -2.99 KCAL/MOL
REMARK 922        TOTAL FREE ENERGY PREDICTED BY IDOCK:   -6.86 KCAL/MOL
REMARK 923 INTER-LIGAND FREE ENERGY PREDICTED BY IDOCK:   -5.85 KCAL/MOL
REMARK 924 INTRA-LIGAND FREE ENERGY PREDICTED BY IDOCK:   -1.01 KCAL/MOL
REMARK 927      BINDING AFFINITY PREDICTED BY RF-SCORE:    0.00 PKD
ROOT
HETATM    1  N   UNK A   0      -5.629  15.273  70.495  1.00  0.00    -0.137 NA 
HETATM    2  H1  UNK A   0      -4.715  15.600  70.184  1.00  0.00     0.000 HD 
HETATM    3  C   UNK A   0      -6.726  15.422  69.709  1.00  0.00    -0.170 C  
HETATM    4  H2  UNK A   0      -5.721  14.829  71.409  1.00  0.00     0.000 HD 
HETATM    5  N   UNK A   0      -7.892  15.005  70.106  1.00  0.00    -0.219 N  
HETATM    6  H   UNK A   0      -7.997  14.577  71.026  1.00  0.00     0.000 HD 
HETATM    7  C   UNK A   0      -9.000  15.148  69.267  1.00  0.00    -0.202 C  
HETATM    8  C   UNK A   0      -8.731  15.733  67.950  1.00  0.00    -0.170 A  
HETATM    9  O   UNK A   0     -10.128  14.804  69.596  1.00  0.00    -0.121 OA 
HETATM   10  C   UNK A   0      -7.461  16.141  67.646  1.00  0.00    -0.145 A  
HETATM   11  N   UNK A   0      -7.411  16.620  66.378  1.00  0.00    -0.239 NA 
HETATM   12  N   UNK A   0      -6.446  16.023  68.510  1.00  0.00    -0.113 NA 
HETATM   13  H   UNK A   0      -6.583  16.986  65.908  1.00  0.00     0.000 HD 
HETATM   14  C   UNK A   0      -8.672  16.526  65.840  1.00  0.00    -0.083 A  
HETATM   15  C   UNK A   0      -9.527  15.977  66.790  1.00  0.00    -0.250 A  
ENDROOT
BRANCH  15  16
HETATM   16  C   UNK A   0     -10.973  15.651  66.591  1.00  0.00    -0.212 C  
BRANCH  16  17
HETATM   17  C   UNK A   0     -11.230  14.611  65.487  1.00  0.00    -0.343 C  
BRANCH  17  18
HETATM   18  C   UNK A   0     -10.992  13.179  65.937  1.00  0.00    -0.288 A  
HETATM   19  C   UNK A   0     -11.246  12.776  67.254  1.00  0.00    -0.339 A  
HETATM   20  C   UNK A   0     -10.909  11.493  67.686  1.00  0.00    -0.277 A  
HETATM   21  C   UNK A   0     -10.334  10.581  66.798  1.00  0.00    -0.301 A  
HETATM   22  C   UNK A   0     -10.194  10.923  65.451  1.00  0.00    -0.339 A  
HETATM   23  C   UNK A   0     -10.518  12.219  65.025  1.00  0.00    -0.322 A  
BRANCH  21  24
HETATM   24  C   UNK A   0      -9.814   9.279  67.302  1.00  0.00    -0.182 C  
HETATM   25  O   UNK A   0      -9.547   9.078  68.480  1.00  0.00    -0.149 OA 
ATOM     26  N   GLU A   1      -9.689   8.296  66.339  1.00  0.00    -0.338 N  
ATOM     27  H   GLU A   1      -9.932   8.514  65.372  1.00  0.00     0.000 HD 
BRANCH  26  28
ATOM     28  CA  GLU A   1      -9.219   6.959  66.669  1.00  0.00    -0.157 C  
ATOM     29  C   GLU A   1      -7.773   6.805  66.183  1.00  0.00    -0.091 C  
ATOM     30  O   GLU A   1      -6.854   7.181  67.101  1.00  0.00    -0.070 OA 
ATOM     31  OXT GLU A   1      -7.461   6.394  65.066  1.00  0.00    -0.074 OA 
BRANCH  28  32
ATOM     32  CB  GLU A   1     -10.116   5.891  66.027  1.00  0.00     0.084 C  
BRANCH  32  33
ATOM     33  CG  GLU A   1     -10.343   4.706  66.963  1.00  0.00    -0.115 C  
ATOM     34  CD  GLU A   1      -9.869   5.022  68.355  1.00  0.00    -0.147 C  
ATOM     35  OE1 GLU A   1     -10.829   5.540  69.150  1.00  0.00    -0.251 OA 
ATOM     36  OE2 GLU A   1      -8.716   4.859  68.729  1.00  0.00    -0.092 OA 
ENDBRANCH  32  33
ENDBRANCH  28  32
ENDBRANCH  26  28
ENDBRANCH  21  24
ENDBRANCH  17  18
ENDBRANCH  16  17
ENDBRANCH  15  16
TORSDOF 7
ENDMDL
MODEL      259
REMARK 921   NORMALIZED FREE ENERGY PREDICTED BY IDOCK:   -2.98 KCAL/MOL
REMARK 922        TOTAL FREE ENERGY PREDICTED BY IDOCK:   -6.84 KCAL/MOL
REMARK 923 INTER-LIGAND FREE ENERGY PREDICTED BY IDOCK:   -6.50 KCAL/MOL
REMARK 924 INTRA-LIGAND FREE ENERGY PREDICTED BY IDOCK:   -0.33 KCAL/MOL
REMARK 927      BINDING AFFINITY PREDICTED BY RF-SCORE:    0.00 PKD
ROOT
HETATM    1  N   UNK A   0     -11.305   5.837  66.139  1.00  0.00    -0.604 NA 
HETATM    2  H1  UNK A   0     -10.971   4.952  65.757  1.00  0.00     0.000 HD 
HETATM    3  C   UNK A   0     -10.620   6.471  67.125  1.00  0.00    -0.328 C  
HETATM    4  H2  UNK A   0     -12.164   6.250  65.775  1.00  0.00     0.000 HD 
HETATM    5  N   UNK A   0     -11.046   7.599  67.612  1.00  0.00    -0.499 N  
HETATM    6  H   UNK A   0     -11.913   8.011  67.268  1.00  0.00     0.000 HD 
HETATM    7  C   UNK A   0     -10.309   8.243  68.609  1.00  0.00    -0.200 C  
HETATM    8  C   UNK A   0      -9.055   7.591  68.997  1.00  0.00    -0.140 A  
HETATM    9  O   UNK A   0     -10.673   9.290  69.129  1.00  0.00    -0.224 OA 
HETATM   10  C   UNK A   0      -8.713   6.400  68.418  1.00  0.00    -0.113 A  
HETATM   11  N   UNK A   0      -7.511   5.978  68.882  1.00  0.00    -0.085 NA 
HETATM   12  N   UNK A   0      -9.484   5.804  67.500  1.00  0.00    -0.111 NA 
HETATM   13  H   UNK A   0      -7.030   5.121  68.609  1.00  0.00     0.000 HD 
HETATM   14  C   UNK A   0      -7.055   6.910  69.784  1.00  0.00    -0.068 A  
HETATM   15  C   UNK A   0      -7.991   7.933  69.885  1.00  0.00    -0.109 A  
ENDROOT
BRANCH  15  16
HETATM   16  C   UNK A   0      -7.856   9.172  70.713  1.00  0.00    -0.173 C  
BRANCH  16  17
HETATM   17  C   UNK A   0      -6.511   9.896  70.535  1.00  0.00    -0.116 C  
BRANCH  17  18
HETATM   18  C   UNK A   0      -6.642  11.267  69.893  1.00  0.00    -0.108 A  
HETATM   19  C   UNK A   0      -5.891  12.360  70.344  1.00  0.00    -0.149 A  
HETATM   20  C   UNK A   0      -6.108  13.637  69.830  1.00  0.00    -0.135 A  
HETATM   21  C   UNK A   0      -7.066  13.841  68.833  1.00  0.00    -0.107 A  
HETATM   22  C   UNK A   0      -7.731  12.744  68.281  1.00  0.00    -0.136 A  
HETATM   23  C   UNK A   0      -7.522  11.463  68.813  1.00  0.00    -0.124 A  
BRANCH  21  24
HETATM   24  C   UNK A   0      -7.421  15.225  68.413  1.00  0.00    -0.111 C  
HETATM   25  O   UNK A   0      -7.669  16.121  69.210  1.00  0.00    -0.229 OA 
ATOM     26  N   GLU A   1      -7.413  15.434  67.048  1.00  0.00    -0.196 N  
ATOM     27  H   GLU A   1      -7.192  14.654  66.428  1.00  0.00     0.000 HD 
BRANCH  26  28
ATOM     28  CA  GLU A   1      -7.712  16.736  66.472  1.00  0.00    -0.299 C  
ATOM     29  C   GLU A   1      -6.491  17.648  66.641  1.00  0.00    -0.204 C  
ATOM     30  O   GLU A   1      -5.616  17.572  65.613  1.00  0.00    -0.177 OA 
ATOM     31  OXT GLU A   1      -6.302  18.374  67.617  1.00  0.00    -0.186 OA 
BRANCH  28  32
ATOM     32  CB  GLU A   1      -8.943  17.360  67.142  1.00  0.00    -0.248 C  
BRANCH  32  33
ATOM     33  CG  GLU A   1      -9.550  18.473  66.289  1.00  0.00    -0.279 C  
ATOM     34  CD  GLU A   1      -9.682  19.745  67.082  1.00  0.00    -0.376 C  
ATOM     35  OE1 GLU A   1      -8.612  20.561  66.979  1.00  0.00    -0.311 OA 
ATOM     36  OE2 GLU A   1     -10.650  20.007  67.781  1.00  0.00    -0.357 OA 
ENDBRANCH  32  33
ENDBRANCH  28  32
ENDBRANCH  26  28
ENDBRANCH  21  24
ENDBRANCH  17  18
ENDBRANCH  16  17
ENDBRANCH  15  16
TORSDOF 7
ENDMDL
MODEL      260
REMARK 921   NORMALIZED FREE ENERGY PREDICTED BY IDOCK:   -2.96 KCAL/MOL
REMARK 922        TOTAL FREE ENERGY PREDICTED BY IDOCK:   -6.82 KCAL/MOL
REMARK 923 INTER-LIGAND FREE ENERGY PREDICTED BY IDOCK:   -5.58 KCAL/MOL
REMARK 924 INTRA-LIGAND FREE ENERGY PREDICTED BY IDOCK:   -1.24 KCAL/MOL
REMARK 927      BINDING AFFINITY PREDICTED BY RF-SCORE:    0.00 PKD
ROOT
HETATM    1  N   UNK A   0      -9.272   1.727  70.308  1.00  0.00    -0.092 NA 
HETATM    2  H1  UNK A   0     -10.095   1.129  70.362  1.00  0.00     0.000 HD 
HETATM    3  C   UNK A   0      -8.758   2.098  69.107  1.00  0.00    -0.077 C  
HETATM    4  H2  UNK A   0      -8.829   2.053  71.167  1.00  0.00     0.000 HD 
HETATM    5  N   UNK A   0      -7.708   2.862  69.038  1.00  0.00    -0.047 N  
HETATM    6  H   UNK A   0      -7.247   3.177  69.892  1.00  0.00     0.000 HD 
HETATM    7  C   UNK A   0      -7.214   3.248  67.790  1.00  0.00    -0.054 C  
HETATM    8  C   UNK A   0      -7.978   2.780  66.630  1.00  0.00    -0.077 A  
HETATM    9  O   UNK A   0      -6.213   3.940  67.660  1.00  0.00    -0.034 OA 
HETATM   10  C   UNK A   0      -9.066   1.974  66.825  1.00  0.00    -0.065 A  
HETATM   11  N   UNK A   0      -9.653   1.677  65.640  1.00  0.00    -0.320 NA 
HETATM   12  N   UNK A   0      -9.465   1.595  68.046  1.00  0.00    -0.173 NA 
HETATM   13  H   UNK A   0     -10.479   1.094  65.509  1.00  0.00     0.000 HD 
HETATM   14  C   UNK A   0      -8.936   2.300  64.646  1.00  0.00    -0.121 A  
HETATM   15  C   UNK A   0      -7.881   2.999  65.222  1.00  0.00    -0.082 A  
ENDROOT
BRANCH  15  16
HETATM   16  C   UNK A   0      -6.895   3.860  64.499  1.00  0.00    -0.045 C  
BRANCH  16  17
HETATM   17  C   UNK A   0      -7.529   4.781  63.443  1.00  0.00    -0.055 C  
BRANCH  17  18
HETATM   18  C   UNK A   0      -7.923   6.144  63.987  1.00  0.00    -0.110 A  
HETATM   19  C   UNK A   0      -7.870   7.293  63.187  1.00  0.00    -0.116 A  
HETATM   20  C   UNK A   0      -8.116   8.554  63.729  1.00  0.00    -0.154 A  
HETATM   21  C   UNK A   0      -8.445   8.685  65.081  1.00  0.00    -0.197 A  
HETATM   22  C   UNK A   0      -8.628   7.542  65.861  1.00  0.00    -0.165 A  
HETATM   23  C   UNK A   0      -8.364   6.277  65.316  1.00  0.00    -0.138 A  
BRANCH  21  24
HETATM   24  C   UNK A   0      -8.532  10.039  65.697  1.00  0.00    -0.148 C  
HETATM   25  O   UNK A   0      -7.609  10.844  65.672  1.00  0.00    -0.092 OA 
ATOM     26  N   GLU A   1      -9.752  10.334  66.271  1.00  0.00    -0.199 N  
ATOM     27  H   GLU A   1     -10.491   9.630  66.258  1.00  0.00     0.000 HD 
BRANCH  26  28
ATOM     28  CA  GLU A   1     -10.012  11.623  66.893  1.00  0.00    -0.202 C  
ATOM     29  C   GLU A   1      -9.713  11.522  68.394  1.00  0.00    -0.202 C  
ATOM     30  O   GLU A   1      -8.430  11.809  68.708  1.00  0.00    -0.105 OA 
ATOM     31  OXT GLU A   1     -10.545  11.198  69.242  1.00  0.00    -0.217 OA 
BRANCH  28  32
ATOM     32  CB  GLU A   1     -11.467  12.057  66.665  1.00  0.00    -0.411 C  
BRANCH  32  33
ATOM     33  CG  GLU A   1     -11.610  12.928  65.419  1.00  0.00    -0.386 C  
ATOM     34  CD  GLU A   1     -11.990  12.098  64.224  1.00  0.00    -0.380 C  
ATOM     35  OE1 GLU A   1     -13.322  12.003  64.032  1.00  0.00    -0.703 OA 
ATOM     36  OE2 GLU A   1     -11.176  11.531  63.509  1.00  0.00    -0.413 OA 
ENDBRANCH  32  33
ENDBRANCH  28  32
ENDBRANCH  26  28
ENDBRANCH  21  24
ENDBRANCH  17  18
ENDBRANCH  16  17
ENDBRANCH  15  16
TORSDOF 7
ENDMDL
MODEL      261
REMARK 921   NORMALIZED FREE ENERGY PREDICTED BY IDOCK:   -2.95 KCAL/MOL
REMARK 922        TOTAL FREE ENERGY PREDICTED BY IDOCK:   -6.80 KCAL/MOL
REMARK 923 INTER-LIGAND FREE ENERGY PREDICTED BY IDOCK:   -5.71 KCAL/MOL
REMARK 924 INTRA-LIGAND FREE ENERGY PREDICTED BY IDOCK:   -1.09 KCAL/MOL
REMARK 927      BINDING AFFINITY PREDICTED BY RF-SCORE:    0.00 PKD
ROOT
HETATM    1  N   UNK A   0      -9.371   1.709  63.743  1.00  0.00    -0.105 NA 
HETATM    2  H1  UNK A   0      -9.931   1.937  62.922  1.00  0.00     0.000 HD 
HETATM    3  C   UNK A   0      -9.377   2.517  64.834  1.00  0.00    -0.112 C  
HETATM    4  H2  UNK A   0      -8.801   0.863  63.745  1.00  0.00     0.000 HD 
HETATM    5  N   UNK A   0      -8.663   2.227  65.882  1.00  0.00    -0.115 N  
HETATM    6  H   UNK A   0      -8.075   1.393  65.887  1.00  0.00     0.000 HD 
HETATM    7  C   UNK A   0      -8.706   3.062  67.001  1.00  0.00    -0.126 C  
HETATM    8  C   UNK A   0      -9.618   4.206  66.908  1.00  0.00    -0.232 A  
HETATM    9  O   UNK A   0      -8.035   2.859  68.004  1.00  0.00    -0.062 OA 
HETATM   10  C   UNK A   0     -10.315   4.414  65.749  1.00  0.00    -0.217 A  
HETATM   11  N   UNK A   0     -11.123   5.495  65.872  1.00  0.00    -0.706 NA 
HETATM   12  N   UNK A   0     -10.197   3.605  64.689  1.00  0.00    -0.170 NA 
HETATM   13  H   UNK A   0     -11.747   5.864  65.154  1.00  0.00     0.000 HD 
HETATM   14  C   UNK A   0     -10.953   6.009  67.136  1.00  0.00    -0.268 A  
HETATM   15  C   UNK A   0     -10.021   5.232  67.816  1.00  0.00    -0.204 A  
ENDROOT
BRANCH  15  16
HETATM   16  C   UNK A   0      -9.593   5.411  69.237  1.00  0.00    -0.198 C  
BRANCH  16  17
HETATM   17  C   UNK A   0     -10.329   6.546  69.971  1.00  0.00    -0.238 C  
BRANCH  17  18
HETATM   18  C   UNK A   0      -9.948   7.932  69.479  1.00  0.00    -0.189 A  
HETATM   19  C   UNK A   0     -10.877   8.980  69.461  1.00  0.00    -0.177 A  
HETATM   20  C   UNK A   0     -10.552  10.212  68.894  1.00  0.00    -0.237 A  
HETATM   21  C   UNK A   0      -9.280  10.426  68.356  1.00  0.00    -0.147 A  
HETATM   22  C   UNK A   0      -8.303   9.436  68.482  1.00  0.00    -0.118 A  
HETATM   23  C   UNK A   0      -8.639   8.193  69.037  1.00  0.00    -0.133 A  
BRANCH  21  24
HETATM   24  C   UNK A   0      -8.993  11.674  67.596  1.00  0.00    -0.166 C  
HETATM   25  O   UNK A   0      -8.370  11.686  66.542  1.00  0.00    -0.170 OA 
ATOM     26  N   GLU A   1      -9.518  12.823  68.156  1.00  0.00    -0.216 N  
ATOM     27  H   GLU A   1     -10.035  12.757  69.032  1.00  0.00     0.000 HD 
BRANCH  26  28
ATOM     28  CA  GLU A   1      -9.351  14.124  67.526  1.00  0.00    -0.204 C  
ATOM     29  C   GLU A   1      -8.499  15.014  68.440  1.00  0.00    -0.153 C  
ATOM     30  O   GLU A   1      -7.171  14.910  68.207  1.00  0.00    -0.102 OA 
ATOM     31  OXT GLU A   1      -8.961  15.748  69.313  1.00  0.00    -0.243 OA 
BRANCH  28  32
ATOM     32  CB  GLU A   1     -10.712  14.780  67.258  1.00  0.00    -0.294 C  
BRANCH  32  33
ATOM     33  CG  GLU A   1     -11.853  14.007  67.915  1.00  0.00    -0.411 C  
ATOM     34  CD  GLU A   1     -12.153  14.552  69.285  1.00  0.00    -0.290 C  
ATOM     35  OE1 GLU A   1     -13.102  15.511  69.290  1.00  0.00     0.554 OA 
ATOM     36  OE2 GLU A   1     -11.571  14.191  70.297  1.00  0.00    -0.263 OA 
ENDBRANCH  32  33
ENDBRANCH  28  32
ENDBRANCH  26  28
ENDBRANCH  21  24
ENDBRANCH  17  18
ENDBRANCH  16  17
ENDBRANCH  15  16
TORSDOF 7
ENDMDL
MODEL      262
REMARK 921   NORMALIZED FREE ENERGY PREDICTED BY IDOCK:   -2.88 KCAL/MOL
REMARK 922        TOTAL FREE ENERGY PREDICTED BY IDOCK:   -6.71 KCAL/MOL
REMARK 923 INTER-LIGAND FREE ENERGY PREDICTED BY IDOCK:   -6.25 KCAL/MOL
REMARK 924 INTRA-LIGAND FREE ENERGY PREDICTED BY IDOCK:   -0.46 KCAL/MOL
REMARK 927      BINDING AFFINITY PREDICTED BY RF-SCORE:    0.00 PKD
ROOT
HETATM    1  N   UNK A   0      -7.567  18.129  68.615  1.00  0.00    -0.294 NA 
HETATM    2  H1  UNK A   0      -6.715  18.152  68.055  1.00  0.00     0.000 HD 
HETATM    3  C   UNK A   0      -8.429  17.084  68.529  1.00  0.00    -0.257 C  
HETATM    4  H2  UNK A   0      -7.772  18.901  69.250  1.00  0.00     0.000 HD 
HETATM    5  N   UNK A   0      -9.515  17.055  69.244  1.00  0.00    -0.094 N  
HETATM    6  H   UNK A   0      -9.738  17.831  69.867  1.00  0.00     0.000 HD 
HETATM    7  C   UNK A   0     -10.373  15.956  69.154  1.00  0.00    -0.237 C  
HETATM    8  C   UNK A   0      -9.934  14.876  68.266  1.00  0.00    -0.222 A  
HETATM    9  O   UNK A   0     -11.423  15.884  69.779  1.00  0.00    -0.308 OA 
HETATM   10  C   UNK A   0      -8.773  15.022  67.558  1.00  0.00    -0.184 A  
HETATM   11  N   UNK A   0      -8.525  13.909  66.824  1.00  0.00    -0.439 NA 
HETATM   12  N   UNK A   0      -8.014  16.121  67.647  1.00  0.00    -0.141 NA 
HETATM   13  H   UNK A   0      -7.724  13.761  66.210  1.00  0.00     0.000 HD 
HETATM   14  C   UNK A   0      -9.544  13.014  67.055  1.00  0.00    -0.236 A  
HETATM   15  C   UNK A   0     -10.445  13.581  67.950  1.00  0.00    -0.253 A  
ENDROOT
BRANCH  15  16
HETATM   16  C   UNK A   0     -11.664  12.919  68.511  1.00  0.00    -0.374 C  
BRANCH  16  17
HETATM   17  C   UNK A   0     -11.978  11.553  67.876  1.00  0.00    -0.145 C  
BRANCH  17  18
HETATM   18  C   UNK A   0     -11.211  10.402  68.504  1.00  0.00    -0.308 A  
HETATM   19  C   UNK A   0     -10.538   9.458  67.719  1.00  0.00    -0.317 A  
HETATM   20  C   UNK A   0      -9.943   8.339  68.300  1.00  0.00    -0.217 A  
HETATM   21  C   UNK A   0      -9.988   8.158  69.685  1.00  0.00    -0.193 A  
HETATM   22  C   UNK A   0     -10.541   9.154  70.493  1.00  0.00    -0.287 A  
HETATM   23  C   UNK A   0     -11.154  10.268  69.903  1.00  0.00    -0.362 A  
BRANCH  21  24
HETATM   24  C   UNK A   0      -9.509   6.881  70.285  1.00  0.00    -0.162 C  
HETATM   25  O   UNK A   0      -8.332   6.544  70.284  1.00  0.00    -0.123 OA 
ATOM     26  N   GLU A   1     -10.495   6.117  70.877  1.00  0.00    -0.218 N  
ATOM     27  H   GLU A   1     -11.460   6.448  70.856  1.00  0.00     0.000 HD 
BRANCH  26  28
ATOM     28  CA  GLU A   1     -10.193   4.853  71.531  1.00  0.00    -0.194 C  
ATOM     29  C   GLU A   1      -9.706   5.134  72.958  1.00  0.00    -0.146 C  
ATOM     30  O   GLU A   1     -10.704   5.182  73.868  1.00  0.00    -0.274 OA 
ATOM     31  OXT GLU A   1      -8.526   5.313  73.260  1.00  0.00    -0.117 OA 
BRANCH  28  32
ATOM     32  CB  GLU A   1      -9.131   4.072  70.746  1.00  0.00    -0.177 C  
BRANCH  32  33
ATOM     33  CG  GLU A   1      -9.758   3.182  69.675  1.00  0.00     0.012 C  
ATOM     34  CD  GLU A   1      -9.738   3.861  68.333  1.00  0.00    -0.045 C  
ATOM     35  OE1 GLU A   1      -8.640   3.580  67.600  1.00  0.00    -0.093 OA 
ATOM     36  OE2 GLU A   1     -10.612   4.624  67.949  1.00  0.00     0.150 OA 
ENDBRANCH  32  33
ENDBRANCH  28  32
ENDBRANCH  26  28
ENDBRANCH  21  24
ENDBRANCH  17  18
ENDBRANCH  16  17
ENDBRANCH  15  16
TORSDOF 7
ENDMDL
MODEL      263
REMARK 921   NORMALIZED FREE ENERGY PREDICTED BY IDOCK:   -2.84 KCAL/MOL
REMARK 922        TOTAL FREE ENERGY PREDICTED BY IDOCK:   -6.64 KCAL/MOL
REMARK 923 INTER-LIGAND FREE ENERGY PREDICTED BY IDOCK:   -4.22 KCAL/MOL
REMARK 924 INTRA-LIGAND FREE ENERGY PREDICTED BY IDOCK:   -2.42 KCAL/MOL
REMARK 927      BINDING AFFINITY PREDICTED BY RF-SCORE:    0.00 PKD
ROOT
HETATM    1  N   UNK A   0     -11.419   6.567  67.012  1.00  0.00    -0.743 NA 
HETATM    2  H1  UNK A   0     -12.357   6.950  66.900  1.00  0.00     0.000 HD 
HETATM    3  C   UNK A   0     -10.326   7.368  66.923  1.00  0.00    -0.296 C  
HETATM    4  H2  UNK A   0     -11.301   5.571  67.195  1.00  0.00     0.000 HD 
HETATM    5  N   UNK A   0      -9.129   6.879  67.067  1.00  0.00    -0.132 N  
HETATM    6  H   UNK A   0      -9.000   5.881  67.231  1.00  0.00     0.000 HD 
HETATM    7  C   UNK A   0      -8.022   7.728  66.995  1.00  0.00    -0.116 C  
HETATM    8  C   UNK A   0      -8.321   9.150  66.803  1.00  0.00    -0.123 A  
HETATM    9  O   UNK A   0      -6.871   7.324  67.092  1.00  0.00    -0.071 OA 
HETATM   10  C   UNK A   0      -9.623   9.547  66.658  1.00  0.00    -0.188 A  
HETATM   11  N   UNK A   0      -9.693  10.894  66.525  1.00  0.00    -0.193 NA 
HETATM   12  N   UNK A   0     -10.642   8.680  66.687  1.00  0.00    -0.180 NA 
HETATM   13  H   UNK A   0     -10.545  11.442  66.404  1.00  0.00     0.000 HD 
HETATM   14  C   UNK A   0      -8.413  11.393  66.584  1.00  0.00    -0.171 A  
HETATM   15  C   UNK A   0      -7.526  10.335  66.756  1.00  0.00    -0.107 A  
ENDROOT
BRANCH  15  16
HETATM   16  C   UNK A   0      -6.045  10.447  66.927  1.00  0.00    -0.061 C  
BRANCH  16  17
HETATM   17  C   UNK A   0      -5.613  10.892  68.335  1.00  0.00    -0.043 C  
BRANCH  17  18
HETATM   18  C   UNK A   0      -5.993   9.906  69.426  1.00  0.00    -0.037 A  
HETATM   19  C   UNK A   0      -5.152   8.842  69.774  1.00  0.00    -0.030 A  
HETATM   20  C   UNK A   0      -5.565   7.874  70.689  1.00  0.00    -0.029 A  
HETATM   21  C   UNK A   0      -6.822   7.969  71.292  1.00  0.00    -0.048 A  
HETATM   22  C   UNK A   0      -7.620   9.090  71.055  1.00  0.00    -0.138 A  
HETATM   23  C   UNK A   0      -7.207  10.052  70.121  1.00  0.00    -0.167 A  
BRANCH  21  24
HETATM   24  C   UNK A   0      -7.332   6.847  72.130  1.00  0.00    -0.087 C  
HETATM   25  O   UNK A   0      -7.416   6.909  73.350  1.00  0.00    -0.081 OA 
ATOM     26  N   GLU A   1      -7.739   5.735  71.418  1.00  0.00    -0.104 N  
ATOM     27  H   GLU A   1      -7.654   5.737  70.401  1.00  0.00     0.000 HD 
BRANCH  26  28
ATOM     28  CA  GLU A   1      -8.285   4.561  72.082  1.00  0.00    -0.105 C  
ATOM     29  C   GLU A   1      -7.162   3.539  72.293  1.00  0.00    -0.047 C  
ATOM     30  O   GLU A   1      -6.504   3.697  73.463  1.00  0.00    -0.027 OA 
ATOM     31  OXT GLU A   1      -6.866   2.663  71.480  1.00  0.00    -0.029 OA 
BRANCH  28  32
ATOM     32  CB  GLU A   1      -9.422   3.945  71.254  1.00  0.00    -0.229 C  
BRANCH  32  33
ATOM     33  CG  GLU A   1      -9.665   4.721  69.960  1.00  0.00    -0.280 C  
ATOM     34  CD  GLU A   1      -8.889   4.121  68.820  1.00  0.00    -0.103 C  
ATOM     35  OE1 GLU A   1      -9.578   3.192  68.125  1.00  0.00    -0.180 OA 
ATOM     36  OE2 GLU A   1      -7.731   4.417  68.562  1.00  0.00    -0.073 OA 
ENDBRANCH  32  33
ENDBRANCH  28  32
ENDBRANCH  26  28
ENDBRANCH  21  24
ENDBRANCH  17  18
ENDBRANCH  16  17
ENDBRANCH  15  16
TORSDOF 7
ENDMDL
MODEL      264
REMARK 921   NORMALIZED FREE ENERGY PREDICTED BY IDOCK:   -2.83 KCAL/MOL
REMARK 922        TOTAL FREE ENERGY PREDICTED BY IDOCK:   -6.63 KCAL/MOL
REMARK 923 INTER-LIGAND FREE ENERGY PREDICTED BY IDOCK:   -7.40 KCAL/MOL
REMARK 924 INTRA-LIGAND FREE ENERGY PREDICTED BY IDOCK:    0.77 KCAL/MOL
REMARK 927      BINDING AFFINITY PREDICTED BY RF-SCORE:    0.00 PKD
ROOT
HETATM    1  N   UNK A   0     -12.153  15.269  72.667  1.00  0.00    -0.393 NA 
HETATM    2  H1  UNK A   0     -12.102  16.256  72.915  1.00  0.00     0.000 HD 
HETATM    3  C   UNK A   0     -12.065  14.872  71.371  1.00  0.00    -0.337 C  
HETATM    4  H2  UNK A   0     -12.270  14.571  73.401  1.00  0.00     0.000 HD 
HETATM    5  N   UNK A   0     -12.129  13.612  71.055  1.00  0.00    -0.461 N  
HETATM    6  H   UNK A   0     -12.266  12.908  71.780  1.00  0.00     0.000 HD 
HETATM    7  C   UNK A   0     -12.012  13.228  69.717  1.00  0.00    -0.324 C  
HETATM    8  C   UNK A   0     -11.772  14.314  68.761  1.00  0.00    -0.378 A  
HETATM    9  O   UNK A   0     -12.094  12.062  69.353  1.00  0.00    -0.274 OA 
HETATM   10  C   UNK A   0     -11.729  15.605  69.212  1.00  0.00    -0.375 A  
HETATM   11  N   UNK A   0     -11.465  16.453  68.188  1.00  0.00    -0.213 NA 
HETATM   12  N   UNK A   0     -11.897  15.918  70.502  1.00  0.00    -0.361 NA 
HETATM   13  H   UNK A   0     -11.381  17.468  68.255  1.00  0.00     0.000 HD 
HETATM   14  C   UNK A   0     -11.333  15.705  67.042  1.00  0.00    -0.051 A  
HETATM   15  C   UNK A   0     -11.517  14.363  67.357  1.00  0.00    -0.377 A  
ENDROOT
BRANCH  15  16
HETATM   16  C   UNK A   0     -11.398  13.211  66.411  1.00  0.00    -0.349 C  
BRANCH  16  17
HETATM   17  C   UNK A   0      -9.947  12.782  66.133  1.00  0.00    -0.272 C  
BRANCH  17  18
HETATM   18  C   UNK A   0      -9.515  11.560  66.925  1.00  0.00    -0.194 A  
HETATM   19  C   UNK A   0      -9.528  10.279  66.359  1.00  0.00    -0.218 A  
HETATM   20  C   UNK A   0      -9.247   9.153  67.131  1.00  0.00    -0.162 A  
HETATM   21  C   UNK A   0      -8.922   9.290  68.483  1.00  0.00    -0.129 A  
HETATM   22  C   UNK A   0      -8.778  10.566  69.032  1.00  0.00    -0.160 A  
HETATM   23  C   UNK A   0      -9.078  11.695  68.256  1.00  0.00    -0.187 A  
BRANCH  21  24
HETATM   24  C   UNK A   0      -8.797   8.082  69.345  1.00  0.00    -0.144 C  
HETATM   25  O   UNK A   0      -8.466   6.985  68.912  1.00  0.00    -0.125 OA 
ATOM     26  N   GLU A   1      -9.051   8.300  70.685  1.00  0.00    -0.148 N  
ATOM     27  H   GLU A   1      -9.316   9.236  70.994  1.00  0.00     0.000 HD 
BRANCH  26  28
ATOM     28  CA  GLU A   1      -8.948   7.231  71.666  1.00  0.00    -0.124 C  
ATOM     29  C   GLU A   1      -7.820   6.279  71.251  1.00  0.00    -0.108 C  
ATOM     30  O   GLU A   1      -6.610   6.630  71.743  1.00  0.00    -0.052 OA 
ATOM     31  OXT GLU A   1      -7.980   5.295  70.529  1.00  0.00    -0.094 OA 
BRANCH  28  32
ATOM     32  CB  GLU A   1     -10.275   6.470  71.785  1.00  0.00    -0.210 C  
BRANCH  32  33
ATOM     33  CG  GLU A   1     -11.349   7.055  70.869  1.00  0.00    -0.334 C  
ATOM     34  CD  GLU A   1     -12.595   7.384  71.645  1.00  0.00    -0.358 C  
ATOM     35  OE1 GLU A   1     -12.624   8.650  72.110  1.00  0.00    -0.346 OA 
ATOM     36  OE2 GLU A   1     -13.485   6.576  71.866  1.00  0.00    -0.139 OA 
ENDBRANCH  32  33
ENDBRANCH  28  32
ENDBRANCH  26  28
ENDBRANCH  21  24
ENDBRANCH  17  18
ENDBRANCH  16  17
ENDBRANCH  15  16
TORSDOF 7
ENDMDL
MODEL      265
REMARK 921   NORMALIZED FREE ENERGY PREDICTED BY IDOCK:   -2.81 KCAL/MOL
REMARK 922        TOTAL FREE ENERGY PREDICTED BY IDOCK:   -6.60 KCAL/MOL
REMARK 923 INTER-LIGAND FREE ENERGY PREDICTED BY IDOCK:   -5.28 KCAL/MOL
REMARK 924 INTRA-LIGAND FREE ENERGY PREDICTED BY IDOCK:   -1.32 KCAL/MOL
REMARK 927      BINDING AFFINITY PREDICTED BY RF-SCORE:    0.00 PKD
ROOT
HETATM    1  N   UNK A   0      -7.361   5.518  69.882  1.00  0.00    -0.067 NA 
HETATM    2  H1  UNK A   0      -8.016   6.201  70.260  1.00  0.00     0.000 HD 
HETATM    3  C   UNK A   0      -7.641   4.845  68.736  1.00  0.00    -0.069 C  
HETATM    4  H2  UNK A   0      -6.483   5.338  70.370  1.00  0.00     0.000 HD 
HETATM    5  N   UNK A   0      -6.804   3.974  68.253  1.00  0.00    -0.047 N  
HETATM    6  H   UNK A   0      -5.933   3.774  68.745  1.00  0.00     0.000 HD 
HETATM    7  C   UNK A   0      -7.105   3.314  67.059  1.00  0.00    -0.058 C  
HETATM    8  C   UNK A   0      -8.359   3.710  66.411  1.00  0.00    -0.105 A  
HETATM    9  O   UNK A   0      -6.374   2.462  66.572  1.00  0.00    -0.024 OA 
HETATM   10  C   UNK A   0      -9.163   4.636  67.017  1.00  0.00    -0.128 A  
HETATM   11  N   UNK A   0     -10.251   4.891  66.250  1.00  0.00    -0.255 NA 
HETATM   12  N   UNK A   0      -8.845   5.201  68.188  1.00  0.00    -0.102 NA 
HETATM   13  H   UNK A   0     -11.004   5.541  66.473  1.00  0.00     0.000 HD 
HETATM   14  C   UNK A   0     -10.161   4.116  65.117  1.00  0.00    -0.209 A  
HETATM   15  C   UNK A   0      -8.993   3.363  65.179  1.00  0.00    -0.138 A  
ENDROOT
BRANCH  15  16
HETATM   16  C   UNK A   0      -8.486   2.435  64.122  1.00  0.00    -0.083 C  
BRANCH  16  17
HETATM   17  C   UNK A   0      -7.378   3.039  63.242  1.00  0.00    -0.053 C  
BRANCH  17  18
HETATM   18  C   UNK A   0      -7.351   4.558  63.261  1.00  0.00    -0.053 A  
HETATM   19  C   UNK A   0      -6.391   5.262  63.998  1.00  0.00    -0.022 A  
HETATM   20  C   UNK A   0      -6.451   6.651  64.106  1.00  0.00    -0.038 A  
HETATM   21  C   UNK A   0      -7.460   7.364  63.455  1.00  0.00    -0.104 A  
HETATM   22  C   UNK A   0      -8.347   6.691  62.612  1.00  0.00     0.061 A  
HETATM   23  C   UNK A   0      -8.294   5.293  62.520  1.00  0.00    -0.113 A  
BRANCH  21  24
HETATM   24  C   UNK A   0      -7.628   8.822  63.715  1.00  0.00    -0.124 C  
HETATM   25  O   UNK A   0      -6.752   9.645  63.482  1.00  0.00    -0.101 OA 
ATOM     26  N   GLU A   1      -8.866   9.181  64.208  1.00  0.00    -0.381 N  
ATOM     27  H   GLU A   1      -9.563   8.456  64.377  1.00  0.00     0.000 HD 
BRANCH  26  28
ATOM     28  CA  GLU A   1      -9.203  10.568  64.491  1.00  0.00    -0.240 C  
ATOM     29  C   GLU A   1      -9.398  10.735  66.003  1.00  0.00    -0.186 C  
ATOM     30  O   GLU A   1      -8.258  11.044  66.662  1.00  0.00    -0.142 OA 
ATOM     31  OXT GLU A   1     -10.476  10.592  66.579  1.00  0.00    -0.241 OA 
BRANCH  28  32
ATOM     32  CB  GLU A   1     -10.473  10.987  63.737  1.00  0.00    -0.408 C  
BRANCH  32  33
ATOM     33  CG  GLU A   1     -10.568  12.505  63.588  1.00  0.00    -0.446 C  
ATOM     34  CD  GLU A   1     -11.874  13.016  64.131  1.00  0.00    -0.416 C  
ATOM     35  OE1 GLU A   1     -11.816  13.376  65.431  1.00  0.00    -0.325 OA 
ATOM     36  OE2 GLU A   1     -12.903  13.072  63.474  1.00  0.00    -0.664 OA 
ENDBRANCH  32  33
ENDBRANCH  28  32
ENDBRANCH  26  28
ENDBRANCH  21  24
ENDBRANCH  17  18
ENDBRANCH  16  17
ENDBRANCH  15  16
TORSDOF 7
ENDMDL
MODEL      266
REMARK 921   NORMALIZED FREE ENERGY PREDICTED BY IDOCK:   -2.78 KCAL/MOL
REMARK 922        TOTAL FREE ENERGY PREDICTED BY IDOCK:   -6.56 KCAL/MOL
REMARK 923 INTER-LIGAND FREE ENERGY PREDICTED BY IDOCK:   -5.78 KCAL/MOL
REMARK 924 INTRA-LIGAND FREE ENERGY PREDICTED BY IDOCK:   -0.78 KCAL/MOL
REMARK 927      BINDING AFFINITY PREDICTED BY RF-SCORE:    0.00 PKD
ROOT
HETATM    1  N   UNK A   0      -7.768   3.494  70.922  1.00  0.00    -0.046 NA 
HETATM    2  H1  UNK A   0      -8.470   2.761  71.012  1.00  0.00     0.000 HD 
HETATM    3  C   UNK A   0      -7.375   3.935  69.699  1.00  0.00    -0.049 C  
HETATM    4  H2  UNK A   0      -7.356   3.903  71.762  1.00  0.00     0.000 HD 
HETATM    5  N   UNK A   0      -6.480   4.871  69.585  1.00  0.00    -0.034 N  
HETATM    6  H   UNK A   0      -6.048   5.273  70.418  1.00  0.00     0.000 HD 
HETATM    7  C   UNK A   0      -6.111   5.324  68.316  1.00  0.00    -0.026 C  
HETATM    8  C   UNK A   0      -6.825   4.715  67.190  1.00  0.00    -0.056 A  
HETATM    9  O   UNK A   0      -5.253   6.180  68.142  1.00  0.00    -0.004 OA 
HETATM   10  C   UNK A   0      -7.746   3.733  67.433  1.00  0.00    -0.079 A  
HETATM   11  N   UNK A   0      -8.317   3.324  66.274  1.00  0.00    -0.097 NA 
HETATM   12  N   UNK A   0      -8.023   3.304  68.671  1.00  0.00    -0.057 NA 
HETATM   13  H   UNK A   0      -9.033   2.603  66.179  1.00  0.00     0.000 HD 
HETATM   14  C   UNK A   0      -7.761   4.051  65.248  1.00  0.00    -0.085 A  
HETATM   15  C   UNK A   0      -6.824   4.932  65.778  1.00  0.00    -0.061 A  
ENDROOT
BRANCH  15  16
HETATM   16  C   UNK A   0      -6.034   5.945  65.012  1.00  0.00    -0.025 C  
BRANCH  16  17
HETATM   17  C   UNK A   0      -6.802   6.573  63.836  1.00  0.00    -0.045 C  
BRANCH  17  18
HETATM   18  C   UNK A   0      -7.684   7.740  64.244  1.00  0.00    -0.124 A  
HETATM   19  C   UNK A   0      -7.664   8.951  63.541  1.00  0.00    -0.128 A  
HETATM   20  C   UNK A   0      -8.385  10.055  63.996  1.00  0.00    -0.170 A  
HETATM   21  C   UNK A   0      -9.162   9.958  65.153  1.00  0.00    -0.288 A  
HETATM   22  C   UNK A   0      -9.296   8.723  65.793  1.00  0.00    -0.259 A  
HETATM   23  C   UNK A   0      -8.555   7.622  65.341  1.00  0.00    -0.074 A  
BRANCH  21  24
HETATM   24  C   UNK A   0      -9.786  11.179  65.735  1.00  0.00    -0.235 C  
HETATM   25  O   UNK A   0      -9.711  11.465  66.923  1.00  0.00    -0.189 OA 
ATOM     26  N   GLU A   1     -10.431  11.988  64.820  1.00  0.00    -0.281 N  
ATOM     27  H   GLU A   1     -10.459  11.706  63.840  1.00  0.00     0.000 HD 
BRANCH  26  28
ATOM     28  CA  GLU A   1     -11.072  13.232  65.219  1.00  0.00    -0.288 C  
ATOM     29  C   GLU A   1     -12.321  13.448  64.356  1.00  0.00    -0.341 C  
ATOM     30  O   GLU A   1     -13.438  12.892  64.876  1.00  0.00    -0.501 OA 
ATOM     31  OXT GLU A   1     -12.322  14.054  63.284  1.00  0.00    -0.718 OA 
BRANCH  28  32
ATOM     32  CB  GLU A   1     -10.107  14.416  65.071  1.00  0.00    -0.322 C  
BRANCH  32  33
ATOM     33  CG  GLU A   1     -10.500  15.583  65.974  1.00  0.00    -0.335 C  
ATOM     34  CD  GLU A   1     -10.870  15.098  67.349  1.00  0.00    -0.302 C  
ATOM     35  OE1 GLU A   1      -9.833  15.075  68.212  1.00  0.00    -0.211 OA 
ATOM     36  OE2 GLU A   1     -11.993  14.725  67.653  1.00  0.00    -0.345 OA 
ENDBRANCH  32  33
ENDBRANCH  28  32
ENDBRANCH  26  28
ENDBRANCH  21  24
ENDBRANCH  17  18
ENDBRANCH  16  17
ENDBRANCH  15  16
TORSDOF 7
ENDMDL
MODEL      267
REMARK 921   NORMALIZED FREE ENERGY PREDICTED BY IDOCK:   -2.72 KCAL/MOL
REMARK 922        TOTAL FREE ENERGY PREDICTED BY IDOCK:   -6.48 KCAL/MOL
REMARK 923 INTER-LIGAND FREE ENERGY PREDICTED BY IDOCK:   -5.54 KCAL/MOL
REMARK 924 INTRA-LIGAND FREE ENERGY PREDICTED BY IDOCK:   -0.94 KCAL/MOL
REMARK 927      BINDING AFFINITY PREDICTED BY RF-SCORE:    0.00 PKD
ROOT
HETATM    1  N   UNK A   0      -6.025  12.213  71.119  1.00  0.00    -0.484 NA 
HETATM    2  H1  UNK A   0      -6.224  12.286  72.116  1.00  0.00     0.000 HD 
HETATM    3  C   UNK A   0      -5.930  13.324  70.344  1.00  0.00    -0.124 C  
HETATM    4  H2  UNK A   0      -5.894  11.292  70.698  1.00  0.00     0.000 HD 
HETATM    5  N   UNK A   0      -5.675  13.230  69.072  1.00  0.00    -0.073 N  
HETATM    6  H   UNK A   0      -5.562  12.313  68.639  1.00  0.00     0.000 HD 
HETATM    7  C   UNK A   0      -5.558  14.390  68.303  1.00  0.00    -0.118 C  
HETATM    8  C   UNK A   0      -5.691  15.654  69.032  1.00  0.00    -0.104 A  
HETATM    9  O   UNK A   0      -5.350  14.365  67.097  1.00  0.00    -0.085 OA 
HETATM   10  C   UNK A   0      -5.965  15.629  70.372  1.00  0.00    -0.055 A  
HETATM   11  N   UNK A   0      -6.017  16.890  70.867  1.00  0.00     0.471 NA 
HETATM   12  N   UNK A   0      -6.115  14.484  71.049  1.00  0.00    -0.133 NA 
HETATM   13  H   UNK A   0      -6.204  17.147  71.836  1.00  0.00     0.000 HD 
HETATM   14  C   UNK A   0      -5.773  17.761  69.832  1.00  0.00    -0.249 A  
HETATM   15  C   UNK A   0      -5.564  17.029  68.668  1.00  0.00    -0.133 A  
ENDROOT
BRANCH  15  16
HETATM   16  C   UNK A   0      -5.209  17.588  67.327  1.00  0.00    -0.153 C  
BRANCH  16  17
HETATM   17  C   UNK A   0      -6.238  17.270  66.228  1.00  0.00    -0.197 C  
BRANCH  17  18
HETATM   18  C   UNK A   0      -7.640  17.034  66.761  1.00  0.00    -0.273 A  
HETATM   19  C   UNK A   0      -8.269  17.962  67.600  1.00  0.00    -0.232 A  
HETATM   20  C   UNK A   0      -9.504  17.679  68.181  1.00  0.00    -0.286 A  
HETATM   21  C   UNK A   0     -10.146  16.467  67.912  1.00  0.00    -0.256 A  
HETATM   22  C   UNK A   0      -9.596  15.586  66.979  1.00  0.00    -0.233 A  
HETATM   23  C   UNK A   0      -8.345  15.868  66.410  1.00  0.00    -0.310 A  
BRANCH  21  24
HETATM   24  C   UNK A   0     -11.374  16.091  68.668  1.00  0.00    -0.383 C  
HETATM   25  O   UNK A   0     -12.501  16.186  68.200  1.00  0.00     0.741 OA 
ATOM     26  N   GLU A   1     -11.141  15.592  69.934  1.00  0.00    -0.282 N  
ATOM     27  H   GLU A   1     -10.181  15.527  70.274  1.00  0.00     0.000 HD 
BRANCH  26  28
ATOM     28  CA  GLU A   1     -12.229  15.154  70.795  1.00  0.00    -0.340 C  
ATOM     29  C   GLU A   1     -11.899  15.528  72.245  1.00  0.00    -0.467 C  
ATOM     30  O   GLU A   1     -12.331  16.761  72.595  1.00  0.00    -0.094 OA 
ATOM     31  OXT GLU A   1     -11.289  14.796  73.024  1.00  0.00     0.040 OA 
BRANCH  28  32
ATOM     32  CB  GLU A   1     -12.451  13.641  70.670  1.00  0.00    -0.417 C  
BRANCH  32  33
ATOM     33  CG  GLU A   1     -11.413  12.990  69.757  1.00  0.00    -0.213 C  
ATOM     34  CD  GLU A   1     -11.650  11.508  69.646  1.00  0.00    -0.333 C  
ATOM     35  OE1 GLU A   1     -12.444  11.162  68.611  1.00  0.00    -0.463 OA 
ATOM     36  OE2 GLU A   1     -11.197  10.692  70.435  1.00  0.00    -0.304 OA 
ENDBRANCH  32  33
ENDBRANCH  28  32
ENDBRANCH  26  28
ENDBRANCH  21  24
ENDBRANCH  17  18
ENDBRANCH  16  17
ENDBRANCH  15  16
TORSDOF 7
ENDMDL
MODEL      268
REMARK 921   NORMALIZED FREE ENERGY PREDICTED BY IDOCK:   -2.67 KCAL/MOL
REMARK 922        TOTAL FREE ENERGY PREDICTED BY IDOCK:   -6.41 KCAL/MOL
REMARK 923 INTER-LIGAND FREE ENERGY PREDICTED BY IDOCK:   -5.86 KCAL/MOL
REMARK 924 INTRA-LIGAND FREE ENERGY PREDICTED BY IDOCK:   -0.55 KCAL/MOL
REMARK 927      BINDING AFFINITY PREDICTED BY RF-SCORE:    0.00 PKD
ROOT
HETATM    1  N   UNK A   0     -11.378  17.139  68.684  1.00  0.00    -0.068 NA 
HETATM    2  H1  UNK A   0     -12.370  17.282  68.872  1.00  0.00     0.000 HD 
HETATM    3  C   UNK A   0     -10.926  15.957  68.194  1.00  0.00    -0.335 C  
HETATM    4  H2  UNK A   0     -10.717  17.895  68.866  1.00  0.00     0.000 HD 
HETATM    5  N   UNK A   0      -9.660  15.775  67.954  1.00  0.00    -0.213 N  
HETATM    6  H   UNK A   0      -8.990  16.519  68.151  1.00  0.00     0.000 HD 
HETATM    7  C   UNK A   0      -9.224  14.557  67.427  1.00  0.00    -0.200 C  
HETATM    8  C   UNK A   0     -10.274  13.576  67.138  1.00  0.00    -0.247 A  
HETATM    9  O   UNK A   0      -8.044  14.315  67.208  1.00  0.00    -0.188 OA 
HETATM   10  C   UNK A   0     -11.574  13.877  67.439  1.00  0.00    -0.368 A  
HETATM   11  N   UNK A   0     -12.392  12.862  67.068  1.00  0.00    -0.314 NA 
HETATM   12  N   UNK A   0     -11.927  15.045  67.989  1.00  0.00    -0.233 NA 
HETATM   13  H   UNK A   0     -13.405  12.835  67.181  1.00  0.00     0.000 HD 
HETATM   14  C   UNK A   0     -11.613  11.873  66.514  1.00  0.00    -0.255 A  
HETATM   15  C   UNK A   0     -10.284  12.280  66.538  1.00  0.00    -0.235 A  
ENDROOT
BRANCH  15  16
HETATM   16  C   UNK A   0      -9.120  11.524  65.979  1.00  0.00    -0.206 C  
BRANCH  16  17
HETATM   17  C   UNK A   0      -7.993  11.276  66.995  1.00  0.00    -0.150 C  
BRANCH  17  18
HETATM   18  C   UNK A   0      -8.366  10.286  68.084  1.00  0.00    -0.118 A  
HETATM   19  C   UNK A   0      -9.328  10.594  69.054  1.00  0.00    -0.191 A  
HETATM   20  C   UNK A   0      -9.574   9.728  70.119  1.00  0.00    -0.287 A  
HETATM   21  C   UNK A   0      -8.876   8.522  70.219  1.00  0.00    -0.150 A  
HETATM   22  C   UNK A   0      -8.008   8.139  69.193  1.00  0.00    -0.113 A  
HETATM   23  C   UNK A   0      -7.752   9.022  68.134  1.00  0.00    -0.096 A  
BRANCH  21  24
HETATM   24  C   UNK A   0      -9.010   7.684  71.444  1.00  0.00    -0.132 C  
HETATM   25  O   UNK A   0      -9.597   8.063  72.449  1.00  0.00    -0.186 OA 
ATOM     26  N   GLU A   1      -8.447   6.427  71.346  1.00  0.00    -0.126 N  
ATOM     27  H   GLU A   1      -7.975   6.159  70.483  1.00  0.00     0.000 HD 
BRANCH  26  28
ATOM     28  CA  GLU A   1      -8.511   5.474  72.444  1.00  0.00    -0.118 C  
ATOM     29  C   GLU A   1      -7.091   5.205  72.954  1.00  0.00    -0.087 C  
ATOM     30  O   GLU A   1      -6.697   6.057  73.928  1.00  0.00    -0.077 OA 
ATOM     31  OXT GLU A   1      -6.361   4.313  72.522  1.00  0.00    -0.019 OA 
BRANCH  28  32
ATOM     32  CB  GLU A   1      -9.177   4.166  71.995  1.00  0.00    -0.171 C  
BRANCH  32  33
ATOM     33  CG  GLU A   1     -10.393   3.825  72.853  1.00  0.00    -0.241 C  
ATOM     34  CD  GLU A   1     -11.059   5.075  73.361  1.00  0.00    -0.335 C  
ATOM     35  OE1 GLU A   1     -12.041   5.531  72.554  1.00  0.00    -0.183 OA 
ATOM     36  OE2 GLU A   1     -10.726   5.647  74.388  1.00  0.00    -0.216 OA 
ENDBRANCH  32  33
ENDBRANCH  28  32
ENDBRANCH  26  28
ENDBRANCH  21  24
ENDBRANCH  17  18
ENDBRANCH  16  17
ENDBRANCH  15  16
TORSDOF 7
ENDMDL
MODEL      269
REMARK 921   NORMALIZED FREE ENERGY PREDICTED BY IDOCK:   -2.59 KCAL/MOL
REMARK 922        TOTAL FREE ENERGY PREDICTED BY IDOCK:   -6.29 KCAL/MOL
REMARK 923 INTER-LIGAND FREE ENERGY PREDICTED BY IDOCK:   -5.15 KCAL/MOL
REMARK 924 INTRA-LIGAND FREE ENERGY PREDICTED BY IDOCK:   -1.14 KCAL/MOL
REMARK 927      BINDING AFFINITY PREDICTED BY RF-SCORE:    0.00 PKD
ROOT
HETATM    1  N   UNK A   0      -5.128  13.984  71.685  1.00  0.00    -0.146 NA 
HETATM    2  H1  UNK A   0      -4.119  13.934  71.548  1.00  0.00     0.000 HD 
HETATM    3  C   UNK A   0      -5.929  14.564  70.755  1.00  0.00    -0.173 C  
HETATM    4  H2  UNK A   0      -5.541  13.593  72.532  1.00  0.00     0.000 HD 
HETATM    5  N   UNK A   0      -7.216  14.627  70.930  1.00  0.00     0.277 N  
HETATM    6  H   UNK A   0      -7.636  14.256  71.782  1.00  0.00     0.000 HD 
HETATM    7  C   UNK A   0      -8.020  15.207  69.945  1.00  0.00     0.116 C  
HETATM    8  C   UNK A   0      -7.321  15.667  68.741  1.00  0.00    -0.144 A  
HETATM    9  O   UNK A   0      -9.232  15.324  70.066  1.00  0.00    -0.087 OA 
HETATM   10  C   UNK A   0      -5.960  15.553  68.672  1.00  0.00    -0.097 A  
HETATM   11  N   UNK A   0      -5.509  15.999  67.474  1.00  0.00    -0.230 NA 
HETATM   12  N   UNK A   0      -5.235  15.031  69.669  1.00  0.00    -0.090 NA 
HETATM   13  H   UNK A   0      -4.536  16.022  67.170  1.00  0.00     0.000 HD 
HETATM   14  C   UNK A   0      -6.596  16.415  66.742  1.00  0.00    -0.060 A  
HETATM   15  C   UNK A   0      -7.747  16.225  67.498  1.00  0.00    -0.169 A  
ENDROOT
BRANCH  15  16
HETATM   16  C   UNK A   0      -9.149  16.492  67.051  1.00  0.00    -0.228 C  
BRANCH  16  17
HETATM   17  C   UNK A   0      -9.539  15.763  65.754  1.00  0.00    -0.355 C  
BRANCH  17  18
HETATM   18  C   UNK A   0      -9.685  14.260  65.924  1.00  0.00    -0.289 A  
HETATM   19  C   UNK A   0      -9.233  13.608  67.079  1.00  0.00    -0.254 A  
HETATM   20  C   UNK A   0      -9.262  12.218  67.172  1.00  0.00    -0.196 A  
HETATM   21  C   UNK A   0      -9.768  11.453  66.118  1.00  0.00    -0.248 A  
HETATM   22  C   UNK A   0     -10.341  12.090  65.015  1.00  0.00    -0.318 A  
HETATM   23  C   UNK A   0     -10.294  13.489  64.919  1.00  0.00    -0.395 A  
BRANCH  21  24
HETATM   24  C   UNK A   0      -9.635   9.969  66.144  1.00  0.00    -0.210 C  
HETATM   25  O   UNK A   0      -9.744   9.272  65.143  1.00  0.00    -0.168 OA 
ATOM     26  N   GLU A   1      -9.342   9.438  67.385  1.00  0.00    -0.126 N  
ATOM     27  H   GLU A   1      -9.255  10.065  68.185  1.00  0.00     0.000 HD 
BRANCH  26  28
ATOM     28  CA  GLU A   1      -9.154   8.009  67.579  1.00  0.00    -0.137 C  
ATOM     29  C   GLU A   1     -10.474   7.393  68.059  1.00  0.00    -0.199 C  
ATOM     30  O   GLU A   1     -11.277   6.988  67.050  1.00  0.00    -0.328 OA 
ATOM     31  OXT GLU A   1     -10.793   7.283  69.243  1.00  0.00    -0.220 OA 
BRANCH  28  32
ATOM     32  CB  GLU A   1      -8.036   7.738  68.595  1.00  0.00    -0.122 C  
BRANCH  32  33
ATOM     33  CG  GLU A   1      -7.606   9.013  69.319  1.00  0.00    -0.079 C  
ATOM     34  CD  GLU A   1      -7.942   8.938  70.783  1.00  0.00    -0.131 C  
ATOM     35  OE1 GLU A   1      -6.942   8.442  71.543  1.00  0.00    -0.062 OA 
ATOM     36  OE2 GLU A   1      -9.026   9.262  71.245  1.00  0.00    -0.285 OA 
ENDBRANCH  32  33
ENDBRANCH  28  32
ENDBRANCH  26  28
ENDBRANCH  21  24
ENDBRANCH  17  18
ENDBRANCH  16  17
ENDBRANCH  15  16
TORSDOF 7
ENDMDL
MODEL      270
REMARK 921   NORMALIZED FREE ENERGY PREDICTED BY IDOCK:   -2.50 KCAL/MOL
REMARK 922        TOTAL FREE ENERGY PREDICTED BY IDOCK:   -6.16 KCAL/MOL
REMARK 923 INTER-LIGAND FREE ENERGY PREDICTED BY IDOCK:   -4.95 KCAL/MOL
REMARK 924 INTRA-LIGAND FREE ENERGY PREDICTED BY IDOCK:   -1.21 KCAL/MOL
REMARK 927      BINDING AFFINITY PREDICTED BY RF-SCORE:    0.00 PKD
ROOT
HETATM    1  N   UNK A   0      -9.116   4.585  71.455  1.00  0.00    -0.127 NA 
HETATM    2  H1  UNK A   0      -9.921   5.057  71.864  1.00  0.00     0.000 HD 
HETATM    3  C   UNK A   0      -9.025   4.404  70.112  1.00  0.00    -0.088 C  
HETATM    4  H2  UNK A   0      -8.370   4.244  72.061  1.00  0.00     0.000 HD 
HETATM    5  N   UNK A   0      -7.998   3.801  69.589  1.00  0.00    -0.051 N  
HETATM    6  H   UNK A   0      -7.255   3.441  70.189  1.00  0.00     0.000 HD 
HETATM    7  C   UNK A   0      -7.916   3.650  68.203  1.00  0.00    -0.071 C  
HETATM    8  C   UNK A   0      -9.012   4.245  67.432  1.00  0.00    -0.134 A  
HETATM    9  O   UNK A   0      -6.991   3.066  67.654  1.00  0.00    -0.048 OA 
HETATM   10  C   UNK A   0     -10.045   4.851  68.093  1.00  0.00    -0.075 A  
HETATM   11  N   UNK A   0     -10.935   5.365  67.209  1.00  0.00    -0.238 NA 
HETATM   12  N   UNK A   0     -10.093   4.924  69.429  1.00  0.00    -0.219 NA 
HETATM   13  H   UNK A   0     -11.792   5.865  67.443  1.00  0.00     0.000 HD 
HETATM   14  C   UNK A   0     -10.478   5.090  65.942  1.00  0.00    -0.186 A  
HETATM   15  C   UNK A   0      -9.279   4.392  66.037  1.00  0.00    -0.139 A  
ENDROOT
BRANCH  15  16
HETATM   16  C   UNK A   0      -8.421   3.954  64.893  1.00  0.00    -0.109 C  
BRANCH  16  17
HETATM   17  C   UNK A   0      -7.117   4.757  64.749  1.00  0.00    -0.062 C  
BRANCH  17  18
HETATM   18  C   UNK A   0      -7.255   6.214  65.155  1.00  0.00    -0.070 A  
HETATM   19  C   UNK A   0      -6.617   6.719  66.295  1.00  0.00    -0.048 A  
HETATM   20  C   UNK A   0      -6.849   8.024  66.725  1.00  0.00    -0.072 A  
HETATM   21  C   UNK A   0      -7.708   8.859  66.006  1.00  0.00    -0.098 A  
HETATM   22  C   UNK A   0      -8.252   8.416  64.798  1.00  0.00    -0.162 A  
HETATM   23  C   UNK A   0      -8.029   7.096  64.379  1.00  0.00    -0.101 A  
BRANCH  21  24
HETATM   24  C   UNK A   0      -8.093  10.187  66.561  1.00  0.00    -0.121 C  
HETATM   25  O   UNK A   0      -7.314  11.129  66.638  1.00  0.00    -0.138 OA 
ATOM     26  N   GLU A   1      -9.413  10.288  66.954  1.00  0.00    -0.165 N  
ATOM     27  H   GLU A   1     -10.022   9.475  66.862  1.00  0.00     0.000 HD 
BRANCH  26  28
ATOM     28  CA  GLU A   1      -9.957  11.524  67.494  1.00  0.00    -0.190 C  
ATOM     29  C   GLU A   1     -11.108  11.187  68.450  1.00  0.00    -0.247 C  
ATOM     30  O   GLU A   1     -10.708  10.993  69.727  1.00  0.00    -0.197 OA 
ATOM     31  OXT GLU A   1     -12.284  11.085  68.103  1.00  0.00    -0.578 OA 
BRANCH  28  32
ATOM     32  CB  GLU A   1     -10.449  12.444  66.367  1.00  0.00    -0.267 C  
BRANCH  32  33
ATOM     33  CG  GLU A   1     -10.751  13.852  66.876  1.00  0.00    -0.284 C  
ATOM     34  CD  GLU A   1      -9.510  14.502  67.426  1.00  0.00    -0.202 C  
ATOM     35  OE1 GLU A   1      -8.827  15.224  66.512  1.00  0.00    -0.276 OA 
ATOM     36  OE2 GLU A   1      -9.132  14.366  68.580  1.00  0.00    -0.188 OA 
ENDBRANCH  32  33
ENDBRANCH  28  32
ENDBRANCH  26  28
ENDBRANCH  21  24
ENDBRANCH  17  18
ENDBRANCH  16  17
ENDBRANCH  15  16
TORSDOF 7
ENDMDL
MODEL      271
REMARK 921   NORMALIZED FREE ENERGY PREDICTED BY IDOCK:   -2.47 KCAL/MOL
REMARK 922        TOTAL FREE ENERGY PREDICTED BY IDOCK:   -6.13 KCAL/MOL
REMARK 923 INTER-LIGAND FREE ENERGY PREDICTED BY IDOCK:   -5.81 KCAL/MOL
REMARK 924 INTRA-LIGAND FREE ENERGY PREDICTED BY IDOCK:   -0.32 KCAL/MOL
REMARK 927      BINDING AFFINITY PREDICTED BY RF-SCORE:    0.00 PKD
ROOT
HETATM    1  N   UNK A   0      -9.214  10.878  62.330  1.00  0.00    -0.472 NA 
HETATM    2  H1  UNK A   0     -10.149  10.579  62.058  1.00  0.00     0.000 HD 
HETATM    3  C   UNK A   0      -8.604  10.347  63.421  1.00  0.00    -0.189 C  
HETATM    4  H2  UNK A   0      -8.729  11.584  61.776  1.00  0.00     0.000 HD 
HETATM    5  N   UNK A   0      -7.410  10.729  63.769  1.00  0.00    -0.329 N  
HETATM    6  H   UNK A   0      -6.925  11.448  63.231  1.00  0.00     0.000 HD 
HETATM    7  C   UNK A   0      -6.795  10.149  64.881  1.00  0.00    -0.129 C  
HETATM    8  C   UNK A   0      -7.558   9.094  65.553  1.00  0.00    -0.090 A  
HETATM    9  O   UNK A   0      -5.687  10.487  65.276  1.00  0.00    -0.121 OA 
HETATM   10  C   UNK A   0      -8.811   8.781  65.100  1.00  0.00    -0.133 A  
HETATM   11  N   UNK A   0      -9.335   7.764  65.827  1.00  0.00    -0.401 NA 
HETATM   12  N   UNK A   0      -9.370   9.405  64.056  1.00  0.00     0.033 NA 
HETATM   13  H   UNK A   0     -10.254   7.342  65.693  1.00  0.00     0.000 HD 
HETATM   14  C   UNK A   0      -8.410   7.402  66.777  1.00  0.00    -0.122 A  
HETATM   15  C   UNK A   0      -7.285   8.209  66.640  1.00  0.00    -0.081 A  
ENDROOT
BRANCH  15  16
HETATM   16  C   UNK A   0      -6.024   8.106  67.438  1.00  0.00    -0.050 C  
BRANCH  16  17
HETATM   17  C   UNK A   0      -6.091   8.816  68.801  1.00  0.00    -0.045 C  
BRANCH  17  18
HETATM   18  C   UNK A   0      -7.186   9.866  68.884  1.00  0.00    -0.076 A  
HETATM   19  C   UNK A   0      -8.467   9.549  69.354  1.00  0.00    -0.146 A  
HETATM   20  C   UNK A   0      -9.497  10.488  69.311  1.00  0.00    -0.191 A  
HETATM   21  C   UNK A   0      -9.256  11.773  68.819  1.00  0.00    -0.009 A  
HETATM   22  C   UNK A   0      -7.956  12.146  68.467  1.00  0.00    -0.119 A  
HETATM   23  C   UNK A   0      -6.928  11.192  68.496  1.00  0.00    -0.072 A  
BRANCH  21  24
HETATM   24  C   UNK A   0     -10.391  12.714  68.609  1.00  0.00    -0.177 C  
HETATM   25  O   UNK A   0     -11.456  12.618  69.206  1.00  0.00    -0.277 OA 
ATOM     26  N   GLU A   1     -10.139  13.731  67.709  1.00  0.00    -0.240 N  
ATOM     27  H   GLU A   1      -9.231  13.769  67.244  1.00  0.00     0.000 HD 
BRANCH  26  28
ATOM     28  CA  GLU A   1     -11.133  14.750  67.409  1.00  0.00    -0.324 C  
ATOM     29  C   GLU A   1     -11.836  15.159  68.708  1.00  0.00    -0.303 C  
ATOM     30  O   GLU A   1     -11.223  16.176  69.355  1.00  0.00    -0.313 OA 
ATOM     31  OXT GLU A   1     -12.853  14.617  69.142  1.00  0.00     0.220 OA 
BRANCH  28  32
ATOM     32  CB  GLU A   1     -12.154  14.232  66.387  1.00  0.00    -0.442 C  
BRANCH  32  33
ATOM     33  CG  GLU A   1     -11.650  14.387  64.953  1.00  0.00    -0.395 C  
ATOM     34  CD  GLU A   1     -10.903  13.158  64.511  1.00  0.00    -0.383 C  
ATOM     35  OE1 GLU A   1     -11.682  12.243  63.897  1.00  0.00    -0.376 OA 
ATOM     36  OE2 GLU A   1      -9.711  12.983  64.716  1.00  0.00    -0.052 OA 
ENDBRANCH  32  33
ENDBRANCH  28  32
ENDBRANCH  26  28
ENDBRANCH  21  24
ENDBRANCH  17  18
ENDBRANCH  16  17
ENDBRANCH  15  16
TORSDOF 7
ENDMDL
MODEL      272
REMARK 921   NORMALIZED FREE ENERGY PREDICTED BY IDOCK:   -2.47 KCAL/MOL
REMARK 922        TOTAL FREE ENERGY PREDICTED BY IDOCK:   -6.12 KCAL/MOL
REMARK 923 INTER-LIGAND FREE ENERGY PREDICTED BY IDOCK:   -4.99 KCAL/MOL
REMARK 924 INTRA-LIGAND FREE ENERGY PREDICTED BY IDOCK:   -1.13 KCAL/MOL
REMARK 927      BINDING AFFINITY PREDICTED BY RF-SCORE:    0.00 PKD
ROOT
HETATM    1  N   UNK A   0      -9.142  18.174  67.900  1.00  0.00    -0.261 NA 
HETATM    2  H1  UNK A   0      -9.858  18.825  67.577  1.00  0.00     0.000 HD 
HETATM    3  C   UNK A   0      -9.175  16.867  67.537  1.00  0.00    -0.223 C  
HETATM    4  H2  UNK A   0      -8.391  18.511  68.503  1.00  0.00     0.000 HD 
HETATM    5  N   UNK A   0      -8.262  16.037  67.948  1.00  0.00    -0.147 N  
HETATM    6  H   UNK A   0      -7.518  16.360  68.567  1.00  0.00     0.000 HD 
HETATM    7  C   UNK A   0      -8.306  14.702  67.540  1.00  0.00    -0.190 C  
HETATM    8  C   UNK A   0      -9.388  14.354  66.615  1.00  0.00    -0.297 A  
HETATM    9  O   UNK A   0      -7.493  13.868  67.917  1.00  0.00    -0.118 OA 
HETATM   10  C   UNK A   0     -10.296  15.312  66.255  1.00  0.00    -0.294 A  
HETATM   11  N   UNK A   0     -11.193  14.806  65.374  1.00  0.00    -0.336 NA 
HETATM   12  N   UNK A   0     -10.232  16.567  66.718  1.00  0.00    -0.289 NA 
HETATM   13  H   UNK A   0     -11.971  15.312  64.951  1.00  0.00     0.000 HD 
HETATM   14  C   UNK A   0     -10.868  13.488  65.150  1.00  0.00    -0.330 A  
HETATM   15  C   UNK A   0      -9.747  13.167  65.907  1.00  0.00    -0.190 A  
ENDROOT
BRANCH  15  16
HETATM   16  C   UNK A   0      -9.032  11.852  65.909  1.00  0.00    -0.009 C  
BRANCH  16  17
HETATM   17  C   UNK A   0      -9.646  10.813  66.863  1.00  0.00    -0.198 C  
BRANCH  17  18
HETATM   18  C   UNK A   0      -9.296   9.379  66.502  1.00  0.00    -0.222 A  
HETATM   19  C   UNK A   0      -9.459   8.334  67.421  1.00  0.00    -0.188 A  
HETATM   20  C   UNK A   0      -9.021   7.045  67.122  1.00  0.00    -0.123 A  
HETATM   21  C   UNK A   0      -8.433   6.772  65.884  1.00  0.00    -0.146 A  
HETATM   22  C   UNK A   0      -8.380   7.771  64.909  1.00  0.00    -0.071 A  
HETATM   23  C   UNK A   0      -8.807   9.070  65.221  1.00  0.00    -0.234 A  
BRANCH  21  24
HETATM   24  C   UNK A   0      -7.808   5.443  65.634  1.00  0.00    -0.100 C  
HETATM   25  O   UNK A   0      -6.652   5.311  65.251  1.00  0.00    -0.038 OA 
ATOM     26  N   GLU A   1      -8.624   4.362  65.903  1.00  0.00    -0.113 N  
ATOM     27  H   GLU A   1      -9.577   4.528  66.227  1.00  0.00     0.000 HD 
BRANCH  26  28
ATOM     28  CA  GLU A   1      -8.159   2.993  65.737  1.00  0.00    -0.086 C  
ATOM     29  C   GLU A   1      -8.857   2.374  64.520  1.00  0.00    -0.111 C  
ATOM     30  O   GLU A   1      -8.193   2.572  63.359  1.00  0.00    -0.079 OA 
ATOM     31  OXT GLU A   1      -9.926   1.765  64.575  1.00  0.00    -0.008 OA 
BRANCH  28  32
ATOM     32  CB  GLU A   1      -8.441   2.163  66.996  1.00  0.00    -0.102 C  
BRANCH  32  33
ATOM     33  CG  GLU A   1      -7.929   2.856  68.258  1.00  0.00    -0.066 C  
ATOM     34  CD  GLU A   1      -9.072   3.373  69.088  1.00  0.00    -0.142 C  
ATOM     35  OE1 GLU A   1      -9.504   2.497  70.019  1.00  0.00    -0.127 OA 
ATOM     36  OE2 GLU A   1      -9.588   4.468  68.919  1.00  0.00    -0.148 OA 
ENDBRANCH  32  33
ENDBRANCH  28  32
ENDBRANCH  26  28
ENDBRANCH  21  24
ENDBRANCH  17  18
ENDBRANCH  16  17
ENDBRANCH  15  16
TORSDOF 7
ENDMDL
MODEL      273
REMARK 921   NORMALIZED FREE ENERGY PREDICTED BY IDOCK:   -2.46 KCAL/MOL
REMARK 922        TOTAL FREE ENERGY PREDICTED BY IDOCK:   -6.11 KCAL/MOL
REMARK 923 INTER-LIGAND FREE ENERGY PREDICTED BY IDOCK:   -6.07 KCAL/MOL
REMARK 924 INTRA-LIGAND FREE ENERGY PREDICTED BY IDOCK:   -0.04 KCAL/MOL
REMARK 927      BINDING AFFINITY PREDICTED BY RF-SCORE:    0.00 PKD
ROOT
HETATM    1  N   UNK A   0     -13.063  14.625  72.591  1.00  0.00    -0.423 NA 
HETATM    2  H1  UNK A   0     -12.959  15.639  72.605  1.00  0.00     0.000 HD 
HETATM    3  C   UNK A   0     -12.747  13.908  71.483  1.00  0.00    -0.357 C  
HETATM    4  H2  UNK A   0     -13.408  14.144  73.422  1.00  0.00     0.000 HD 
HETATM    5  N   UNK A   0     -12.879  12.614  71.466  1.00  0.00    -0.328 N  
HETATM    6  H   UNK A   0     -13.241  12.126  72.285  1.00  0.00     0.000 HD 
HETATM    7  C   UNK A   0     -12.523  11.898  70.321  1.00  0.00    -0.121 C  
HETATM    8  C   UNK A   0     -11.971  12.691  69.219  1.00  0.00    -0.301 A  
HETATM    9  O   UNK A   0     -12.653  10.684  70.233  1.00  0.00    -0.324 OA 
HETATM   10  C   UNK A   0     -11.885  14.050  69.349  1.00  0.00    -0.333 A  
HETATM   11  N   UNK A   0     -11.320  14.595  68.244  1.00  0.00    -0.283 NA 
HETATM   12  N   UNK A   0     -12.287  14.689  70.455  1.00  0.00    -0.320 NA 
HETATM   13  H   UNK A   0     -11.142  15.587  68.088  1.00  0.00     0.000 HD 
HETATM   14  C   UNK A   0     -11.030  13.574  67.370  1.00  0.00    -0.272 A  
HETATM   15  C   UNK A   0     -11.421  12.368  67.941  1.00  0.00    -0.385 A  
ENDROOT
BRANCH  15  16
HETATM   16  C   UNK A   0     -11.230  11.009  67.347  1.00  0.00    -0.355 C  
BRANCH  16  17
HETATM   17  C   UNK A   0     -10.289  10.988  66.130  1.00  0.00    -0.306 C  
BRANCH  17  18
HETATM   18  C   UNK A   0      -9.480   9.708  66.012  1.00  0.00    -0.284 A  
HETATM   19  C   UNK A   0      -8.290   9.662  65.276  1.00  0.00    -0.139 A  
HETATM   20  C   UNK A   0      -7.621   8.455  65.073  1.00  0.00    -0.094 A  
HETATM   21  C   UNK A   0      -8.120   7.273  65.627  1.00  0.00    -0.133 A  
HETATM   22  C   UNK A   0      -9.232   7.322  66.470  1.00  0.00    -0.195 A  
HETATM   23  C   UNK A   0      -9.911   8.535  66.657  1.00  0.00    -0.342 A  
BRANCH  21  24
HETATM   24  C   UNK A   0      -7.507   5.965  65.264  1.00  0.00    -0.082 C  
HETATM   25  O   UNK A   0      -6.935   5.769  64.199  1.00  0.00    -0.048 OA 
ATOM     26  N   GLU A   1      -7.603   4.993  66.240  1.00  0.00    -0.087 N  
ATOM     27  H   GLU A   1      -8.085   5.210  67.112  1.00  0.00     0.000 HD 
BRANCH  26  28
ATOM     28  CA  GLU A   1      -7.034   3.666  66.055  1.00  0.00    -0.062 C  
ATOM     29  C   GLU A   1      -8.173   2.642  65.974  1.00  0.00    -0.087 C  
ATOM     30  O   GLU A   1      -8.631   2.446  64.717  1.00  0.00    -0.089 OA 
ATOM     31  OXT GLU A   1      -8.645   2.057  66.949  1.00  0.00    -0.096 OA 
BRANCH  28  32
ATOM     32  CB  GLU A   1      -6.080   3.316  67.205  1.00  0.00    -0.028 C  
BRANCH  32  33
ATOM     33  CG  GLU A   1      -6.780   3.382  68.562  1.00  0.00    -0.045 C  
ATOM     34  CD  GLU A   1      -6.726   4.775  69.126  1.00  0.00    -0.049 C  
ATOM     35  OE1 GLU A   1      -7.791   5.535  68.795  1.00  0.00    -0.092 OA 
ATOM     36  OE2 GLU A   1      -5.793   5.198  69.794  1.00  0.00    -0.015 OA 
ENDBRANCH  32  33
ENDBRANCH  28  32
ENDBRANCH  26  28
ENDBRANCH  21  24
ENDBRANCH  17  18
ENDBRANCH  16  17
ENDBRANCH  15  16
TORSDOF 7
ENDMDL
MODEL      274
REMARK 921   NORMALIZED FREE ENERGY PREDICTED BY IDOCK:   -2.45 KCAL/MOL
REMARK 922        TOTAL FREE ENERGY PREDICTED BY IDOCK:   -6.10 KCAL/MOL
REMARK 923 INTER-LIGAND FREE ENERGY PREDICTED BY IDOCK:   -4.98 KCAL/MOL
REMARK 924 INTRA-LIGAND FREE ENERGY PREDICTED BY IDOCK:   -1.12 KCAL/MOL
REMARK 927      BINDING AFFINITY PREDICTED BY RF-SCORE:    0.00 PKD
ROOT
HETATM    1  N   UNK A   0      -5.129  10.191  70.811  1.00  0.00    -0.044 NA 
HETATM    2  H1  UNK A   0      -4.921  10.280  71.805  1.00  0.00     0.000 HD 
HETATM    3  C   UNK A   0      -5.632  11.239  70.109  1.00  0.00    -0.109 C  
HETATM    4  H2  UNK A   0      -4.957   9.304  70.338  1.00  0.00     0.000 HD 
HETATM    5  N   UNK A   0      -5.897  11.126  68.841  1.00  0.00    -0.040 N  
HETATM    6  H   UNK A   0      -5.745  10.237  68.363  1.00  0.00     0.000 HD 
HETATM    7  C   UNK A   0      -6.390  12.227  68.137  1.00  0.00    -0.062 C  
HETATM    8  C   UNK A   0      -6.526  13.467  68.906  1.00  0.00    -0.102 A  
HETATM    9  O   UNK A   0      -6.687  12.174  66.950  1.00  0.00    -0.110 OA 
HETATM   10  C   UNK A   0      -6.221  13.464  70.240  1.00  0.00    -0.034 A  
HETATM   11  N   UNK A   0      -6.378  14.705  70.763  1.00  0.00    -0.195 NA 
HETATM   12  N   UNK A   0      -5.798  12.364  70.874  1.00  0.00    -0.322 NA 
HETATM   13  H   UNK A   0      -6.216  14.973  71.733  1.00  0.00     0.000 HD 
HETATM   14  C   UNK A   0      -6.796  15.540  69.753  1.00  0.00    -0.146 A  
HETATM   15  C   UNK A   0      -6.901  14.805  68.576  1.00  0.00    -0.107 A  
ENDROOT
BRANCH  15  16
HETATM   16  C   UNK A   0      -7.267  15.344  67.230  1.00  0.00    -0.229 C  
BRANCH  16  17
HETATM   17  C   UNK A   0      -8.775  15.580  67.043  1.00  0.00    -0.258 C  
BRANCH  17  18
HETATM   18  C   UNK A   0      -9.627  14.379  67.417  1.00  0.00    -0.216 A  
HETATM   19  C   UNK A   0     -10.603  14.458  68.418  1.00  0.00    -0.248 A  
HETATM   20  C   UNK A   0     -11.292  13.321  68.836  1.00  0.00    -0.333 A  
HETATM   21  C   UNK A   0     -11.034  12.083  68.241  1.00  0.00    -0.275 A  
HETATM   22  C   UNK A   0     -10.159  12.009  67.155  1.00  0.00    -0.217 A  
HETATM   23  C   UNK A   0      -9.455  13.153  66.749  1.00  0.00    -0.252 A  
BRANCH  21  24
HETATM   24  C   UNK A   0     -11.638  10.844  68.806  1.00  0.00    -0.309 C  
HETATM   25  O   UNK A   0     -12.264  10.039  68.129  1.00  0.00     0.783 OA 
ATOM     26  N   GLU A   1     -11.407  10.654  70.154  1.00  0.00    -0.308 N  
ATOM     27  H   GLU A   1     -10.872  11.353  70.671  1.00  0.00     0.000 HD 
BRANCH  26  28
ATOM     28  CA  GLU A   1     -11.905   9.481  70.857  1.00  0.00    -0.309 C  
ATOM     29  C   GLU A   1     -13.292   9.796  71.430  1.00  0.00    -0.371 C  
ATOM     30  O   GLU A   1     -14.304   9.517  70.577  1.00  0.00     0.362 OA 
ATOM     31  OXT GLU A   1     -13.484  10.269  72.550  1.00  0.00    -0.195 OA 
BRANCH  28  32
ATOM     32  CB  GLU A   1     -10.943   9.066  71.978  1.00  0.00    -0.355 C  
BRANCH  32  33
ATOM     33  CG  GLU A   1      -9.984   7.967  71.524  1.00  0.00    -0.225 C  
ATOM     34  CD  GLU A   1     -10.740   6.748  71.072  1.00  0.00    -0.231 C  
ATOM     35  OE1 GLU A   1     -11.014   6.740  69.751  1.00  0.00    -0.257 OA 
ATOM     36  OE2 GLU A   1     -11.105   5.860  71.829  1.00  0.00    -0.263 OA 
ENDBRANCH  32  33
ENDBRANCH  28  32
ENDBRANCH  26  28
ENDBRANCH  21  24
ENDBRANCH  17  18
ENDBRANCH  16  17
ENDBRANCH  15  16
TORSDOF 7
ENDMDL
MODEL      275
REMARK 921   NORMALIZED FREE ENERGY PREDICTED BY IDOCK:   -2.45 KCAL/MOL
REMARK 922        TOTAL FREE ENERGY PREDICTED BY IDOCK:   -6.10 KCAL/MOL
REMARK 923 INTER-LIGAND FREE ENERGY PREDICTED BY IDOCK:   -6.02 KCAL/MOL
REMARK 924 INTRA-LIGAND FREE ENERGY PREDICTED BY IDOCK:   -0.08 KCAL/MOL
REMARK 927      BINDING AFFINITY PREDICTED BY RF-SCORE:    0.00 PKD
ROOT
HETATM    1  N   UNK A   0      -5.262  15.452  70.175  1.00  0.00    -0.116 NA 
HETATM    2  H1  UNK A   0      -5.347  15.229  71.166  1.00  0.00     0.000 HD 
HETATM    3  C   UNK A   0      -6.362  15.529  69.383  1.00  0.00    -0.138 C  
HETATM    4  H2  UNK A   0      -4.339  15.619  69.774  1.00  0.00     0.000 HD 
HETATM    5  N   UNK A   0      -6.254  15.814  68.119  1.00  0.00    -0.114 N  
HETATM    6  H   UNK A   0      -5.334  15.964  67.704  1.00  0.00     0.000 HD 
HETATM    7  C   UNK A   0      -7.403  15.912  67.331  1.00  0.00    -0.193 C  
HETATM    8  C   UNK A   0      -8.676  15.725  68.035  1.00  0.00    -0.171 A  
HETATM    9  O   UNK A   0      -7.365  16.147  66.130  1.00  0.00     0.062 OA 
HETATM   10  C   UNK A   0      -8.665  15.423  69.369  1.00  0.00    -0.252 A  
HETATM   11  N   UNK A   0      -9.932  15.323  69.840  1.00  0.00    -0.452 NA 
HETATM   12  N   UNK A   0      -7.528  15.294  70.063  1.00  0.00    -0.037 NA 
HETATM   13  H   UNK A   0     -10.200  15.107  70.800  1.00  0.00     0.000 HD 
HETATM   14  C   UNK A   0     -10.792  15.562  68.795  1.00  0.00    -0.256 A  
HETATM   15  C   UNK A   0     -10.047  15.818  67.649  1.00  0.00    -0.247 A  
ENDROOT
BRANCH  15  16
HETATM   16  C   UNK A   0     -10.594  16.184  66.306  1.00  0.00    -0.276 C  
BRANCH  16  17
HETATM   17  C   UNK A   0     -11.283  15.018  65.575  1.00  0.00    -0.344 C  
BRANCH  17  18
HETATM   18  C   UNK A   0     -10.991  13.661  66.191  1.00  0.00    -0.285 A  
HETATM   19  C   UNK A   0     -11.945  12.989  66.965  1.00  0.00    -0.409 A  
HETATM   20  C   UNK A   0     -11.625  11.803  67.625  1.00  0.00    -0.364 A  
HETATM   21  C   UNK A   0     -10.346  11.254  67.501  1.00  0.00    -0.224 A  
HETATM   22  C   UNK A   0      -9.424  11.840  66.632  1.00  0.00    -0.215 A  
HETATM   23  C   UNK A   0      -9.745  13.041  65.984  1.00  0.00    -0.223 A  
BRANCH  21  24
HETATM   24  C   UNK A   0      -9.952  10.090  68.344  1.00  0.00    -0.160 C  
HETATM   25  O   UNK A   0      -9.845  10.154  69.562  1.00  0.00    -0.215 OA 
ATOM     26  N   GLU A   1      -9.747   8.916  67.646  1.00  0.00    -0.154 N  
ATOM     27  H   GLU A   1      -9.856   8.916  66.632  1.00  0.00     0.000 HD 
BRANCH  26  28
ATOM     28  CA  GLU A   1      -9.382   7.680  68.321  1.00  0.00    -0.145 C  
ATOM     29  C   GLU A   1     -10.660   6.945  68.741  1.00  0.00    -0.220 C  
ATOM     30  O   GLU A   1     -11.132   6.101  67.796  1.00  0.00    -0.326 OA 
ATOM     31  OXT GLU A   1     -11.223   7.105  69.825  1.00  0.00    -0.243 OA 
BRANCH  28  32
ATOM     32  CB  GLU A   1      -8.501   7.965  69.545  1.00  0.00    -0.133 C  
BRANCH  32  33
ATOM     33  CG  GLU A   1      -7.064   7.494  69.331  1.00  0.00    -0.073 C  
ATOM     34  CD  GLU A   1      -6.089   8.415  70.012  1.00  0.00    -0.031 C  
ATOM     35  OE1 GLU A   1      -5.783   8.043  71.273  1.00  0.00    -0.034 OA 
ATOM     36  OE2 GLU A   1      -5.640   9.426  69.493  1.00  0.00    -0.034 OA 
ENDBRANCH  32  33
ENDBRANCH  28  32
ENDBRANCH  26  28
ENDBRANCH  21  24
ENDBRANCH  17  18
ENDBRANCH  16  17
ENDBRANCH  15  16
TORSDOF 7
ENDMDL
MODEL      276
REMARK 921   NORMALIZED FREE ENERGY PREDICTED BY IDOCK:   -2.40 KCAL/MOL
REMARK 922        TOTAL FREE ENERGY PREDICTED BY IDOCK:   -6.03 KCAL/MOL
REMARK 923 INTER-LIGAND FREE ENERGY PREDICTED BY IDOCK:   -4.90 KCAL/MOL
REMARK 924 INTRA-LIGAND FREE ENERGY PREDICTED BY IDOCK:   -1.13 KCAL/MOL
REMARK 927      BINDING AFFINITY PREDICTED BY RF-SCORE:    0.00 PKD
ROOT
HETATM    1  N   UNK A   0      -5.565  11.042  70.663  1.00  0.00    -0.125 NA 
HETATM    2  H1  UNK A   0      -4.793  11.701  70.761  1.00  0.00     0.000 HD 
HETATM    3  C   UNK A   0      -6.658  11.356  69.922  1.00  0.00    -0.081 C  
HETATM    4  H2  UNK A   0      -5.514  10.135  71.128  1.00  0.00     0.000 HD 
HETATM    5  N   UNK A   0      -7.642  10.515  69.797  1.00  0.00    -0.297 N  
HETATM    6  H   UNK A   0      -7.609   9.613  70.273  1.00  0.00     0.000 HD 
HETATM    7  C   UNK A   0      -8.745  10.852  69.008  1.00  0.00    -0.100 C  
HETATM    8  C   UNK A   0      -8.670  12.150  68.331  1.00  0.00    -0.141 A  
HETATM    9  O   UNK A   0      -9.714  10.117  68.876  1.00  0.00    -0.169 OA 
HETATM   10  C   UNK A   0      -7.584  12.955  68.543  1.00  0.00    -0.120 A  
HETATM   11  N   UNK A   0      -7.686  14.089  67.807  1.00  0.00    -0.155 NA 
HETATM   12  N   UNK A   0      -6.577  12.598  69.350  1.00  0.00    -0.098 NA 
HETATM   13  H   UNK A   0      -7.009  14.852  67.784  1.00  0.00     0.000 HD 
HETATM   14  C   UNK A   0      -8.862  14.029  67.098  1.00  0.00    -0.228 A  
HETATM   15  C   UNK A   0      -9.507  12.833  67.397  1.00  0.00    -0.190 A  
ENDROOT
BRANCH  15  16
HETATM   16  C   UNK A   0     -10.787  12.348  66.795  1.00  0.00    -0.283 C  
BRANCH  16  17
HETATM   17  C   UNK A   0     -10.638  11.817  65.360  1.00  0.00    -0.325 C  
BRANCH  17  18
HETATM   18  C   UNK A   0      -9.913  10.484  65.279  1.00  0.00    -0.364 A  
HETATM   19  C   UNK A   0      -8.913  10.253  64.326  1.00  0.00    -0.261 A  
HETATM   20  C   UNK A   0      -8.342   8.989  64.182  1.00  0.00    -0.178 A  
HETATM   21  C   UNK A   0      -8.744   7.937  65.009  1.00  0.00     0.070 A  
HETATM   22  C   UNK A   0      -9.644   8.182  66.048  1.00  0.00    -0.113 A  
HETATM   23  C   UNK A   0     -10.229   9.450  66.178  1.00  0.00    -0.264 A  
BRANCH  21  24
HETATM   24  C   UNK A   0      -8.265   6.553  64.738  1.00  0.00    -0.073 C  
HETATM   25  O   UNK A   0      -7.123   6.301  64.373  1.00  0.00    -0.052 OA 
ATOM     26  N   GLU A   1      -9.202   5.564  64.965  1.00  0.00    -0.361 N  
ATOM     27  H   GLU A   1     -10.137   5.827  65.275  1.00  0.00     0.000 HD 
BRANCH  26  28
ATOM     28  CA  GLU A   1      -8.888   4.156  64.773  1.00  0.00    -0.135 C  
ATOM     29  C   GLU A   1      -9.591   3.657  63.505  1.00  0.00    -0.134 C  
ATOM     30  O   GLU A   1      -8.850   3.810  62.384  1.00  0.00    -0.084 OA 
ATOM     31  OXT GLU A   1     -10.723   3.174  63.488  1.00  0.00    -0.231 OA 
BRANCH  28  32
ATOM     32  CB  GLU A   1      -9.326   3.328  65.989  1.00  0.00    -0.124 C  
BRANCH  32  33
ATOM     33  CG  GLU A   1      -8.131   2.869  66.822  1.00  0.00    -0.084 C  
ATOM     34  CD  GLU A   1      -7.867   3.824  67.954  1.00  0.00    -0.073 C  
ATOM     35  OE1 GLU A   1      -8.501   3.496  69.099  1.00  0.00    -0.063 OA 
ATOM     36  OE2 GLU A   1      -7.172   4.823  67.845  1.00  0.00    -0.064 OA 
ENDBRANCH  32  33
ENDBRANCH  28  32
ENDBRANCH  26  28
ENDBRANCH  21  24
ENDBRANCH  17  18
ENDBRANCH  16  17
ENDBRANCH  15  16
TORSDOF 7
ENDMDL
MODEL      277
REMARK 921   NORMALIZED FREE ENERGY PREDICTED BY IDOCK:   -2.29 KCAL/MOL
REMARK 922        TOTAL FREE ENERGY PREDICTED BY IDOCK:   -5.87 KCAL/MOL
REMARK 923 INTER-LIGAND FREE ENERGY PREDICTED BY IDOCK:   -4.75 KCAL/MOL
REMARK 924 INTRA-LIGAND FREE ENERGY PREDICTED BY IDOCK:   -1.13 KCAL/MOL
REMARK 927      BINDING AFFINITY PREDICTED BY RF-SCORE:    0.00 PKD
ROOT
HETATM    1  N   UNK A   0      -8.991  17.991  68.451  1.00  0.00    -0.275 NA 
HETATM    2  H1  UNK A   0      -9.717  18.483  67.931  1.00  0.00     0.000 HD 
HETATM    3  C   UNK A   0      -8.875  16.641  68.375  1.00  0.00    -0.226 C  
HETATM    4  H2  UNK A   0      -8.343  18.521  69.034  1.00  0.00     0.000 HD 
HETATM    5  N   UNK A   0      -7.948  16.014  69.038  1.00  0.00    -0.213 N  
HETATM    6  H   UNK A   0      -7.308  16.533  69.639  1.00  0.00     0.000 HD 
HETATM    7  C   UNK A   0      -7.835  14.626  68.924  1.00  0.00    -0.148 C  
HETATM    8  C   UNK A   0      -8.774  13.984  67.999  1.00  0.00    -0.180 A  
HETATM    9  O   UNK A   0      -7.004  13.976  69.546  1.00  0.00    -0.094 OA 
HETATM   10  C   UNK A   0      -9.711  14.748  67.359  1.00  0.00    -0.214 A  
HETATM   11  N   UNK A   0     -10.457  13.980  66.527  1.00  0.00    -0.278 NA 
HETATM   12  N   UNK A   0      -9.804  16.070  67.545  1.00  0.00    -0.233 NA 
HETATM   13  H   UNK A   0     -11.222  14.305  65.936  1.00  0.00     0.000 HD 
HETATM   14  C   UNK A   0     -10.002  12.687  66.623  1.00  0.00    -0.242 A  
HETATM   15  C   UNK A   0      -8.950  12.646  67.532  1.00  0.00    -0.187 A  
ENDROOT
BRANCH  15  16
HETATM   16  C   UNK A   0      -8.134  11.443  67.884  1.00  0.00    -0.126 C  
BRANCH  16  17
HETATM   17  C   UNK A   0      -8.351  10.942  69.322  1.00  0.00    -0.023 C  
BRANCH  17  18
HETATM   18  C   UNK A   0      -8.821   9.500  69.397  1.00  0.00    -0.172 A  
HETATM   19  C   UNK A   0      -8.891   8.817  70.618  1.00  0.00    -0.212 A  
HETATM   20  C   UNK A   0      -9.206   7.459  70.660  1.00  0.00    -0.157 A  
HETATM   21  C   UNK A   0      -9.481   6.764  69.480  1.00  0.00    -0.148 A  
HETATM   22  C   UNK A   0      -9.542   7.457  68.268  1.00  0.00    -0.153 A  
HETATM   23  C   UNK A   0      -9.208   8.818  68.229  1.00  0.00    -0.143 A  
BRANCH  21  24
HETATM   24  C   UNK A   0      -9.641   5.283  69.508  1.00  0.00    -0.152 C  
HETATM   25  O   UNK A   0     -10.364   4.705  70.310  1.00  0.00    -0.202 OA 
ATOM     26  N   GLU A   1      -8.934   4.607  68.532  1.00  0.00    -0.105 N  
ATOM     27  H   GLU A   1      -8.351   5.138  67.884  1.00  0.00     0.000 HD 
BRANCH  26  28
ATOM     28  CA  GLU A   1      -9.000   3.160  68.405  1.00  0.00    -0.138 C  
ATOM     29  C   GLU A   1      -7.795   2.541  69.123  1.00  0.00    -0.045 C  
ATOM     30  O   GLU A   1      -8.024   2.276  70.430  1.00  0.00    -0.042 OA 
ATOM     31  OXT GLU A   1      -6.713   2.312  68.583  1.00  0.00    -0.029 OA 
BRANCH  28  32
ATOM     32  CB  GLU A   1      -9.017   2.741  66.929  1.00  0.00    -0.171 C  
BRANCH  32  33
ATOM     33  CG  GLU A   1      -8.199   3.695  66.060  1.00  0.00    -0.101 C  
ATOM     34  CD  GLU A   1      -9.085   4.438  65.098  1.00  0.00    -0.148 C  
ATOM     35  OE1 GLU A   1      -9.532   5.619  65.575  1.00  0.00    -0.043 OA 
ATOM     36  OE2 GLU A   1      -9.402   4.004  64.000  1.00  0.00    -0.144 OA 
ENDBRANCH  32  33
ENDBRANCH  28  32
ENDBRANCH  26  28
ENDBRANCH  21  24
ENDBRANCH  17  18
ENDBRANCH  16  17
ENDBRANCH  15  16
TORSDOF 7
ENDMDL
MODEL      278
REMARK 921   NORMALIZED FREE ENERGY PREDICTED BY IDOCK:   -2.22 KCAL/MOL
REMARK 922        TOTAL FREE ENERGY PREDICTED BY IDOCK:   -5.77 KCAL/MOL
REMARK 923 INTER-LIGAND FREE ENERGY PREDICTED BY IDOCK:   -4.13 KCAL/MOL
REMARK 924 INTRA-LIGAND FREE ENERGY PREDICTED BY IDOCK:   -1.64 KCAL/MOL
REMARK 927      BINDING AFFINITY PREDICTED BY RF-SCORE:    0.00 PKD
ROOT
HETATM    1  N   UNK A   0      -9.522   2.047  70.265  1.00  0.00    -0.104 NA 
HETATM    2  H1  UNK A   0     -10.240   1.325  70.209  1.00  0.00     0.000 HD 
HETATM    3  C   UNK A   0      -9.040   2.638  69.141  1.00  0.00    -0.127 C  
HETATM    4  H2  UNK A   0      -9.162   2.330  71.177  1.00  0.00     0.000 HD 
HETATM    5  N   UNK A   0      -8.125   3.559  69.213  1.00  0.00    -0.053 N  
HETATM    6  H   UNK A   0      -7.745   3.835  70.119  1.00  0.00     0.000 HD 
HETATM    7  C   UNK A   0      -7.664   4.169  68.044  1.00  0.00    -0.071 C  
HETATM    8  C   UNK A   0      -8.308   3.733  66.801  1.00  0.00    -0.103 A  
HETATM    9  O   UNK A   0      -6.783   5.019  68.044  1.00  0.00    -0.051 OA 
HETATM   10  C   UNK A   0      -9.258   2.749  66.849  1.00  0.00    -0.115 A  
HETATM   11  N   UNK A   0      -9.755   2.512  65.610  1.00  0.00    -0.343 NA 
HETATM   12  N   UNK A   0      -9.626   2.166  67.996  1.00  0.00    -0.144 NA 
HETATM   13  H   UNK A   0     -10.473   1.828  65.372  1.00  0.00     0.000 HD 
HETATM   14  C   UNK A   0      -9.119   3.357  64.731  1.00  0.00    -0.136 A  
HETATM   15  C   UNK A   0      -8.207   4.136  65.435  1.00  0.00    -0.105 A  
ENDROOT
BRANCH  15  16
HETATM   16  C   UNK A   0      -7.352   5.223  64.866  1.00  0.00    -0.067 C  
BRANCH  16  17
HETATM   17  C   UNK A   0      -8.137   6.284  64.076  1.00  0.00    -0.058 C  
BRANCH  17  18
HETATM   18  C   UNK A   0      -8.397   7.556  64.864  1.00  0.00    -0.045 A  
HETATM   19  C   UNK A   0      -8.302   8.819  64.265  1.00  0.00    -0.158 A  
HETATM   20  C   UNK A   0      -8.422   9.981  65.025  1.00  0.00    -0.167 A  
HETATM   21  C   UNK A   0      -8.665   9.901  66.398  1.00  0.00    -0.144 A  
HETATM   22  C   UNK A   0      -8.891   8.656  66.988  1.00  0.00    -0.143 A  
HETATM   23  C   UNK A   0      -8.753   7.489  66.223  1.00  0.00    -0.165 A  
BRANCH  21  24
HETATM   24  C   UNK A   0      -8.616  11.133  67.236  1.00  0.00    -0.140 C  
HETATM   25  O   UNK A   0      -9.608  11.801  67.497  1.00  0.00    -0.173 OA 
ATOM     26  N   GLU A   1      -7.365  11.446  67.727  1.00  0.00    -0.094 N  
ATOM     27  H   GLU A   1      -6.572  10.851  67.484  1.00  0.00     0.000 HD 
BRANCH  26  28
ATOM     28  CA  GLU A   1      -7.148  12.603  68.583  1.00  0.00    -0.096 C  
ATOM     29  C   GLU A   1      -6.571  13.746  67.739  1.00  0.00    -0.172 C  
ATOM     30  O   GLU A   1      -7.517  14.536  67.183  1.00  0.00    -0.153 OA 
ATOM     31  OXT GLU A   1      -5.367  13.933  67.564  1.00  0.00    -0.333 OA 
BRANCH  28  32
ATOM     32  CB  GLU A   1      -6.198  12.257  69.738  1.00  0.00    -0.125 C  
BRANCH  32  33
ATOM     33  CG  GLU A   1      -5.741  10.801  69.680  1.00  0.00    -0.044 C  
ATOM     34  CD  GLU A   1      -6.502   9.960  70.668  1.00  0.00    -0.106 C  
ATOM     35  OE1 GLU A   1      -7.614   9.394  70.155  1.00  0.00    -0.094 OA 
ATOM     36  OE2 GLU A   1      -6.169   9.825  71.837  1.00  0.00    -0.301 OA 
ENDBRANCH  32  33
ENDBRANCH  28  32
ENDBRANCH  26  28
ENDBRANCH  21  24
ENDBRANCH  17  18
ENDBRANCH  16  17
ENDBRANCH  15  16
TORSDOF 7
ENDMDL
MODEL      279
REMARK 921   NORMALIZED FREE ENERGY PREDICTED BY IDOCK:   -2.15 KCAL/MOL
REMARK 922        TOTAL FREE ENERGY PREDICTED BY IDOCK:   -5.67 KCAL/MOL
REMARK 923 INTER-LIGAND FREE ENERGY PREDICTED BY IDOCK:   -5.12 KCAL/MOL
REMARK 924 INTRA-LIGAND FREE ENERGY PREDICTED BY IDOCK:   -0.55 KCAL/MOL
REMARK 927      BINDING AFFINITY PREDICTED BY RF-SCORE:    0.00 PKD
ROOT
HETATM    1  N   UNK A   0      -9.232   2.457  67.505  1.00  0.00    -0.259 NA 
HETATM    2  H1  UNK A   0      -9.755   1.600  67.682  1.00  0.00     0.000 HD 
HETATM    3  C   UNK A   0      -9.090   3.398  68.475  1.00  0.00    -0.151 C  
HETATM    4  H2  UNK A   0      -8.811   2.610  66.589  1.00  0.00     0.000 HD 
HETATM    5  N   UNK A   0      -8.423   4.491  68.249  1.00  0.00    -0.093 N  
HETATM    6  H   UNK A   0      -8.013   4.661  67.331  1.00  0.00     0.000 HD 
HETATM    7  C   UNK A   0      -8.270   5.431  69.272  1.00  0.00    -0.093 C  
HETATM    8  C   UNK A   0      -8.856   5.067  70.565  1.00  0.00    -0.148 A  
HETATM    9  O   UNK A   0      -7.680   6.492  69.112  1.00  0.00    -0.098 OA 
HETATM   10  C   UNK A   0      -9.543   3.889  70.681  1.00  0.00    -0.189 A  
HETATM   11  N   UNK A   0      -9.976   3.720  71.954  1.00  0.00    -0.176 NA 
HETATM   12  N   UNK A   0      -9.698   3.048  69.651  1.00  0.00    -0.008 NA 
HETATM   13  H   UNK A   0     -10.511   2.925  72.305  1.00  0.00     0.000 HD 
HETATM   14  C   UNK A   0      -9.568   4.808  72.689  1.00  0.00    -0.135 A  
HETATM   15  C   UNK A   0      -8.865   5.673  71.857  1.00  0.00    -0.137 A  
ENDROOT
BRANCH  15  16
HETATM   16  C   UNK A   0      -8.199   6.947  72.272  1.00  0.00    -0.104 C  
BRANCH  16  17
HETATM   17  C   UNK A   0      -9.073   8.197  72.081  1.00  0.00    -0.249 C  
BRANCH  17  18
HETATM   18  C   UNK A   0      -8.948   8.819  70.700  1.00  0.00    -0.219 A  
HETATM   19  C   UNK A   0     -10.045   8.900  69.833  1.00  0.00    -0.204 A  
HETATM   20  C   UNK A   0      -9.891   9.359  68.526  1.00  0.00    -0.171 A  
HETATM   21  C   UNK A   0      -8.636   9.770  68.069  1.00  0.00    -0.122 A  
HETATM   22  C   UNK A   0      -7.559   9.818  68.957  1.00  0.00    -0.082 A  
HETATM   23  C   UNK A   0      -7.716   9.339  70.266  1.00  0.00    -0.133 A  
BRANCH  21  24
HETATM   24  C   UNK A   0      -8.438  10.090  66.627  1.00  0.00    -0.125 C  
HETATM   25  O   UNK A   0      -7.611  10.903  66.232  1.00  0.00    -0.142 OA 
ATOM     26  N   GLU A   1      -9.238   9.371  65.761  1.00  0.00    -0.201 N  
ATOM     27  H   GLU A   1      -9.906   8.701  66.143  1.00  0.00     0.000 HD 
BRANCH  26  28
ATOM     28  CA  GLU A   1      -9.151   9.544  64.319  1.00  0.00    -0.170 C  
ATOM     29  C   GLU A   1      -7.918   8.796  63.800  1.00  0.00    -0.157 C  
ATOM     30  O   GLU A   1      -8.168   7.509  63.469  1.00  0.00    -0.066 OA 
ATOM     31  OXT GLU A   1      -6.799   9.298  63.700  1.00  0.00    -0.090 OA 
BRANCH  28  32
ATOM     32  CB  GLU A   1      -9.070  11.032  63.952  1.00  0.00    -0.128 C  
BRANCH  32  33
ATOM     33  CG  GLU A   1     -10.456  11.656  63.804  1.00  0.00    -0.454 C  
ATOM     34  CD  GLU A   1     -10.629  12.810  64.754  1.00  0.00    -0.327 C  
ATOM     35  OE1 GLU A   1     -10.286  14.003  64.224  1.00  0.00    -0.222 OA 
ATOM     36  OE2 GLU A   1     -11.011  12.684  65.908  1.00  0.00    -0.268 OA 
ENDBRANCH  32  33
ENDBRANCH  28  32
ENDBRANCH  26  28
ENDBRANCH  21  24
ENDBRANCH  17  18
ENDBRANCH  16  17
ENDBRANCH  15  16
TORSDOF 7
ENDMDL
MODEL      280
REMARK 921   NORMALIZED FREE ENERGY PREDICTED BY IDOCK:   -2.09 KCAL/MOL
REMARK 922        TOTAL FREE ENERGY PREDICTED BY IDOCK:   -5.59 KCAL/MOL
REMARK 923 INTER-LIGAND FREE ENERGY PREDICTED BY IDOCK:   -6.74 KCAL/MOL
REMARK 924 INTRA-LIGAND FREE ENERGY PREDICTED BY IDOCK:    1.15 KCAL/MOL
REMARK 927      BINDING AFFINITY PREDICTED BY RF-SCORE:    0.00 PKD
ROOT
HETATM    1  N   UNK A   0      -9.291   4.974  64.740  1.00  0.00    -0.352 NA 
HETATM    2  H1  UNK A   0      -8.606   4.762  64.016  1.00  0.00     0.000 HD 
HETATM    3  C   UNK A   0      -9.208   6.121  65.463  1.00  0.00     0.154 C  
HETATM    4  H2  UNK A   0     -10.050   4.317  64.923  1.00  0.00     0.000 HD 
HETATM    5  N   UNK A   0     -10.083   6.391  66.386  1.00  0.00    -0.397 N  
HETATM    6  H   UNK A   0     -10.835   5.731  66.589  1.00  0.00     0.000 HD 
HETATM    7  C   UNK A   0      -9.989   7.589  67.099  1.00  0.00    -0.220 C  
HETATM    8  C   UNK A   0      -8.902   8.486  66.697  1.00  0.00    -0.157 A  
HETATM    9  O   UNK A   0     -10.763   7.886  67.999  1.00  0.00    -0.161 OA 
HETATM   10  C   UNK A   0      -8.037   8.090  65.713  1.00  0.00    -0.121 A  
HETATM   11  N   UNK A   0      -7.128   9.065  65.463  1.00  0.00    -0.080 NA 
HETATM   12  N   UNK A   0      -8.148   6.907  65.097  1.00  0.00    -0.131 NA 
HETATM   13  H   UNK A   0      -6.375   9.023  64.777  1.00  0.00     0.000 HD 
HETATM   14  C   UNK A   0      -7.401  10.122  66.300  1.00  0.00    -0.112 A  
HETATM   15  C   UNK A   0      -8.502   9.800  67.087  1.00  0.00    -0.125 A  
ENDROOT
BRANCH  15  16
HETATM   16  C   UNK A   0      -9.162  10.695  68.087  1.00  0.00    -0.148 C  
BRANCH  16  17
HETATM   17  C   UNK A   0     -10.047  11.785  67.458  1.00  0.00    -0.207 C  
BRANCH  17  18
HETATM   18  C   UNK A   0      -9.297  13.070  67.150  1.00  0.00    -0.230 A  
HETATM   19  C   UNK A   0      -8.036  13.330  67.700  1.00  0.00    -0.176 A  
HETATM   20  C   UNK A   0      -7.413  14.562  67.508  1.00  0.00    -0.216 A  
HETATM   21  C   UNK A   0      -8.032  15.551  66.739  1.00  0.00    -0.214 A  
HETATM   22  C   UNK A   0      -9.228  15.263  66.078  1.00  0.00    -0.308 A  
HETATM   23  C   UNK A   0      -9.859  14.028  66.287  1.00  0.00    -0.318 A  
BRANCH  21  24
HETATM   24  C   UNK A   0      -7.452  16.922  66.683  1.00  0.00    -0.268 C  
HETATM   25  O   UNK A   0      -6.267  17.154  66.890  1.00  0.00    -0.158 OA 
ATOM     26  N   GLU A   1      -8.349  17.915  66.341  1.00  0.00    -0.257 N  
ATOM     27  H   GLU A   1      -9.324  17.666  66.172  1.00  0.00     0.000 HD 
BRANCH  26  28
ATOM     28  CA  GLU A   1      -7.940  19.305  66.217  1.00  0.00    -0.308 C  
ATOM     29  C   GLU A   1      -6.471  19.356  65.782  1.00  0.00    -0.230 C  
ATOM     30  O   GLU A   1      -6.307  19.354  64.439  1.00  0.00    -0.417 OA 
ATOM     31  OXT GLU A   1      -5.521  19.381  66.563  1.00  0.00    -0.159 OA 
BRANCH  28  32
ATOM     32  CB  GLU A   1      -8.131  20.052  67.545  1.00  0.00    -0.351 C  
BRANCH  32  33
ATOM     33  CG  GLU A   1      -8.505  19.101  68.681  1.00  0.00    -0.397 C  
ATOM     34  CD  GLU A   1      -9.977  19.178  68.983  1.00  0.00    -0.357 C  
ATOM     35  OE1 GLU A   1     -10.718  18.284  68.295  1.00  0.00    -0.293 OA 
ATOM     36  OE2 GLU A   1     -10.466  19.993  69.750  1.00  0.00    -0.028 OA 
ENDBRANCH  32  33
ENDBRANCH  28  32
ENDBRANCH  26  28
ENDBRANCH  21  24
ENDBRANCH  17  18
ENDBRANCH  16  17
ENDBRANCH  15  16
TORSDOF 7
ENDMDL
MODEL      281
REMARK 921   NORMALIZED FREE ENERGY PREDICTED BY IDOCK:   -2.05 KCAL/MOL
REMARK 922        TOTAL FREE ENERGY PREDICTED BY IDOCK:   -5.53 KCAL/MOL
REMARK 923 INTER-LIGAND FREE ENERGY PREDICTED BY IDOCK:   -3.94 KCAL/MOL
REMARK 924 INTRA-LIGAND FREE ENERGY PREDICTED BY IDOCK:   -1.59 KCAL/MOL
REMARK 927      BINDING AFFINITY PREDICTED BY RF-SCORE:    0.00 PKD
ROOT
HETATM    1  N   UNK A   0      -9.480   2.002  70.364  1.00  0.00    -0.111 NA 
HETATM    2  H1  UNK A   0     -10.150   1.234  70.402  1.00  0.00     0.000 HD 
HETATM    3  C   UNK A   0      -8.924   2.383  69.185  1.00  0.00    -0.111 C  
HETATM    4  H2  UNK A   0      -9.225   2.490  71.223  1.00  0.00     0.000 HD 
HETATM    5  N   UNK A   0      -8.070   3.363  69.137  1.00  0.00    -0.056 N  
HETATM    6  H   UNK A   0      -7.794   3.845  69.993  1.00  0.00     0.000 HD 
HETATM    7  C   UNK A   0      -7.532   3.751  67.908  1.00  0.00    -0.066 C  
HETATM    8  C   UNK A   0      -8.030   3.026  66.736  1.00  0.00    -0.080 A  
HETATM    9  O   UNK A   0      -6.701   4.645  67.802  1.00  0.00    -0.048 OA 
HETATM   10  C   UNK A   0      -8.927   2.007  66.911  1.00  0.00    -0.114 A  
HETATM   11  N   UNK A   0      -9.289   1.487  65.713  1.00  0.00    -0.323 NA 
HETATM   12  N   UNK A   0      -9.372   1.646  68.121  1.00  0.00    -0.180 NA 
HETATM   13  H   UNK A   0      -9.944   0.719  65.565  1.00  0.00     0.000 HD 
HETATM   14  C   UNK A   0      -8.617   2.177  64.731  1.00  0.00    -0.100 A  
HETATM   15  C   UNK A   0      -7.820   3.147  65.329  1.00  0.00    -0.082 A  
ENDROOT
BRANCH  15  16
HETATM   16  C   UNK A   0      -6.972   4.153  64.617  1.00  0.00    -0.050 C  
BRANCH  16  17
HETATM   17  C   UNK A   0      -7.746   5.012  63.603  1.00  0.00    -0.075 C  
BRANCH  17  18
HETATM   18  C   UNK A   0      -8.063   6.408  64.109  1.00  0.00    -0.052 A  
HETATM   19  C   UNK A   0      -8.157   7.499  63.235  1.00  0.00    -0.031 A  
HETATM   20  C   UNK A   0      -8.327   8.794  63.723  1.00  0.00    -0.140 A  
HETATM   21  C   UNK A   0      -8.431   9.019  65.099  1.00  0.00    -0.183 A  
HETATM   22  C   UNK A   0      -8.469   7.932  65.975  1.00  0.00    -0.145 A  
HETATM   23  C   UNK A   0      -8.281   6.633  65.480  1.00  0.00    -0.138 A  
BRANCH  21  24
HETATM   24  C   UNK A   0      -8.433  10.412  65.627  1.00  0.00    -0.165 C  
HETATM   25  O   UNK A   0      -8.673  11.389  64.929  1.00  0.00     0.074 OA 
ATOM     26  N   GLU A   1      -8.177  10.516  66.980  1.00  0.00    -0.123 N  
ATOM     27  H   GLU A   1      -7.990   9.669  67.517  1.00  0.00     0.000 HD 
BRANCH  26  28
ATOM     28  CA  GLU A   1      -8.167  11.803  67.659  1.00  0.00    -0.145 C  
ATOM     29  C   GLU A   1      -6.726  12.148  68.052  1.00  0.00    -0.073 C  
ATOM     30  O   GLU A   1      -6.055  12.828  67.096  1.00  0.00    -0.289 OA 
ATOM     31  OXT GLU A   1      -6.210  11.833  69.125  1.00  0.00    -0.068 OA 
BRANCH  28  32
ATOM     32  CB  GLU A   1      -9.069  11.772  68.900  1.00  0.00     0.104 C  
BRANCH  32  33
ATOM     33  CG  GLU A   1      -9.839  10.457  69.009  1.00  0.00    -0.222 C  
ATOM     34  CD  GLU A   1     -11.244  10.613  68.496  1.00  0.00    -0.282 C  
ATOM     35  OE1 GLU A   1     -11.377  10.319  67.185  1.00  0.00    -0.230 OA 
ATOM     36  OE2 GLU A   1     -12.175  11.002  69.185  1.00  0.00    -0.434 OA 
ENDBRANCH  32  33
ENDBRANCH  28  32
ENDBRANCH  26  28
ENDBRANCH  21  24
ENDBRANCH  17  18
ENDBRANCH  16  17
ENDBRANCH  15  16
TORSDOF 7
ENDMDL
MODEL      282
REMARK 921   NORMALIZED FREE ENERGY PREDICTED BY IDOCK:   -2.04 KCAL/MOL
REMARK 922        TOTAL FREE ENERGY PREDICTED BY IDOCK:   -5.52 KCAL/MOL
REMARK 923 INTER-LIGAND FREE ENERGY PREDICTED BY IDOCK:   -4.41 KCAL/MOL
REMARK 924 INTRA-LIGAND FREE ENERGY PREDICTED BY IDOCK:   -1.11 KCAL/MOL
REMARK 927      BINDING AFFINITY PREDICTED BY RF-SCORE:    0.00 PKD
ROOT
HETATM    1  N   UNK A   0      -8.431   2.127  69.527  1.00  0.00    -0.049 NA 
HETATM    2  H1  UNK A   0      -9.149   1.405  69.480  1.00  0.00     0.000 HD 
HETATM    3  C   UNK A   0      -8.019   2.771  68.404  1.00  0.00    -0.054 C  
HETATM    4  H2  UNK A   0      -8.017   2.369  70.427  1.00  0.00     0.000 HD 
HETATM    5  N   UNK A   0      -7.102   3.692  68.463  1.00  0.00    -0.050 N  
HETATM    6  H   UNK A   0      -6.669   3.927  69.357  1.00  0.00     0.000 HD 
HETATM    7  C   UNK A   0      -6.714   4.357  67.298  1.00  0.00    -0.047 C  
HETATM    8  C   UNK A   0      -7.432   3.976  66.078  1.00  0.00    -0.088 A  
HETATM    9  O   UNK A   0      -5.836   5.210  67.284  1.00  0.00    -0.023 OA 
HETATM   10  C   UNK A   0      -8.375   2.987  66.137  1.00  0.00    -0.098 A  
HETATM   11  N   UNK A   0      -8.946   2.805  64.921  1.00  0.00    -0.123 NA 
HETATM   12  N   UNK A   0      -8.672   2.350  67.276  1.00  0.00    -0.113 NA 
HETATM   13  H   UNK A   0      -9.676   2.130  64.695  1.00  0.00     0.000 HD 
HETATM   14  C   UNK A   0      -8.365   3.692  64.045  1.00  0.00    -0.090 A  
HETATM   15  C   UNK A   0      -7.414   4.442  64.728  1.00  0.00    -0.072 A  
ENDROOT
BRANCH  15  16
HETATM   16  C   UNK A   0      -6.596   5.558  64.159  1.00  0.00    -0.041 C  
BRANCH  16  17
HETATM   17  C   UNK A   0      -7.375   6.473  63.200  1.00  0.00    -0.066 C  
BRANCH  17  18
HETATM   18  C   UNK A   0      -7.905   7.734  63.862  1.00  0.00    -0.126 A  
HETATM   19  C   UNK A   0      -7.562   9.007  63.390  1.00  0.00    -0.107 A  
HETATM   20  C   UNK A   0      -7.954  10.154  64.079  1.00  0.00    -0.154 A  
HETATM   21  C   UNK A   0      -8.721  10.048  65.242  1.00  0.00    -0.182 A  
HETATM   22  C   UNK A   0      -9.180   8.796  65.655  1.00  0.00    -0.244 A  
HETATM   23  C   UNK A   0      -8.769   7.644  64.969  1.00  0.00     0.136 A  
BRANCH  21  24
HETATM   24  C   UNK A   0      -8.987  11.258  66.070  1.00  0.00    -0.200 C  
HETATM   25  O   UNK A   0      -8.125  11.807  66.746  1.00  0.00    -0.166 OA 
ATOM     26  N   GLU A   1     -10.279  11.738  65.991  1.00  0.00    -0.222 N  
ATOM     27  H   GLU A   1     -10.957  11.247  65.407  1.00  0.00     0.000 HD 
BRANCH  26  28
ATOM     28  CA  GLU A   1     -10.699  12.927  66.717  1.00  0.00    -0.261 C  
ATOM     29  C   GLU A   1     -11.443  12.498  67.987  1.00  0.00    -0.317 C  
ATOM     30  O   GLU A   1     -10.631  12.327  69.055  1.00  0.00    -0.175 OA 
ATOM     31  OXT GLU A   1     -12.658  12.310  68.044  1.00  0.00     0.200 OA 
BRANCH  28  32
ATOM     32  CB  GLU A   1     -11.597  13.813  65.843  1.00  0.00    -0.346 C  
BRANCH  32  33
ATOM     33  CG  GLU A   1     -10.825  14.428  64.677  1.00  0.00    -0.363 C  
ATOM     34  CD  GLU A   1     -10.266  15.773  65.053  1.00  0.00    -0.111 C  
ATOM     35  OE1 GLU A   1      -9.015  15.718  65.556  1.00  0.00    -0.146 OA 
ATOM     36  OE2 GLU A   1     -10.893  16.817  64.948  1.00  0.00    -0.707 OA 
ENDBRANCH  32  33
ENDBRANCH  28  32
ENDBRANCH  26  28
ENDBRANCH  21  24
ENDBRANCH  17  18
ENDBRANCH  16  17
ENDBRANCH  15  16
TORSDOF 7
ENDMDL
MODEL      283
REMARK 921   NORMALIZED FREE ENERGY PREDICTED BY IDOCK:   -1.94 KCAL/MOL
REMARK 922        TOTAL FREE ENERGY PREDICTED BY IDOCK:   -5.38 KCAL/MOL
REMARK 923 INTER-LIGAND FREE ENERGY PREDICTED BY IDOCK:   -5.76 KCAL/MOL
REMARK 924 INTRA-LIGAND FREE ENERGY PREDICTED BY IDOCK:    0.38 KCAL/MOL
REMARK 927      BINDING AFFINITY PREDICTED BY RF-SCORE:    0.00 PKD
ROOT
HETATM    1  N   UNK A   0      -6.326  11.703  70.307  1.00  0.00    -0.429 NA 
HETATM    2  H1  UNK A   0      -5.557  12.372  70.333  1.00  0.00     0.000 HD 
HETATM    3  C   UNK A   0      -7.386  11.896  69.481  1.00  0.00     0.293 C  
HETATM    4  H2  UNK A   0      -6.298  10.880  70.908  1.00  0.00     0.000 HD 
HETATM    5  N   UNK A   0      -8.367  11.042  69.446  1.00  0.00    -0.381 N  
HETATM    6  H   UNK A   0      -8.357  10.226  70.058  1.00  0.00     0.000 HD 
HETATM    7  C   UNK A   0      -9.434  11.251  68.569  1.00  0.00    -0.191 C  
HETATM    8  C   UNK A   0      -9.327  12.428  67.703  1.00  0.00    -0.188 A  
HETATM    9  O   UNK A   0     -10.400  10.501  68.513  1.00  0.00    -0.164 OA 
HETATM   10  C   UNK A   0      -8.247  13.259  67.833  1.00  0.00    -0.163 A  
HETATM   11  N   UNK A   0      -8.314  14.265  66.927  1.00  0.00    -0.400 NA 
HETATM   12  N   UNK A   0      -7.277  13.035  68.727  1.00  0.00    -0.100 NA 
HETATM   13  H   UNK A   0      -7.635  15.017  66.814  1.00  0.00     0.000 HD 
HETATM   14  C   UNK A   0      -9.460  14.092  66.187  1.00  0.00    -0.203 A  
HETATM   15  C   UNK A   0     -10.121  12.956  66.640  1.00  0.00    -0.247 A  
ENDROOT
BRANCH  15  16
HETATM   16  C   UNK A   0     -11.377  12.379  66.068  1.00  0.00    -0.397 C  
BRANCH  16  17
HETATM   17  C   UNK A   0     -11.281  12.042  64.570  1.00  0.00    -0.390 C  
BRANCH  17  18
HETATM   18  C   UNK A   0     -10.296  10.928  64.263  1.00  0.00    -0.436 A  
HETATM   19  C   UNK A   0      -9.706  10.802  62.998  1.00  0.00    -0.374 A  
HETATM   20  C   UNK A   0      -8.901   9.706  62.691  1.00  0.00    -0.254 A  
HETATM   21  C   UNK A   0      -8.649   8.726  63.655  1.00  0.00    -0.058 A  
HETATM   22  C   UNK A   0      -9.122   8.901  64.957  1.00  0.00    -0.110 A  
HETATM   23  C   UNK A   0      -9.946   9.996  65.256  1.00  0.00    -0.368 A  
BRANCH  21  24
HETATM   24  C   UNK A   0      -7.938   7.473  63.274  1.00  0.00    -0.093 C  
HETATM   25  O   UNK A   0      -7.146   7.413  62.342  1.00  0.00    -0.074 OA 
ATOM     26  N   GLU A   1      -8.215   6.386  64.079  1.00  0.00    -0.303 N  
ATOM     27  H   GLU A   1      -8.878   6.493  64.848  1.00  0.00     0.000 HD 
BRANCH  26  28
ATOM     28  CA  GLU A   1      -7.585   5.093  63.860  1.00  0.00    -0.069 C  
ATOM     29  C   GLU A   1      -6.063   5.263  63.922  1.00  0.00    -0.022 C  
ATOM     30  O   GLU A   1      -5.555   5.119  65.168  1.00  0.00    -0.013 OA 
ATOM     31  OXT GLU A   1      -5.357   5.519  62.947  1.00  0.00    -0.013 OA 
BRANCH  28  32
ATOM     32  CB  GLU A   1      -8.004   4.504  62.506  1.00  0.00    -0.068 C  
BRANCH  32  33
ATOM     33  CG  GLU A   1      -8.464   3.053  62.637  1.00  0.00    -0.074 C  
ATOM     34  CD  GLU A   1      -9.538   2.923  63.682  1.00  0.00    -0.109 C  
ATOM     35  OE1 GLU A   1     -10.789   3.036  63.188  1.00  0.00    -0.218 OA 
ATOM     36  OE2 GLU A   1      -9.307   2.763  64.871  1.00  0.00    -0.149 OA 
ENDBRANCH  32  33
ENDBRANCH  28  32
ENDBRANCH  26  28
ENDBRANCH  21  24
ENDBRANCH  17  18
ENDBRANCH  16  17
ENDBRANCH  15  16
TORSDOF 7
ENDMDL
MODEL      284
REMARK 921   NORMALIZED FREE ENERGY PREDICTED BY IDOCK:   -1.90 KCAL/MOL
REMARK 922        TOTAL FREE ENERGY PREDICTED BY IDOCK:   -5.32 KCAL/MOL
REMARK 923 INTER-LIGAND FREE ENERGY PREDICTED BY IDOCK:   -4.75 KCAL/MOL
REMARK 924 INTRA-LIGAND FREE ENERGY PREDICTED BY IDOCK:   -0.57 KCAL/MOL
REMARK 927      BINDING AFFINITY PREDICTED BY RF-SCORE:    0.00 PKD
ROOT
HETATM    1  N   UNK A   0     -12.556  10.510  69.462  1.00  0.00    -0.662 NA 
HETATM    2  H1  UNK A   0     -12.564  10.872  70.415  1.00  0.00     0.000 HD 
HETATM    3  C   UNK A   0     -11.397  10.427  68.759  1.00  0.00    -0.214 C  
HETATM    4  H2  UNK A   0     -13.429  10.205  69.032  1.00  0.00     0.000 HD 
HETATM    5  N   UNK A   0     -11.387   9.964  67.544  1.00  0.00    -0.309 N  
HETATM    6  H   UNK A   0     -12.258   9.674  67.099  1.00  0.00     0.000 HD 
HETATM    7  C   UNK A   0     -10.178   9.866  66.852  1.00  0.00    -0.240 C  
HETATM    8  C   UNK A   0      -8.981  10.265  67.599  1.00  0.00    -0.137 A  
HETATM    9  O   UNK A   0     -10.107   9.468  65.696  1.00  0.00    -0.285 OA 
HETATM   10  C   UNK A   0      -9.117  10.743  68.874  1.00  0.00    -0.164 A  
HETATM   11  N   UNK A   0      -7.901  11.024  69.403  1.00  0.00    -0.359 NA 
HETATM   12  N   UNK A   0     -10.309  10.860  69.470  1.00  0.00    -0.159 NA 
HETATM   13  H   UNK A   0      -7.724  11.392  70.338  1.00  0.00     0.000 HD 
HETATM   14  C   UNK A   0      -6.948  10.724  68.458  1.00  0.00    -0.068 A  
HETATM   15  C   UNK A   0      -7.582  10.247  67.316  1.00  0.00    -0.095 A  
ENDROOT
BRANCH  15  16
HETATM   16  C   UNK A   0      -6.908   9.754  66.075  1.00  0.00    -0.094 C  
BRANCH  16  17
HETATM   17  C   UNK A   0      -7.071   8.243  65.838  1.00  0.00    -0.071 C  
BRANCH  17  18
HETATM   18  C   UNK A   0      -7.086   7.427  67.119  1.00  0.00    -0.084 A  
HETATM   19  C   UNK A   0      -8.254   6.801  67.573  1.00  0.00    -0.122 A  
HETATM   20  C   UNK A   0      -8.287   6.159  68.810  1.00  0.00    -0.111 A  
HETATM   21  C   UNK A   0      -7.140   6.109  69.607  1.00  0.00    -0.073 A  
HETATM   22  C   UNK A   0      -5.934   6.613  69.114  1.00  0.00    -0.022 A  
HETATM   23  C   UNK A   0      -5.911   7.274  67.876  1.00  0.00    -0.034 A  
BRANCH  21  24
HETATM   24  C   UNK A   0      -7.222   5.581  70.997  1.00  0.00    -0.078 C  
HETATM   25  O   UNK A   0      -6.786   4.483  71.321  1.00  0.00    -0.030 OA 
ATOM     26  N   GLU A   1      -7.800   6.443  71.908  1.00  0.00    -0.100 N  
ATOM     27  H   GLU A   1      -8.141   7.350  71.587  1.00  0.00     0.000 HD 
BRANCH  26  28
ATOM     28  CA  GLU A   1      -7.934   6.092  73.314  1.00  0.00    -0.103 C  
ATOM     29  C   GLU A   1      -6.604   6.366  74.025  1.00  0.00    -0.070 C  
ATOM     30  O   GLU A   1      -6.503   7.623  74.514  1.00  0.00    -0.091 OA 
ATOM     31  OXT GLU A   1      -5.700   5.539  74.138  1.00  0.00    -0.043 OA 
BRANCH  28  32
ATOM     32  CB  GLU A   1      -8.334   4.619  73.473  1.00  0.00    -0.102 C  
BRANCH  32  33
ATOM     33  CG  GLU A   1      -9.529   4.454  74.410  1.00  0.00    -0.130 C  
ATOM     34  CD  GLU A   1     -10.823   4.530  73.648  1.00  0.00    -0.294 C  
ATOM     35  OE1 GLU A   1     -11.276   3.329  73.229  1.00  0.00    -0.168 OA 
ATOM     36  OE2 GLU A   1     -11.399   5.578  73.397  1.00  0.00    -0.234 OA 
ENDBRANCH  32  33
ENDBRANCH  28  32
ENDBRANCH  26  28
ENDBRANCH  21  24
ENDBRANCH  17  18
ENDBRANCH  16  17
ENDBRANCH  15  16
TORSDOF 7
ENDMDL
MODEL      285
REMARK 921   NORMALIZED FREE ENERGY PREDICTED BY IDOCK:   -1.89 KCAL/MOL
REMARK 922        TOTAL FREE ENERGY PREDICTED BY IDOCK:   -5.31 KCAL/MOL
REMARK 923 INTER-LIGAND FREE ENERGY PREDICTED BY IDOCK:   -4.60 KCAL/MOL
REMARK 924 INTRA-LIGAND FREE ENERGY PREDICTED BY IDOCK:   -0.71 KCAL/MOL
REMARK 927      BINDING AFFINITY PREDICTED BY RF-SCORE:    0.00 PKD
ROOT
HETATM    1  N   UNK A   0     -11.424  16.610  69.025  1.00  0.00    -0.190 NA 
HETATM    2  H1  UNK A   0     -12.416  16.651  69.256  1.00  0.00     0.000 HD 
HETATM    3  C   UNK A   0     -10.919  15.570  68.313  1.00  0.00    -0.305 C  
HETATM    4  H2  UNK A   0     -10.804  17.360  69.331  1.00  0.00     0.000 HD 
HETATM    5  N   UNK A   0      -9.654  15.517  68.017  1.00  0.00    -0.202 N  
HETATM    6  H   UNK A   0      -9.022  16.253  68.335  1.00  0.00     0.000 HD 
HETATM    7  C   UNK A   0      -9.164  14.449  67.263  1.00  0.00    -0.209 C  
HETATM    8  C   UNK A   0     -10.162  13.472  66.817  1.00  0.00    -0.264 A  
HETATM    9  O   UNK A   0      -7.979  14.327  66.979  1.00  0.00    -0.142 OA 
HETATM   10  C   UNK A   0     -11.467  13.629  67.196  1.00  0.00    -0.342 A  
HETATM   11  N   UNK A   0     -12.235  12.650  66.659  1.00  0.00    -0.492 NA 
HETATM   12  N   UNK A   0     -11.872  14.650  67.962  1.00  0.00    -0.334 NA 
HETATM   13  H   UNK A   0     -13.241  12.538  66.786  1.00  0.00     0.000 HD 
HETATM   14  C   UNK A   0     -11.419  11.833  65.913  1.00  0.00    -0.207 A  
HETATM   15  C   UNK A   0     -10.115  12.312  65.986  1.00  0.00    -0.269 A  
ENDROOT
BRANCH  15  16
HETATM   16  C   UNK A   0      -8.928  11.750  65.271  1.00  0.00     0.211 C  
BRANCH  16  17
HETATM   17  C   UNK A   0      -7.683  11.591  66.162  1.00  0.00     0.154 C  
BRANCH  17  18
HETATM   18  C   UNK A   0      -7.807  10.472  67.181  1.00  0.00    -0.112 A  
HETATM   19  C   UNK A   0      -8.205   9.182  66.806  1.00  0.00    -0.119 A  
HETATM   20  C   UNK A   0      -8.433   8.197  67.766  1.00  0.00    -0.132 A  
HETATM   21  C   UNK A   0      -8.242   8.478  69.121  1.00  0.00    -0.119 A  
HETATM   22  C   UNK A   0      -7.722   9.717  69.502  1.00  0.00    -0.109 A  
HETATM   23  C   UNK A   0      -7.511  10.710  68.535  1.00  0.00    -0.093 A  
BRANCH  21  24
HETATM   24  C   UNK A   0      -8.654   7.485  70.152  1.00  0.00    -0.141 C  
HETATM   25  O   UNK A   0      -9.607   6.730  70.008  1.00  0.00    -0.157 OA 
ATOM     26  N   GLU A   1      -7.853   7.455  71.277  1.00  0.00    -0.094 N  
ATOM     27  H   GLU A   1      -7.067   8.101  71.344  1.00  0.00     0.000 HD 
BRANCH  26  28
ATOM     28  CA  GLU A   1      -8.103   6.525  72.368  1.00  0.00    -0.101 C  
ATOM     29  C   GLU A   1      -9.004   7.204  73.405  1.00  0.00    -0.150 C  
ATOM     30  O   GLU A   1     -10.324   7.030  73.168  1.00  0.00    -0.224 OA 
ATOM     31  OXT GLU A   1      -8.585   7.860  74.360  1.00  0.00    -0.229 OA 
BRANCH  28  32
ATOM     32  CB  GLU A   1      -6.785   6.076  73.015  1.00  0.00    -0.070 C  
BRANCH  32  33
ATOM     33  CG  GLU A   1      -6.114   4.959  72.218  1.00  0.00    -0.025 C  
ATOM     34  CD  GLU A   1      -7.121   3.931  71.782  1.00  0.00    -0.041 C  
ATOM     35  OE1 GLU A   1      -7.650   4.173  70.564  1.00  0.00    -0.044 OA 
ATOM     36  OE2 GLU A   1      -7.460   2.982  72.473  1.00  0.00    -0.046 OA 
ENDBRANCH  32  33
ENDBRANCH  28  32
ENDBRANCH  26  28
ENDBRANCH  21  24
ENDBRANCH  17  18
ENDBRANCH  16  17
ENDBRANCH  15  16
TORSDOF 7
ENDMDL
MODEL      286
REMARK 921   NORMALIZED FREE ENERGY PREDICTED BY IDOCK:   -1.84 KCAL/MOL
REMARK 922        TOTAL FREE ENERGY PREDICTED BY IDOCK:   -5.23 KCAL/MOL
REMARK 923 INTER-LIGAND FREE ENERGY PREDICTED BY IDOCK:   -4.01 KCAL/MOL
REMARK 924 INTRA-LIGAND FREE ENERGY PREDICTED BY IDOCK:   -1.23 KCAL/MOL
REMARK 927      BINDING AFFINITY PREDICTED BY RF-SCORE:    0.00 PKD
ROOT
HETATM    1  N   UNK A   0      -9.137  18.076  68.014  1.00  0.00    -0.266 NA 
HETATM    2  H1  UNK A   0      -9.814  18.461  67.355  1.00  0.00     0.000 HD 
HETATM    3  C   UNK A   0      -9.005  16.734  68.172  1.00  0.00    -0.224 C  
HETATM    4  H2  UNK A   0      -8.551  18.708  68.560  1.00  0.00     0.000 HD 
HETATM    5  N   UNK A   0      -8.141  16.244  69.012  1.00  0.00    -0.235 N  
HETATM    6  H   UNK A   0      -7.564  16.868  69.576  1.00  0.00     0.000 HD 
HETATM    7  C   UNK A   0      -8.008  14.859  69.137  1.00  0.00    -0.165 C  
HETATM    8  C   UNK A   0      -8.851  14.054  68.247  1.00  0.00    -0.184 A  
HETATM    9  O   UNK A   0      -7.236  14.338  69.931  1.00  0.00     0.015 OA 
HETATM   10  C   UNK A   0      -9.729  14.683  67.407  1.00  0.00    -0.218 A  
HETATM   11  N   UNK A   0     -10.388  13.774  66.647  1.00  0.00    -0.275 NA 
HETATM   12  N   UNK A   0      -9.847  16.016  67.365  1.00  0.00    -0.234 NA 
HETATM   13  H   UNK A   0     -11.095  13.982  65.943  1.00  0.00     0.000 HD 
HETATM   14  C   UNK A   0      -9.935  12.524  66.996  1.00  0.00    -0.214 A  
HETATM   15  C   UNK A   0      -8.973  12.655  67.992  1.00  0.00    -0.200 A  
ENDROOT
BRANCH  15  16
HETATM   16  C   UNK A   0      -8.187  11.543  68.610  1.00  0.00    -0.124 C  
BRANCH  16  17
HETATM   17  C   UNK A   0      -8.962  10.750  69.676  1.00  0.00     0.259 C  
BRANCH  17  18
HETATM   18  C   UNK A   0      -8.668   9.260  69.655  1.00  0.00    -0.155 A  
HETATM   19  C   UNK A   0      -9.101   8.415  70.685  1.00  0.00    -0.174 A  
HETATM   20  C   UNK A   0      -8.721   7.074  70.717  1.00  0.00    -0.148 A  
HETATM   21  C   UNK A   0      -7.919   6.546  69.702  1.00  0.00    -0.120 A  
HETATM   22  C   UNK A   0      -7.586   7.340  68.603  1.00  0.00    -0.114 A  
HETATM   23  C   UNK A   0      -7.956   8.692  68.583  1.00  0.00    -0.115 A  
BRANCH  21  24
HETATM   24  C   UNK A   0      -7.370   5.167  69.830  1.00  0.00    -0.060 C  
HETATM   25  O   UNK A   0      -6.169   4.927  69.855  1.00  0.00    -0.024 OA 
ATOM     26  N   GLU A   1      -8.323   4.176  69.953  1.00  0.00    -0.061 N  
ATOM     27  H   GLU A   1      -9.311   4.431  69.932  1.00  0.00     0.000 HD 
BRANCH  26  28
ATOM     28  CA  GLU A   1      -7.955   2.777  70.112  1.00  0.00    -0.042 C  
ATOM     29  C   GLU A   1      -8.161   2.053  68.776  1.00  0.00    -0.051 C  
ATOM     30  O   GLU A   1      -7.073   2.082  67.974  1.00  0.00    -0.045 OA 
ATOM     31  OXT GLU A   1      -9.212   1.504  68.444  1.00  0.00    -0.126 OA 
BRANCH  28  32
ATOM     32  CB  GLU A   1      -8.790   2.114  71.215  1.00  0.00    -0.122 C  
BRANCH  32  33
ATOM     33  CG  GLU A   1      -8.882   2.993  72.462  1.00  0.00    -0.105 C  
ATOM     34  CD  GLU A   1     -10.275   3.533  72.636  1.00  0.00    -0.166 C  
ATOM     35  OE1 GLU A   1     -11.066   2.754  73.404  1.00  0.00    -0.192 OA 
ATOM     36  OE2 GLU A   1     -10.672   4.561  72.107  1.00  0.00    -0.124 OA 
ENDBRANCH  32  33
ENDBRANCH  28  32
ENDBRANCH  26  28
ENDBRANCH  21  24
ENDBRANCH  17  18
ENDBRANCH  16  17
ENDBRANCH  15  16
TORSDOF 7
ENDMDL
MODEL      287
REMARK 921   NORMALIZED FREE ENERGY PREDICTED BY IDOCK:   -1.82 KCAL/MOL
REMARK 922        TOTAL FREE ENERGY PREDICTED BY IDOCK:   -5.21 KCAL/MOL
REMARK 923 INTER-LIGAND FREE ENERGY PREDICTED BY IDOCK:   -4.32 KCAL/MOL
REMARK 924 INTRA-LIGAND FREE ENERGY PREDICTED BY IDOCK:   -0.88 KCAL/MOL
REMARK 927      BINDING AFFINITY PREDICTED BY RF-SCORE:    0.00 PKD
ROOT
HETATM    1  N   UNK A   0      -6.525  10.167  70.141  1.00  0.00    -0.101 NA 
HETATM    2  H1  UNK A   0      -5.538  10.395  70.031  1.00  0.00     0.000 HD 
HETATM    3  C   UNK A   0      -7.485  10.946  69.578  1.00  0.00    -0.077 C  
HETATM    4  H2  UNK A   0      -6.796   9.345  70.680  1.00  0.00     0.000 HD 
HETATM    5  N   UNK A   0      -8.745  10.656  69.718  1.00  0.00    -0.346 N  
HETATM    6  H   UNK A   0      -9.026   9.846  70.271  1.00  0.00     0.000 HD 
HETATM    7  C   UNK A   0      -9.711  11.459  69.107  1.00  0.00     0.089 C  
HETATM    8  C   UNK A   0      -9.199  12.569  68.297  1.00  0.00    -0.186 A  
HETATM    9  O   UNK A   0     -10.913  11.256  69.227  1.00  0.00    -0.232 OA 
HETATM   10  C   UNK A   0      -7.849  12.779  68.228  1.00  0.00    -0.141 A  
HETATM   11  N   UNK A   0      -7.576  13.825  67.409  1.00  0.00    -0.284 NA 
HETATM   12  N   UNK A   0      -6.971  12.004  68.876  1.00  0.00    -0.102 NA 
HETATM   13  H   UNK A   0      -6.649  14.187  67.187  1.00  0.00     0.000 HD 
HETATM   14  C   UNK A   0      -8.770  14.310  66.931  1.00  0.00    -0.179 A  
HETATM   15  C   UNK A   0      -9.809  13.553  67.462  1.00  0.00    -0.227 A  
ENDROOT
BRANCH  15  16
HETATM   16  C   UNK A   0     -11.263  13.712  67.152  1.00  0.00    -0.327 C  
BRANCH  16  17
HETATM   17  C   UNK A   0     -11.755  12.816  66.002  1.00  0.00    -0.470 C  
BRANCH  17  18
HETATM   18  C   UNK A   0     -10.850  11.626  65.731  1.00  0.00    -0.334 A  
HETATM   19  C   UNK A   0      -9.699  11.748  64.942  1.00  0.00    -0.199 A  
HETATM   20  C   UNK A   0      -8.945  10.627  64.600  1.00  0.00    -0.216 A  
HETATM   21  C   UNK A   0      -9.316   9.362  65.064  1.00  0.00    -0.258 A  
HETATM   22  C   UNK A   0     -10.384   9.239  65.955  1.00  0.00    -0.009 A  
HETATM   23  C   UNK A   0     -11.150  10.368  66.283  1.00  0.00     0.215 A  
BRANCH  21  24
HETATM   24  C   UNK A   0      -8.617   8.148  64.555  1.00  0.00     0.100 C  
HETATM   25  O   UNK A   0      -8.146   8.073  63.427  1.00  0.00    -0.154 OA 
ATOM     26  N   GLU A   1      -8.507   7.120  65.470  1.00  0.00    -0.213 N  
ATOM     27  H   GLU A   1      -8.911   7.237  66.400  1.00  0.00     0.000 HD 
BRANCH  26  28
ATOM     28  CA  GLU A   1      -7.830   5.875  65.142  1.00  0.00    -0.107 C  
ATOM     29  C   GLU A   1      -8.882   4.798  64.848  1.00  0.00    -0.153 C  
ATOM     30  O   GLU A   1      -9.255   4.751  63.549  1.00  0.00    -0.093 OA 
ATOM     31  OXT GLU A   1      -9.361   4.051  65.701  1.00  0.00    -0.140 OA 
BRANCH  28  32
ATOM     32  CB  GLU A   1      -6.916   5.430  66.292  1.00  0.00    -0.063 C  
BRANCH  32  33
ATOM     33  CG  GLU A   1      -5.604   6.213  66.308  1.00  0.00    -0.013 C  
ATOM     34  CD  GLU A   1      -5.731   7.457  67.144  1.00  0.00    -0.030 C  
ATOM     35  OE1 GLU A   1      -5.378   7.280  68.434  1.00  0.00    -0.019 OA 
ATOM     36  OE2 GLU A   1      -6.147   8.521  66.711  1.00  0.00    -0.052 OA 
ENDBRANCH  32  33
ENDBRANCH  28  32
ENDBRANCH  26  28
ENDBRANCH  21  24
ENDBRANCH  17  18
ENDBRANCH  16  17
ENDBRANCH  15  16
TORSDOF 7
ENDMDL
MODEL      288
REMARK 921   NORMALIZED FREE ENERGY PREDICTED BY IDOCK:   -1.80 KCAL/MOL
REMARK 922        TOTAL FREE ENERGY PREDICTED BY IDOCK:   -5.18 KCAL/MOL
REMARK 923 INTER-LIGAND FREE ENERGY PREDICTED BY IDOCK:   -4.74 KCAL/MOL
REMARK 924 INTRA-LIGAND FREE ENERGY PREDICTED BY IDOCK:   -0.44 KCAL/MOL
REMARK 927      BINDING AFFINITY PREDICTED BY RF-SCORE:    0.00 PKD
ROOT
HETATM    1  N   UNK A   0     -11.424  16.609  69.026  1.00  0.00    -0.190 NA 
HETATM    2  H1  UNK A   0     -12.417  16.648  69.255  1.00  0.00     0.000 HD 
HETATM    3  C   UNK A   0     -10.912  15.564  68.327  1.00  0.00    -0.305 C  
HETATM    4  H2  UNK A   0     -10.809  17.366  69.325  1.00  0.00     0.000 HD 
HETATM    5  N   UNK A   0      -9.646  15.516  68.034  1.00  0.00    -0.202 N  
HETATM    6  H   UNK A   0      -9.019  16.258  68.345  1.00  0.00     0.000 HD 
HETATM    7  C   UNK A   0      -9.148  14.441  67.292  1.00  0.00    -0.214 C  
HETATM    8  C   UNK A   0     -10.140  13.454  66.856  1.00  0.00    -0.255 A  
HETATM    9  O   UNK A   0      -7.962  14.324  67.012  1.00  0.00    -0.142 OA 
HETATM   10  C   UNK A   0     -11.447  13.608  67.231  1.00  0.00    -0.343 A  
HETATM   11  N   UNK A   0     -12.209  12.618  66.703  1.00  0.00    -0.492 NA 
HETATM   12  N   UNK A   0     -11.859  14.635  67.985  1.00  0.00    -0.334 NA 
HETATM   13  H   UNK A   0     -13.214  12.503  66.830  1.00  0.00     0.000 HD 
HETATM   14  C   UNK A   0     -11.386  11.798  65.969  1.00  0.00    -0.273 A  
HETATM   15  C   UNK A   0     -10.085  12.285  66.038  1.00  0.00    -0.269 A  
ENDROOT
BRANCH  15  16
HETATM   16  C   UNK A   0      -8.894  11.721  65.332  1.00  0.00     0.256 C  
BRANCH  16  17
HETATM   17  C   UNK A   0      -7.648  11.587  66.224  1.00  0.00     0.098 C  
BRANCH  17  18
HETATM   18  C   UNK A   0      -7.761  10.482  67.260  1.00  0.00    -0.106 A  
HETATM   19  C   UNK A   0      -6.943  10.460  68.397  1.00  0.00    -0.069 A  
HETATM   20  C   UNK A   0      -6.971   9.379  69.277  1.00  0.00    -0.053 A  
HETATM   21  C   UNK A   0      -7.839   8.308  69.047  1.00  0.00    -0.103 A  
HETATM   22  C   UNK A   0      -8.751   8.373  67.992  1.00  0.00    -0.139 A  
HETATM   23  C   UNK A   0      -8.708   9.454  67.100  1.00  0.00    -0.134 A  
BRANCH  21  24
HETATM   24  C   UNK A   0      -7.742   7.079  69.884  1.00  0.00    -0.108 C  
HETATM   25  O   UNK A   0      -6.686   6.675  70.356  1.00  0.00    -0.053 OA 
ATOM     26  N   GLU A   1      -8.946   6.444  70.119  1.00  0.00    -0.153 N  
ATOM     27  H   GLU A   1      -9.797   6.827  69.707  1.00  0.00     0.000 HD 
BRANCH  26  28
ATOM     28  CA  GLU A   1      -9.030   5.245  70.938  1.00  0.00    -0.137 C  
ATOM     29  C   GLU A   1      -8.908   4.013  70.032  1.00  0.00    -0.080 C  
ATOM     30  O   GLU A   1      -7.632   3.605  69.849  1.00  0.00    -0.048 OA 
ATOM     31  OXT GLU A   1      -9.865   3.448  69.505  1.00  0.00    -0.057 OA 
BRANCH  28  32
ATOM     32  CB  GLU A   1     -10.352   5.207  71.717  1.00  0.00    -0.274 C  
BRANCH  32  33
ATOM     33  CG  GLU A   1     -10.290   6.065  72.980  1.00  0.00    -0.224 C  
ATOM     34  CD  GLU A   1      -8.988   5.858  73.705  1.00  0.00    -0.127 C  
ATOM     35  OE1 GLU A   1      -8.022   6.728  73.341  1.00  0.00    -0.099 OA 
ATOM     36  OE2 GLU A   1      -8.805   4.968  74.523  1.00  0.00    -0.111 OA 
ENDBRANCH  32  33
ENDBRANCH  28  32
ENDBRANCH  26  28
ENDBRANCH  21  24
ENDBRANCH  17  18
ENDBRANCH  16  17
ENDBRANCH  15  16
TORSDOF 7
ENDMDL
MODEL      289
REMARK 921   NORMALIZED FREE ENERGY PREDICTED BY IDOCK:   -1.79 KCAL/MOL
REMARK 922        TOTAL FREE ENERGY PREDICTED BY IDOCK:   -5.16 KCAL/MOL
REMARK 923 INTER-LIGAND FREE ENERGY PREDICTED BY IDOCK:   -5.12 KCAL/MOL
REMARK 924 INTRA-LIGAND FREE ENERGY PREDICTED BY IDOCK:   -0.04 KCAL/MOL
REMARK 927      BINDING AFFINITY PREDICTED BY RF-SCORE:    0.00 PKD
ROOT
HETATM    1  N   UNK A   0      -7.325   2.206  67.582  1.00  0.00    -0.054 NA 
HETATM    2  H1  UNK A   0      -7.311   2.071  68.592  1.00  0.00     0.000 HD 
HETATM    3  C   UNK A   0      -7.592   3.425  67.046  1.00  0.00    -0.079 C  
HETATM    4  H2  UNK A   0      -7.136   1.415  66.966  1.00  0.00     0.000 HD 
HETATM    5  N   UNK A   0      -7.610   3.596  65.757  1.00  0.00    -0.077 N  
HETATM    6  H   UNK A   0      -7.441   2.807  65.133  1.00  0.00     0.000 HD 
HETATM    7  C   UNK A   0      -7.862   4.866  65.232  1.00  0.00    -0.091 C  
HETATM    8  C   UNK A   0      -8.045   5.938  66.216  1.00  0.00    -0.104 A  
HETATM    9  O   UNK A   0      -7.923   5.085  64.029  1.00  0.00    -0.089 OA 
HETATM   10  C   UNK A   0      -8.010   5.635  67.549  1.00  0.00    -0.102 A  
HETATM   11  N   UNK A   0      -8.165   6.758  68.292  1.00  0.00    -0.115 NA 
HETATM   12  N   UNK A   0      -7.812   4.388  67.995  1.00  0.00    -0.080 NA 
HETATM   13  H   UNK A   0      -8.176   6.808  69.311  1.00  0.00     0.000 HD 
HETATM   14  C   UNK A   0      -8.305   7.820  67.429  1.00  0.00    -0.123 A  
HETATM   15  C   UNK A   0      -8.236   7.349  66.122  1.00  0.00    -0.130 A  
ENDROOT
BRANCH  15  16
HETATM   16  C   UNK A   0      -8.284   8.184  64.882  1.00  0.00    -0.150 C  
BRANCH  16  17
HETATM   17  C   UNK A   0      -7.226   9.300  64.842  1.00  0.00    -0.102 C  
BRANCH  17  18
HETATM   18  C   UNK A   0      -7.578  10.499  65.705  1.00  0.00    -0.134 A  
HETATM   19  C   UNK A   0      -8.863  11.057  65.692  1.00  0.00    -0.187 A  
HETATM   20  C   UNK A   0      -9.140  12.229  66.394  1.00  0.00    -0.158 A  
HETATM   21  C   UNK A   0      -8.140  12.853  67.144  1.00  0.00    -0.122 A  
HETATM   22  C   UNK A   0      -6.890  12.242  67.272  1.00  0.00    -0.140 A  
HETATM   23  C   UNK A   0      -6.611  11.072  66.551  1.00  0.00    -0.132 A  
BRANCH  21  24
HETATM   24  C   UNK A   0      -8.387  14.194  67.745  1.00  0.00    -0.174 C  
HETATM   25  O   UNK A   0      -8.066  14.480  68.892  1.00  0.00    -0.148 OA 
ATOM     26  N   GLU A   1      -8.978  15.107  66.894  1.00  0.00    -0.235 N  
ATOM     27  H   GLU A   1      -9.219  14.819  65.946  1.00  0.00     0.000 HD 
BRANCH  26  28
ATOM     28  CA  GLU A   1      -9.265  16.469  67.316  1.00  0.00    -0.216 C  
ATOM     29  C   GLU A   1      -8.113  17.381  66.878  1.00  0.00    -0.227 C  
ATOM     30  O   GLU A   1      -8.277  17.899  65.640  1.00  0.00    -0.476 OA 
ATOM     31  OXT GLU A   1      -7.120  17.617  67.566  1.00  0.00    -0.166 OA 
BRANCH  28  32
ATOM     32  CB  GLU A   1      -9.456  16.542  68.838  1.00  0.00    -0.260 C  
BRANCH  32  33
ATOM     33  CG  GLU A   1     -10.932  16.493  69.226  1.00  0.00    -0.302 C  
ATOM     34  CD  GLU A   1     -11.164  15.500  70.333  1.00  0.00    -0.337 C  
ATOM     35  OE1 GLU A   1     -11.091  16.039  71.568  1.00  0.00    -0.186 OA 
ATOM     36  OE2 GLU A   1     -11.365  14.310  70.141  1.00  0.00    -0.225 OA 
ENDBRANCH  32  33
ENDBRANCH  28  32
ENDBRANCH  26  28
ENDBRANCH  21  24
ENDBRANCH  17  18
ENDBRANCH  16  17
ENDBRANCH  15  16
TORSDOF 7
ENDMDL
MODEL      290
REMARK 921   NORMALIZED FREE ENERGY PREDICTED BY IDOCK:   -1.76 KCAL/MOL
REMARK 922        TOTAL FREE ENERGY PREDICTED BY IDOCK:   -5.12 KCAL/MOL
REMARK 923 INTER-LIGAND FREE ENERGY PREDICTED BY IDOCK:   -6.84 KCAL/MOL
REMARK 924 INTRA-LIGAND FREE ENERGY PREDICTED BY IDOCK:    1.72 KCAL/MOL
REMARK 927      BINDING AFFINITY PREDICTED BY RF-SCORE:    0.00 PKD
ROOT
HETATM    1  N   UNK A   0      -7.221  11.740  69.306  1.00  0.00    -0.306 NA 
HETATM    2  H1  UNK A   0      -6.252  11.632  69.008  1.00  0.00     0.000 HD 
HETATM    3  C   UNK A   0      -8.232  11.733  68.399  1.00  0.00    -0.154 C  
HETATM    4  H2  UNK A   0      -7.433  11.854  70.297  1.00  0.00     0.000 HD 
HETATM    5  N   UNK A   0      -9.468  11.870  68.780  1.00  0.00    -0.393 N  
HETATM    6  H   UNK A   0      -9.689  12.004  69.767  1.00  0.00     0.000 HD 
HETATM    7  C   UNK A   0     -10.491  11.835  67.829  1.00  0.00    -0.194 C  
HETATM    8  C   UNK A   0     -10.069  11.591  66.447  1.00  0.00    -0.250 A  
HETATM    9  O   UNK A   0     -11.670  11.989  68.121  1.00  0.00    -0.320 OA 
HETATM   10  C   UNK A   0      -8.736  11.468  66.166  1.00  0.00    -0.131 A  
HETATM   11  N   UNK A   0      -8.554  11.215  64.847  1.00  0.00    -0.377 NA 
HETATM   12  N   UNK A   0      -7.794  11.559  67.113  1.00  0.00    -0.152 NA 
HETATM   13  H   UNK A   0      -7.657  11.080  64.380  1.00  0.00     0.000 HD 
HETATM   14  C   UNK A   0      -9.791  11.172  64.249  1.00  0.00    -0.286 A  
HETATM   15  C   UNK A   0     -10.765  11.403  65.214  1.00  0.00    -0.326 A  
ENDROOT
BRANCH  15  16
HETATM   16  C   UNK A   0     -12.245  11.382  64.996  1.00  0.00     0.958 C  
BRANCH  16  17
HETATM   17  C   UNK A   0     -12.846  12.763  64.681  1.00  0.00    -0.355 C  
BRANCH  17  18
HETATM   18  C   UNK A   0     -12.035  13.919  65.241  1.00  0.00    -0.384 A  
HETATM   19  C   UNK A   0     -12.259  14.411  66.533  1.00  0.00    -0.358 A  
HETATM   20  C   UNK A   0     -11.595  15.548  66.991  1.00  0.00     0.066 A  
HETATM   21  C   UNK A   0     -10.672  16.201  66.169  1.00  0.00    -0.222 A  
HETATM   22  C   UNK A   0     -10.341  15.651  64.929  1.00  0.00    -0.164 A  
HETATM   23  C   UNK A   0     -11.025  14.517  64.467  1.00  0.00    -0.264 A  
BRANCH  21  24
HETATM   24  C   UNK A   0     -10.099  17.511  66.589  1.00  0.00    -0.328 C  
HETATM   25  O   UNK A   0     -10.605  18.586  66.293  1.00  0.00    -0.407 OA 
ATOM     26  N   GLU A   1      -8.965  17.419  67.372  1.00  0.00    -0.229 N  
ATOM     27  H   GLU A   1      -8.589  16.497  67.595  1.00  0.00     0.000 HD 
BRANCH  26  28
ATOM     28  CA  GLU A   1      -8.295  18.603  67.887  1.00  0.00    -0.272 C  
ATOM     29  C   GLU A   1      -9.347  19.668  68.219  1.00  0.00    -0.349 C  
ATOM     30  O   GLU A   1      -9.821  19.582  69.483  1.00  0.00    -0.307 OA 
ATOM     31  OXT GLU A   1      -9.744  20.516  67.421  1.00  0.00    -0.436 OA 
BRANCH  28  32
ATOM     32  CB  GLU A   1      -7.285  19.147  66.867  1.00  0.00    -0.218 C  
BRANCH  32  33
ATOM     33  CG  GLU A   1      -5.992  18.333  66.860  1.00  0.00    -0.172 C  
ATOM     34  CD  GLU A   1      -6.199  16.991  67.508  1.00  0.00    -0.147 C  
ATOM     35  OE1 GLU A   1      -6.547  16.019  66.639  1.00  0.00    -0.224 OA 
ATOM     36  OE2 GLU A   1      -6.096  16.799  68.710  1.00  0.00    -0.138 OA 
ENDBRANCH  32  33
ENDBRANCH  28  32
ENDBRANCH  26  28
ENDBRANCH  21  24
ENDBRANCH  17  18
ENDBRANCH  16  17
ENDBRANCH  15  16
TORSDOF 7
ENDMDL
MODEL      291
REMARK 921   NORMALIZED FREE ENERGY PREDICTED BY IDOCK:   -1.76 KCAL/MOL
REMARK 922        TOTAL FREE ENERGY PREDICTED BY IDOCK:   -5.12 KCAL/MOL
REMARK 923 INTER-LIGAND FREE ENERGY PREDICTED BY IDOCK:   -4.55 KCAL/MOL
REMARK 924 INTRA-LIGAND FREE ENERGY PREDICTED BY IDOCK:   -0.58 KCAL/MOL
REMARK 927      BINDING AFFINITY PREDICTED BY RF-SCORE:    0.00 PKD
ROOT
HETATM    1  N   UNK A   0     -11.675  17.337  72.993  1.00  0.00     0.201 NA 
HETATM    2  H1  UNK A   0     -11.891  16.905  73.890  1.00  0.00     0.000 HD 
HETATM    3  C   UNK A   0     -11.627  16.595  71.857  1.00  0.00     0.011 C  
HETATM    4  H2  UNK A   0     -11.494  18.340  72.947  1.00  0.00     0.000 HD 
HETATM    5  N   UNK A   0     -11.353  17.146  70.711  1.00  0.00     0.187 N  
HETATM    6  H   UNK A   0     -11.152  18.145  70.659  1.00  0.00     0.000 HD 
HETATM    7  C   UNK A   0     -11.334  16.364  69.554  1.00  0.00    -0.192 C  
HETATM    8  C   UNK A   0     -11.683  14.951  69.734  1.00  0.00    -0.344 A  
HETATM    9  O   UNK A   0     -11.053  16.818  68.453  1.00  0.00    -0.357 OA 
HETATM   10  C   UNK A   0     -11.948  14.482  70.991  1.00  0.00    -0.332 A  
HETATM   11  N   UNK A   0     -12.280  13.169  70.944  1.00  0.00    -0.459 NA 
HETATM   12  N   UNK A   0     -11.904  15.270  72.072  1.00  0.00    -0.399 NA 
HETATM   13  H   UNK A   0     -12.523  12.582  71.742  1.00  0.00     0.000 HD 
HETATM   14  C   UNK A   0     -12.231  12.767  69.630  1.00  0.00    -0.126 A  
HETATM   15  C   UNK A   0     -11.862  13.851  68.842  1.00  0.00    -0.393 A  
ENDROOT
BRANCH  15  16
HETATM   16  C   UNK A   0     -11.749  13.858  67.350  1.00  0.00    -0.422 C  
BRANCH  16  17
HETATM   17  C   UNK A   0     -10.326  13.585  66.833  1.00  0.00    -0.265 C  
BRANCH  17  18
HETATM   18  C   UNK A   0      -9.686  12.350  67.443  1.00  0.00    -0.193 A  
HETATM   19  C   UNK A   0      -9.922  11.072  66.921  1.00  0.00    -0.231 A  
HETATM   20  C   UNK A   0      -9.429   9.936  67.562  1.00  0.00    -0.173 A  
HETATM   21  C   UNK A   0      -8.668  10.061  68.728  1.00  0.00    -0.136 A  
HETATM   22  C   UNK A   0      -8.316  11.331  69.189  1.00  0.00     0.067 A  
HETATM   23  C   UNK A   0      -8.828  12.470  68.551  1.00  0.00    -0.046 A  
BRANCH  21  24
HETATM   24  C   UNK A   0      -8.295   8.847  69.506  1.00  0.00    -0.119 C  
HETATM   25  O   UNK A   0      -8.294   8.813  70.730  1.00  0.00    -0.126 OA 
ATOM     26  N   GLU A   1      -7.981   7.743  68.738  1.00  0.00    -0.123 N  
ATOM     27  H   GLU A   1      -8.003   7.823  67.721  1.00  0.00     0.000 HD 
BRANCH  26  28
ATOM     28  CA  GLU A   1      -7.619   6.470  69.341  1.00  0.00    -0.096 C  
ATOM     29  C   GLU A   1      -6.133   6.500  69.717  1.00  0.00    -0.026 C  
ATOM     30  O   GLU A   1      -5.901   6.974  70.962  1.00  0.00    -0.031 OA 
ATOM     31  OXT GLU A   1      -5.224   6.145  68.966  1.00  0.00    -0.004 OA 
BRANCH  28  32
ATOM     32  CB  GLU A   1      -7.905   5.308  68.380  1.00  0.00    -0.087 C  
BRANCH  32  33
ATOM     33  CG  GLU A   1      -7.418   3.974  68.942  1.00  0.00    -0.055 C  
ATOM     34  CD  GLU A   1      -8.276   2.840  68.452  1.00  0.00    -0.064 C  
ATOM     35  OE1 GLU A   1      -7.821   2.268  67.317  1.00  0.00    -0.064 OA 
ATOM     36  OE2 GLU A   1      -9.307   2.486  69.004  1.00  0.00    -0.148 OA 
ENDBRANCH  32  33
ENDBRANCH  28  32
ENDBRANCH  26  28
ENDBRANCH  21  24
ENDBRANCH  17  18
ENDBRANCH  16  17
ENDBRANCH  15  16
TORSDOF 7
ENDMDL
MODEL      292
REMARK 921   NORMALIZED FREE ENERGY PREDICTED BY IDOCK:   -1.48 KCAL/MOL
REMARK 922        TOTAL FREE ENERGY PREDICTED BY IDOCK:   -4.73 KCAL/MOL
REMARK 923 INTER-LIGAND FREE ENERGY PREDICTED BY IDOCK:   -3.75 KCAL/MOL
REMARK 924 INTRA-LIGAND FREE ENERGY PREDICTED BY IDOCK:   -0.99 KCAL/MOL
REMARK 927      BINDING AFFINITY PREDICTED BY RF-SCORE:    0.00 PKD
ROOT
HETATM    1  N   UNK A   0      -9.584  10.868  62.394  1.00  0.00    -0.577 NA 
HETATM    2  H1  UNK A   0     -10.581  10.709  62.253  1.00  0.00     0.000 HD 
HETATM    3  C   UNK A   0      -8.925  10.282  63.427  1.00  0.00    -0.240 C  
HETATM    4  H2  UNK A   0      -9.076  11.476  61.752  1.00  0.00     0.000 HD 
HETATM    5  N   UNK A   0      -7.654  10.486  63.607  1.00  0.00    -0.340 N  
HETATM    6  H   UNK A   0      -7.140  11.107  62.981  1.00  0.00     0.000 HD 
HETATM    7  C   UNK A   0      -6.994   9.851  64.662  1.00  0.00    -0.133 C  
HETATM    8  C   UNK A   0      -7.813   8.944  65.472  1.00  0.00    -0.100 A  
HETATM    9  O   UNK A   0      -5.807  10.026  64.902  1.00  0.00    -0.085 OA 
HETATM   10  C   UNK A   0      -9.146   8.814  65.190  1.00  0.00    -0.043 A  
HETATM   11  N   UNK A   0      -9.718   7.911  66.024  1.00  0.00    -0.452 NA 
HETATM   12  N   UNK A   0      -9.735   9.487  64.194  1.00  0.00     0.298 NA 
HETATM   13  H   UNK A   0     -10.699   7.631  66.023  1.00  0.00     0.000 HD 
HETATM   14  C   UNK A   0      -8.743   7.439  66.870  1.00  0.00    -0.126 A  
HETATM   15  C   UNK A   0      -7.538   8.059  66.558  1.00  0.00    -0.092 A  
ENDROOT
BRANCH  15  16
HETATM   16  C   UNK A   0      -6.214   7.787  67.200  1.00  0.00    -0.054 C  
BRANCH  16  17
HETATM   17  C   UNK A   0      -5.887   8.726  68.373  1.00  0.00    -0.042 C  
BRANCH  17  18
HETATM   18  C   UNK A   0      -6.764   9.966  68.420  1.00  0.00    -0.055 A  
HETATM   19  C   UNK A   0      -7.981   9.974  69.112  1.00  0.00    -0.116 A  
HETATM   20  C   UNK A   0      -8.834  11.076  69.046  1.00  0.00    -0.068 A  
HETATM   21  C   UNK A   0      -8.470  12.202  68.303  1.00  0.00    -0.176 A  
HETATM   22  C   UNK A   0      -7.205  12.262  67.714  1.00  0.00    -0.114 A  
HETATM   23  C   UNK A   0      -6.359  11.145  67.769  1.00  0.00    -0.055 A  
BRANCH  21  24
HETATM   24  C   UNK A   0      -9.453  13.301  68.088  1.00  0.00    -0.222 C  
HETATM   25  O   UNK A   0     -10.665  13.135  68.161  1.00  0.00    -0.229 OA 
ATOM     26  N   GLU A   1      -8.891  14.536  67.834  1.00  0.00    -0.169 N  
ATOM     27  H   GLU A   1      -7.875  14.621  67.792  1.00  0.00     0.000 HD 
BRANCH  26  28
ATOM     28  CA  GLU A   1      -9.711  15.720  67.627  1.00  0.00    -0.222 C  
ATOM     29  C   GLU A   1      -9.445  16.270  66.220  1.00  0.00    -0.316 C  
ATOM     30  O   GLU A   1     -10.253  15.741  65.274  1.00  0.00    -0.375 OA 
ATOM     31  OXT GLU A   1      -8.576  17.102  65.958  1.00  0.00    -0.479 OA 
BRANCH  28  32
ATOM     32  CB  GLU A   1      -9.406  16.789  68.686  1.00  0.00    -0.252 C  
BRANCH  32  33
ATOM     33  CG  GLU A   1      -9.574  16.245  70.104  1.00  0.00     0.780 C  
ATOM     34  CD  GLU A   1     -11.015  16.306  70.534  1.00  0.00    -0.219 C  
ATOM     35  OE1 GLU A   1     -11.708  15.180  70.264  1.00  0.00    -0.258 OA 
ATOM     36  OE2 GLU A   1     -11.525  17.290  71.049  1.00  0.00     0.785 OA 
ENDBRANCH  32  33
ENDBRANCH  28  32
ENDBRANCH  26  28
ENDBRANCH  21  24
ENDBRANCH  17  18
ENDBRANCH  16  17
ENDBRANCH  15  16
TORSDOF 7
ENDMDL
MODEL      293
REMARK 921   NORMALIZED FREE ENERGY PREDICTED BY IDOCK:   -1.48 KCAL/MOL
REMARK 922        TOTAL FREE ENERGY PREDICTED BY IDOCK:   -4.73 KCAL/MOL
REMARK 923 INTER-LIGAND FREE ENERGY PREDICTED BY IDOCK:   -5.80 KCAL/MOL
REMARK 924 INTRA-LIGAND FREE ENERGY PREDICTED BY IDOCK:    1.07 KCAL/MOL
REMARK 927      BINDING AFFINITY PREDICTED BY RF-SCORE:    0.00 PKD
ROOT
HETATM    1  N   UNK A   0      -8.892  18.370  68.626  1.00  0.00    -0.310 NA 
HETATM    2  H1  UNK A   0      -7.923  18.680  68.690  1.00  0.00     0.000 HD 
HETATM    3  C   UNK A   0      -9.193  17.104  68.236  1.00  0.00    -0.262 C  
HETATM    4  H2  UNK A   0      -9.645  19.019  68.857  1.00  0.00     0.000 HD 
HETATM    5  N   UNK A   0     -10.429  16.709  68.155  1.00  0.00    -0.305 N  
HETATM    6  H   UNK A   0     -11.189  17.356  68.366  1.00  0.00     0.000 HD 
HETATM    7  C   UNK A   0     -10.711  15.394  67.776  1.00  0.00    -0.289 C  
HETATM    8  C   UNK A   0      -9.546  14.535  67.540  1.00  0.00    -0.210 A  
HETATM    9  O   UNK A   0     -11.853  14.971  67.652  1.00  0.00    -0.328 OA 
HETATM   10  C   UNK A   0      -8.290  15.066  67.651  1.00  0.00    -0.164 A  
HETATM   11  N   UNK A   0      -7.354  14.111  67.430  1.00  0.00    -0.276 NA 
HETATM   12  N   UNK A   0      -8.081  16.349  67.971  1.00  0.00    -0.155 NA 
HETATM   13  H   UNK A   0      -6.343  14.244  67.453  1.00  0.00     0.000 HD 
HETATM   14  C   UNK A   0      -8.007  12.930  67.168  1.00  0.00    -0.099 A  
HETATM   15  C   UNK A   0      -9.379  13.152  67.227  1.00  0.00    -0.225 A  
ENDROOT
BRANCH  15  16
HETATM   16  C   UNK A   0     -10.447  12.119  67.062  1.00  0.00    -0.244 C  
BRANCH  16  17
HETATM   17  C   UNK A   0      -9.996  10.878  66.273  1.00  0.00    -0.274 C  
BRANCH  17  18
HETATM   18  C   UNK A   0      -9.621   9.701  67.157  1.00  0.00    -0.210 A  
HETATM   19  C   UNK A   0      -8.374   9.632  67.791  1.00  0.00    -0.121 A  
HETATM   20  C   UNK A   0      -7.994   8.493  68.500  1.00  0.00    -0.117 A  
HETATM   21  C   UNK A   0      -8.868   7.408  68.607  1.00  0.00    -0.126 A  
HETATM   22  C   UNK A   0     -10.162   7.511  68.092  1.00  0.00    -0.228 A  
HETATM   23  C   UNK A   0     -10.533   8.652  67.366  1.00  0.00    -0.351 A  
BRANCH  21  24
HETATM   24  C   UNK A   0      -8.396   6.130  69.209  1.00  0.00    -0.116 C  
HETATM   25  O   UNK A   0      -7.836   5.255  68.561  1.00  0.00    -0.082 OA 
ATOM     26  N   GLU A   1      -8.609   6.019  70.569  1.00  0.00    -0.135 N  
ATOM     27  H   GLU A   1      -9.075   6.781  71.063  1.00  0.00     0.000 HD 
BRANCH  26  28
ATOM     28  CA  GLU A   1      -8.185   4.845  71.316  1.00  0.00    -0.110 C  
ATOM     29  C   GLU A   1      -8.494   3.590  70.490  1.00  0.00    -0.061 C  
ATOM     30  O   GLU A   1      -7.487   3.230  69.662  1.00  0.00    -0.045 OA 
ATOM     31  OXT GLU A   1      -9.554   2.968  70.551  1.00  0.00    -0.165 OA 
BRANCH  28  32
ATOM     32  CB  GLU A   1      -8.893   4.778  72.676  1.00  0.00    -0.119 C  
BRANCH  32  33
ATOM     33  CG  GLU A   1      -8.332   5.805  73.658  1.00  0.00    -0.110 C  
ATOM     34  CD  GLU A   1      -9.159   7.062  73.649  1.00  0.00    -0.166 C  
ATOM     35  OE1 GLU A   1     -10.150   7.065  74.565  1.00  0.00    -0.203 OA 
ATOM     36  OE2 GLU A   1      -8.977   7.984  72.867  1.00  0.00    -0.188 OA 
ENDBRANCH  32  33
ENDBRANCH  28  32
ENDBRANCH  26  28
ENDBRANCH  21  24
ENDBRANCH  17  18
ENDBRANCH  16  17
ENDBRANCH  15  16
TORSDOF 7
ENDMDL
MODEL      294
REMARK 921   NORMALIZED FREE ENERGY PREDICTED BY IDOCK:   -1.48 KCAL/MOL
REMARK 922        TOTAL FREE ENERGY PREDICTED BY IDOCK:   -4.73 KCAL/MOL
REMARK 923 INTER-LIGAND FREE ENERGY PREDICTED BY IDOCK:   -3.94 KCAL/MOL
REMARK 924 INTRA-LIGAND FREE ENERGY PREDICTED BY IDOCK:   -0.79 KCAL/MOL
REMARK 927      BINDING AFFINITY PREDICTED BY RF-SCORE:    0.00 PKD
ROOT
HETATM    1  N   UNK A   0      -8.198   4.596  70.617  1.00  0.00    -0.082 NA 
HETATM    2  H1  UNK A   0      -8.793   5.265  71.104  1.00  0.00     0.000 HD 
HETATM    3  C   UNK A   0      -8.440   4.265  69.322  1.00  0.00    -0.073 C  
HETATM    4  H2  UNK A   0      -7.412   4.170  71.108  1.00  0.00     0.000 HD 
HETATM    5  N   UNK A   0      -7.681   3.412  68.700  1.00  0.00    -0.055 N  
HETATM    6  H   UNK A   0      -6.903   2.966  69.188  1.00  0.00     0.000 HD 
HETATM    7  C   UNK A   0      -7.936   3.107  67.361  1.00  0.00    -0.077 C  
HETATM    8  C   UNK A   0      -9.046   3.837  66.742  1.00  0.00    -0.171 A  
HETATM    9  O   UNK A   0      -7.277   2.290  66.731  1.00  0.00    -0.054 OA 
HETATM   10  C   UNK A   0      -9.779   4.709  67.499  1.00  0.00    -0.172 A  
HETATM   11  N   UNK A   0     -10.733   5.305  66.742  1.00  0.00    -0.397 NA 
HETATM   12  N   UNK A   0      -9.518   4.925  68.794  1.00  0.00    -0.135 NA 
HETATM   13  H   UNK A   0     -11.411   5.995  67.065  1.00  0.00     0.000 HD 
HETATM   14  C   UNK A   0     -10.624   4.815  65.462  1.00  0.00    -0.129 A  
HETATM   15  C   UNK A   0      -9.583   3.895  65.420  1.00  0.00    -0.185 A  
ENDROOT
BRANCH  15  16
HETATM   16  C   UNK A   0      -9.093   3.173  64.204  1.00  0.00    -0.109 C  
BRANCH  16  17
HETATM   17  C   UNK A   0      -7.676   3.582  63.767  1.00  0.00    -0.079 C  
BRANCH  17  18
HETATM   18  C   UNK A   0      -7.367   5.049  64.009  1.00  0.00    -0.055 A  
HETATM   19  C   UNK A   0      -6.421   5.449  64.961  1.00  0.00    -0.039 A  
HETATM   20  C   UNK A   0      -6.235   6.798  65.261  1.00  0.00    -0.039 A  
HETATM   21  C   UNK A   0      -6.976   7.776  64.593  1.00  0.00    -0.063 A  
HETATM   22  C   UNK A   0      -7.829   7.403  63.551  1.00  0.00    -0.111 A  
HETATM   23  C   UNK A   0      -8.025   6.045  63.265  1.00  0.00    -0.109 A  
BRANCH  21  24
HETATM   24  C   UNK A   0      -6.905   9.196  65.036  1.00  0.00    -0.080 C  
HETATM   25  O   UNK A   0      -6.133  10.010  64.546  1.00  0.00    -0.108 OA 
ATOM     26  N   GLU A   1      -7.807   9.537  66.025  1.00  0.00    -0.100 N  
ATOM     27  H   GLU A   1      -8.433   8.821  66.395  1.00  0.00     0.000 HD 
BRANCH  26  28
ATOM     28  CA  GLU A   1      -7.886  10.890  66.553  1.00  0.00    -0.152 C  
ATOM     29  C   GLU A   1      -6.867  11.044  67.688  1.00  0.00    -0.081 C  
ATOM     30  O   GLU A   1      -5.648  11.451  67.266  1.00  0.00    -0.057 OA 
ATOM     31  OXT GLU A   1      -7.112  10.810  68.871  1.00  0.00    -0.068 OA 
BRANCH  28  32
ATOM     32  CB  GLU A   1      -9.302  11.197  67.060  1.00  0.00    -0.182 C  
BRANCH  32  33
ATOM     33  CG  GLU A   1      -9.336  12.460  67.919  1.00  0.00    -0.195 C  
ATOM     34  CD  GLU A   1     -10.742  12.971  68.068  1.00  0.00    -0.232 C  
ATOM     35  OE1 GLU A   1     -11.381  12.488  69.155  1.00  0.00    -0.257 OA 
ATOM     36  OE2 GLU A   1     -11.275  13.724  67.267  1.00  0.00    -0.293 OA 
ENDBRANCH  32  33
ENDBRANCH  28  32
ENDBRANCH  26  28
ENDBRANCH  21  24
ENDBRANCH  17  18
ENDBRANCH  16  17
ENDBRANCH  15  16
TORSDOF 7
ENDMDL
MODEL      295
REMARK 921   NORMALIZED FREE ENERGY PREDICTED BY IDOCK:   -1.43 KCAL/MOL
REMARK 922        TOTAL FREE ENERGY PREDICTED BY IDOCK:   -4.66 KCAL/MOL
REMARK 923 INTER-LIGAND FREE ENERGY PREDICTED BY IDOCK:   -4.32 KCAL/MOL
REMARK 924 INTRA-LIGAND FREE ENERGY PREDICTED BY IDOCK:   -0.34 KCAL/MOL
REMARK 927      BINDING AFFINITY PREDICTED BY RF-SCORE:    0.00 PKD
ROOT
HETATM    1  N   UNK A   0     -11.941  18.383  67.980  1.00  0.00     1.712 NA 
HETATM    2  H1  UNK A   0     -12.250  18.144  68.921  1.00  0.00     0.000 HD 
HETATM    3  C   UNK A   0     -10.696  18.878  67.761  1.00  0.00    -0.352 C  
HETATM    4  H2  UNK A   0     -12.576  18.247  67.192  1.00  0.00     0.000 HD 
HETATM    5  N   UNK A   0     -10.302  19.182  66.559  1.00  0.00    -0.409 N  
HETATM    6  H   UNK A   0     -10.936  19.068  65.768  1.00  0.00     0.000 HD 
HETATM    7  C   UNK A   0      -9.007  19.667  66.358  1.00  0.00    -0.378 C  
HETATM    8  C   UNK A   0      -8.164  19.748  67.554  1.00  0.00    -0.347 A  
HETATM    9  O   UNK A   0      -8.589  19.999  65.257  1.00  0.00    -0.005 OA 
HETATM   10  C   UNK A   0      -8.691  19.405  68.770  1.00  0.00    -0.337 A  
HETATM   11  N   UNK A   0      -7.751  19.514  69.740  1.00  0.00     0.138 NA 
HETATM   12  N   UNK A   0      -9.957  18.992  68.909  1.00  0.00    -0.421 NA 
HETATM   13  H   UNK A   0      -7.886  19.317  70.731  1.00  0.00     0.000 HD 
HETATM   14  C   UNK A   0      -6.583  19.939  69.151  1.00  0.00    -0.333 A  
HETATM   15  C   UNK A   0      -6.799  20.097  67.786  1.00  0.00    -0.309 A  
ENDROOT
BRANCH  15  16
HETATM   16  C   UNK A   0      -5.773  20.487  66.771  1.00  0.00    -0.214 C  
BRANCH  16  17
HETATM   17  C   UNK A   0      -5.127  19.293  66.047  1.00  0.00    -0.159 C  
BRANCH  17  18
HETATM   18  C   UNK A   0      -5.738  17.954  66.425  1.00  0.00    -0.215 A  
HETATM   19  C   UNK A   0      -6.821  17.419  65.717  1.00  0.00     0.029 A  
HETATM   20  C   UNK A   0      -7.450  16.252  66.147  1.00  0.00     0.365 A  
HETATM   21  C   UNK A   0      -6.989  15.582  67.283  1.00  0.00    -0.206 A  
HETATM   22  C   UNK A   0      -5.832  16.029  67.925  1.00  0.00    -0.150 A  
HETATM   23  C   UNK A   0      -5.213  17.214  67.499  1.00  0.00    -0.134 A  
BRANCH  21  24
HETATM   24  C   UNK A   0      -7.766  14.441  67.842  1.00  0.00    -0.146 C  
HETATM   25  O   UNK A   0      -8.577  14.567  68.751  1.00  0.00    -0.168 OA 
ATOM     26  N   GLU A   1      -7.528  13.226  67.229  1.00  0.00    -0.344 N  
ATOM     27  H   GLU A   1      -6.847  13.177  66.471  1.00  0.00     0.000 HD 
BRANCH  26  28
ATOM     28  CA  GLU A   1      -8.224  12.016  67.637  1.00  0.00    -0.155 C  
ATOM     29  C   GLU A   1      -7.198  11.002  68.157  1.00  0.00    -0.083 C  
ATOM     30  O   GLU A   1      -6.953  11.116  69.482  1.00  0.00    -0.121 OA 
ATOM     31  OXT GLU A   1      -6.633  10.168  67.450  1.00  0.00    -0.067 OA 
BRANCH  28  32
ATOM     32  CB  GLU A   1      -9.018  11.421  66.465  1.00  0.00    -0.192 C  
BRANCH  32  33
ATOM     33  CG  GLU A   1     -10.243  10.646  66.947  1.00  0.00    -0.272 C  
ATOM     34  CD  GLU A   1     -11.052  11.467  67.913  1.00  0.00    -0.256 C  
ATOM     35  OE1 GLU A   1     -12.026  12.193  67.324  1.00  0.00    -0.573 OA 
ATOM     36  OE2 GLU A   1     -10.833  11.505  69.115  1.00  0.00    -0.216 OA 
ENDBRANCH  32  33
ENDBRANCH  28  32
ENDBRANCH  26  28
ENDBRANCH  21  24
ENDBRANCH  17  18
ENDBRANCH  16  17
ENDBRANCH  15  16
TORSDOF 7
ENDMDL
MODEL      296
REMARK 921   NORMALIZED FREE ENERGY PREDICTED BY IDOCK:   -1.25 KCAL/MOL
REMARK 922        TOTAL FREE ENERGY PREDICTED BY IDOCK:   -4.40 KCAL/MOL
REMARK 923 INTER-LIGAND FREE ENERGY PREDICTED BY IDOCK:   -5.84 KCAL/MOL
REMARK 924 INTRA-LIGAND FREE ENERGY PREDICTED BY IDOCK:    1.43 KCAL/MOL
REMARK 927      BINDING AFFINITY PREDICTED BY RF-SCORE:    0.00 PKD
ROOT
HETATM    1  N   UNK A   0      -6.539   7.808  62.472  1.00  0.00    -0.079 NA 
HETATM    2  H1  UNK A   0      -6.614   7.020  61.830  1.00  0.00     0.000 HD 
HETATM    3  C   UNK A   0      -7.041   7.731  63.731  1.00  0.00    -0.073 C  
HETATM    4  H2  UNK A   0      -6.080   8.666  62.164  1.00  0.00     0.000 HD 
HETATM    5  N   UNK A   0      -6.945   8.737  64.549  1.00  0.00    -0.083 N  
HETATM    6  H   UNK A   0      -6.505   9.606  64.244  1.00  0.00     0.000 HD 
HETATM    7  C   UNK A   0      -7.448   8.623  65.848  1.00  0.00    -0.085 C  
HETATM    8  C   UNK A   0      -8.018   7.319  66.198  1.00  0.00    -0.112 A  
HETATM    9  O   UNK A   0      -7.415   9.544  66.653  1.00  0.00    -0.092 OA 
HETATM   10  C   UNK A   0      -8.070   6.334  65.249  1.00  0.00    -0.132 A  
HETATM   11  N   UNK A   0      -8.597   5.201  65.774  1.00  0.00    -0.130 NA 
HETATM   12  N   UNK A   0      -7.615   6.517  64.004  1.00  0.00    -0.093 NA 
HETATM   13  H   UNK A   0      -8.744   4.322  65.278  1.00  0.00     0.000 HD 
HETATM   14  C   UNK A   0      -8.897   5.446  67.093  1.00  0.00    -0.109 A  
HETATM   15  C   UNK A   0      -8.551   6.758  67.398  1.00  0.00    -0.120 A  
ENDROOT
BRANCH  15  16
HETATM   16  C   UNK A   0      -8.658   7.409  68.740  1.00  0.00    -0.129 C  
BRANCH  16  17
HETATM   17  C   UNK A   0     -10.098   7.496  69.276  1.00  0.00    -0.188 C  
BRANCH  17  18
HETATM   18  C   UNK A   0     -10.620   8.919  69.381  1.00  0.00    -0.226 A  
HETATM   19  C   UNK A   0     -10.313   9.883  68.413  1.00  0.00    -0.226 A  
HETATM   20  C   UNK A   0     -10.694  11.213  68.583  1.00  0.00    -0.234 A  
HETATM   21  C   UNK A   0     -11.414  11.599  69.717  1.00  0.00    -0.339 A  
HETATM   22  C   UNK A   0     -11.839  10.629  70.627  1.00  0.00    -0.463 A  
HETATM   23  C   UNK A   0     -11.438   9.295  70.461  1.00  0.00    -0.296 A  
BRANCH  21  24
HETATM   24  C   UNK A   0     -11.665  13.043  69.983  1.00  0.00    -0.215 C  
HETATM   25  O   UNK A   0     -12.714  13.461  70.458  1.00  0.00    -0.231 OA 
ATOM     26  N   GLU A   1     -10.605  13.877  69.686  1.00  0.00    -0.430 N  
ATOM     27  H   GLU A   1      -9.751  13.476  69.299  1.00  0.00     0.000 HD 
BRANCH  26  28
ATOM     28  CA  GLU A   1     -10.677  15.313  69.911  1.00  0.00    -0.285 C  
ATOM     29  C   GLU A   1     -12.147  15.748  69.893  1.00  0.00    -0.297 C  
ATOM     30  O   GLU A   1     -12.740  15.690  71.106  1.00  0.00    -0.433 OA 
ATOM     31  OXT GLU A   1     -12.747  16.105  68.879  1.00  0.00     0.528 OA 
BRANCH  28  32
ATOM     32  CB  GLU A   1      -9.879  16.074  68.842  1.00  0.00    -0.232 C  
BRANCH  32  33
ATOM     33  CG  GLU A   1      -9.746  17.557  69.183  1.00  0.00    -0.105 C  
ATOM     34  CD  GLU A   1      -9.384  18.358  67.963  1.00  0.00    -0.291 C  
ATOM     35  OE1 GLU A   1     -10.453  18.840  67.295  1.00  0.00    -0.388 OA 
ATOM     36  OE2 GLU A   1      -8.235  18.531  67.586  1.00  0.00    -0.250 OA 
ENDBRANCH  32  33
ENDBRANCH  28  32
ENDBRANCH  26  28
ENDBRANCH  21  24
ENDBRANCH  17  18
ENDBRANCH  16  17
ENDBRANCH  15  16
TORSDOF 7
ENDMDL
MODEL      297
REMARK 921   NORMALIZED FREE ENERGY PREDICTED BY IDOCK:   -0.91 KCAL/MOL
REMARK 922        TOTAL FREE ENERGY PREDICTED BY IDOCK:   -3.92 KCAL/MOL
REMARK 923 INTER-LIGAND FREE ENERGY PREDICTED BY IDOCK:   -4.31 KCAL/MOL
REMARK 924 INTRA-LIGAND FREE ENERGY PREDICTED BY IDOCK:    0.38 KCAL/MOL
REMARK 927      BINDING AFFINITY PREDICTED BY RF-SCORE:    0.00 PKD
ROOT
HETATM    1  N   UNK A   0      -5.898  17.246  69.987  1.00  0.00    -0.246 NA 
HETATM    2  H1  UNK A   0      -4.892  17.218  70.151  1.00  0.00     0.000 HD 
HETATM    3  C   UNK A   0      -6.553  16.164  69.494  1.00  0.00    -0.200 C  
HETATM    4  H2  UNK A   0      -6.419  18.098  70.197  1.00  0.00     0.000 HD 
HETATM    5  N   UNK A   0      -7.836  16.200  69.286  1.00  0.00    -0.234 N  
HETATM    6  H   UNK A   0      -8.362  17.053  69.474  1.00  0.00     0.000 HD 
HETATM    7  C   UNK A   0      -8.490  15.064  68.802  1.00  0.00    -0.180 C  
HETATM    8  C   UNK A   0      -7.650  13.878  68.609  1.00  0.00    -0.130 A  
HETATM    9  O   UNK A   0      -9.689  15.045  68.556  1.00  0.00    -0.204 OA 
HETATM   10  C   UNK A   0      -6.307  13.962  68.857  1.00  0.00    -0.094 A  
HETATM   11  N   UNK A   0      -5.714  12.760  68.654  1.00  0.00    -0.065 NA 
HETATM   12  N   UNK A   0      -5.726  15.094  69.274  1.00  0.00    -0.095 NA 
HETATM   13  H   UNK A   0      -4.722  12.553  68.769  1.00  0.00     0.000 HD 
HETATM   14  C   UNK A   0      -6.686  11.869  68.264  1.00  0.00    -0.063 A  
HETATM   15  C   UNK A   0      -7.910  12.529  68.223  1.00  0.00    -0.144 A  
ENDROOT
BRANCH  15  16
HETATM   16  C   UNK A   0      -9.234  11.910  67.904  1.00  0.00    -0.187 C  
BRANCH  16  17
HETATM   17  C   UNK A   0      -9.199  10.951  66.702  1.00  0.00    -0.184 C  
BRANCH  17  18
HETATM   18  C   UNK A   0      -9.031   9.493  67.096  1.00  0.00    -0.148 A  
HETATM   19  C   UNK A   0      -9.112   8.466  66.146  1.00  0.00    -0.238 A  
HETATM   20  C   UNK A   0      -9.078   7.128  66.536  1.00  0.00    -0.182 A  
HETATM   21  C   UNK A   0      -8.938   6.792  67.885  1.00  0.00    -0.113 A  
HETATM   22  C   UNK A   0      -8.727   7.800  68.829  1.00  0.00    -0.128 A  
HETATM   23  C   UNK A   0      -8.779   9.144  68.434  1.00  0.00    -0.129 A  
BRANCH  21  24
HETATM   24  C   UNK A   0      -9.081   5.374  68.317  1.00  0.00    -0.109 C  
HETATM   25  O   UNK A   0      -9.967   4.992  69.072  1.00  0.00    -0.174 OA 
ATOM     26  N   GLU A   1      -8.153   4.509  67.771  1.00  0.00    -0.098 N  
ATOM     27  H   GLU A   1      -7.439   4.878  67.142  1.00  0.00     0.000 HD 
BRANCH  26  28
ATOM     28  CA  GLU A   1      -8.168   3.085  68.070  1.00  0.00    -0.077 C  
ATOM     29  C   GLU A   1      -7.871   2.303  66.785  1.00  0.00    -0.071 C  
ATOM     30  O   GLU A   1      -6.553   2.083  66.580  1.00  0.00    -0.036 OA 
ATOM     31  OXT GLU A   1      -8.736   1.916  65.998  1.00  0.00    -0.108 OA 
BRANCH  28  32
ATOM     32  CB  GLU A   1      -9.523   2.663  68.654  1.00  0.00    -0.193 C  
BRANCH  32  33
ATOM     33  CG  GLU A   1      -9.359   1.712  69.838  1.00  0.00    -0.165 C  
ATOM     34  CD  GLU A   1      -9.051   2.472  71.099  1.00  0.00    -0.110 C  
ATOM     35  OE1 GLU A   1     -10.148   2.806  71.811  1.00  0.00    -0.149 OA 
ATOM     36  OE2 GLU A   1      -7.920   2.792  71.435  1.00  0.00    -0.050 OA 
ENDBRANCH  32  33
ENDBRANCH  28  32
ENDBRANCH  26  28
ENDBRANCH  21  24
ENDBRANCH  17  18
ENDBRANCH  16  17
ENDBRANCH  15  16
TORSDOF 7
ENDMDL
MODEL      298
REMARK 921   NORMALIZED FREE ENERGY PREDICTED BY IDOCK:   -0.86 KCAL/MOL
REMARK 922        TOTAL FREE ENERGY PREDICTED BY IDOCK:   -3.86 KCAL/MOL
REMARK 923 INTER-LIGAND FREE ENERGY PREDICTED BY IDOCK:   -5.75 KCAL/MOL
REMARK 924 INTRA-LIGAND FREE ENERGY PREDICTED BY IDOCK:    1.90 KCAL/MOL
REMARK 927      BINDING AFFINITY PREDICTED BY RF-SCORE:    0.00 PKD
ROOT
HETATM    1  N   UNK A   0      -6.536   5.755  63.411  1.00  0.00    -0.031 NA 
HETATM    2  H1  UNK A   0      -5.852   5.925  62.674  1.00  0.00     0.000 HD 
HETATM    3  C   UNK A   0      -6.795   6.700  64.351  1.00  0.00    -0.046 C  
HETATM    4  H2  UNK A   0      -7.031   4.863  63.443  1.00  0.00     0.000 HD 
HETATM    5  N   UNK A   0      -7.667   6.482  65.291  1.00  0.00    -0.095 N  
HETATM    6  H   UNK A   0      -8.154   5.587  65.342  1.00  0.00     0.000 HD 
HETATM    7  C   UNK A   0      -7.934   7.481  66.231  1.00  0.00    -0.109 C  
HETATM    8  C   UNK A   0      -7.216   8.745  66.040  1.00  0.00    -0.088 A  
HETATM    9  O   UNK A   0      -8.720   7.325  67.157  1.00  0.00    -0.119 OA 
HETATM   10  C   UNK A   0      -6.316   8.855  65.015  1.00  0.00    -0.065 A  
HETATM   11  N   UNK A   0      -5.786  10.102  64.985  1.00  0.00    -0.102 NA 
HETATM   12  N   UNK A   0      -6.065   7.846  64.173  1.00  0.00    -0.056 NA 
HETATM   13  H   UNK A   0      -5.092  10.444  64.320  1.00  0.00     0.000 HD 
HETATM   14  C   UNK A   0      -6.348  10.825  66.011  1.00  0.00    -0.126 A  
HETATM   15  C   UNK A   0      -7.247  10.013  66.694  1.00  0.00    -0.099 A  
ENDROOT
BRANCH  15  16
HETATM   16  C   UNK A   0      -8.115  10.428  67.839  1.00  0.00    -0.102 C  
BRANCH  16  17
HETATM   17  C   UNK A   0      -9.513  10.910  67.418  1.00  0.00    -0.170 C  
BRANCH  17  18
HETATM   18  C   UNK A   0      -9.603  12.414  67.224  1.00  0.00    -0.199 A  
HETATM   19  C   UNK A   0      -8.540  13.260  67.569  1.00  0.00    -0.200 A  
HETATM   20  C   UNK A   0      -8.679  14.646  67.502  1.00  0.00    -0.194 A  
HETATM   21  C   UNK A   0      -9.879  15.212  67.063  1.00  0.00    -0.233 A  
HETATM   22  C   UNK A   0     -10.902  14.384  66.594  1.00  0.00    -0.304 A  
HETATM   23  C   UNK A   0     -10.764  12.991  66.679  1.00  0.00    -0.285 A  
BRANCH  21  24
HETATM   24  C   UNK A   0     -10.087  16.684  67.161  1.00  0.00    -0.276 C  
HETATM   25  O   UNK A   0     -10.827  17.304  66.408  1.00  0.00    -0.126 OA 
ATOM     26  N   GLU A   1      -9.403  17.295  68.193  1.00  0.00    -0.266 N  
ATOM     27  H   GLU A   1      -8.804  16.731  68.796  1.00  0.00     0.000 HD 
BRANCH  26  28
ATOM     28  CA  GLU A   1      -9.516  18.724  68.443  1.00  0.00    -0.349 C  
ATOM     29  C   GLU A   1      -9.730  19.449  67.109  1.00  0.00    -0.333 C  
ATOM     30  O   GLU A   1     -11.032  19.569  66.764  1.00  0.00    -0.436 OA 
ATOM     31  OXT GLU A   1      -8.817  19.874  66.401  1.00  0.00    -0.350 OA 
BRANCH  28  32
ATOM     32  CB  GLU A   1      -8.260  19.257  69.147  1.00  0.00    -0.183 C  
BRANCH  32  33
ATOM     33  CG  GLU A   1      -7.125  19.520  68.159  1.00  0.00    -0.319 C  
ATOM     34  CD  GLU A   1      -6.199  18.337  68.078  1.00  0.00    -0.181 C  
ATOM     35  OE1 GLU A   1      -6.531  17.455  67.112  1.00  0.00    -0.140 OA 
ATOM     36  OE2 GLU A   1      -5.254  18.167  68.834  1.00  0.00    -0.171 OA 
ENDBRANCH  32  33
ENDBRANCH  28  32
ENDBRANCH  26  28
ENDBRANCH  21  24
ENDBRANCH  17  18
ENDBRANCH  16  17
ENDBRANCH  15  16
TORSDOF 7
ENDMDL
MODEL      299
REMARK 921   NORMALIZED FREE ENERGY PREDICTED BY IDOCK:   -0.74 KCAL/MOL
REMARK 922        TOTAL FREE ENERGY PREDICTED BY IDOCK:   -3.68 KCAL/MOL
REMARK 923 INTER-LIGAND FREE ENERGY PREDICTED BY IDOCK:   -4.00 KCAL/MOL
REMARK 924 INTRA-LIGAND FREE ENERGY PREDICTED BY IDOCK:    0.32 KCAL/MOL
REMARK 927      BINDING AFFINITY PREDICTED BY RF-SCORE:    0.00 PKD
ROOT
HETATM    1  N   UNK A   0     -12.008  19.755  67.253  1.00  0.00     1.576 NA 
HETATM    2  H1  UNK A   0     -12.579  19.805  68.095  1.00  0.00     0.000 HD 
HETATM    3  C   UNK A   0     -10.654  19.841  67.324  1.00  0.00    -0.434 C  
HETATM    4  H2  UNK A   0     -12.458  19.638  66.345  1.00  0.00     0.000 HD 
HETATM    5  N   UNK A   0      -9.925  19.776  66.250  1.00  0.00    -0.443 N  
HETATM    6  H   UNK A   0     -10.367  19.678  65.336  1.00  0.00     0.000 HD 
HETATM    7  C   UNK A   0      -8.533  19.842  66.354  1.00  0.00    -0.359 C  
HETATM    8  C   UNK A   0      -7.999  19.935  67.715  1.00  0.00    -0.326 A  
HETATM    9  O   UNK A   0      -7.795  19.818  65.377  1.00  0.00    -0.347 OA 
HETATM   10  C   UNK A   0      -8.867  20.002  68.771  1.00  0.00     0.084 A  
HETATM   11  N   UNK A   0      -8.183  20.049  69.941  1.00  0.00     0.635 NA 
HETATM   12  N   UNK A   0     -10.195  19.983  68.607  1.00  0.00    -0.408 NA 
HETATM   13  H   UNK A   0      -8.593  20.102  70.874  1.00  0.00     0.000 HD 
HETATM   14  C   UNK A   0      -6.841  20.013  69.648  1.00  0.00    -0.210 A  
HETATM   15  C   UNK A   0      -6.683  19.942  68.268  1.00  0.00    -0.323 A  
ENDROOT
BRANCH  15  16
HETATM   16  C   UNK A   0      -5.385  19.826  67.534  1.00  0.00    -0.172 C  
BRANCH  16  17
HETATM   17  C   UNK A   0      -5.176  18.464  66.851  1.00  0.00    -0.144 C  
BRANCH  17  18
HETATM   18  C   UNK A   0      -6.236  17.437  67.211  1.00  0.00    -0.173 A  
HETATM   19  C   UNK A   0      -6.639  17.238  68.538  1.00  0.00    -0.174 A  
HETATM   20  C   UNK A   0      -7.520  16.210  68.871  1.00  0.00    -0.197 A  
HETATM   21  C   UNK A   0      -8.036  15.376  67.875  1.00  0.00    -0.144 A  
HETATM   22  C   UNK A   0      -7.746  15.641  66.534  1.00  0.00     0.082 A  
HETATM   23  C   UNK A   0      -6.846  16.665  66.207  1.00  0.00     0.169 A  
BRANCH  21  24
HETATM   24  C   UNK A   0      -8.833  14.174  68.250  1.00  0.00    -0.187 C  
HETATM   25  O   UNK A   0      -8.348  13.202  68.814  1.00  0.00    -0.035 OA 
ATOM     26  N   GLU A   1     -10.177  14.255  67.942  1.00  0.00    -0.234 N  
ATOM     27  H   GLU A   1     -10.531  15.091  67.477  1.00  0.00     0.000 HD 
BRANCH  26  28
ATOM     28  CA  GLU A   1     -11.100  13.178  68.264  1.00  0.00    -0.266 C  
ATOM     29  C   GLU A   1     -11.386  12.370  66.993  1.00  0.00    -0.327 C  
ATOM     30  O   GLU A   1     -10.518  11.351  66.795  1.00  0.00    -0.225 OA 
ATOM     31  OXT GLU A   1     -12.303  12.618  66.210  1.00  0.00    -0.550 OA 
BRANCH  28  32
ATOM     32  CB  GLU A   1     -12.405  13.733  68.851  1.00  0.00    -0.067 C  
BRANCH  32  33
ATOM     33  CG  GLU A   1     -12.215  15.134  69.430  1.00  0.00    -0.237 C  
ATOM     34  CD  GLU A   1     -11.762  15.064  70.863  1.00  0.00    -0.328 C  
ATOM     35  OE1 GLU A   1     -10.420  15.069  71.008  1.00  0.00     0.062 OA 
ATOM     36  OE2 GLU A   1     -12.529  14.977  71.810  1.00  0.00    -0.305 OA 
ENDBRANCH  32  33
ENDBRANCH  28  32
ENDBRANCH  26  28
ENDBRANCH  21  24
ENDBRANCH  17  18
ENDBRANCH  16  17
ENDBRANCH  15  16
TORSDOF 7
ENDMDL
MODEL      300
REMARK 921   NORMALIZED FREE ENERGY PREDICTED BY IDOCK:   -0.52 KCAL/MOL
REMARK 922        TOTAL FREE ENERGY PREDICTED BY IDOCK:   -3.38 KCAL/MOL
REMARK 923 INTER-LIGAND FREE ENERGY PREDICTED BY IDOCK:   -3.76 KCAL/MOL
REMARK 924 INTRA-LIGAND FREE ENERGY PREDICTED BY IDOCK:    0.38 KCAL/MOL
REMARK 927      BINDING AFFINITY PREDICTED BY RF-SCORE:    0.00 PKD
ROOT
HETATM    1  N   UNK A   0     -11.938  18.383  67.978  1.00  0.00     1.712 NA 
HETATM    2  H1  UNK A   0     -12.240  18.120  68.916  1.00  0.00     0.000 HD 
HETATM    3  C   UNK A   0     -10.699  18.895  67.765  1.00  0.00    -0.352 C  
HETATM    4  H2  UNK A   0     -12.575  18.259  67.191  1.00  0.00     0.000 HD 
HETATM    5  N   UNK A   0     -10.313  19.230  66.569  1.00  0.00    -0.414 N  
HETATM    6  H   UNK A   0     -10.950  19.127  65.778  1.00  0.00     0.000 HD 
HETATM    7  C   UNK A   0      -9.024  19.731  66.373  1.00  0.00    -0.379 C  
HETATM    8  C   UNK A   0      -8.176  19.793  67.567  1.00  0.00    -0.347 A  
HETATM    9  O   UNK A   0      -8.614  20.092  65.277  1.00  0.00    -0.005 OA 
HETATM   10  C   UNK A   0      -8.694  19.417  68.776  1.00  0.00    -0.337 A  
HETATM   11  N   UNK A   0      -7.750  19.514  69.744  1.00  0.00     0.138 NA 
HETATM   12  N   UNK A   0      -9.955  18.990  68.912  1.00  0.00    -0.421 NA 
HETATM   13  H   UNK A   0      -7.878  19.293  70.732  1.00  0.00     0.000 HD 
HETATM   14  C   UNK A   0      -6.589  19.962  69.159  1.00  0.00    -0.333 A  
HETATM   15  C   UNK A   0      -6.813  20.149  67.800  1.00  0.00    -0.309 A  
ENDROOT
BRANCH  15  16
HETATM   16  C   UNK A   0      -5.795  20.572  66.789  1.00  0.00    -0.217 C  
BRANCH  16  17
HETATM   17  C   UNK A   0      -5.153  19.401  66.025  1.00  0.00    -0.159 C  
BRANCH  17  18
HETATM   18  C   UNK A   0      -5.765  18.051  66.359  1.00  0.00    -0.209 A  
HETATM   19  C   UNK A   0      -6.856  17.546  65.641  1.00  0.00     0.099 A  
HETATM   20  C   UNK A   0      -7.485  16.366  66.035  1.00  0.00     0.503 A  
HETATM   21  C   UNK A   0      -7.017  15.654  67.142  1.00  0.00    -0.169 A  
HETATM   22  C   UNK A   0      -5.853  16.074  67.791  1.00  0.00    -0.162 A  
HETATM   23  C   UNK A   0      -5.234  17.271  67.402  1.00  0.00    -0.145 A  
BRANCH  21  24
HETATM   24  C   UNK A   0      -7.794  14.496  67.666  1.00  0.00    -0.180 C  
HETATM   25  O   UNK A   0      -8.402  14.526  68.728  1.00  0.00    -0.160 OA 
ATOM     26  N   GLU A   1      -7.806  13.389  66.840  1.00  0.00    -0.370 N  
ATOM     27  H   GLU A   1      -7.288  13.419  65.961  1.00  0.00     0.000 HD 
BRANCH  26  28
ATOM     28  CA  GLU A   1      -8.539  12.182  67.190  1.00  0.00    -0.185 C  
ATOM     29  C   GLU A   1     -10.003  12.347  66.765  1.00  0.00    -0.225 C  
ATOM     30  O   GLU A   1     -10.246  11.935  65.500  1.00  0.00    -0.237 OA 
ATOM     31  OXT GLU A   1     -10.882  12.819  67.487  1.00  0.00    -0.231 OA 
BRANCH  28  32
ATOM     32  CB  GLU A   1      -8.447  11.905  68.697  1.00  0.00    -0.045 C  
BRANCH  32  33
ATOM     33  CG  GLU A   1      -8.554  10.413  69.007  1.00  0.00    -0.158 C  
ATOM     34  CD  GLU A   1      -7.251   9.881  69.539  1.00  0.00    -0.095 C  
ATOM     35  OE1 GLU A   1      -7.160   9.921  70.885  1.00  0.00    -0.323 OA 
ATOM     36  OE2 GLU A   1      -6.344   9.480  68.825  1.00  0.00    -0.047 OA 
ENDBRANCH  32  33
ENDBRANCH  28  32
ENDBRANCH  26  28
ENDBRANCH  21  24
ENDBRANCH  17  18
ENDBRANCH  16  17
ENDBRANCH  15  16
TORSDOF 7
ENDMDL
MODEL      301
REMARK 921   NORMALIZED FREE ENERGY PREDICTED BY IDOCK:   -0.47 KCAL/MOL
REMARK 922        TOTAL FREE ENERGY PREDICTED BY IDOCK:   -3.31 KCAL/MOL
REMARK 923 INTER-LIGAND FREE ENERGY PREDICTED BY IDOCK:   -6.61 KCAL/MOL
REMARK 924 INTRA-LIGAND FREE ENERGY PREDICTED BY IDOCK:    3.31 KCAL/MOL
REMARK 927      BINDING AFFINITY PREDICTED BY RF-SCORE:    0.00 PKD
ROOT
HETATM    1  N   UNK A   0     -14.189   9.814  73.243  1.00  0.00     0.178 NA 
HETATM    2  H1  UNK A   0     -14.674  10.566  73.731  1.00  0.00     0.000 HD 
HETATM    3  C   UNK A   0     -13.405  10.076  72.166  1.00  0.00    -0.368 C  
HETATM    4  H2  UNK A   0     -14.294   8.852  73.567  1.00  0.00     0.000 HD 
HETATM    5  N   UNK A   0     -12.786   9.116  71.543  1.00  0.00    -0.334 N  
HETATM    6  H   UNK A   0     -12.900   8.150  71.849  1.00  0.00     0.000 HD 
HETATM    7  C   UNK A   0     -11.965   9.416  70.453  1.00  0.00    -0.029 C  
HETATM    8  C   UNK A   0     -11.834  10.839  70.126  1.00  0.00    -0.427 A  
HETATM    9  O   UNK A   0     -11.382   8.554  69.808  1.00  0.00    -0.059 OA 
HETATM   10  C   UNK A   0     -12.539  11.760  70.851  1.00  0.00    -0.289 A  
HETATM   11  N   UNK A   0     -12.259  13.014  70.420  1.00  0.00    -0.363 NA 
HETATM   12  N   UNK A   0     -13.350  11.409  71.856  1.00  0.00    -0.399 NA 
HETATM   13  H   UNK A   0     -12.652  13.879  70.792  1.00  0.00     0.000 HD 
HETATM   14  C   UNK A   0     -11.352  12.915  69.391  1.00  0.00    -0.201 A  
HETATM   15  C   UNK A   0     -11.060  11.572  69.177  1.00  0.00    -0.316 A  
ENDROOT
BRANCH  15  16
HETATM   16  C   UNK A   0     -10.076  11.031  68.189  1.00  0.00    -0.195 C  
BRANCH  16  17
HETATM   17  C   UNK A   0      -9.751  12.000  67.039  1.00  0.00    -0.204 C  
BRANCH  17  18
HETATM   18  C   UNK A   0      -9.247  13.353  67.511  1.00  0.00    -0.219 A  
HETATM   19  C   UNK A   0     -10.132  14.367  67.902  1.00  0.00    -0.228 A  
HETATM   20  C   UNK A   0      -9.664  15.642  68.216  1.00  0.00    -0.201 A  
HETATM   21  C   UNK A   0      -8.295  15.920  68.168  1.00  0.00    -0.162 A  
HETATM   22  C   UNK A   0      -7.390  14.889  67.907  1.00  0.00    -0.159 A  
HETATM   23  C   UNK A   0      -7.867  13.613  67.575  1.00  0.00    -0.185 A  
BRANCH  21  24
HETATM   24  C   UNK A   0      -7.815  17.321  68.329  1.00  0.00    -0.244 C  
HETATM   25  O   UNK A   0      -8.507  18.213  68.803  1.00  0.00    -0.289 OA 
ATOM     26  N   GLU A   1      -6.508  17.532  67.934  1.00  0.00    -0.160 N  
ATOM     27  H   GLU A   1      -5.973  16.752  67.553  1.00  0.00     0.000 HD 
BRANCH  26  28
ATOM     28  CA  GLU A   1      -5.876  18.837  68.049  1.00  0.00    -0.202 C  
ATOM     29  C   GLU A   1      -6.096  19.375  69.468  1.00  0.00    -0.277 C  
ATOM     30  O   GLU A   1      -5.129  19.008  70.339  1.00  0.00    -0.187 OA 
ATOM     31  OXT GLU A   1      -7.060  20.063  69.803  1.00  0.00    -0.228 OA 
BRANCH  28  32
ATOM     32  CB  GLU A   1      -6.448  19.814  67.012  1.00  0.00    -0.208 C  
BRANCH  32  33
ATOM     33  CG  GLU A   1      -7.103  19.080  65.843  1.00  0.00    -0.294 C  
ATOM     34  CD  GLU A   1      -6.267  19.199  64.598  1.00  0.00    -0.175 C  
ATOM     35  OE1 GLU A   1      -5.385  18.189  64.441  1.00  0.00     0.034 OA 
ATOM     36  OE2 GLU A   1      -6.349  20.134  63.817  1.00  0.00    -0.222 OA 
ENDBRANCH  32  33
ENDBRANCH  28  32
ENDBRANCH  26  28
ENDBRANCH  21  24
ENDBRANCH  17  18
ENDBRANCH  16  17
ENDBRANCH  15  16
TORSDOF 7
ENDMDL
MODEL      302
REMARK 921   NORMALIZED FREE ENERGY PREDICTED BY IDOCK:   -0.24 KCAL/MOL
REMARK 922        TOTAL FREE ENERGY PREDICTED BY IDOCK:   -2.98 KCAL/MOL
REMARK 923 INTER-LIGAND FREE ENERGY PREDICTED BY IDOCK:   -5.66 KCAL/MOL
REMARK 924 INTRA-LIGAND FREE ENERGY PREDICTED BY IDOCK:    2.68 KCAL/MOL
REMARK 927      BINDING AFFINITY PREDICTED BY RF-SCORE:    0.00 PKD
ROOT
HETATM    1  N   UNK A   0      -7.514   9.906  63.244  1.00  0.00    -0.127 NA 
HETATM    2  H1  UNK A   0      -7.578   9.543  62.294  1.00  0.00     0.000 HD 
HETATM    3  C   UNK A   0      -8.479  10.719  63.744  1.00  0.00     0.008 C  
HETATM    4  H2  UNK A   0      -6.716   9.654  63.827  1.00  0.00     0.000 HD 
HETATM    5  N   UNK A   0      -8.398  11.182  64.957  1.00  0.00    -0.373 N  
HETATM    6  H   UNK A   0      -7.594  10.950  65.541  1.00  0.00     0.000 HD 
HETATM    7  C   UNK A   0      -9.417  11.997  65.456  1.00  0.00    -0.104 C  
HETATM    8  C   UNK A   0     -10.548  12.229  64.553  1.00  0.00    -0.346 A  
HETATM    9  O   UNK A   0      -9.383  12.487  66.577  1.00  0.00    -0.234 OA 
HETATM   10  C   UNK A   0     -10.519  11.693  63.294  1.00  0.00    -0.383 A  
HETATM   11  N   UNK A   0     -11.663  11.990  62.629  1.00  0.00     0.083 NA 
HETATM   12  N   UNK A   0      -9.491  10.958  62.853  1.00  0.00    -0.330 NA 
HETATM   13  H   UNK A   0     -11.893  11.710  61.676  1.00  0.00     0.000 HD 
HETATM   14  C   UNK A   0     -12.458  12.736  63.467  1.00  0.00    -0.379 A  
HETATM   15  C   UNK A   0     -11.798  12.907  64.679  1.00  0.00    -0.422 A  
ENDROOT
BRANCH  15  16
HETATM   16  C   UNK A   0     -12.338  13.607  65.886  1.00  0.00    -0.516 C  
BRANCH  16  17
HETATM   17  C   UNK A   0     -11.306  13.790  67.012  1.00  0.00    -0.345 C  
BRANCH  17  18
HETATM   18  C   UNK A   0     -11.467  12.796  68.149  1.00  0.00    -0.357 A  
HETATM   19  C   UNK A   0     -11.037  13.095  69.448  1.00  0.00    -0.140 A  
HETATM   20  C   UNK A   0     -11.078  12.131  70.454  1.00  0.00     1.011 A  
HETATM   21  C   UNK A   0     -11.575  10.853  70.184  1.00  0.00    -0.425 A  
HETATM   22  C   UNK A   0     -12.126  10.578  68.930  1.00  0.00     0.094 A  
HETATM   23  C   UNK A   0     -12.067  11.545  67.917  1.00  0.00     0.054 A  
BRANCH  21  24
HETATM   24  C   UNK A   0     -11.454   9.776  71.206  1.00  0.00    -0.385 C  
HETATM   25  O   UNK A   0     -12.123   9.751  72.231  1.00  0.00    -0.129 OA 
ATOM     26  N   GLU A   1     -10.550   8.781  70.891  1.00  0.00    -0.207 N  
ATOM     27  H   GLU A   1     -10.023   8.846  70.019  1.00  0.00     0.000 HD 
BRANCH  26  28
ATOM     28  CA  GLU A   1     -10.329   7.642  71.769  1.00  0.00    -0.197 C  
ATOM     29  C   GLU A   1     -11.506   6.670  71.630  1.00  0.00    -0.288 C  
ATOM     30  O   GLU A   1     -11.331   5.748  70.656  1.00  0.00    -0.222 OA 
ATOM     31  OXT GLU A   1     -12.525   6.717  72.320  1.00  0.00    -0.198 OA 
BRANCH  28  32
ATOM     32  CB  GLU A   1     -10.180   8.098  73.227  1.00  0.00    -0.037 C  
BRANCH  32  33
ATOM     33  CG  GLU A   1      -8.992   7.426  73.913  1.00  0.00    -0.281 C  
ATOM     34  CD  GLU A   1      -7.746   7.561  73.081  1.00  0.00    -0.101 C  
ATOM     35  OE1 GLU A   1      -7.011   8.652  73.382  1.00  0.00    -0.295 OA 
ATOM     36  OE2 GLU A   1      -7.439   6.780  72.193  1.00  0.00    -0.091 OA 
ENDBRANCH  32  33
ENDBRANCH  28  32
ENDBRANCH  26  28
ENDBRANCH  21  24
ENDBRANCH  17  18
ENDBRANCH  16  17
ENDBRANCH  15  16
TORSDOF 7
ENDMDL
MODEL      303
REMARK 921   NORMALIZED FREE ENERGY PREDICTED BY IDOCK:   -0.16 KCAL/MOL
REMARK 922        TOTAL FREE ENERGY PREDICTED BY IDOCK:   -2.87 KCAL/MOL
REMARK 923 INTER-LIGAND FREE ENERGY PREDICTED BY IDOCK:   -5.73 KCAL/MOL
REMARK 924 INTRA-LIGAND FREE ENERGY PREDICTED BY IDOCK:    2.86 KCAL/MOL
REMARK 927      BINDING AFFINITY PREDICTED BY RF-SCORE:    0.00 PKD
ROOT
HETATM    1  N   UNK A   0      -8.701   5.386  70.708  1.00  0.00    -0.130 NA 
HETATM    2  H1  UNK A   0      -8.328   5.972  71.453  1.00  0.00     0.000 HD 
HETATM    3  C   UNK A   0      -8.190   5.450  69.451  1.00  0.00    -0.096 C  
HETATM    4  H2  UNK A   0      -9.467   4.743  70.908  1.00  0.00     0.000 HD 
HETATM    5  N   UNK A   0      -8.666   4.701  68.500  1.00  0.00    -0.097 N  
HETATM    6  H   UNK A   0      -9.445   4.068  68.687  1.00  0.00     0.000 HD 
HETATM    7  C   UNK A   0      -8.107   4.768  67.222  1.00  0.00    -0.102 C  
HETATM    8  C   UNK A   0      -6.964   5.674  67.073  1.00  0.00    -0.065 A  
HETATM    9  O   UNK A   0      -8.530   4.112  66.279  1.00  0.00    -0.108 OA 
HETATM   10  C   UNK A   0      -6.554   6.417  68.146  1.00  0.00    -0.066 A  
HETATM   11  N   UNK A   0      -5.470   7.161  67.818  1.00  0.00    -0.019 NA 
HETATM   12  N   UNK A   0      -7.161   6.347  69.337  1.00  0.00    -0.083 NA 
HETATM   13  H   UNK A   0      -4.972   7.801  68.437  1.00  0.00     0.000 HD 
HETATM   14  C   UNK A   0      -5.161   6.903  66.504  1.00  0.00    -0.017 A  
HETATM   15  C   UNK A   0      -6.070   5.978  66.001  1.00  0.00    -0.032 A  
ENDROOT
BRANCH  15  16
HETATM   16  C   UNK A   0      -6.055   5.383  64.630  1.00  0.00    -0.022 C  
BRANCH  16  17
HETATM   17  C   UNK A   0      -7.092   5.996  63.673  1.00  0.00    -0.052 C  
BRANCH  17  18
HETATM   18  C   UNK A   0      -7.751   7.251  64.218  1.00  0.00    -0.124 A  
HETATM   19  C   UNK A   0      -8.558   7.215  65.362  1.00  0.00    -0.046 A  
HETATM   20  C   UNK A   0      -9.255   8.348  65.781  1.00  0.00    -0.175 A  
HETATM   21  C   UNK A   0      -9.136   9.548  65.075  1.00  0.00    -0.281 A  
HETATM   22  C   UNK A   0      -8.236   9.636  64.010  1.00  0.00    -0.159 A  
HETATM   23  C   UNK A   0      -7.551   8.490  63.582  1.00  0.00    -0.127 A  
BRANCH  21  24
HETATM   24  C   UNK A   0     -10.013  10.702  65.416  1.00  0.00    -0.281 C  
HETATM   25  O   UNK A   0     -11.110  10.881  64.902  1.00  0.00    -0.076 OA 
ATOM     26  N   GLU A   1      -9.508  11.543  66.389  1.00  0.00    -0.206 N  
ATOM     27  H   GLU A   1      -8.592  11.344  66.790  1.00  0.00     0.000 HD 
BRANCH  26  28
ATOM     28  CA  GLU A   1     -10.251  12.703  66.856  1.00  0.00    -0.234 C  
ATOM     29  C   GLU A   1     -11.752  12.422  66.724  1.00  0.00    -0.362 C  
ATOM     30  O   GLU A   1     -12.289  11.837  67.819  1.00  0.00    -0.369 OA 
ATOM     31  OXT GLU A   1     -12.417  12.683  65.721  1.00  0.00    -0.607 OA 
BRANCH  28  32
ATOM     32  CB  GLU A   1      -9.868  13.956  66.056  1.00  0.00    -0.306 C  
BRANCH  32  33
ATOM     33  CG  GLU A   1      -9.916  15.216  66.917  1.00  0.00    -0.243 C  
ATOM     34  CD  GLU A   1      -9.408  16.408  66.154  1.00  0.00    -0.325 C  
ATOM     35  OE1 GLU A   1     -10.376  17.089  65.506  1.00  0.00    -0.585 OA 
ATOM     36  OE2 GLU A   1      -8.227  16.718  66.093  1.00  0.00    -0.332 OA 
ENDBRANCH  32  33
ENDBRANCH  28  32
ENDBRANCH  26  28
ENDBRANCH  21  24
ENDBRANCH  17  18
ENDBRANCH  16  17
ENDBRANCH  15  16
TORSDOF 7
ENDMDL
MODEL      304
REMARK 921   NORMALIZED FREE ENERGY PREDICTED BY IDOCK:    0.07 KCAL/MOL
REMARK 922        TOTAL FREE ENERGY PREDICTED BY IDOCK:   -2.54 KCAL/MOL
REMARK 923 INTER-LIGAND FREE ENERGY PREDICTED BY IDOCK:   -3.66 KCAL/MOL
REMARK 924 INTRA-LIGAND FREE ENERGY PREDICTED BY IDOCK:    1.12 KCAL/MOL
REMARK 927      BINDING AFFINITY PREDICTED BY RF-SCORE:    0.00 PKD
ROOT
HETATM    1  N   UNK A   0      -7.380  18.009  68.674  1.00  0.00    -0.275 NA 
HETATM    2  H1  UNK A   0      -6.416  18.317  68.549  1.00  0.00     0.000 HD 
HETATM    3  C   UNK A   0      -7.759  16.752  68.326  1.00  0.00    -0.187 C  
HETATM    4  H2  UNK A   0      -8.067  18.653  69.065  1.00  0.00     0.000 HD 
HETATM    5  N   UNK A   0      -8.988  16.359  68.486  1.00  0.00    -0.214 N  
HETATM    6  H   UNK A   0      -9.687  17.002  68.859  1.00  0.00     0.000 HD 
HETATM    7  C   UNK A   0      -9.347  15.053  68.144  1.00  0.00    -0.187 C  
HETATM    8  C   UNK A   0      -8.257  14.198  67.662  1.00  0.00    -0.193 A  
HETATM    9  O   UNK A   0     -10.493  14.634  68.242  1.00  0.00    -0.228 OA 
HETATM   10  C   UNK A   0      -7.002  14.725  67.530  1.00  0.00    -0.172 A  
HETATM   11  N   UNK A   0      -6.133  13.775  67.106  1.00  0.00    -0.335 NA 
HETATM   12  N   UNK A   0      -6.727  16.001  67.828  1.00  0.00    -0.140 NA 
HETATM   13  H   UNK A   0      -5.138  13.907  66.929  1.00  0.00     0.000 HD 
HETATM   14  C   UNK A   0      -6.832  12.600  66.956  1.00  0.00     0.117 A  
HETATM   15  C   UNK A   0      -8.163  12.822  67.293  1.00  0.00    -0.181 A  
ENDROOT
BRANCH  15  16
HETATM   16  C   UNK A   0      -9.248  11.794  67.324  1.00  0.00    -0.173 C  
BRANCH  16  17
HETATM   17  C   UNK A   0      -8.935  10.534  66.499  1.00  0.00    -0.171 C  
BRANCH  17  18
HETATM   18  C   UNK A   0      -8.288   9.424  67.309  1.00  0.00    -0.125 A  
HETATM   19  C   UNK A   0      -7.668   8.332  66.689  1.00  0.00    -0.093 A  
HETATM   20  C   UNK A   0      -7.187   7.261  67.441  1.00  0.00    -0.090 A  
HETATM   21  C   UNK A   0      -7.296   7.274  68.834  1.00  0.00    -0.095 A  
HETATM   22  C   UNK A   0      -7.795   8.410  69.476  1.00  0.00    -0.102 A  
HETATM   23  C   UNK A   0      -8.292   9.478  68.715  1.00  0.00    -0.117 A  
BRANCH  21  24
HETATM   24  C   UNK A   0      -6.946   6.058  69.619  1.00  0.00    -0.067 C  
HETATM   25  O   UNK A   0      -5.909   5.430  69.449  1.00  0.00    -0.015 OA 
ATOM     26  N   GLU A   1      -7.869   5.710  70.586  1.00  0.00    -0.097 N  
ATOM     27  H   GLU A   1      -8.714   6.273  70.691  1.00  0.00     0.000 HD 
BRANCH  26  28
ATOM     28  CA  GLU A   1      -7.667   4.563  71.458  1.00  0.00    -0.082 C  
ATOM     29  C   GLU A   1      -6.164   4.381  71.702  1.00  0.00    -0.018 C  
ATOM     30  O   GLU A   1      -5.704   5.071  72.770  1.00  0.00    -0.015 OA 
ATOM     31  OXT GLU A   1      -5.430   3.689  70.997  1.00  0.00    -0.007 OA 
BRANCH  28  32
ATOM     32  CB  GLU A   1      -8.267   3.294  70.838  1.00  0.00    -0.081 C  
BRANCH  32  33
ATOM     33  CG  GLU A   1      -8.433   2.182  71.873  1.00  0.00    -0.075 C  
ATOM     34  CD  GLU A   1      -9.783   2.261  72.533  1.00  0.00    -0.111 C  
ATOM     35  OE1 GLU A   1     -10.730   1.521  71.920  1.00  0.00    -0.036 OA 
ATOM     36  OE2 GLU A   1     -10.016   2.955  73.512  1.00  0.00    -0.099 OA 
ENDBRANCH  32  33
ENDBRANCH  28  32
ENDBRANCH  26  28
ENDBRANCH  21  24
ENDBRANCH  17  18
ENDBRANCH  16  17
ENDBRANCH  15  16
TORSDOF 7
ENDMDL
MODEL      305
REMARK 921   NORMALIZED FREE ENERGY PREDICTED BY IDOCK:    0.11 KCAL/MOL
REMARK 922        TOTAL FREE ENERGY PREDICTED BY IDOCK:   -2.48 KCAL/MOL
REMARK 923 INTER-LIGAND FREE ENERGY PREDICTED BY IDOCK:   -2.95 KCAL/MOL
REMARK 924 INTRA-LIGAND FREE ENERGY PREDICTED BY IDOCK:    0.46 KCAL/MOL
REMARK 927      BINDING AFFINITY PREDICTED BY RF-SCORE:    0.00 PKD
ROOT
HETATM    1  N   UNK A   0      -6.485  17.837  69.343  1.00  0.00    -0.246 NA 
HETATM    2  H1  UNK A   0      -5.475  17.936  69.438  1.00  0.00     0.000 HD 
HETATM    3  C   UNK A   0      -7.030  16.689  68.864  1.00  0.00    -0.200 C  
HETATM    4  H2  UNK A   0      -7.094  18.610  69.611  1.00  0.00     0.000 HD 
HETATM    5  N   UNK A   0      -8.319  16.563  68.743  1.00  0.00    -0.239 N  
HETATM    6  H   UNK A   0      -8.935  17.338  68.991  1.00  0.00     0.000 HD 
HETATM    7  C   UNK A   0      -8.855  15.363  68.271  1.00  0.00    -0.176 C  
HETATM    8  C   UNK A   0      -7.886  14.299  67.989  1.00  0.00    -0.143 A  
HETATM    9  O   UNK A   0     -10.056  15.194  68.106  1.00  0.00    -0.219 OA 
HETATM   10  C   UNK A   0      -6.551  14.551  68.149  1.00  0.00    -0.136 A  
HETATM   11  N   UNK A   0      -5.825  13.439  67.872  1.00  0.00    -0.126 NA 
HETATM   12  N   UNK A   0      -6.091  15.739  68.559  1.00  0.00    -0.099 NA 
HETATM   13  H   UNK A   0      -4.809  13.360  67.915  1.00  0.00     0.000 HD 
HETATM   14  C   UNK A   0      -6.701  12.439  67.522  1.00  0.00    -0.146 A  
HETATM   15  C   UNK A   0      -7.998  12.935  67.582  1.00  0.00    -0.167 A  
ENDROOT
BRANCH  15  16
HETATM   16  C   UNK A   0      -9.252  12.158  67.335  1.00  0.00    -0.182 C  
BRANCH  16  17
HETATM   17  C   UNK A   0      -9.179  11.233  66.107  1.00  0.00    -0.222 C  
BRANCH  17  18
HETATM   18  C   UNK A   0      -8.745   9.816  66.441  1.00  0.00    -0.144 A  
HETATM   19  C   UNK A   0      -8.755   8.802  65.475  1.00  0.00    -0.217 A  
HETATM   20  C   UNK A   0      -8.473   7.482  65.822  1.00  0.00    -0.151 A  
HETATM   21  C   UNK A   0      -8.150   7.155  67.141  1.00  0.00    -0.114 A  
HETATM   22  C   UNK A   0      -8.009   8.171  68.089  1.00  0.00    -0.127 A  
HETATM   23  C   UNK A   0      -8.310   9.495  67.740  1.00  0.00    -0.118 A  
BRANCH  21  24
HETATM   24  C   UNK A   0      -8.023   5.726  67.545  1.00  0.00    -0.102 C  
HETATM   25  O   UNK A   0      -7.519   4.873  66.826  1.00  0.00    -0.084 OA 
ATOM     26  N   GLU A   1      -8.490   5.442  68.813  1.00  0.00    -0.096 N  
ATOM     27  H   GLU A   1      -8.895   6.192  69.373  1.00  0.00     0.000 HD 
BRANCH  26  28
ATOM     28  CA  GLU A   1      -8.417   4.100  69.370  1.00  0.00    -0.072 C  
ATOM     29  C   GLU A   1      -7.953   4.190  70.829  1.00  0.00    -0.056 C  
ATOM     30  O   GLU A   1      -8.970   4.328  71.710  1.00  0.00    -0.115 OA 
ATOM     31  OXT GLU A   1      -6.774   4.156  71.180  1.00  0.00    -0.032 OA 
BRANCH  28  32
ATOM     32  CB  GLU A   1      -7.458   3.221  68.556  1.00  0.00    -0.049 C  
BRANCH  32  33
ATOM     33  CG  GLU A   1      -8.015   1.813  68.351  1.00  0.00    -0.063 C  
ATOM     34  CD  GLU A   1      -9.019   1.791  67.231  1.00  0.00    -0.128 C  
ATOM     35  OE1 GLU A   1      -8.480   1.508  66.026  1.00  0.00    -0.089 OA 
ATOM     36  OE2 GLU A   1     -10.206   2.040  67.383  1.00  0.00     1.111 OA 
ENDBRANCH  32  33
ENDBRANCH  28  32
ENDBRANCH  26  28
ENDBRANCH  21  24
ENDBRANCH  17  18
ENDBRANCH  16  17
ENDBRANCH  15  16
TORSDOF 7
ENDMDL
MODEL      306
REMARK 921   NORMALIZED FREE ENERGY PREDICTED BY IDOCK:    0.39 KCAL/MOL
REMARK 922        TOTAL FREE ENERGY PREDICTED BY IDOCK:   -2.09 KCAL/MOL
REMARK 923 INTER-LIGAND FREE ENERGY PREDICTED BY IDOCK:   -2.13 KCAL/MOL
REMARK 924 INTRA-LIGAND FREE ENERGY PREDICTED BY IDOCK:    0.03 KCAL/MOL
REMARK 927      BINDING AFFINITY PREDICTED BY RF-SCORE:    0.00 PKD
ROOT
HETATM    1  N   UNK A   0     -11.455  10.512  65.224  1.00  0.00     1.017 NA 
HETATM    2  H1  UNK A   0     -12.370  10.406  65.661  1.00  0.00     0.000 HD 
HETATM    3  C   UNK A   0     -10.317  10.364  65.950  1.00  0.00    -0.190 C  
HETATM    4  H2  UNK A   0     -11.395  10.732  64.230  1.00  0.00     0.000 HD 
HETATM    5  N   UNK A   0      -9.150  10.500  65.392  1.00  0.00    -0.177 N  
HETATM    6  H   UNK A   0      -9.079  10.738  64.403  1.00  0.00     0.000 HD 
HETATM    7  C   UNK A   0      -7.994  10.317  66.155  1.00  0.00    -0.131 C  
HETATM    8  C   UNK A   0      -8.207   9.932  67.553  1.00  0.00    -0.114 A  
HETATM    9  O   UNK A   0      -6.868  10.461  65.695  1.00  0.00    -0.126 OA 
HETATM   10  C   UNK A   0      -9.485   9.825  68.031  1.00  0.00    -0.131 A  
HETATM   11  N   UNK A   0      -9.472   9.429  69.327  1.00  0.00    -0.158 NA 
HETATM   12  N   UNK A   0     -10.557  10.059  67.264  1.00  0.00    -0.258 NA 
HETATM   13  H   UNK A   0     -10.291   9.274  69.915  1.00  0.00     0.000 HD 
HETATM   14  C   UNK A   0      -8.161   9.272  69.709  1.00  0.00    -0.120 A  
HETATM   15  C   UNK A   0      -7.339   9.577  68.629  1.00  0.00    -0.075 A  
ENDROOT
BRANCH  15  16
HETATM   16  C   UNK A   0      -5.846   9.478  68.602  1.00  0.00    -0.040 C  
BRANCH  16  17
HETATM   17  C   UNK A   0      -5.134  10.839  68.532  1.00  0.00    -0.037 C  
BRANCH  17  18
HETATM   18  C   UNK A   0      -6.074  12.023  68.680  1.00  0.00    -0.053 A  
HETATM   19  C   UNK A   0      -6.871  12.185  69.820  1.00  0.00     0.197 A  
HETATM   20  C   UNK A   0      -7.817  13.207  69.892  1.00  0.00     1.760 A  
HETATM   21  C   UNK A   0      -7.966  14.103  68.830  1.00  0.00    -0.102 A  
HETATM   22  C   UNK A   0      -7.093  14.035  67.742  1.00  0.00    -0.183 A  
HETATM   23  C   UNK A   0      -6.154  12.996  67.667  1.00  0.00    -0.151 A  
BRANCH  21  24
HETATM   24  C   UNK A   0      -9.092  15.078  68.831  1.00  0.00    -0.202 C  
HETATM   25  O   UNK A   0      -9.632  15.472  69.857  1.00  0.00    -0.275 OA 
ATOM     26  N   GLU A   1      -9.461  15.535  67.581  1.00  0.00    -0.208 N  
ATOM     27  H   GLU A   1      -8.973  15.180  66.759  1.00  0.00     0.000 HD 
BRANCH  26  28
ATOM     28  CA  GLU A   1     -10.526  16.511  67.408  1.00  0.00    -0.310 C  
ATOM     29  C   GLU A   1     -10.929  16.552  65.930  1.00  0.00     0.029 C  
ATOM     30  O   GLU A   1     -11.903  15.669  65.612  1.00  0.00     0.236 OA 
ATOM     31  OXT GLU A   1     -10.417  17.299  65.096  1.00  0.00    -0.656 OA 
BRANCH  28  32
ATOM     32  CB  GLU A   1     -10.077  17.900  67.880  1.00  0.00    -0.350 C  
BRANCH  32  33
ATOM     33  CG  GLU A   1      -8.555  18.011  67.947  1.00  0.00    -0.258 C  
ATOM     34  CD  GLU A   1      -8.044  19.012  66.947  1.00  0.00    -0.265 C  
ATOM     35  OE1 GLU A   1      -7.930  20.262  67.442  1.00  0.00    -0.309 OA 
ATOM     36  OE2 GLU A   1      -7.788  18.734  65.785  1.00  0.00    -0.484 OA 
ENDBRANCH  32  33
ENDBRANCH  28  32
ENDBRANCH  26  28
ENDBRANCH  21  24
ENDBRANCH  17  18
ENDBRANCH  16  17
ENDBRANCH  15  16
TORSDOF 7
ENDMDL
MODEL      307
REMARK 921   NORMALIZED FREE ENERGY PREDICTED BY IDOCK:    0.43 KCAL/MOL
REMARK 922        TOTAL FREE ENERGY PREDICTED BY IDOCK:   -2.04 KCAL/MOL
REMARK 923 INTER-LIGAND FREE ENERGY PREDICTED BY IDOCK:   -3.88 KCAL/MOL
REMARK 924 INTRA-LIGAND FREE ENERGY PREDICTED BY IDOCK:    1.84 KCAL/MOL
REMARK 927      BINDING AFFINITY PREDICTED BY RF-SCORE:    0.00 PKD
ROOT
HETATM    1  N   UNK A   0      -8.242   5.037  73.830  1.00  0.00    -0.105 NA 
HETATM    2  H1  UNK A   0      -7.235   5.189  73.780  1.00  0.00     0.000 HD 
HETATM    3  C   UNK A   0      -9.111   5.980  73.384  1.00  0.00    -0.131 C  
HETATM    4  H2  UNK A   0      -8.601   4.165  74.220  1.00  0.00     0.000 HD 
HETATM    5  N   UNK A   0     -10.395   5.785  73.447  1.00  0.00    -0.209 N  
HETATM    6  H   UNK A   0     -10.764   4.924  73.852  1.00  0.00     0.000 HD 
HETATM    7  C   UNK A   0     -11.267   6.761  72.958  1.00  0.00    -0.157 C  
HETATM    8  C   UNK A   0     -10.634   7.937  72.355  1.00  0.00    -0.359 A  
HETATM    9  O   UNK A   0     -12.485   6.649  73.017  1.00  0.00     0.716 OA 
HETATM   10  C   UNK A   0      -9.269   8.034  72.351  1.00  0.00    -0.202 A  
HETATM   11  N   UNK A   0      -8.879   9.170  71.722  1.00  0.00    -0.308 NA 
HETATM   12  N   UNK A   0      -8.484   7.088  72.878  1.00  0.00    -0.114 NA 
HETATM   13  H   UNK A   0      -7.917   9.479  71.583  1.00  0.00     0.000 HD 
HETATM   14  C   UNK A   0     -10.010   9.833  71.306  1.00  0.00     0.371 A  
HETATM   15  C   UNK A   0     -11.128   9.096  71.682  1.00  0.00    -0.445 A  
ENDROOT
BRANCH  15  16
HETATM   16  C   UNK A   0     -12.551   9.433  71.371  1.00  0.00    -0.430 C  
BRANCH  16  17
HETATM   17  C   UNK A   0     -12.812   9.721  69.883  1.00  0.00     0.725 C  
BRANCH  17  18
HETATM   18  C   UNK A   0     -12.005  10.889  69.342  1.00  0.00    -0.393 A  
HETATM   19  C   UNK A   0     -10.688  10.723  68.897  1.00  0.00    -0.259 A  
HETATM   20  C   UNK A   0      -9.917  11.822  68.518  1.00  0.00    -0.203 A  
HETATM   21  C   UNK A   0     -10.462  13.109  68.555  1.00  0.00    -0.262 A  
HETATM   22  C   UNK A   0     -11.811  13.278  68.872  1.00  0.00    -0.367 A  
HETATM   23  C   UNK A   0     -12.577  12.172  69.268  1.00  0.00     0.513 A  
BRANCH  21  24
HETATM   24  C   UNK A   0      -9.589  14.293  68.322  1.00  0.00    -0.221 C  
HETATM   25  O   UNK A   0      -9.914  15.432  68.631  1.00  0.00    -0.200 OA 
ATOM     26  N   GLU A   1      -8.361  14.003  67.759  1.00  0.00    -0.162 N  
ATOM     27  H   GLU A   1      -8.137  13.035  67.527  1.00  0.00     0.000 HD 
BRANCH  26  28
ATOM     28  CA  GLU A   1      -7.379  15.042  67.490  1.00  0.00    -0.202 C  
ATOM     29  C   GLU A   1      -6.300  15.002  68.578  1.00  0.00    -0.092 C  
ATOM     30  O   GLU A   1      -5.270  14.177  68.285  1.00  0.00    -0.098 OA 
ATOM     31  OXT GLU A   1      -6.355  15.642  69.628  1.00  0.00    -0.155 OA 
BRANCH  28  32
ATOM     32  CB  GLU A   1      -8.045  16.425  67.446  1.00  0.00    -0.175 C  
BRANCH  32  33
ATOM     33  CG  GLU A   1      -8.131  16.967  66.020  1.00  0.00    -0.178 C  
ATOM     34  CD  GLU A   1      -8.771  18.328  66.002  1.00  0.00     0.033 C  
ATOM     35  OE1 GLU A   1      -7.887  19.344  66.092  1.00  0.00    -0.291 OA 
ATOM     36  OE2 GLU A   1      -9.979  18.505  65.945  1.00  0.00    -0.520 OA 
ENDBRANCH  32  33
ENDBRANCH  28  32
ENDBRANCH  26  28
ENDBRANCH  21  24
ENDBRANCH  17  18
ENDBRANCH  16  17
ENDBRANCH  15  16
TORSDOF 7
ENDMDL
MODEL      308
REMARK 921   NORMALIZED FREE ENERGY PREDICTED BY IDOCK:    0.81 KCAL/MOL
REMARK 922        TOTAL FREE ENERGY PREDICTED BY IDOCK:   -1.50 KCAL/MOL
REMARK 923 INTER-LIGAND FREE ENERGY PREDICTED BY IDOCK:   -4.63 KCAL/MOL
REMARK 924 INTRA-LIGAND FREE ENERGY PREDICTED BY IDOCK:    3.13 KCAL/MOL
REMARK 927      BINDING AFFINITY PREDICTED BY RF-SCORE:    0.00 PKD
ROOT
HETATM    1  N   UNK A   0     -12.657  14.351  66.135  1.00  0.00    -0.415 NA 
HETATM    2  H1  UNK A   0     -12.678  14.872  65.259  1.00  0.00     0.000 HD 
HETATM    3  C   UNK A   0     -11.968  13.186  66.235  1.00  0.00    -0.415 C  
HETATM    4  H2  UNK A   0     -13.159  14.711  66.947  1.00  0.00     0.000 HD 
HETATM    5  N   UNK A   0     -11.941  12.521  67.352  1.00  0.00    -0.302 N  
HETATM    6  H   UNK A   0     -12.456  12.863  68.164  1.00  0.00     0.000 HD 
HETATM    7  C   UNK A   0     -11.204  11.337  67.435  1.00  0.00    -0.303 C  
HETATM    8  C   UNK A   0     -10.464  10.961  66.227  1.00  0.00    -0.304 A  
HETATM    9  O   UNK A   0     -11.165  10.652  68.449  1.00  0.00    -0.254 OA 
HETATM   10  C   UNK A   0     -10.574  11.737  65.106  1.00  0.00    -0.283 A  
HETATM   11  N   UNK A   0      -9.793  11.245  64.113  1.00  0.00    -0.258 NA 
HETATM   12  N   UNK A   0     -11.335  12.838  65.070  1.00  0.00    -0.301 NA 
HETATM   13  H   UNK A   0      -9.694  11.637  63.177  1.00  0.00     0.000 HD 
HETATM   14  C   UNK A   0      -9.159  10.122  64.591  1.00  0.00    -0.227 A  
HETATM   15  C   UNK A   0      -9.551   9.911  65.908  1.00  0.00    -0.300 A  
ENDROOT
BRANCH  15  16
HETATM   16  C   UNK A   0      -9.050   8.831  66.815  1.00  0.00    -0.180 C  
BRANCH  16  17
HETATM   17  C   UNK A   0      -8.026   9.318  67.855  1.00  0.00    -0.100 C  
BRANCH  17  18
HETATM   18  C   UNK A   0      -7.853  10.827  67.874  1.00  0.00    -0.109 A  
HETATM   19  C   UNK A   0      -7.083  11.487  66.908  1.00  0.00    -0.135 A  
HETATM   20  C   UNK A   0      -6.831  12.854  67.006  1.00  0.00     0.257 A  
HETATM   21  C   UNK A   0      -7.368  13.594  68.063  1.00  0.00    -0.131 A  
HETATM   22  C   UNK A   0      -8.243  12.979  68.962  1.00  0.00     0.378 A  
HETATM   23  C   UNK A   0      -8.479  11.600  68.868  1.00  0.00     0.052 A  
BRANCH  21  24
HETATM   24  C   UNK A   0      -6.954  15.011  68.265  1.00  0.00    -0.116 C  
HETATM   25  O   UNK A   0      -5.802  15.340  68.516  1.00  0.00    -0.089 OA 
ATOM     26  N   GLU A   1      -7.969  15.935  68.113  1.00  0.00    -0.135 N  
ATOM     27  H   GLU A   1      -8.911  15.608  67.897  1.00  0.00     0.000 HD 
BRANCH  26  28
ATOM     28  CA  GLU A   1      -7.729  17.363  68.252  1.00  0.00    -0.241 C  
ATOM     29  C   GLU A   1      -6.228  17.599  68.459  1.00  0.00    -0.182 C  
ATOM     30  O   GLU A   1      -5.544  17.759  67.304  1.00  0.00    -0.131 OA 
ATOM     31  OXT GLU A   1      -5.681  17.629  69.561  1.00  0.00    -0.201 OA 
BRANCH  28  32
ATOM     32  CB  GLU A   1      -8.530  17.940  69.427  1.00  0.00     0.461 C  
BRANCH  32  33
ATOM     33  CG  GLU A   1      -8.573  19.467  69.389  1.00  0.00     0.111 C  
ATOM     34  CD  GLU A   1      -9.479  19.951  68.290  1.00  0.00    -0.303 C  
ATOM     35  OE1 GLU A   1     -10.753  20.152  68.688  1.00  0.00    -0.131 OA 
ATOM     36  OE2 GLU A   1      -9.111  20.116  67.136  1.00  0.00    -0.343 OA 
ENDBRANCH  32  33
ENDBRANCH  28  32
ENDBRANCH  26  28
ENDBRANCH  21  24
ENDBRANCH  17  18
ENDBRANCH  16  17
ENDBRANCH  15  16
TORSDOF 7
ENDMDL
MODEL      309
REMARK 921   NORMALIZED FREE ENERGY PREDICTED BY IDOCK:    0.98 KCAL/MOL
REMARK 922        TOTAL FREE ENERGY PREDICTED BY IDOCK:   -1.27 KCAL/MOL
REMARK 923 INTER-LIGAND FREE ENERGY PREDICTED BY IDOCK:   -0.53 KCAL/MOL
REMARK 924 INTRA-LIGAND FREE ENERGY PREDICTED BY IDOCK:   -0.74 KCAL/MOL
REMARK 927      BINDING AFFINITY PREDICTED BY RF-SCORE:    0.00 PKD
ROOT
HETATM    1  N   UNK A   0      -5.237  13.699  72.740  1.00  0.00    -0.360 NA 
HETATM    2  H1  UNK A   0      -4.241  13.486  72.692  1.00  0.00     0.000 HD 
HETATM    3  C   UNK A   0      -5.917  14.099  71.636  1.00  0.00    -0.015 C  
HETATM    4  H2  UNK A   0      -5.728  13.609  73.630  1.00  0.00     0.000 HD 
HETATM    5  N   UNK A   0      -7.188  14.369  71.697  1.00  0.00     1.683 N  
HETATM    6  H   UNK A   0      -7.684  14.300  72.586  1.00  0.00     0.000 HD 
HETATM    7  C   UNK A   0      -7.870  14.754  70.541  1.00  0.00     1.217 C  
HETATM    8  C   UNK A   0      -7.075  14.776  69.309  1.00  0.00    -0.154 A  
HETATM    9  O   UNK A   0      -9.058  15.051  70.541  1.00  0.00     0.687 OA 
HETATM   10  C   UNK A   0      -5.741  14.476  69.368  1.00  0.00    -0.095 A  
HETATM   11  N   UNK A   0      -5.193  14.518  68.129  1.00  0.00    -0.114 NA 
HETATM   12  N   UNK A   0      -5.130  14.160  70.516  1.00  0.00    -0.098 NA 
HETATM   13  H   UNK A   0      -4.217  14.335  67.898  1.00  0.00     0.000 HD 
HETATM   14  C   UNK A   0      -6.186  14.852  67.239  1.00  0.00     0.333 A  
HETATM   15  C   UNK A   0      -7.377  15.022  67.936  1.00  0.00    -0.156 A  
ENDROOT
BRANCH  15  16
HETATM   16  C   UNK A   0      -8.713  15.331  67.337  1.00  0.00    -0.194 C  
BRANCH  16  17
HETATM   17  C   UNK A   0      -9.107  14.397  66.180  1.00  0.00    -0.043 C  
BRANCH  17  18
HETATM   18  C   UNK A   0      -9.493  13.000  66.634  1.00  0.00    -0.256 A  
HETATM   19  C   UNK A   0      -8.888  12.400  67.746  1.00  0.00    -0.176 A  
HETATM   20  C   UNK A   0      -9.160  11.074  68.079  1.00  0.00    -0.152 A  
HETATM   21  C   UNK A   0     -10.065  10.329  67.318  1.00  0.00    -0.249 A  
HETATM   22  C   UNK A   0     -10.774  10.950  66.287  1.00  0.00    -0.241 A  
HETATM   23  C   UNK A   0     -10.484  12.278  65.945  1.00  0.00    -0.288 A  
BRANCH  21  24
HETATM   24  C   UNK A   0     -10.221   8.869  67.566  1.00  0.00    -0.248 C  
HETATM   25  O   UNK A   0     -10.858   8.131  66.825  1.00  0.00    -0.197 OA 
ATOM     26  N   GLU A   1      -9.558   8.399  68.683  1.00  0.00    -0.148 N  
ATOM     27  H   GLU A   1      -9.035   9.056  69.263  1.00  0.00     0.000 HD 
BRANCH  26  28
ATOM     28  CA  GLU A   1      -9.586   6.992  69.053  1.00  0.00    -0.141 C  
ATOM     29  C   GLU A   1      -9.739   6.880  70.574  1.00  0.00    -0.172 C  
ATOM     30  O   GLU A   1     -11.027   6.849  70.986  1.00  0.00    -0.238 OA 
ATOM     31  OXT GLU A   1      -8.793   6.836  71.361  1.00  0.00    -0.131 OA 
BRANCH  28  32
ATOM     32  CB  GLU A   1      -8.309   6.279  68.589  1.00  0.00    -0.112 C  
BRANCH  32  33
ATOM     33  CG  GLU A   1      -8.476   4.761  68.588  1.00  0.00    -0.090 C  
ATOM     34  CD  GLU A   1      -8.917   4.270  67.237  1.00  0.00    -0.124 C  
ATOM     35  OE1 GLU A   1      -7.895   3.930  66.424  1.00  0.00    -0.088 OA 
ATOM     36  OE2 GLU A   1     -10.087   4.213  66.888  1.00  0.00    -0.167 OA 
ENDBRANCH  32  33
ENDBRANCH  28  32
ENDBRANCH  26  28
ENDBRANCH  21  24
ENDBRANCH  17  18
ENDBRANCH  16  17
ENDBRANCH  15  16
TORSDOF 7
ENDMDL
MODEL      310
REMARK 921   NORMALIZED FREE ENERGY PREDICTED BY IDOCK:    2.59 KCAL/MOL
REMARK 922        TOTAL FREE ENERGY PREDICTED BY IDOCK:    1.01 KCAL/MOL
REMARK 923 INTER-LIGAND FREE ENERGY PREDICTED BY IDOCK:   -0.86 KCAL/MOL
REMARK 924 INTRA-LIGAND FREE ENERGY PREDICTED BY IDOCK:    1.87 KCAL/MOL
REMARK 927      BINDING AFFINITY PREDICTED BY RF-SCORE:    0.00 PKD
ROOT
HETATM    1  N   UNK A   0      -8.855  12.262  64.992  1.00  0.00     0.191 NA 
HETATM    2  H1  UNK A   0      -9.744  12.252  64.493  1.00  0.00     0.000 HD 
HETATM    3  C   UNK A   0      -8.263  11.104  65.382  1.00  0.00     0.159 C  
HETATM    4  H2  UNK A   0      -8.405  13.153  65.201  1.00  0.00     0.000 HD 
HETATM    5  N   UNK A   0      -7.129  11.117  66.019  1.00  0.00    -0.353 N  
HETATM    6  H   UNK A   0      -6.681  12.004  66.248  1.00  0.00     0.000 HD 
HETATM    7  C   UNK A   0      -6.529   9.910  66.387  1.00  0.00    -0.072 C  
HETATM    8  C   UNK A   0      -7.232   8.695  65.967  1.00  0.00    -0.084 A  
HETATM    9  O   UNK A   0      -5.479   9.858  67.013  1.00  0.00    -0.045 OA 
HETATM   10  C   UNK A   0      -8.425   8.806  65.305  1.00  0.00    -0.174 A  
HETATM   11  N   UNK A   0      -8.897   7.578  64.976  1.00  0.00    -0.348 NA 
HETATM   12  N   UNK A   0      -8.977   9.991  65.022  1.00  0.00    -0.182 NA 
HETATM   13  H   UNK A   0      -9.766   7.383  64.479  1.00  0.00     0.000 HD 
HETATM   14  C   UNK A   0      -7.998   6.643  65.431  1.00  0.00    -0.121 A  
HETATM   15  C   UNK A   0      -6.944   7.299  66.056  1.00  0.00    -0.065 A  
ENDROOT
BRANCH  15  16
HETATM   16  C   UNK A   0      -5.725   6.655  66.638  1.00  0.00    -0.014 C  
BRANCH  16  17
HETATM   17  C   UNK A   0      -5.154   7.394  67.860  1.00  0.00    -0.024 C  
BRANCH  17  18
HETATM   18  C   UNK A   0      -6.065   7.348  69.075  1.00  0.00    -0.034 A  
HETATM   19  C   UNK A   0      -5.768   6.540  70.180  1.00  0.00    -0.019 A  
HETATM   20  C   UNK A   0      -6.671   6.412  71.235  1.00  0.00    -0.058 A  
HETATM   21  C   UNK A   0      -7.880   7.114  71.215  1.00  0.00    -0.098 A  
HETATM   22  C   UNK A   0      -8.134   8.022  70.185  1.00  0.00    -0.114 A  
HETATM   23  C   UNK A   0      -7.230   8.134  69.118  1.00  0.00    -0.073 A  
BRANCH  21  24
HETATM   24  C   UNK A   0      -8.916   6.841  72.250  1.00  0.00    -0.132 C  
HETATM   25  O   UNK A   0      -8.654   6.357  73.344  1.00  0.00    -0.124 OA 
ATOM     26  N   GLU A   1     -10.198   7.211  71.895  1.00  0.00    -0.190 N  
ATOM     27  H   GLU A   1     -10.360   7.617  70.973  1.00  0.00     0.000 HD 
BRANCH  26  28
ATOM     28  CA  GLU A   1     -11.322   7.036  72.801  1.00  0.00    -0.218 C  
ATOM     29  C   GLU A   1     -12.405   6.209  72.099  1.00  0.00    -0.068 C  
ATOM     30  O   GLU A   1     -12.263   4.876  72.275  1.00  0.00     0.688 OA 
ATOM     31  OXT GLU A   1     -13.314   6.693  71.425  1.00  0.00    -0.142 OA 
BRANCH  28  32
ATOM     32  CB  GLU A   1     -11.886   8.395  73.240  1.00  0.00     1.017 C  
BRANCH  32  33
ATOM     33  CG  GLU A   1     -11.816   9.427  72.116  1.00  0.00    -0.180 C  
ATOM     34  CD  GLU A   1     -13.166   9.625  71.483  1.00  0.00    -0.399 C  
ATOM     35  OE1 GLU A   1     -13.886  10.619  72.043  1.00  0.00    -0.064 OA 
ATOM     36  OE2 GLU A   1     -13.591   8.932  70.570  1.00  0.00     0.482 OA 
ENDBRANCH  32  33
ENDBRANCH  28  32
ENDBRANCH  26  28
ENDBRANCH  21  24
ENDBRANCH  17  18
ENDBRANCH  16  17
ENDBRANCH  15  16
TORSDOF 7
ENDMDL
MODEL      311
REMARK 921   NORMALIZED FREE ENERGY PREDICTED BY IDOCK:    3.02 KCAL/MOL
REMARK 922        TOTAL FREE ENERGY PREDICTED BY IDOCK:    1.62 KCAL/MOL
REMARK 923 INTER-LIGAND FREE ENERGY PREDICTED BY IDOCK:    0.95 KCAL/MOL
REMARK 924 INTRA-LIGAND FREE ENERGY PREDICTED BY IDOCK:    0.67 KCAL/MOL
REMARK 927      BINDING AFFINITY PREDICTED BY RF-SCORE:    0.00 PKD
ROOT
HETATM    1  N   UNK A   0     -12.412  17.564  71.909  1.00  0.00     3.865 NA 
HETATM    2  H1  UNK A   0     -12.209  18.559  71.821  1.00  0.00     0.000 HD 
HETATM    3  C   UNK A   0     -11.833  16.660  71.077  1.00  0.00     0.491 C  
HETATM    4  H2  UNK A   0     -13.057  17.243  72.632  1.00  0.00     0.000 HD 
HETATM    5  N   UNK A   0     -12.091  15.390  71.190  1.00  0.00    -0.327 N  
HETATM    6  H   UNK A   0     -12.748  15.062  71.897  1.00  0.00     0.000 HD 
HETATM    7  C   UNK A   0     -11.463  14.479  70.338  1.00  0.00    -0.203 C  
HETATM    8  C   UNK A   0     -10.501  15.050  69.390  1.00  0.00    -0.254 A  
HETATM    9  O   UNK A   0     -11.687  13.276  70.374  1.00  0.00    -0.228 OA 
HETATM   10  C   UNK A   0     -10.317  16.406  69.360  1.00  0.00    -0.290 A  
HETATM   11  N   UNK A   0      -9.369  16.732  68.446  1.00  0.00    -0.224 NA 
HETATM   12  N   UNK A   0     -10.984  17.237  70.170  1.00  0.00     0.484 NA 
HETATM   13  H   UNK A   0      -9.045  17.674  68.228  1.00  0.00     0.000 HD 
HETATM   14  C   UNK A   0      -8.924  15.569  67.865  1.00  0.00    -0.173 A  
HETATM   15  C   UNK A   0      -9.606  14.495  68.427  1.00  0.00    -0.213 A  
ENDROOT
BRANCH  15  16
HETATM   16  C   UNK A   0      -9.380  13.049  68.118  1.00  0.00    -0.217 C  
BRANCH  16  17
HETATM   17  C   UNK A   0      -8.551  12.806  66.846  1.00  0.00    -0.140 C  
BRANCH  17  18
HETATM   18  C   UNK A   0      -8.253  11.339  66.588  1.00  0.00    -0.164 A  
HETATM   19  C   UNK A   0      -8.102  10.842  65.287  1.00  0.00    -0.021 A  
HETATM   20  C   UNK A   0      -7.951   9.475  65.058  1.00  0.00    -0.119 A  
HETATM   21  C   UNK A   0      -7.922   8.581  66.131  1.00  0.00    -0.102 A  
HETATM   22  C   UNK A   0      -7.941   9.071  67.439  1.00  0.00    -0.100 A  
HETATM   23  C   UNK A   0      -8.110  10.445  67.664  1.00  0.00    -0.107 A  
BRANCH  21  24
HETATM   24  C   UNK A   0      -7.939   7.113  65.877  1.00  0.00    -0.116 C  
HETATM   25  O   UNK A   0      -7.609   6.617  64.807  1.00  0.00    -0.088 OA 
ATOM     26  N   GLU A   1      -8.324   6.345  66.958  1.00  0.00    -0.112 N  
ATOM     27  H   GLU A   1      -8.583   6.809  67.830  1.00  0.00     0.000 HD 
BRANCH  26  28
ATOM     28  CA  GLU A   1      -8.370   4.893  66.887  1.00  0.00    -0.106 C  
ATOM     29  C   GLU A   1      -6.964   4.336  67.137  1.00  0.00    -0.060 C  
ATOM     30  O   GLU A   1      -6.701   4.103  68.443  1.00  0.00    -0.045 OA 
ATOM     31  OXT GLU A   1      -6.136   4.128  66.250  1.00  0.00    -0.029 OA 
BRANCH  28  32
ATOM     32  CB  GLU A   1      -8.894   4.429  65.520  1.00  0.00    -0.127 C  
BRANCH  32  33
ATOM     33  CG  GLU A   1      -8.231   3.129  65.071  1.00  0.00    -0.094 C  
ATOM     34  CD  GLU A   1      -8.387   2.931  63.587  1.00  0.00    -0.086 C  
ATOM     35  OE1 GLU A   1      -7.366   3.436  62.864  1.00  0.00    -0.050 OA 
ATOM     36  OE2 GLU A   1      -9.360   2.396  63.076  1.00  0.00    -0.091 OA 
ENDBRANCH  32  33
ENDBRANCH  28  32
ENDBRANCH  26  28
ENDBRANCH  21  24
ENDBRANCH  17  18
ENDBRANCH  16  17
ENDBRANCH  15  16
TORSDOF 7
ENDMDL
MODEL      312
REMARK 921   NORMALIZED FREE ENERGY PREDICTED BY IDOCK:    3.29 KCAL/MOL
REMARK 922        TOTAL FREE ENERGY PREDICTED BY IDOCK:    2.00 KCAL/MOL
REMARK 923 INTER-LIGAND FREE ENERGY PREDICTED BY IDOCK:   -2.23 KCAL/MOL
REMARK 924 INTRA-LIGAND FREE ENERGY PREDICTED BY IDOCK:    4.23 KCAL/MOL
REMARK 927      BINDING AFFINITY PREDICTED BY RF-SCORE:    0.00 PKD
ROOT
HETATM    1  N   UNK A   0      -9.500  16.043  64.816  1.00  0.00     0.842 NA 
HETATM    2  H1  UNK A   0      -8.734  15.946  64.150  1.00  0.00     0.000 HD 
HETATM    3  C   UNK A   0     -10.051  14.952  65.406  1.00  0.00    -0.367 C  
HETATM    4  H2  UNK A   0      -9.856  16.972  65.041  1.00  0.00     0.000 HD 
HETATM    5  N   UNK A   0     -11.028  15.076  66.256  1.00  0.00    -0.336 N  
HETATM    6  H   UNK A   0     -11.403  15.999  66.473  1.00  0.00     0.000 HD 
HETATM    7  C   UNK A   0     -11.560  13.939  66.868  1.00  0.00    -0.378 C  
HETATM    8  C   UNK A   0     -10.918  12.668  66.521  1.00  0.00    -0.302 A  
HETATM    9  O   UNK A   0     -12.500  13.988  67.652  1.00  0.00    -0.153 OA 
HETATM   10  C   UNK A   0      -9.899  12.660  65.608  1.00  0.00    -0.202 A  
HETATM   11  N   UNK A   0      -9.418  11.403  65.449  1.00  0.00    -0.224 NA 
HETATM   12  N   UNK A   0      -9.461  13.778  65.016  1.00  0.00     0.359 NA 
HETATM   13  H   UNK A   0      -8.658  11.125  64.827  1.00  0.00     0.000 HD 
HETATM   14  C   UNK A   0     -10.135  10.568  66.273  1.00  0.00    -0.232 A  
HETATM   15  C   UNK A   0     -11.082  11.319  66.960  1.00  0.00    -0.356 A  
ENDROOT
BRANCH  15  16
HETATM   16  C   UNK A   0     -12.027  10.808  68.000  1.00  0.00     0.269 C  
BRANCH  16  17
HETATM   17  C   UNK A   0     -11.675  11.247  69.432  1.00  0.00    -0.409 C  
BRANCH  17  18
HETATM   18  C   UNK A   0     -10.731  12.436  69.485  1.00  0.00     0.226 A  
HETATM   19  C   UNK A   0     -11.122  13.653  70.057  1.00  0.00     0.179 A  
HETATM   20  C   UNK A   0     -10.293  14.773  69.991  1.00  0.00     0.080 A  
HETATM   21  C   UNK A   0      -9.043  14.687  69.372  1.00  0.00     0.126 A  
HETATM   22  C   UNK A   0      -8.584  13.450  68.912  1.00  0.00     0.236 A  
HETATM   23  C   UNK A   0      -9.429  12.331  68.965  1.00  0.00     0.345 A  
BRANCH  21  24
HETATM   24  C   UNK A   0      -8.238  15.920  69.146  1.00  0.00    -0.240 C  
HETATM   25  O   UNK A   0      -7.707  16.545  70.054  1.00  0.00     0.624 OA 
ATOM     26  N   GLU A   1      -8.107  16.287  67.821  1.00  0.00    -0.147 N  
ATOM     27  H   GLU A   1      -8.565  15.727  67.102  1.00  0.00     0.000 HD 
BRANCH  26  28
ATOM     28  CA  GLU A   1      -7.331  17.453  67.425  1.00  0.00    -0.168 C  
ATOM     29  C   GLU A   1      -5.860  17.220  67.789  1.00  0.00    -0.123 C  
ATOM     30  O   GLU A   1      -5.152  16.615  66.808  1.00  0.00    -0.312 OA 
ATOM     31  OXT GLU A   1      -5.359  17.534  68.868  1.00  0.00    -0.151 OA 
BRANCH  28  32
ATOM     32  CB  GLU A   1      -7.859  18.720  68.113  1.00  0.00    -0.314 C  
BRANCH  32  33
ATOM     33  CG  GLU A   1      -9.202  18.475  68.798  1.00  0.00    -0.292 C  
ATOM     34  CD  GLU A   1     -10.166  19.591  68.505  1.00  0.00    -0.416 C  
ATOM     35  OE1 GLU A   1     -10.938  19.369  67.420  1.00  0.00    -0.490 OA 
ATOM     36  OE2 GLU A   1     -10.228  20.620  69.162  1.00  0.00     0.092 OA 
ENDBRANCH  32  33
ENDBRANCH  28  32
ENDBRANCH  26  28
ENDBRANCH  21  24
ENDBRANCH  17  18
ENDBRANCH  16  17
ENDBRANCH  15  16
TORSDOF 7
ENDMDL
MODEL      313
REMARK 921   NORMALIZED FREE ENERGY PREDICTED BY IDOCK:    3.61 KCAL/MOL
REMARK 922        TOTAL FREE ENERGY PREDICTED BY IDOCK:    2.44 KCAL/MOL
REMARK 923 INTER-LIGAND FREE ENERGY PREDICTED BY IDOCK:    0.83 KCAL/MOL
REMARK 924 INTRA-LIGAND FREE ENERGY PREDICTED BY IDOCK:    1.61 KCAL/MOL
REMARK 927      BINDING AFFINITY PREDICTED BY RF-SCORE:    0.00 PKD
ROOT
HETATM    1  N   UNK A   0      -5.247  13.693  72.745  1.00  0.00    -0.360 NA 
HETATM    2  H1  UNK A   0      -4.256  13.467  72.669  1.00  0.00     0.000 HD 
HETATM    3  C   UNK A   0      -5.957  14.082  71.655  1.00  0.00     0.005 C  
HETATM    4  H2  UNK A   0      -5.711  13.625  73.651  1.00  0.00     0.000 HD 
HETATM    5  N   UNK A   0      -7.222  14.370  71.752  1.00  0.00     1.871 N  
HETATM    6  H   UNK A   0      -7.690  14.323  72.657  1.00  0.00     0.000 HD 
HETATM    7  C   UNK A   0      -7.935  14.744  70.611  1.00  0.00     1.622 C  
HETATM    8  C   UNK A   0      -7.180  14.734  69.355  1.00  0.00    -0.168 A  
HETATM    9  O   UNK A   0      -9.119  15.056  70.643  1.00  0.00     0.898 OA 
HETATM   10  C   UNK A   0      -5.848  14.419  69.377  1.00  0.00    -0.098 A  
HETATM   11  N   UNK A   0      -5.339  14.432  68.121  1.00  0.00    -0.115 NA 
HETATM   12  N   UNK A   0      -5.205  14.115  70.511  1.00  0.00    -0.102 NA 
HETATM   13  H   UNK A   0      -4.373  14.232  67.862  1.00  0.00     0.000 HD 
HETATM   14  C   UNK A   0      -6.356  14.763  67.256  1.00  0.00     0.317 A  
HETATM   15  C   UNK A   0      -7.522  14.960  67.987  1.00  0.00    -0.133 A  
ENDROOT
BRANCH  15  16
HETATM   16  C   UNK A   0      -8.872  15.276  67.426  1.00  0.00    -0.191 C  
BRANCH  16  17
HETATM   17  C   UNK A   0      -9.319  14.321  66.306  1.00  0.00    -0.236 C  
BRANCH  17  18
HETATM   18  C   UNK A   0      -9.753  12.955  66.812  1.00  0.00    -0.246 A  
HETATM   19  C   UNK A   0      -9.748  12.647  68.178  1.00  0.00    -0.219 A  
HETATM   20  C   UNK A   0     -10.030  11.355  68.620  1.00  0.00    -0.209 A  
HETATM   21  C   UNK A   0     -10.347  10.351  67.702  1.00  0.00    -0.260 A  
HETATM   22  C   UNK A   0     -10.483  10.671  66.349  1.00  0.00    -0.276 A  
HETATM   23  C   UNK A   0     -10.182  11.968  65.907  1.00  0.00    -0.263 A  
BRANCH  21  24
HETATM   24  C   UNK A   0     -10.473   8.938  68.157  1.00  0.00    -0.202 C  
HETATM   25  O   UNK A   0     -11.054   8.077  67.509  1.00  0.00    -0.007 OA 
ATOM     26  N   GLU A   1      -9.850   8.662  69.358  1.00  0.00    -0.180 N  
ATOM     27  H   GLU A   1      -9.373   9.415  69.855  1.00  0.00     0.000 HD 
BRANCH  26  28
ATOM     28  CA  GLU A   1      -9.855   7.326  69.933  1.00  0.00    -0.178 C  
ATOM     29  C   GLU A   1     -10.527   6.362  68.947  1.00  0.00    -0.223 C  
ATOM     30  O   GLU A   1      -9.666   5.806  68.065  1.00  0.00    -0.116 OA 
ATOM     31  OXT GLU A   1     -11.734   6.118  68.936  1.00  0.00     0.011 OA 
BRANCH  28  32
ATOM     32  CB  GLU A   1     -10.590   7.313  71.280  1.00  0.00    -0.236 C  
BRANCH  32  33
ATOM     33  CG  GLU A   1      -9.734   6.699  72.387  1.00  0.00    -0.162 C  
ATOM     34  CD  GLU A   1      -9.405   7.722  73.440  1.00  0.00    -0.285 C  
ATOM     35  OE1 GLU A   1     -10.291   7.756  74.457  1.00  0.00     0.941 OA 
ATOM     36  OE2 GLU A   1      -8.447   8.477  73.371  1.00  0.00    -0.367 OA 
ENDBRANCH  32  33
ENDBRANCH  28  32
ENDBRANCH  26  28
ENDBRANCH  21  24
ENDBRANCH  17  18
ENDBRANCH  16  17
ENDBRANCH  15  16
TORSDOF 7
ENDMDL
MODEL      314
REMARK 921   NORMALIZED FREE ENERGY PREDICTED BY IDOCK:    7.75 KCAL/MOL
REMARK 922        TOTAL FREE ENERGY PREDICTED BY IDOCK:    8.28 KCAL/MOL
REMARK 923 INTER-LIGAND FREE ENERGY PREDICTED BY IDOCK:   -1.83 KCAL/MOL
REMARK 924 INTRA-LIGAND FREE ENERGY PREDICTED BY IDOCK:   10.11 KCAL/MOL
REMARK 927      BINDING AFFINITY PREDICTED BY RF-SCORE:    0.00 PKD
ROOT
HETATM    1  N   UNK A   0      -8.931   5.520  70.277  1.00  0.00    -0.135 NA 
HETATM    2  H1  UNK A   0      -8.250   5.869  70.951  1.00  0.00     0.000 HD 
HETATM    3  C   UNK A   0      -8.743   5.700  68.944  1.00  0.00    -0.107 C  
HETATM    4  H2  UNK A   0      -9.762   5.031  70.607  1.00  0.00     0.000 HD 
HETATM    5  N   UNK A   0      -9.611   5.255  68.083  1.00  0.00    -0.123 N  
HETATM    6  H   UNK A   0     -10.455   4.781  68.405  1.00  0.00     0.000 HD 
HETATM    7  C   UNK A   0      -9.382   5.431  66.717  1.00  0.00    -0.134 C  
HETATM    8  C   UNK A   0      -8.118   6.082  66.361  1.00  0.00    -0.110 A  
HETATM    9  O   UNK A   0     -10.175   5.063  65.860  1.00  0.00    -0.204 OA 
HETATM   10  C   UNK A   0      -7.284   6.514  67.356  1.00  0.00    -0.085 A  
HETATM   11  N   UNK A   0      -6.159   7.055  66.827  1.00  0.00    -0.036 NA 
HETATM   12  N   UNK A   0      -7.579   6.361  68.653  1.00  0.00    -0.091 NA 
HETATM   13  H   UNK A   0      -5.379   7.450  67.352  1.00  0.00     0.000 HD 
HETATM   14  C   UNK A   0      -6.256   6.979  65.458  1.00  0.00    -0.037 A  
HETATM   15  C   UNK A   0      -7.465   6.377  65.126  1.00  0.00    -0.083 A  
ENDROOT
BRANCH  15  16
HETATM   16  C   UNK A   0      -7.937   6.050  63.744  1.00  0.00    -0.112 C  
BRANCH  16  17
HETATM   17  C   UNK A   0      -8.475   7.264  62.967  1.00  0.00     0.264 C  
BRANCH  17  18
HETATM   18  C   UNK A   0      -8.766   8.467  63.848  1.00  0.00     0.229 A  
HETATM   19  C   UNK A   0      -9.290   9.652  63.316  1.00  0.00     0.002 A  
HETATM   20  C   UNK A   0      -9.438  10.788  64.110  1.00  0.00    -0.309 A  
HETATM   21  C   UNK A   0      -9.085  10.751  65.462  1.00  0.00    -0.220 A  
HETATM   22  C   UNK A   0      -8.683   9.544  66.038  1.00  0.00    -0.166 A  
HETATM   23  C   UNK A   0      -8.520   8.409  65.231  1.00  0.00    -0.189 A  
BRANCH  21  24
HETATM   24  C   UNK A   0      -9.076  12.008  66.263  1.00  0.00    -0.165 C  
HETATM   25  O   UNK A   0      -8.056  12.480  66.751  1.00  0.00    -0.089 OA 
ATOM     26  N   GLU A   1     -10.306  12.623  66.385  1.00  0.00    -0.245 N  
ATOM     27  H   GLU A   1     -11.123  12.191  65.953  1.00  0.00     0.000 HD 
BRANCH  26  28
ATOM     28  CA  GLU A   1     -10.466  13.872  67.114  1.00  0.00    -0.269 C  
ATOM     29  C   GLU A   1      -9.267  14.061  68.050  1.00  0.00    -0.201 C  
ATOM     30  O   GLU A   1      -8.232  14.715  67.476  1.00  0.00    -0.160 OA 
ATOM     31  OXT GLU A   1      -9.227  13.651  69.211  1.00  0.00     0.368 OA 
BRANCH  28  32
ATOM     32  CB  GLU A   1     -11.776  13.874  67.914  1.00  0.00    -0.396 C  
BRANCH  32  33
ATOM     33  CG  GLU A   1     -11.736  14.877  69.065  1.00  0.00    -0.347 C  
ATOM     34  CD  GLU A   1     -11.565  14.175  70.384  1.00  0.00    -0.171 C  
ATOM     35  OE1 GLU A   1     -10.276  14.037  70.760  1.00  0.00     1.846 OA 
ATOM     36  OE2 GLU A   1     -12.498  13.738  71.042  1.00  0.00    -0.349 OA 
ENDBRANCH  32  33
ENDBRANCH  28  32
ENDBRANCH  26  28
ENDBRANCH  21  24
ENDBRANCH  17  18
ENDBRANCH  16  17
ENDBRANCH  15  16
TORSDOF 7
ENDMDL
MODEL      315
REMARK 921   NORMALIZED FREE ENERGY PREDICTED BY IDOCK:    8.02 KCAL/MOL
REMARK 922        TOTAL FREE ENERGY PREDICTED BY IDOCK:    8.65 KCAL/MOL
REMARK 923 INTER-LIGAND FREE ENERGY PREDICTED BY IDOCK:    6.17 KCAL/MOL
REMARK 924 INTRA-LIGAND FREE ENERGY PREDICTED BY IDOCK:    2.49 KCAL/MOL
REMARK 927      BINDING AFFINITY PREDICTED BY RF-SCORE:    0.00 PKD
ROOT
HETATM    1  N   UNK A   0     -10.730  17.655  73.563  1.00  0.00     3.192 NA 
HETATM    2  H1  UNK A   0     -10.985  16.873  74.165  1.00  0.00     0.000 HD 
HETATM    3  C   UNK A   0     -10.807  17.546  72.211  1.00  0.00     2.892 C  
HETATM    4  H2  UNK A   0     -10.415  18.531  73.980  1.00  0.00     0.000 HD 
HETATM    5  N   UNK A   0     -10.482  18.544  71.443  1.00  0.00     1.939 N  
HETATM    6  H   UNK A   0     -10.148  19.417  71.851  1.00  0.00     0.000 HD 
HETATM    7  C   UNK A   0     -10.594  18.413  70.056  1.00  0.00     1.523 C  
HETATM    8  C   UNK A   0     -11.128  17.135  69.577  1.00  0.00     0.376 A  
HETATM    9  O   UNK A   0     -10.275  19.305  69.280  1.00  0.00    -0.296 OA 
HETATM   10  C   UNK A   0     -11.430  16.155  70.482  1.00  0.00    -0.343 A  
HETATM   11  N   UNK A   0     -11.940  15.069  69.849  1.00  0.00    -0.314 NA 
HETATM   12  N   UNK A   0     -11.257  16.319  71.799  1.00  0.00    -0.016 NA 
HETATM   13  H   UNK A   0     -12.244  14.203  70.294  1.00  0.00     0.000 HD 
HETATM   14  C   UNK A   0     -11.972  15.342  68.502  1.00  0.00    -0.201 A  
HETATM   15  C   UNK A   0     -11.474  16.623  68.290  1.00  0.00     0.008 A  
ENDROOT
BRANCH  15  16
HETATM   16  C   UNK A   0     -11.391  17.330  66.975  1.00  0.00     0.679 C  
BRANCH  16  17
HETATM   17  C   UNK A   0     -10.226  16.858  66.087  1.00  0.00    -0.352 C  
BRANCH  17  18
HETATM   18  C   UNK A   0      -9.677  15.498  66.482  1.00  0.00    -0.290 A  
HETATM   19  C   UNK A   0     -10.455  14.338  66.381  1.00  0.00    -0.282 A  
HETATM   20  C   UNK A   0      -9.984  13.116  66.860  1.00  0.00    -0.245 A  
HETATM   21  C   UNK A   0      -8.710  13.028  67.428  1.00  0.00    -0.205 A  
HETATM   22  C   UNK A   0      -7.872  14.145  67.419  1.00  0.00    -0.195 A  
HETATM   23  C   UNK A   0      -8.357  15.375  66.952  1.00  0.00    -0.290 A  
BRANCH  21  24
HETATM   24  C   UNK A   0      -8.279  11.769  68.097  1.00  0.00    -0.153 C  
HETATM   25  O   UNK A   0      -7.464  11.744  69.011  1.00  0.00    -0.104 OA 
ATOM     26  N   GLU A   1      -8.899  10.627  67.631  1.00  0.00    -0.131 N  
ATOM     27  H   GLU A   1      -9.577  10.704  66.872  1.00  0.00     0.000 HD 
BRANCH  26  28
ATOM     28  CA  GLU A   1      -8.611   9.316  68.194  1.00  0.00    -0.125 C  
ATOM     29  C   GLU A   1      -7.200   8.891  67.770  1.00  0.00    -0.084 C  
ATOM     30  O   GLU A   1      -6.236   9.295  68.628  1.00  0.00    -0.044 OA 
ATOM     31  OXT GLU A   1      -6.950   8.256  66.746  1.00  0.00    -0.068 OA 
BRANCH  28  32
ATOM     32  CB  GLU A   1      -9.645   8.282  67.728  1.00  0.00    -0.178 C  
BRANCH  32  33
ATOM     33  CG  GLU A   1      -9.221   6.858  68.082  1.00  0.00    -0.126 C  
ATOM     34  CD  GLU A   1      -8.730   6.781  69.502  1.00  0.00    -0.133 C  
ATOM     35  OE1 GLU A   1      -9.696   6.472  70.392  1.00  0.00    -0.171 OA 
ATOM     36  OE2 GLU A   1      -7.575   7.009  69.830  1.00  0.00    -0.098 OA 
ENDBRANCH  32  33
ENDBRANCH  28  32
ENDBRANCH  26  28
ENDBRANCH  21  24
ENDBRANCH  17  18
ENDBRANCH  16  17
ENDBRANCH  15  16
TORSDOF 7
ENDMDL
MODEL      316
REMARK 921   NORMALIZED FREE ENERGY PREDICTED BY IDOCK:    8.12 KCAL/MOL
REMARK 922        TOTAL FREE ENERGY PREDICTED BY IDOCK:    8.80 KCAL/MOL
REMARK 923 INTER-LIGAND FREE ENERGY PREDICTED BY IDOCK:    5.98 KCAL/MOL
REMARK 924 INTRA-LIGAND FREE ENERGY PREDICTED BY IDOCK:    2.82 KCAL/MOL
REMARK 927      BINDING AFFINITY PREDICTED BY RF-SCORE:    0.00 PKD
ROOT
HETATM    1  N   UNK A   0      -5.720  13.790  73.249  1.00  0.00    -0.447 NA 
HETATM    2  H1  UNK A   0      -4.708  13.665  73.244  1.00  0.00     0.000 HD 
HETATM    3  C   UNK A   0      -6.379  14.176  72.127  1.00  0.00     1.084 C  
HETATM    4  H2  UNK A   0      -6.243  13.624  74.109  1.00  0.00     0.000 HD 
HETATM    5  N   UNK A   0      -7.669  14.336  72.134  1.00  0.00     4.222 N  
HETATM    6  H   UNK A   0      -8.199  14.190  72.993  1.00  0.00     0.000 HD 
HETATM    7  C   UNK A   0      -8.326  14.710  70.958  1.00  0.00     3.167 C  
HETATM    8  C   UNK A   0      -7.478  14.848  69.771  1.00  0.00    -0.067 A  
HETATM    9  O   UNK A   0      -9.533  14.905  70.909  1.00  0.00     1.182 OA 
HETATM   10  C   UNK A   0      -6.128  14.660  69.887  1.00  0.00    -0.141 A  
HETATM   11  N   UNK A   0      -5.527  14.798  68.679  1.00  0.00    -0.089 NA 
HETATM   12  N   UNK A   0      -5.547  14.350  71.052  1.00  0.00    -0.167 NA 
HETATM   13  H   UNK A   0      -4.528  14.707  68.492  1.00  0.00     0.000 HD 
HETATM   14  C   UNK A   0      -6.501  15.083  67.752  1.00  0.00    -0.163 A  
HETATM   15  C   UNK A   0      -7.734  15.123  68.393  1.00  0.00    -0.118 A  
ENDROOT
BRANCH  15  16
HETATM   16  C   UNK A   0      -9.061  15.343  67.739  1.00  0.00    -0.178 C  
BRANCH  16  17
HETATM   17  C   UNK A   0      -9.220  14.614  66.394  1.00  0.00    -0.280 C  
BRANCH  17  18
HETATM   18  C   UNK A   0      -9.129  13.102  66.510  1.00  0.00    -0.135 A  
HETATM   19  C   UNK A   0      -8.844  12.479  67.732  1.00  0.00    -0.178 A  
HETATM   20  C   UNK A   0      -8.642  11.101  67.802  1.00  0.00    -0.131 A  
HETATM   21  C   UNK A   0      -8.746  10.316  66.651  1.00  0.00    -0.134 A  
HETATM   22  C   UNK A   0      -9.156  10.902  65.450  1.00  0.00    -0.218 A  
HETATM   23  C   UNK A   0      -9.341  12.290  65.382  1.00  0.00     0.113 A  
BRANCH  21  24
HETATM   24  C   UNK A   0      -8.358   8.879  66.693  1.00  0.00    -0.111 C  
HETATM   25  O   UNK A   0      -8.633   8.087  65.800  1.00  0.00    -0.143 OA 
ATOM     26  N   GLU A   1      -7.628   8.511  67.806  1.00  0.00    -0.097 N  
ATOM     27  H   GLU A   1      -7.420   9.212  68.517  1.00  0.00     0.000 HD 
BRANCH  26  28
ATOM     28  CA  GLU A   1      -7.148   7.150  67.989  1.00  0.00    -0.085 C  
ATOM     29  C   GLU A   1      -7.330   6.376  66.679  1.00  0.00    -0.078 C  
ATOM     30  O   GLU A   1      -6.269   6.467  65.846  1.00  0.00    -0.035 OA 
ATOM     31  OXT GLU A   1      -8.343   5.739  66.390  1.00  0.00    -0.109 OA 
BRANCH  28  32
ATOM     32  CB  GLU A   1      -7.900   6.455  69.132  1.00  0.00    -0.109 C  
BRANCH  32  33
ATOM     33  CG  GLU A   1      -9.412   6.637  69.009  1.00  0.00    -0.131 C  
ATOM     34  CD  GLU A   1     -10.118   5.310  69.047  1.00  0.00    -0.202 C  
ATOM     35  OE1 GLU A   1     -10.494   4.932  70.287  1.00  0.00    -0.234 OA 
ATOM     36  OE2 GLU A   1     -10.307   4.617  68.058  1.00  0.00    -0.005 OA 
ENDBRANCH  32  33
ENDBRANCH  28  32
ENDBRANCH  26  28
ENDBRANCH  21  24
ENDBRANCH  17  18
ENDBRANCH  16  17
ENDBRANCH  15  16
TORSDOF 7
ENDMDL
MODEL      317
REMARK 921   NORMALIZED FREE ENERGY PREDICTED BY IDOCK:    8.15 KCAL/MOL
REMARK 922        TOTAL FREE ENERGY PREDICTED BY IDOCK:    8.84 KCAL/MOL
REMARK 923 INTER-LIGAND FREE ENERGY PREDICTED BY IDOCK:   -1.72 KCAL/MOL
REMARK 924 INTRA-LIGAND FREE ENERGY PREDICTED BY IDOCK:   10.56 KCAL/MOL
REMARK 927      BINDING AFFINITY PREDICTED BY RF-SCORE:    0.00 PKD
ROOT
HETATM    1  N   UNK A   0      -8.932   5.507  70.285  1.00  0.00    -0.135 NA 
HETATM    2  H1  UNK A   0      -8.185   5.803  70.913  1.00  0.00     0.000 HD 
HETATM    3  C   UNK A   0      -8.855   5.748  68.951  1.00  0.00    -0.110 C  
HETATM    4  H2  UNK A   0      -9.747   5.024  70.664  1.00  0.00     0.000 HD 
HETATM    5  N   UNK A   0      -9.808   5.370  68.150  1.00  0.00    -0.138 N  
HETATM    6  H   UNK A   0     -10.635   4.904  68.522  1.00  0.00     0.000 HD 
HETATM    7  C   UNK A   0      -9.692   5.608  66.778  1.00  0.00    -0.154 C  
HETATM    8  C   UNK A   0      -8.444   6.242  66.344  1.00  0.00    -0.125 A  
HETATM    9  O   UNK A   0     -10.568   5.304  65.978  1.00  0.00    -0.210 OA 
HETATM   10  C   UNK A   0      -7.514   6.601  67.281  1.00  0.00    -0.092 A  
HETATM   11  N   UNK A   0      -6.423   7.137  66.682  1.00  0.00    -0.052 NA 
HETATM   12  N   UNK A   0      -7.701   6.391  68.590  1.00  0.00    -0.100 NA 
HETATM   13  H   UNK A   0      -5.588   7.484  67.154  1.00  0.00     0.000 HD 
HETATM   14  C   UNK A   0      -6.641   7.132  65.324  1.00  0.00    -0.047 A  
HETATM   15  C   UNK A   0      -7.892   6.581  65.071  1.00  0.00    -0.113 A  
ENDROOT
BRANCH  15  16
HETATM   16  C   UNK A   0      -8.492   6.336  63.723  1.00  0.00     0.221 C  
BRANCH  16  17
HETATM   17  C   UNK A   0      -9.114   7.588  63.082  1.00  0.00     1.511 C  
BRANCH  17  18
HETATM   18  C   UNK A   0      -9.289   8.743  64.054  1.00  0.00     0.946 A  
HETATM   19  C   UNK A   0      -9.893   9.944  63.661  1.00  0.00     0.348 A  
HETATM   20  C   UNK A   0      -9.937  11.038  64.524  1.00  0.00    -0.366 A  
HETATM   21  C   UNK A   0      -9.398  10.941  65.810  1.00  0.00    -0.232 A  
HETATM   22  C   UNK A   0      -8.909   9.714  66.263  1.00  0.00    -0.172 A  
HETATM   23  C   UNK A   0      -8.851   8.622  65.385  1.00  0.00    -0.198 A  
BRANCH  21  24
HETATM   24  C   UNK A   0      -9.286  12.157  66.663  1.00  0.00    -0.226 C  
HETATM   25  O   UNK A   0     -10.239  12.884  66.917  1.00  0.00    -0.237 OA 
ATOM     26  N   GLU A   1      -8.026  12.386  67.180  1.00  0.00    -0.257 N  
ATOM     27  H   GLU A   1      -7.268  11.745  66.942  1.00  0.00     0.000 HD 
BRANCH  26  28
ATOM     28  CA  GLU A   1      -7.752  13.516  68.053  1.00  0.00    -0.143 C  
ATOM     29  C   GLU A   1      -8.870  14.553  67.893  1.00  0.00    -0.176 C  
ATOM     30  O   GLU A   1      -9.909  14.359  68.737  1.00  0.00    -0.232 OA 
ATOM     31  OXT GLU A   1      -8.848  15.471  67.073  1.00  0.00    -0.199 OA 
BRANCH  28  32
ATOM     32  CB  GLU A   1      -6.390  14.143  67.725  1.00  0.00    -0.169 C  
BRANCH  32  33
ATOM     33  CG  GLU A   1      -6.313  15.600  68.176  1.00  0.00    -0.133 C  
ATOM     34  CD  GLU A   1      -6.443  16.533  67.004  1.00  0.00    -0.186 C  
ATOM     35  OE1 GLU A   1      -7.713  16.915  66.754  1.00  0.00    -0.195 OA 
ATOM     36  OE2 GLU A   1      -5.497  16.889  66.316  1.00  0.00    -0.349 OA 
ENDBRANCH  32  33
ENDBRANCH  28  32
ENDBRANCH  26  28
ENDBRANCH  21  24
ENDBRANCH  17  18
ENDBRANCH  16  17
ENDBRANCH  15  16
TORSDOF 7
ENDMDL
MODEL      318
REMARK 921   NORMALIZED FREE ENERGY PREDICTED BY IDOCK:    8.60 KCAL/MOL
REMARK 922        TOTAL FREE ENERGY PREDICTED BY IDOCK:    9.48 KCAL/MOL
REMARK 923 INTER-LIGAND FREE ENERGY PREDICTED BY IDOCK:   -0.29 KCAL/MOL
REMARK 924 INTRA-LIGAND FREE ENERGY PREDICTED BY IDOCK:    9.77 KCAL/MOL
REMARK 927      BINDING AFFINITY PREDICTED BY RF-SCORE:    0.00 PKD
ROOT
HETATM    1  N   UNK A   0     -11.843   5.970  66.497  1.00  0.00     0.393 NA 
HETATM    2  H1  UNK A   0     -12.404   5.119  66.482  1.00  0.00     0.000 HD 
HETATM    3  C   UNK A   0     -11.389   6.482  67.670  1.00  0.00     0.006 C  
HETATM    4  H2  UNK A   0     -11.619   6.441  65.621  1.00  0.00     0.000 HD 
HETATM    5  N   UNK A   0     -10.672   7.568  67.689  1.00  0.00    -0.446 N  
HETATM    6  H   UNK A   0     -10.459   8.057  66.819  1.00  0.00     0.000 HD 
HETATM    7  C   UNK A   0     -10.196   8.060  68.906  1.00  0.00    -0.209 C  
HETATM    8  C   UNK A   0     -10.519   7.257  70.089  1.00  0.00    -0.229 A  
HETATM    9  O   UNK A   0      -9.544   9.093  68.993  1.00  0.00    -0.153 OA 
HETATM   10  C   UNK A   0     -11.287   6.134  69.946  1.00  0.00    -0.384 A  
HETATM   11  N   UNK A   0     -11.445   5.515  71.142  1.00  0.00     0.144 NA 
HETATM   12  N   UNK A   0     -11.757   5.736  68.757  1.00  0.00     1.096 NA 
HETATM   13  H   UNK A   0     -11.973   4.658  71.309  1.00  0.00     0.000 HD 
HETATM   14  C   UNK A   0     -10.769   6.246  72.089  1.00  0.00    -0.231 A  
HETATM   15  C   UNK A   0     -10.177   7.343  71.472  1.00  0.00    -0.205 A  
ENDROOT
BRANCH  15  16
HETATM   16  C   UNK A   0      -9.300   8.359  72.134  1.00  0.00    -0.339 C  
BRANCH  16  17
HETATM   17  C   UNK A   0      -9.552   9.801  71.659  1.00  0.00     1.365 C  
BRANCH  17  18
HETATM   18  C   UNK A   0      -8.845  10.142  70.358  1.00  0.00     0.407 A  
HETATM   19  C   UNK A   0      -9.468  10.914  69.369  1.00  0.00     0.036 A  
HETATM   20  C   UNK A   0      -8.859  11.118  68.132  1.00  0.00    -0.148 A  
HETATM   21  C   UNK A   0      -7.599  10.572  67.870  1.00  0.00    -0.092 A  
HETATM   22  C   UNK A   0      -6.909   9.910  68.888  1.00  0.00    -0.057 A  
HETATM   23  C   UNK A   0      -7.533   9.693  70.125  1.00  0.00    -0.157 A  
BRANCH  21  24
HETATM   24  C   UNK A   0      -7.030  10.639  66.495  1.00  0.00    -0.125 C  
HETATM   25  O   UNK A   0      -5.936  11.131  66.250  1.00  0.00    -0.137 OA 
ATOM     26  N   GLU A   1      -7.820  10.070  65.516  1.00  0.00    -0.128 N  
ATOM     27  H   GLU A   1      -8.721   9.668  65.776  1.00  0.00     0.000 HD 
BRANCH  26  28
ATOM     28  CA  GLU A   1      -7.400  10.029  64.123  1.00  0.00    -0.132 C  
ATOM     29  C   GLU A   1      -8.543  10.547  63.242  1.00  0.00    -0.179 C  
ATOM     30  O   GLU A   1      -8.508  11.885  63.047  1.00  0.00     0.298 OA 
ATOM     31  OXT GLU A   1      -9.422   9.831  62.763  1.00  0.00    -0.231 OA 
BRANCH  28  32
ATOM     32  CB  GLU A   1      -7.010   8.603  63.712  1.00  0.00    -0.087 C  
BRANCH  32  33
ATOM     33  CG  GLU A   1      -7.850   7.554  64.439  1.00  0.00    -0.128 C  
ATOM     34  CD  GLU A   1      -7.629   6.187  63.850  1.00  0.00    -0.089 C  
ATOM     35  OE1 GLU A   1      -6.645   5.489  64.455  1.00  0.00    -0.040 OA 
ATOM     36  OE2 GLU A   1      -8.253   5.756  62.892  1.00  0.00    -0.110 OA 
ENDBRANCH  32  33
ENDBRANCH  28  32
ENDBRANCH  26  28
ENDBRANCH  21  24
ENDBRANCH  17  18
ENDBRANCH  16  17
ENDBRANCH  15  16
TORSDOF 7
ENDMDL
MODEL      319
REMARK 921   NORMALIZED FREE ENERGY PREDICTED BY IDOCK:   10.92 KCAL/MOL
REMARK 922        TOTAL FREE ENERGY PREDICTED BY IDOCK:   12.75 KCAL/MOL
REMARK 923 INTER-LIGAND FREE ENERGY PREDICTED BY IDOCK:   10.95 KCAL/MOL
REMARK 924 INTRA-LIGAND FREE ENERGY PREDICTED BY IDOCK:    1.81 KCAL/MOL
REMARK 927      BINDING AFFINITY PREDICTED BY RF-SCORE:    0.00 PKD
ROOT
HETATM    1  N   UNK A   0      -8.559  19.449  71.227  1.00  0.00     3.484 NA 
HETATM    2  H1  UNK A   0      -7.661  19.574  71.693  1.00  0.00     0.000 HD 
HETATM    3  C   UNK A   0      -8.834  18.311  70.540  1.00  0.00     3.923 C  
HETATM    4  H2  UNK A   0      -9.261  20.188  71.279  1.00  0.00     0.000 HD 
HETATM    5  N   UNK A   0      -9.980  18.151  69.946  1.00  0.00     0.413 N  
HETATM    6  H   UNK A   0     -10.680  18.892  69.977  1.00  0.00     0.000 HD 
HETATM    7  C   UNK A   0     -10.246  16.960  69.267  1.00  0.00    -0.262 C  
HETATM    8  C   UNK A   0      -9.191  15.943  69.324  1.00  0.00    -0.254 A  
HETATM    9  O   UNK A   0     -11.293  16.762  68.664  1.00  0.00    -0.253 OA 
HETATM   10  C   UNK A   0      -8.022  16.228  69.975  1.00  0.00     1.043 A  
HETATM   11  N   UNK A   0      -7.193  15.156  69.946  1.00  0.00    -0.183 NA 
HETATM   12  N   UNK A   0      -7.804  17.408  70.569  1.00  0.00     3.256 NA 
HETATM   13  H   UNK A   0      -6.261  15.106  70.358  1.00  0.00     0.000 HD 
HETATM   14  C   UNK A   0      -7.829  14.148  69.261  1.00  0.00     0.142 A  
HETATM   15  C   UNK A   0      -9.080  14.599  68.856  1.00  0.00    -0.148 A  
ENDROOT
BRANCH  15  16
HETATM   16  C   UNK A   0     -10.116  13.796  68.135  1.00  0.00    -0.245 C  
BRANCH  16  17
HETATM   17  C   UNK A   0      -9.825  13.608  66.636  1.00  0.00    -0.284 C  
BRANCH  17  18
HETATM   18  C   UNK A   0      -9.551  12.164  66.249  1.00  0.00    -0.246 A  
HETATM   19  C   UNK A   0      -8.245  11.694  66.061  1.00  0.00     0.167 A  
HETATM   20  C   UNK A   0      -8.012  10.403  65.588  1.00  0.00    -0.153 A  
HETATM   21  C   UNK A   0      -9.084   9.549  65.317  1.00  0.00    -0.276 A  
HETATM   22  C   UNK A   0     -10.385   9.957  65.620  1.00  0.00    -0.115 A  
HETATM   23  C   UNK A   0     -10.616  11.261  66.080  1.00  0.00    -0.312 A  
BRANCH  21  24
HETATM   24  C   UNK A   0      -8.842   8.241  64.646  1.00  0.00     0.240 C  
HETATM   25  O   UNK A   0      -8.764   8.119  63.430  1.00  0.00     0.129 OA 
ATOM     26  N   GLU A   1      -8.675   7.174  65.507  1.00  0.00    -0.332 N  
ATOM     27  H   GLU A   1      -8.743   7.332  66.513  1.00  0.00     0.000 HD 
BRANCH  26  28
ATOM     28  CA  GLU A   1      -8.406   5.831  65.016  1.00  0.00    -0.138 C  
ATOM     29  C   GLU A   1      -8.694   5.783  63.511  1.00  0.00     0.260 C  
ATOM     30  O   GLU A   1      -7.625   6.104  62.748  1.00  0.00    -0.065 OA 
ATOM     31  OXT GLU A   1      -9.789   5.496  63.028  1.00  0.00     0.968 OA 
BRANCH  28  32
ATOM     32  CB  GLU A   1      -9.262   4.796  65.759  1.00  0.00    -0.149 C  
BRANCH  32  33
ATOM     33  CG  GLU A   1      -8.623   4.376  67.082  1.00  0.00    -0.104 C  
ATOM     34  CD  GLU A   1      -9.425   3.290  67.744  1.00  0.00    -0.164 C  
ATOM     35  OE1 GLU A   1      -9.023   2.044  67.417  1.00  0.00    -0.126 OA 
ATOM     36  OE2 GLU A   1     -10.373   3.507  68.484  1.00  0.00     0.730 OA 
ENDBRANCH  32  33
ENDBRANCH  28  32
ENDBRANCH  26  28
ENDBRANCH  21  24
ENDBRANCH  17  18
ENDBRANCH  16  17
ENDBRANCH  15  16
TORSDOF 7
ENDMDL
MODEL      320
REMARK 921   NORMALIZED FREE ENERGY PREDICTED BY IDOCK:   19.28 KCAL/MOL
REMARK 922        TOTAL FREE ENERGY PREDICTED BY IDOCK:   24.52 KCAL/MOL
REMARK 923 INTER-LIGAND FREE ENERGY PREDICTED BY IDOCK:   18.03 KCAL/MOL
REMARK 924 INTRA-LIGAND FREE ENERGY PREDICTED BY IDOCK:    6.49 KCAL/MOL
REMARK 927      BINDING AFFINITY PREDICTED BY RF-SCORE:    0.00 PKD
ROOT
HETATM    1  N   UNK A   0     -14.193   5.097  71.710  1.00  0.00     2.940 NA 
HETATM    2  H1  UNK A   0     -13.913   4.117  71.705  1.00  0.00     0.000 HD 
HETATM    3  C   UNK A   0     -13.264   6.086  71.649  1.00  0.00     1.115 C  
HETATM    4  H2  UNK A   0     -15.183   5.338  71.762  1.00  0.00     0.000 HD 
HETATM    5  N   UNK A   0     -13.621   7.336  71.655  1.00  0.00    -0.445 N  
HETATM    6  H   UNK A   0     -14.607   7.587  71.725  1.00  0.00     0.000 HD 
HETATM    7  C   UNK A   0     -12.647   8.334  71.565  1.00  0.00    -0.309 C  
HETATM    8  C   UNK A   0     -11.266   7.865  71.422  1.00  0.00    -0.280 A  
HETATM    9  O   UNK A   0     -12.917   9.527  71.597  1.00  0.00    -0.342 OA 
HETATM   10  C   UNK A   0     -11.010   6.520  71.434  1.00  0.00    -0.258 A  
HETATM   11  N   UNK A   0      -9.686   6.290  71.256  1.00  0.00    -0.174 NA 
HETATM   12  N   UNK A   0     -11.982   5.610  71.571  1.00  0.00     0.391 NA 
HETATM   13  H   UNK A   0      -9.235   5.376  71.225  1.00  0.00     0.000 HD 
HETATM   14  C   UNK A   0      -9.059   7.507  71.124  1.00  0.00    -0.147 A  
HETATM   15  C   UNK A   0     -10.011   8.516  71.222  1.00  0.00    -0.284 A  
ENDROOT
BRANCH  15  16
HETATM   16  C   UNK A   0      -9.758   9.983  71.075  1.00  0.00     0.755 C  
BRANCH  16  17
HETATM   17  C   UNK A   0      -9.169  10.379  69.710  1.00  0.00    -0.004 C  
BRANCH  17  18
HETATM   18  C   UNK A   0      -8.456  11.720  69.724  1.00  0.00     1.689 A  
HETATM   19  C   UNK A   0      -7.945  12.263  70.910  1.00  0.00     7.225 A  
HETATM   20  C   UNK A   0      -7.403  13.548  70.932  1.00  0.00     3.104 A  
HETATM   21  C   UNK A   0      -7.340  14.304  69.758  1.00  0.00     0.181 A  
HETATM   22  C   UNK A   0      -7.725  13.730  68.545  1.00  0.00    -0.138 A  
HETATM   23  C   UNK A   0      -8.285  12.445  68.531  1.00  0.00    -0.086 A  
BRANCH  21  24
HETATM   24  C   UNK A   0      -6.926  15.735  69.817  1.00  0.00    -0.097 C  
HETATM   25  O   UNK A   0      -6.060  16.148  70.577  1.00  0.00    -0.020 OA 
ATOM     26  N   GLU A   1      -7.574  16.559  68.918  1.00  0.00    -0.227 N  
ATOM     27  H   GLU A   1      -8.284  16.162  68.302  1.00  0.00     0.000 HD 
BRANCH  26  28
ATOM     28  CA  GLU A   1      -7.270  17.979  68.827  1.00  0.00    -0.278 C  
ATOM     29  C   GLU A   1      -7.742  18.673  70.110  1.00  0.00     1.542 C  
ATOM     30  O   GLU A   1      -6.806  18.698  71.085  1.00  0.00     1.764 OA 
ATOM     31  OXT GLU A   1      -8.866  19.154  70.261  1.00  0.00     1.258 OA 
BRANCH  28  32
ATOM     32  CB  GLU A   1      -7.946  18.605  67.600  1.00  0.00    -0.261 C  
BRANCH  32  33
ATOM     33  CG  GLU A   1      -9.456  18.733  67.788  1.00  0.00    -0.333 C  
ATOM     34  CD  GLU A   1      -9.990  17.604  68.625  1.00  0.00    -0.367 C  
ATOM     35  OE1 GLU A   1     -10.032  17.881  69.945  1.00  0.00     0.387 OA 
ATOM     36  OE2 GLU A   1     -10.325  16.522  68.166  1.00  0.00    -0.271 OA 
ENDBRANCH  32  33
ENDBRANCH  28  32
ENDBRANCH  26  28
ENDBRANCH  21  24
ENDBRANCH  17  18
ENDBRANCH  16  17
ENDBRANCH  15  16
TORSDOF 7
ENDMDL
MODEL      321
REMARK 921   NORMALIZED FREE ENERGY PREDICTED BY IDOCK:   19.47 KCAL/MOL
REMARK 922        TOTAL FREE ENERGY PREDICTED BY IDOCK:   24.79 KCAL/MOL
REMARK 923 INTER-LIGAND FREE ENERGY PREDICTED BY IDOCK:    2.87 KCAL/MOL
REMARK 924 INTRA-LIGAND FREE ENERGY PREDICTED BY IDOCK:   21.92 KCAL/MOL
REMARK 927      BINDING AFFINITY PREDICTED BY RF-SCORE:    0.00 PKD
ROOT
HETATM    1  N   UNK A   0     -12.619   9.910  70.257  1.00  0.00    -0.516 NA 
HETATM    2  H1  UNK A   0     -13.271  10.478  70.797  1.00  0.00     0.000 HD 
HETATM    3  C   UNK A   0     -11.578  10.482  69.599  1.00  0.00    -0.271 C  
HETATM    4  H2  UNK A   0     -12.750   8.899  70.212  1.00  0.00     0.000 HD 
HETATM    5  N   UNK A   0     -10.746   9.757  68.911  1.00  0.00    -0.220 N  
HETATM    6  H   UNK A   0     -10.879   8.747  68.845  1.00  0.00     0.000 HD 
HETATM    7  C   UNK A   0      -9.669  10.367  68.263  1.00  0.00    -0.151 C  
HETATM    8  C   UNK A   0      -9.543  11.814  68.462  1.00  0.00    -0.173 A  
HETATM    9  O   UNK A   0      -8.871   9.744  67.576  1.00  0.00    -0.125 OA 
HETATM   10  C   UNK A   0     -10.485  12.473  69.204  1.00  0.00     0.110 A  
HETATM   11  N   UNK A   0     -10.176  13.789  69.298  1.00  0.00    -0.426 NA 
HETATM   12  N   UNK A   0     -11.525  11.841  69.762  1.00  0.00    -0.271 NA 
HETATM   13  H   UNK A   0     -10.714  14.498  69.796  1.00  0.00     0.000 HD 
HETATM   14  C   UNK A   0      -9.008  14.000  68.604  1.00  0.00    -0.104 A  
HETATM   15  C   UNK A   0      -8.580  12.791  68.066  1.00  0.00    -0.186 A  
ENDROOT
BRANCH  15  16
HETATM   16  C   UNK A   0      -7.321  12.568  67.289  1.00  0.00    -0.113 C  
BRANCH  16  17
HETATM   17  C   UNK A   0      -7.168  11.136  66.749  1.00  0.00    -0.146 C  
BRANCH  17  18
HETATM   18  C   UNK A   0      -7.298  10.067  67.821  1.00  0.00    -0.089 A  
HETATM   19  C   UNK A   0      -7.128   8.709  67.524  1.00  0.00    -0.080 A  
HETATM   20  C   UNK A   0      -7.370   7.731  68.487  1.00  0.00    -0.091 A  
HETATM   21  C   UNK A   0      -7.764   8.096  69.777  1.00  0.00    -0.100 A  
HETATM   22  C   UNK A   0      -7.813   9.447  70.127  1.00  0.00    -0.148 A  
HETATM   23  C   UNK A   0      -7.586  10.427  69.150  1.00  0.00    -0.117 A  
BRANCH  21  24
HETATM   24  C   UNK A   0      -8.192   7.050  70.748  1.00  0.00    -0.121 C  
HETATM   25  O   UNK A   0      -7.596   6.828  71.794  1.00  0.00    -0.093 OA 
ATOM     26  N   GLU A   1      -9.340   6.370  70.393  1.00  0.00    -0.161 N  
ATOM     27  H   GLU A   1      -9.802   6.599  69.513  1.00  0.00     0.000 HD 
BRANCH  26  28
ATOM     28  CA  GLU A   1      -9.908   5.335  71.244  1.00  0.00    -0.173 C  
ATOM     29  C   GLU A   1      -9.056   5.209  72.512  1.00  0.00    -0.133 C  
ATOM     30  O   GLU A   1      -9.456   6.025  73.513  1.00  0.00    -0.138 OA 
ATOM     31  OXT GLU A   1      -8.091   4.453  72.622  1.00  0.00    -0.094 OA 
BRANCH  28  32
ATOM     32  CB  GLU A   1      -9.968   3.991  70.503  1.00  0.00    -0.125 C  
BRANCH  32  33
ATOM     33  CG  GLU A   1     -10.472   2.868  71.407  1.00  0.00     0.710 C  
ATOM     34  CD  GLU A   1     -11.512   3.377  72.368  1.00  0.00     1.184 C  
ATOM     35  OE1 GLU A   1     -12.775   3.265  71.908  1.00  0.00     5.464 OA 
ATOM     36  OE2 GLU A   1     -11.243   3.878  73.450  1.00  0.00    -0.237 OA 
ENDBRANCH  32  33
ENDBRANCH  28  32
ENDBRANCH  26  28
ENDBRANCH  21  24
ENDBRANCH  17  18
ENDBRANCH  16  17
ENDBRANCH  15  16
TORSDOF 7
ENDMDL
MODEL      322
REMARK 921   NORMALIZED FREE ENERGY PREDICTED BY IDOCK:   27.43 KCAL/MOL
REMARK 922        TOTAL FREE ENERGY PREDICTED BY IDOCK:   36.01 KCAL/MOL
REMARK 923 INTER-LIGAND FREE ENERGY PREDICTED BY IDOCK:   14.05 KCAL/MOL
REMARK 924 INTRA-LIGAND FREE ENERGY PREDICTED BY IDOCK:   21.96 KCAL/MOL
REMARK 927      BINDING AFFINITY PREDICTED BY RF-SCORE:    0.00 PKD
ROOT
HETATM    1  N   UNK A   0      -9.303   9.555  64.865  1.00  0.00    -0.380 NA 
HETATM    2  H1  UNK A   0      -9.278   9.289  63.882  1.00  0.00     0.000 HD 
HETATM    3  C   UNK A   0      -9.798  10.761  65.247  1.00  0.00    -0.272 C  
HETATM    4  H2  UNK A   0      -8.952   8.908  65.571  1.00  0.00     0.000 HD 
HETATM    5  N   UNK A   0      -9.830  11.100  66.502  1.00  0.00    -0.203 N  
HETATM    6  H   UNK A   0      -9.465  10.468  67.214  1.00  0.00     0.000 HD 
HETATM    7  C   UNK A   0     -10.368  12.336  66.870  1.00  0.00    -0.216 C  
HETATM    8  C   UNK A   0     -10.908  13.148  65.775  1.00  0.00    -0.289 A  
HETATM    9  O   UNK A   0     -10.398  12.725  68.030  1.00  0.00    -0.216 OA 
HETATM   10  C   UNK A   0     -10.812  12.688  64.490  1.00  0.00    -0.336 A  
HETATM   11  N   UNK A   0     -11.395  13.560  63.632  1.00  0.00    -0.564 NA 
HETATM   12  N   UNK A   0     -10.242  11.514  64.192  1.00  0.00    -0.295 NA 
HETATM   13  H   UNK A   0     -11.460  13.454  62.620  1.00  0.00     0.000 HD 
HETATM   14  C   UNK A   0     -11.883  14.615  64.368  1.00  0.00    -0.390 A  
HETATM   15  C   UNK A   0     -11.599  14.396  65.711  1.00  0.00    -0.353 A  
ENDROOT
BRANCH  15  16
HETATM   16  C   UNK A   0     -12.007  15.272  66.853  1.00  0.00     0.241 C  
BRANCH  16  17
HETATM   17  C   UNK A   0     -11.092  15.157  68.083  1.00  0.00    -0.306 C  
BRANCH  17  18
HETATM   18  C   UNK A   0     -11.128  13.788  68.740  1.00  0.00    -0.295 A  
HETATM   19  C   UNK A   0     -12.326  13.235  69.210  1.00  0.00    -0.054 A  
HETATM   20  C   UNK A   0     -12.329  12.034  69.919  1.00  0.00    -0.143 A  
HETATM   21  C   UNK A   0     -11.132  11.351  70.150  1.00  0.00     0.064 A  
HETATM   22  C   UNK A   0      -9.947  11.821  69.579  1.00  0.00     0.671 A  
HETATM   23  C   UNK A   0      -9.947  13.038  68.881  1.00  0.00     0.088 A  
BRANCH  21  24
HETATM   24  C   UNK A   0     -11.113  10.168  71.056  1.00  0.00    -0.171 C  
HETATM   25  O   UNK A   0     -11.561   9.075  70.734  1.00  0.00    -0.276 OA 
ATOM     26  N   GLU A   1     -10.516  10.390  72.281  1.00  0.00     3.965 N  
ATOM     27  H   GLU A   1     -10.153  11.318  72.496  1.00  0.00     0.000 HD 
BRANCH  26  28
ATOM     28  CA  GLU A   1     -10.393   9.332  73.273  1.00  0.00     3.619 C  
ATOM     29  C   GLU A   1      -8.906   9.047  73.515  1.00  0.00     1.432 C  
ATOM     30  O   GLU A   1      -8.364   9.808  74.493  1.00  0.00     2.140 OA 
ATOM     31  OXT GLU A   1      -8.250   8.220  72.882  1.00  0.00    -0.172 OA 
BRANCH  28  32
ATOM     32  CB  GLU A   1     -11.113   8.059  72.807  1.00  0.00    -0.448 C  
BRANCH  32  33
ATOM     33  CG  GLU A   1     -12.301   7.719  73.706  1.00  0.00     3.720 C  
ATOM     34  CD  GLU A   1     -13.484   8.591  73.385  1.00  0.00     1.534 C  
ATOM     35  OE1 GLU A   1     -14.317   8.057  72.467  1.00  0.00    -0.175 OA 
ATOM     36  OE2 GLU A   1     -13.663   9.695  73.878  1.00  0.00     2.128 OA 
ENDBRANCH  32  33
ENDBRANCH  28  32
ENDBRANCH  26  28
ENDBRANCH  21  24
ENDBRANCH  17  18
ENDBRANCH  16  17
ENDBRANCH  15  16
TORSDOF 7
ENDMDL
MODEL      323
REMARK 921   NORMALIZED FREE ENERGY PREDICTED BY IDOCK:   27.72 KCAL/MOL
REMARK 922        TOTAL FREE ENERGY PREDICTED BY IDOCK:   36.42 KCAL/MOL
REMARK 923 INTER-LIGAND FREE ENERGY PREDICTED BY IDOCK:    3.09 KCAL/MOL
REMARK 924 INTRA-LIGAND FREE ENERGY PREDICTED BY IDOCK:   33.33 KCAL/MOL
REMARK 927      BINDING AFFINITY PREDICTED BY RF-SCORE:    0.00 PKD
ROOT
HETATM    1  N   UNK A   0     -12.626   9.924  70.285  1.00  0.00    -0.516 NA 
HETATM    2  H1  UNK A   0     -13.552  10.153  70.645  1.00  0.00     0.000 HD 
HETATM    3  C   UNK A   0     -11.769  10.902  69.896  1.00  0.00    -0.339 C  
HETATM    4  H2  UNK A   0     -12.341   8.946  70.216  1.00  0.00     0.000 HD 
HETATM    5  N   UNK A   0     -10.588  10.609  69.437  1.00  0.00    -0.231 N  
HETATM    6  H   UNK A   0     -10.300   9.634  69.347  1.00  0.00     0.000 HD 
HETATM    7  C   UNK A   0      -9.715  11.636  69.067  1.00  0.00     0.087 C  
HETATM    8  C   UNK A   0     -10.209  12.999  69.281  1.00  0.00     0.378 A  
HETATM    9  O   UNK A   0      -8.604  11.423  68.600  1.00  0.00    -0.157 OA 
HETATM   10  C   UNK A   0     -11.475  13.185  69.766  1.00  0.00    -0.145 A  
HETATM   11  N   UNK A   0     -11.730  14.507  69.924  1.00  0.00    -0.282 NA 
HETATM   12  N   UNK A   0     -12.285  12.160  70.058  1.00  0.00    -0.241 NA 
HETATM   13  H   UNK A   0     -12.599  14.913  70.271  1.00  0.00     0.000 HD 
HETATM   14  C   UNK A   0     -10.611  15.203  69.534  1.00  0.00    -0.270 A  
HETATM   15  C   UNK A   0      -9.637  14.298  69.125  1.00  0.00     0.074 A  
ENDROOT
BRANCH  15  16
HETATM   16  C   UNK A   0      -8.250  14.637  68.681  1.00  0.00    -0.159 C  
BRANCH  16  17
HETATM   17  C   UNK A   0      -7.482  13.449  68.077  1.00  0.00    -0.139 C  
BRANCH  17  18
HETATM   18  C   UNK A   0      -7.520  12.201  68.942  1.00  0.00    -0.027 A  
HETATM   19  C   UNK A   0      -6.643  11.131  68.721  1.00  0.00    -0.059 A  
HETATM   20  C   UNK A   0      -6.768   9.944  69.441  1.00  0.00    -0.057 A  
HETATM   21  C   UNK A   0      -7.760   9.814  70.416  1.00  0.00    -0.159 A  
HETATM   22  C   UNK A   0      -8.559  10.913  70.739  1.00  0.00     3.649 A  
HETATM   23  C   UNK A   0      -8.441  12.099  70.001  1.00  0.00     3.082 A  
BRANCH  21  24
HETATM   24  C   UNK A   0      -8.006   8.491  71.056  1.00  0.00    -0.117 C  
HETATM   25  O   UNK A   0      -7.935   8.311  72.265  1.00  0.00    -0.124 OA 
ATOM     26  N   GLU A   1      -8.357   7.483  70.179  1.00  0.00    -0.133 N  
ATOM     27  H   GLU A   1      -8.408   7.688  69.181  1.00  0.00     0.000 HD 
BRANCH  26  28
ATOM     28  CA  GLU A   1      -8.655   6.137  70.644  1.00  0.00    -0.135 C  
ATOM     29  C   GLU A   1      -8.628   6.120  72.177  1.00  0.00    -0.127 C  
ATOM     30  O   GLU A   1      -9.823   6.407  72.740  1.00  0.00    -0.168 OA 
ATOM     31  OXT GLU A   1      -7.621   5.884  72.845  1.00  0.00    -0.097 OA 
BRANCH  28  32
ATOM     32  CB  GLU A   1      -7.646   5.127  70.079  1.00  0.00    -0.064 C  
BRANCH  32  33
ATOM     33  CG  GLU A   1      -8.239   4.316  68.928  1.00  0.00    -0.080 C  
ATOM     34  CD  GLU A   1      -9.277   5.115  68.188  1.00  0.00    -0.116 C  
ATOM     35  OE1 GLU A   1      -8.782   5.810  67.142  1.00  0.00    -0.110 OA 
ATOM     36  OE2 GLU A   1     -10.453   5.162  68.517  1.00  0.00    -0.126 OA 
ENDBRANCH  32  33
ENDBRANCH  28  32
ENDBRANCH  26  28
ENDBRANCH  21  24
ENDBRANCH  17  18
ENDBRANCH  16  17
ENDBRANCH  15  16
TORSDOF 7
ENDMDL
MODEL      324
REMARK 921   NORMALIZED FREE ENERGY PREDICTED BY IDOCK:   31.48 KCAL/MOL
REMARK 922        TOTAL FREE ENERGY PREDICTED BY IDOCK:   41.72 KCAL/MOL
REMARK 923 INTER-LIGAND FREE ENERGY PREDICTED BY IDOCK:    3.00 KCAL/MOL
REMARK 924 INTRA-LIGAND FREE ENERGY PREDICTED BY IDOCK:   38.73 KCAL/MOL
REMARK 927      BINDING AFFINITY PREDICTED BY RF-SCORE:    0.00 PKD
ROOT
HETATM    1  N   UNK A   0     -12.626   9.924  70.285  1.00  0.00    -0.516 NA 
HETATM    2  H1  UNK A   0     -13.552  10.153  70.645  1.00  0.00     0.000 HD 
HETATM    3  C   UNK A   0     -11.769  10.902  69.896  1.00  0.00    -0.339 C  
HETATM    4  H2  UNK A   0     -12.341   8.946  70.216  1.00  0.00     0.000 HD 
HETATM    5  N   UNK A   0     -10.588  10.609  69.437  1.00  0.00    -0.231 N  
HETATM    6  H   UNK A   0     -10.300   9.634  69.347  1.00  0.00     0.000 HD 
HETATM    7  C   UNK A   0      -9.715  11.636  69.067  1.00  0.00     0.087 C  
HETATM    8  C   UNK A   0     -10.209  12.999  69.281  1.00  0.00     0.378 A  
HETATM    9  O   UNK A   0      -8.604  11.423  68.600  1.00  0.00    -0.157 OA 
HETATM   10  C   UNK A   0     -11.475  13.185  69.766  1.00  0.00    -0.145 A  
HETATM   11  N   UNK A   0     -11.730  14.507  69.924  1.00  0.00    -0.282 NA 
HETATM   12  N   UNK A   0     -12.285  12.160  70.058  1.00  0.00    -0.241 NA 
HETATM   13  H   UNK A   0     -12.599  14.913  70.271  1.00  0.00     0.000 HD 
HETATM   14  C   UNK A   0     -10.611  15.203  69.534  1.00  0.00    -0.270 A  
HETATM   15  C   UNK A   0      -9.637  14.298  69.125  1.00  0.00     0.074 A  
ENDROOT
BRANCH  15  16
HETATM   16  C   UNK A   0      -8.250  14.637  68.681  1.00  0.00    -0.159 C  
BRANCH  16  17
HETATM   17  C   UNK A   0      -7.482  13.449  68.077  1.00  0.00    -0.139 C  
BRANCH  17  18
HETATM   18  C   UNK A   0      -7.520  12.201  68.942  1.00  0.00    -0.027 A  
HETATM   19  C   UNK A   0      -6.643  11.131  68.721  1.00  0.00    -0.059 A  
HETATM   20  C   UNK A   0      -6.768   9.944  69.441  1.00  0.00    -0.057 A  
HETATM   21  C   UNK A   0      -7.760   9.814  70.416  1.00  0.00    -0.159 A  
HETATM   22  C   UNK A   0      -8.559  10.913  70.739  1.00  0.00     3.649 A  
HETATM   23  C   UNK A   0      -8.441  12.099  70.001  1.00  0.00     3.082 A  
BRANCH  21  24
HETATM   24  C   UNK A   0      -8.006   8.491  71.056  1.00  0.00    -0.117 C  
HETATM   25  O   UNK A   0      -7.935   8.311  72.265  1.00  0.00    -0.124 OA 
ATOM     26  N   GLU A   1      -8.357   7.483  70.179  1.00  0.00    -0.133 N  
ATOM     27  H   GLU A   1      -8.408   7.688  69.181  1.00  0.00     0.000 HD 
BRANCH  26  28
ATOM     28  CA  GLU A   1      -8.655   6.137  70.644  1.00  0.00    -0.135 C  
ATOM     29  C   GLU A   1      -9.054   5.272  69.442  1.00  0.00    -0.104 C  
ATOM     30  O   GLU A   1      -8.005   4.661  68.846  1.00  0.00    -0.074 OA 
ATOM     31  OXT GLU A   1     -10.209   5.145  69.037  1.00  0.00    -0.202 OA 
BRANCH  28  32
ATOM     32  CB  GLU A   1      -9.780   6.155  71.687  1.00  0.00    -0.177 C  
BRANCH  32  33
ATOM     33  CG  GLU A   1      -9.241   5.979  73.106  1.00  0.00    -0.132 C  
ATOM     34  CD  GLU A   1      -7.848   6.534  73.223  1.00  0.00    -0.096 C  
ATOM     35  OE1 GLU A   1      -7.811   7.825  73.613  1.00  0.00    -0.126 OA 
ATOM     36  OE2 GLU A   1      -6.841   5.893  72.958  1.00  0.00    -0.073 OA 
ENDBRANCH  32  33
ENDBRANCH  28  32
ENDBRANCH  26  28
ENDBRANCH  21  24
ENDBRANCH  17  18
ENDBRANCH  16  17
ENDBRANCH  15  16
TORSDOF 7
ENDMDL
MODEL      325
REMARK 921   NORMALIZED FREE ENERGY PREDICTED BY IDOCK:   37.52 KCAL/MOL
REMARK 922        TOTAL FREE ENERGY PREDICTED BY IDOCK:   50.24 KCAL/MOL
REMARK 923 INTER-LIGAND FREE ENERGY PREDICTED BY IDOCK:   25.38 KCAL/MOL
REMARK 924 INTRA-LIGAND FREE ENERGY PREDICTED BY IDOCK:   24.86 KCAL/MOL
REMARK 927      BINDING AFFINITY PREDICTED BY RF-SCORE:    0.00 PKD
ROOT
HETATM    1  N   UNK A   0      -8.886  12.310  64.964  1.00  0.00     0.191 NA 
HETATM    2  H1  UNK A   0      -9.675  12.583  64.378  1.00  0.00     0.000 HD 
HETATM    3  C   UNK A   0      -8.757  11.033  65.406  1.00  0.00    -0.116 C  
HETATM    4  H2  UNK A   0      -8.186  13.006  65.220  1.00  0.00     0.000 HD 
HETATM    5  N   UNK A   0      -7.750  10.686  66.153  1.00  0.00    -0.142 N  
HETATM    6  H   UNK A   0      -7.054  11.379  66.430  1.00  0.00     0.000 HD 
HETATM    7  C   UNK A   0      -7.627   9.359  66.574  1.00  0.00    -0.093 C  
HETATM    8  C   UNK A   0      -8.654   8.436  66.082  1.00  0.00    -0.157 A  
HETATM    9  O   UNK A   0      -6.720   8.978  67.303  1.00  0.00    -0.068 OA 
HETATM   10  C   UNK A   0      -9.671   8.919  65.305  1.00  0.00     0.329 A  
HETATM   11  N   UNK A   0     -10.494   7.911  64.925  1.00  0.00     3.898 NA 
HETATM   12  N   UNK A   0      -9.764  10.213  64.972  1.00  0.00    -0.299 NA 
HETATM   13  H   UNK A   0     -11.326   8.003  64.343  1.00  0.00     0.000 HD 
HETATM   14  C   UNK A   0     -10.008   6.743  65.464  1.00  0.00     1.310 A  
HETATM   15  C   UNK A   0      -8.859   7.028  66.194  1.00  0.00    -0.165 A  
ENDROOT
BRANCH  15  16
HETATM   16  C   UNK A   0      -7.989   6.032  66.891  1.00  0.00    -0.102 C  
BRANCH  16  17
HETATM   17  C   UNK A   0      -6.877   6.666  67.745  1.00  0.00    -0.080 C  
BRANCH  17  18
HETATM   18  C   UNK A   0      -7.382   7.732  68.701  1.00  0.00    -0.087 A  
HETATM   19  C   UNK A   0      -7.451   7.503  70.081  1.00  0.00    -0.086 A  
HETATM   20  C   UNK A   0      -8.030   8.441  70.934  1.00  0.00    -0.112 A  
HETATM   21  C   UNK A   0      -8.529   9.642  70.423  1.00  0.00    -0.187 A  
HETATM   22  C   UNK A   0      -8.353   9.943  69.071  1.00  0.00    -0.130 A  
HETATM   23  C   UNK A   0      -7.786   8.989  68.214  1.00  0.00    -0.095 A  
BRANCH  21  24
HETATM   24  C   UNK A   0      -9.303  10.561  71.304  1.00  0.00     3.994 C  
HETATM   25  O   UNK A   0      -9.201  10.558  72.525  1.00  0.00     7.150 OA 
ATOM     26  N   GLU A   1     -10.123  11.447  70.635  1.00  0.00     2.202 N  
ATOM     27  H   GLU A   1     -10.165  11.413  69.616  1.00  0.00     0.000 HD 
BRANCH  26  28
ATOM     28  CA  GLU A   1     -10.927  12.430  71.345  1.00  0.00     4.973 C  
ATOM     29  C   GLU A   1     -12.370  12.358  70.831  1.00  0.00    -0.262 C  
ATOM     30  O   GLU A   1     -13.139  11.475  71.508  1.00  0.00    -0.422 OA 
ATOM     31  OXT GLU A   1     -12.800  13.021  69.888  1.00  0.00     0.210 OA 
BRANCH  28  32
ATOM     32  CB  GLU A   1     -10.360  13.843  71.152  1.00  0.00     3.828 C  
BRANCH  32  33
ATOM     33  CG  GLU A   1      -9.964  14.102  69.700  1.00  0.00     0.499 C  
ATOM     34  CD  GLU A   1     -10.377  12.955  68.818  1.00  0.00    -0.125 C  
ATOM     35  OE1 GLU A   1     -11.602  13.105  68.273  1.00  0.00    -0.291 OA 
ATOM     36  OE2 GLU A   1      -9.688  11.962  68.636  1.00  0.00    -0.184 OA 
ENDBRANCH  32  33
ENDBRANCH  28  32
ENDBRANCH  26  28
ENDBRANCH  21  24
ENDBRANCH  17  18
ENDBRANCH  16  17
ENDBRANCH  15  16
TORSDOF 7
ENDMDL
MODEL      326
REMARK 921   NORMALIZED FREE ENERGY PREDICTED BY IDOCK:   45.06 KCAL/MOL
REMARK 922        TOTAL FREE ENERGY PREDICTED BY IDOCK:   60.86 KCAL/MOL
REMARK 923 INTER-LIGAND FREE ENERGY PREDICTED BY IDOCK:   16.65 KCAL/MOL
REMARK 924 INTRA-LIGAND FREE ENERGY PREDICTED BY IDOCK:   44.21 KCAL/MOL
REMARK 927      BINDING AFFINITY PREDICTED BY RF-SCORE:    0.00 PKD
ROOT
HETATM    1  N   UNK A   0     -12.052  14.469  66.688  1.00  0.00    -0.389 NA 
HETATM    2  H1  UNK A   0     -12.221  14.460  65.683  1.00  0.00     0.000 HD 
HETATM    3  C   UNK A   0     -11.976  13.310  67.391  1.00  0.00    -0.335 C  
HETATM    4  H2  UNK A   0     -11.938  15.360  67.172  1.00  0.00     0.000 HD 
HETATM    5  N   UNK A   0     -11.761  13.322  68.674  1.00  0.00    -0.320 N  
HETATM    6  H   UNK A   0     -11.665  14.208  69.169  1.00  0.00     0.000 HD 
HETATM    7  C   UNK A   0     -11.663  12.114  69.369  1.00  0.00    -0.329 C  
HETATM    8  C   UNK A   0     -11.769  10.899  68.556  1.00  0.00    -0.307 A  
HETATM    9  O   UNK A   0     -11.492  12.060  70.581  1.00  0.00     0.184 OA 
HETATM   10  C   UNK A   0     -12.002  11.012  67.212  1.00  0.00     0.815 A  
HETATM   11  N   UNK A   0     -12.034   9.786  66.635  1.00  0.00     2.530 NA 
HETATM   12  N   UNK A   0     -12.136  12.198  66.607  1.00  0.00    -0.578 NA 
HETATM   13  H   UNK A   0     -12.190   9.592  65.646  1.00  0.00     0.000 HD 
HETATM   14  C   UNK A   0     -11.818   8.849  67.618  1.00  0.00     3.263 A  
HETATM   15  C   UNK A   0     -11.648   9.504  68.834  1.00  0.00     0.427 A  
ENDROOT
BRANCH  15  16
HETATM   16  C   UNK A   0     -11.332   8.859  70.146  1.00  0.00    -0.119 C  
BRANCH  16  17
HETATM   17  C   UNK A   0     -10.531   9.757  71.104  1.00  0.00    -0.149 C  
BRANCH  17  18
HETATM   18  C   UNK A   0     -10.172  11.108  70.509  1.00  0.00     1.908 A  
HETATM   19  C   UNK A   0      -8.867  11.398  70.090  1.00  0.00     2.540 A  
HETATM   20  C   UNK A   0      -8.522  12.679  69.661  1.00  0.00     1.871 A  
HETATM   21  C   UNK A   0      -9.486  13.690  69.619  1.00  0.00     1.296 A  
HETATM   22  C   UNK A   0     -10.818  13.386  69.910  1.00  0.00     0.458 A  
HETATM   23  C   UNK A   0     -11.156  12.101  70.357  1.00  0.00     1.011 A  
BRANCH  21  24
HETATM   24  C   UNK A   0      -9.080  15.094  69.332  1.00  0.00    -0.180 C  
HETATM   25  O   UNK A   0      -8.564  15.824  70.169  1.00  0.00     0.330 OA 
ATOM     26  N   GLU A   1      -9.298  15.503  68.031  1.00  0.00    -0.192 N  
ATOM     27  H   GLU A   1      -9.725  14.853  67.371  1.00  0.00     0.000 HD 
BRANCH  26  28
ATOM     28  CA  GLU A   1      -8.934  16.837  67.578  1.00  0.00    -0.205 C  
ATOM     29  C   GLU A   1      -9.750  17.870  68.364  1.00  0.00    -0.340 C  
ATOM     30  O   GLU A   1      -9.153  18.270  69.510  1.00  0.00     0.318 OA 
ATOM     31  OXT GLU A   1     -10.850  18.295  68.009  1.00  0.00    -0.321 OA 
BRANCH  28  32
ATOM     32  CB  GLU A   1      -9.184  16.990  66.072  1.00  0.00    -0.177 C  
BRANCH  32  33
ATOM     33  CG  GLU A   1      -8.394  18.157  65.482  1.00  0.00     0.881 C  
ATOM     34  CD  GLU A   1      -6.916  17.886  65.536  1.00  0.00     0.063 C  
ATOM     35  OE1 GLU A   1      -6.433  17.294  64.424  1.00  0.00     2.856 OA 
ATOM     36  OE2 GLU A   1      -6.217  18.144  66.505  1.00  0.00    -0.158 OA 
ENDBRANCH  32  33
ENDBRANCH  28  32
ENDBRANCH  26  28
ENDBRANCH  21  24
ENDBRANCH  17  18
ENDBRANCH  16  17
ENDBRANCH  15  16
TORSDOF 7
ENDMDL
