MODEL        1
REMARK 921   NORMALIZED FREE ENERGY PREDICTED BY IDOCK:   -7.16 KCAL/MOL
REMARK 922        TOTAL FREE ENERGY PREDICTED BY IDOCK:   -7.72 KCAL/MOL
REMARK 923 INTER-LIGAND FREE ENERGY PREDICTED BY IDOCK:   -7.58 KCAL/MOL
REMARK 924 INTRA-LIGAND FREE ENERGY PREDICTED BY IDOCK:   -0.14 KCAL/MOL
REMARK 927      BINDING AFFINITY PREDICTED BY RF-SCORE:    0.00 PKD
ROOT
HETATM    1  C   UNL     1     -11.803  10.573  70.194  1.00  0.00    -0.404 C  
HETATM    2  C   UNL     1     -11.190  10.414  68.838  1.00  0.00    -0.290 A  
HETATM    3  C   UNL     1     -10.567   9.293  68.441  1.00  0.00    -0.234 A  
HETATM    4  C   UNL     1     -10.056   9.161  67.105  1.00  0.00    -0.301 A  
HETATM    5  C   UNL     1     -10.217  10.159  66.230  1.00  0.00    -0.219 A  
HETATM    6  N   UNL     1     -10.825  11.358  66.584  1.00  0.00    -0.280 N  
HETATM    7  C   UNL     1     -10.988  12.336  65.604  1.00  0.00    -0.299 C  
HETATM    8  C   UNL     1     -11.490  13.655  66.076  1.00  0.00    -0.340 C  
HETATM    9  O   UNL     1     -10.770  12.130  64.408  1.00  0.00    -0.285 OA 
HETATM   10  C   UNL     1     -11.306  11.564  67.874  1.00  0.00    -0.303 A  
HETATM   11  C   UNL     1     -11.886  13.706  67.356  1.00  0.00    -0.393 C  
HETATM   12  N   UNL     1     -11.839  12.682  68.262  1.00  0.00    -0.328 NA 
ENDROOT
BRANCH   8  13
HETATM   13  C   UNL     1     -11.543  14.768  65.185  1.00  0.00    -0.358 A  
HETATM   14  N   UNL     1     -11.996  16.144  63.716  1.00  0.00    -1.338 NA 
HETATM   15  N   UNL     1     -12.387  14.933  64.147  1.00  0.00    -0.737 NA 
HETATM   16  H   UNL     1     -12.408  16.583  62.893  1.00  0.00     0.000 HD 
HETATM   17  N   UNL     1     -11.036  16.739  64.428  1.00  0.00    -1.072 NA 
HETATM   18  N   UNL     1     -10.739  15.867  65.380  1.00  0.00    -0.396 NA 
ENDBRANCH   8  13
TORSDOF 1
ENDMDL
MODEL        2
REMARK 921   NORMALIZED FREE ENERGY PREDICTED BY IDOCK:   -7.15 KCAL/MOL
REMARK 922        TOTAL FREE ENERGY PREDICTED BY IDOCK:   -7.71 KCAL/MOL
REMARK 923 INTER-LIGAND FREE ENERGY PREDICTED BY IDOCK:   -7.49 KCAL/MOL
REMARK 924 INTRA-LIGAND FREE ENERGY PREDICTED BY IDOCK:   -0.21 KCAL/MOL
REMARK 927      BINDING AFFINITY PREDICTED BY RF-SCORE:    0.00 PKD
ROOT
HETATM    1  C   UNL     1     -10.533  19.748  65.919  1.00  0.00    -0.587 C  
HETATM    2  C   UNL     1     -10.263  18.489  66.680  1.00  0.00    -0.429 A  
HETATM    3  C   UNL     1      -9.725  18.475  67.910  1.00  0.00    -0.339 A  
HETATM    4  C   UNL     1      -9.549  17.244  68.629  1.00  0.00    -0.284 A  
HETATM    5  C   UNL     1      -9.942  16.090  68.081  1.00  0.00    -0.228 A  
HETATM    6  N   UNL     1     -10.477  16.030  66.799  1.00  0.00    -0.307 N  
HETATM    7  C   UNL     1     -10.898  14.793  66.311  1.00  0.00    -0.322 C  
HETATM    8  C   UNL     1     -11.306  14.760  64.880  1.00  0.00    -0.411 C  
HETATM    9  O   UNL     1     -10.971  13.784  67.016  1.00  0.00    -0.285 OA 
HETATM   10  C   UNL     1     -10.637  17.182  66.033  1.00  0.00    -0.204 A  
HETATM   11  C   UNL     1     -11.381  15.950  64.267  1.00  0.00    -0.171 C  
HETATM   12  N   UNL     1     -11.090  17.168  64.817  1.00  0.00    -0.925 NA 
ENDROOT
BRANCH   8  13
HETATM   13  C   UNL     1     -11.601  13.519  64.242  1.00  0.00    -0.397 A  
HETATM   14  N   UNL     1     -11.552  11.697  63.277  1.00  0.00    -0.833 NA 
HETATM   15  N   UNL     1     -10.721  12.680  63.662  1.00  0.00    -0.417 NA 
HETATM   16  H   UNL     1     -11.222  10.886  62.755  1.00  0.00     0.000 HD 
HETATM   17  N   UNL     1     -12.834  11.845  63.617  1.00  0.00    -0.665 NA 
HETATM   18  N   UNL     1     -12.879  13.011  64.245  1.00  0.00    -0.688 NA 
ENDBRANCH   8  13
TORSDOF 1
ENDMDL
MODEL        3
REMARK 921   NORMALIZED FREE ENERGY PREDICTED BY IDOCK:   -7.14 KCAL/MOL
REMARK 922        TOTAL FREE ENERGY PREDICTED BY IDOCK:   -7.70 KCAL/MOL
REMARK 923 INTER-LIGAND FREE ENERGY PREDICTED BY IDOCK:   -7.64 KCAL/MOL
REMARK 924 INTRA-LIGAND FREE ENERGY PREDICTED BY IDOCK:   -0.05 KCAL/MOL
REMARK 927      BINDING AFFINITY PREDICTED BY RF-SCORE:    0.00 PKD
ROOT
HETATM    1  C   UNL     1     -10.445   8.942  67.878  1.00  0.00    -0.281 C  
HETATM    2  C   UNL     1     -11.041  10.187  68.456  1.00  0.00    -0.266 A  
HETATM    3  C   UNL     1     -11.463  10.277  69.727  1.00  0.00    -0.320 A  
HETATM    4  C   UNL     1     -11.963  11.514  70.258  1.00  0.00    -0.455 A  
HETATM    5  C   UNL     1     -11.994  12.605  69.485  1.00  0.00    -0.270 A  
HETATM    6  N   UNL     1     -11.602  12.574  68.153  1.00  0.00    -0.319 N  
HETATM    7  C   UNL     1     -11.628  13.762  67.423  1.00  0.00    -0.362 C  
HETATM    8  C   UNL     1     -11.359  13.639  65.964  1.00  0.00    -0.322 C  
HETATM    9  O   UNL     1     -11.825  14.863  67.943  1.00  0.00    -0.338 OA 
HETATM   10  C   UNL     1     -11.145  11.396  67.566  1.00  0.00    -0.281 A  
HETATM   11  C   UNL     1     -10.959  12.430  65.544  1.00  0.00    -0.293 C  
HETATM   12  N   UNL     1     -10.811  11.310  66.315  1.00  0.00    -0.264 NA 
ENDROOT
BRANCH   8  13
HETATM   13  C   UNL     1     -11.517  14.766  65.104  1.00  0.00    -0.371 A  
HETATM   14  N   UNL     1     -12.135  16.158  63.714  1.00  0.00    -1.225 NA 
HETATM   15  N   UNL     1     -12.463  14.934  64.159  1.00  0.00    -0.786 NA 
HETATM   16  H   UNL     1     -12.635  16.604  62.945  1.00  0.00     0.000 HD 
HETATM   17  N   UNL     1     -11.118  16.757  64.337  1.00  0.00    -1.072 NA 
HETATM   18  N   UNL     1     -10.715  15.874  65.238  1.00  0.00    -0.420 NA 
ENDBRANCH   8  13
TORSDOF 1
ENDMDL
MODEL        4
REMARK 921   NORMALIZED FREE ENERGY PREDICTED BY IDOCK:   -7.06 KCAL/MOL
REMARK 922        TOTAL FREE ENERGY PREDICTED BY IDOCK:   -7.62 KCAL/MOL
REMARK 923 INTER-LIGAND FREE ENERGY PREDICTED BY IDOCK:   -7.52 KCAL/MOL
REMARK 924 INTRA-LIGAND FREE ENERGY PREDICTED BY IDOCK:   -0.10 KCAL/MOL
REMARK 927      BINDING AFFINITY PREDICTED BY RF-SCORE:    0.00 PKD
ROOT
HETATM    1  C   UNL     1     -10.724   9.388  68.792  1.00  0.00    -0.200 C  
HETATM    2  C   UNL     1     -11.325  10.701  69.185  1.00  0.00    -0.338 A  
HETATM    3  C   UNL     1     -11.799  10.951  70.416  1.00  0.00    -0.449 A  
HETATM    4  C   UNL     1     -12.303  12.249  70.768  1.00  0.00    -0.383 A  
HETATM    5  C   UNL     1     -12.284  13.237  69.867  1.00  0.00    -0.246 A  
HETATM    6  N   UNL     1     -11.836  13.038  68.567  1.00  0.00    -0.330 N  
HETATM    7  C   UNL     1     -11.813  14.127  67.696  1.00  0.00    -0.392 C  
HETATM    8  C   UNL     1     -11.483  13.822  66.277  1.00  0.00    -0.349 C  
HETATM    9  O   UNL     1     -12.015  15.285  68.067  1.00  0.00    -0.247 OA 
HETATM   10  C   UNL     1     -11.372  11.792  68.150  1.00  0.00    -0.284 A  
HETATM   11  C   UNL     1     -11.085  12.567  66.027  1.00  0.00    -0.294 C  
HETATM   12  N   UNL     1     -10.987  11.549  66.935  1.00  0.00    -0.284 NA 
ENDROOT
BRANCH   8  13
HETATM   13  C   UNL     1     -11.587  14.835  65.279  1.00  0.00    -0.338 A  
HETATM   14  N   UNL     1     -12.144  16.072  63.725  1.00  0.00    -1.255 NA 
HETATM   15  N   UNL     1     -12.539  14.940  64.330  1.00  0.00    -0.703 NA 
HETATM   16  H   UNL     1     -12.629  16.446  62.910  1.00  0.00     0.000 HD 
HETATM   17  N   UNL     1     -11.080  16.681  64.254  1.00  0.00    -1.011 NA 
HETATM   18  N   UNL     1     -10.715  15.898  65.259  1.00  0.00    -0.420 NA 
ENDBRANCH   8  13
TORSDOF 1
ENDMDL
MODEL        5
REMARK 921   NORMALIZED FREE ENERGY PREDICTED BY IDOCK:   -7.03 KCAL/MOL
REMARK 922        TOTAL FREE ENERGY PREDICTED BY IDOCK:   -7.59 KCAL/MOL
REMARK 923 INTER-LIGAND FREE ENERGY PREDICTED BY IDOCK:   -7.38 KCAL/MOL
REMARK 924 INTRA-LIGAND FREE ENERGY PREDICTED BY IDOCK:   -0.20 KCAL/MOL
REMARK 927      BINDING AFFINITY PREDICTED BY RF-SCORE:    0.00 PKD
ROOT
HETATM    1  C   UNL     1      -7.699  17.198  68.669  1.00  0.00    -0.260 C  
HETATM    2  C   UNL     1      -8.748  17.639  67.697  1.00  0.00    -0.232 A  
HETATM    3  C   UNL     1      -9.092  18.925  67.523  1.00  0.00    -0.307 A  
HETATM    4  C   UNL     1     -10.055  19.308  66.528  1.00  0.00    -0.498 A  
HETATM    5  C   UNL     1     -10.607  18.376  65.744  1.00  0.00    -0.210 A  
HETATM    6  N   UNL     1     -10.318  17.025  65.892  1.00  0.00    -0.340 N  
HETATM    7  C   UNL     1     -10.907  16.118  65.011  1.00  0.00    -0.363 C  
HETATM    8  C   UNL     1     -10.695  14.677  65.318  1.00  0.00    -0.396 C  
HETATM    9  O   UNL     1     -11.538  16.469  64.011  1.00  0.00    -1.154 OA 
HETATM   10  C   UNL     1      -9.424  16.584  66.864  1.00  0.00    -0.237 A  
HETATM   11  C   UNL     1      -9.829  14.412  66.307  1.00  0.00    -0.304 C  
HETATM   12  N   UNL     1      -9.159  15.330  67.068  1.00  0.00    -0.212 NA 
ENDROOT
BRANCH   8  13
HETATM   13  C   UNL     1     -11.382  13.672  64.575  1.00  0.00    -0.375 A  
HETATM   14  N   UNL     1     -11.941  12.134  63.320  1.00  0.00    -0.739 NA 
HETATM   15  N   UNL     1     -10.860  12.870  63.627  1.00  0.00    -0.323 NA 
HETATM   16  H   UNL     1     -11.920  11.425  62.587  1.00  0.00     0.000 HD 
HETATM   17  N   UNL     1     -13.043  12.385  64.029  1.00  0.00    -0.749 NA 
HETATM   18  N   UNL     1     -12.696  13.369  64.845  1.00  0.00    -0.686 NA 
ENDBRANCH   8  13
TORSDOF 1
ENDMDL
MODEL        6
REMARK 921   NORMALIZED FREE ENERGY PREDICTED BY IDOCK:   -7.02 KCAL/MOL
REMARK 922        TOTAL FREE ENERGY PREDICTED BY IDOCK:   -7.57 KCAL/MOL
REMARK 923 INTER-LIGAND FREE ENERGY PREDICTED BY IDOCK:   -7.37 KCAL/MOL
REMARK 924 INTRA-LIGAND FREE ENERGY PREDICTED BY IDOCK:   -0.21 KCAL/MOL
REMARK 927      BINDING AFFINITY PREDICTED BY RF-SCORE:    0.00 PKD
ROOT
HETATM    1  C   UNL     1     -11.771  12.373  68.202  1.00  0.00    -0.408 C  
HETATM    2  C   UNL     1     -11.743  12.988  66.839  1.00  0.00    -0.441 A  
HETATM    3  C   UNL     1     -12.154  12.344  65.735  1.00  0.00    -0.381 A  
HETATM    4  C   UNL     1     -12.175  12.999  64.457  1.00  0.00    -0.476 A  
HETATM    5  C   UNL     1     -11.800  14.278  64.359  1.00  0.00    -0.426 A  
HETATM    6  N   UNL     1     -11.334  14.994  65.456  1.00  0.00    -0.338 N  
HETATM    7  C   UNL     1     -10.996  16.336  65.280  1.00  0.00    -0.236 C  
HETATM    8  C   UNL     1     -10.349  17.003  66.442  1.00  0.00    -0.304 C  
HETATM    9  O   UNL     1     -11.242  16.959  64.245  1.00  0.00    -1.204 OA 
HETATM   10  C   UNL     1     -11.250  14.405  66.715  1.00  0.00    -0.337 A  
HETATM   11  C   UNL     1     -10.314  16.293  67.579  1.00  0.00    -0.288 C  
HETATM   12  N   UNL     1     -10.780  15.020  67.756  1.00  0.00    -0.272 NA 
ENDROOT
BRANCH   8  13
HETATM   13  C   UNL     1      -9.822  18.323  66.315  1.00  0.00    -0.321 A  
HETATM   14  N   UNL     1      -9.501  20.360  66.267  1.00  0.00    -0.644 NA 
HETATM   15  N   UNL     1     -10.495  19.480  66.471  1.00  0.00    -0.460 NA 
HETATM   16  H   UNL     1      -9.662  21.367  66.274  1.00  0.00     0.000 HD 
HETATM   17  N   UNL     1      -8.290  19.839  66.056  1.00  0.00    -0.355 NA 
HETATM   18  N   UNL     1      -8.481  18.529  66.090  1.00  0.00    -0.479 NA 
ENDBRANCH   8  13
TORSDOF 1
ENDMDL
MODEL        7
REMARK 921   NORMALIZED FREE ENERGY PREDICTED BY IDOCK:   -6.94 KCAL/MOL
REMARK 922        TOTAL FREE ENERGY PREDICTED BY IDOCK:   -7.49 KCAL/MOL
REMARK 923 INTER-LIGAND FREE ENERGY PREDICTED BY IDOCK:   -7.30 KCAL/MOL
REMARK 924 INTRA-LIGAND FREE ENERGY PREDICTED BY IDOCK:   -0.19 KCAL/MOL
REMARK 927      BINDING AFFINITY PREDICTED BY RF-SCORE:    0.00 PKD
ROOT
HETATM    1  C   UNL     1     -10.898   9.475  68.854  1.00  0.00    -0.177 C  
HETATM    2  C   UNL     1     -10.342   9.679  67.480  1.00  0.00    -0.297 A  
HETATM    3  C   UNL     1      -9.597   8.758  66.846  1.00  0.00    -0.249 A  
HETATM    4  C   UNL     1      -9.144   8.969  65.500  1.00  0.00    -0.271 A  
HETATM    5  C   UNL     1      -9.481  10.089  64.852  1.00  0.00    -0.293 A  
HETATM    6  N   UNL     1     -10.223  11.095  65.459  1.00  0.00    -0.253 N  
HETATM    7  C   UNL     1     -10.565  12.218  64.705  1.00  0.00    -0.303 C  
HETATM    8  C   UNL     1     -11.213  13.332  65.450  1.00  0.00    -0.306 C  
HETATM    9  O   UNL     1     -10.385  12.287  63.487  1.00  0.00    -0.429 OA 
HETATM   10  C   UNL     1     -10.659  10.971  66.776  1.00  0.00    -0.266 A  
HETATM   11  C   UNL     1     -11.543  13.070  66.722  1.00  0.00    -0.368 C  
HETATM   12  N   UNL     1     -11.314  11.902  67.397  1.00  0.00    -0.306 NA 
ENDROOT
BRANCH   8  13
HETATM   13  C   UNL     1     -11.458  14.582  64.808  1.00  0.00    -0.408 A  
HETATM   14  N   UNL     1     -12.207  16.166  63.720  1.00  0.00    -1.074 NA 
HETATM   15  N   UNL     1     -12.472  14.873  63.969  1.00  0.00    -0.801 NA 
HETATM   16  H   UNL     1     -12.770  16.718  63.073  1.00  0.00     0.000 HD 
HETATM   17  N   UNL     1     -11.164  16.687  64.370  1.00  0.00    -1.060 NA 
HETATM   18  N   UNL     1     -10.676  15.680  65.078  1.00  0.00    -0.441 NA 
ENDBRANCH   8  13
TORSDOF 1
ENDMDL
MODEL        8
REMARK 921   NORMALIZED FREE ENERGY PREDICTED BY IDOCK:   -6.71 KCAL/MOL
REMARK 922        TOTAL FREE ENERGY PREDICTED BY IDOCK:   -7.25 KCAL/MOL
REMARK 923 INTER-LIGAND FREE ENERGY PREDICTED BY IDOCK:   -7.04 KCAL/MOL
REMARK 924 INTRA-LIGAND FREE ENERGY PREDICTED BY IDOCK:   -0.21 KCAL/MOL
REMARK 927      BINDING AFFINITY PREDICTED BY RF-SCORE:    0.00 PKD
ROOT
HETATM    1  C   UNL     1     -10.022  19.323  66.510  1.00  0.00    -0.470 C  
HETATM    2  C   UNL     1     -10.293  18.054  67.255  1.00  0.00    -0.387 A  
HETATM    3  C   UNL     1     -10.280  17.973  68.595  1.00  0.00    -0.385 A  
HETATM    4  C   UNL     1     -10.616  16.749  69.268  1.00  0.00    -0.336 A  
HETATM    5  C   UNL     1     -10.968  15.674  68.556  1.00  0.00    -0.303 A  
HETATM    6  N   UNL     1     -10.973  15.680  67.167  1.00  0.00    -0.304 N  
HETATM    7  C   UNL     1     -11.388  14.529  66.497  1.00  0.00    -0.352 C  
HETATM    8  C   UNL     1     -11.214  14.536  65.019  1.00  0.00    -0.384 C  
HETATM    9  O   UNL     1     -11.904  13.569  67.073  1.00  0.00    -0.365 OA 
HETATM   10  C   UNL     1     -10.618  16.822  66.453  1.00  0.00    -0.192 A  
HETATM   11  C   UNL     1     -10.835  15.704  64.480  1.00  0.00    -0.090 C  
HETATM   12  N   UNL     1     -10.565  16.861  65.157  1.00  0.00    -0.688 NA 
ENDROOT
BRANCH   8  13
HETATM   13  C   UNL     1     -11.459  13.354  64.259  1.00  0.00    -0.393 A  
HETATM   14  N   UNL     1     -12.245  11.841  63.098  1.00  0.00    -0.956 NA 
HETATM   15  N   UNL     1     -12.621  12.991  63.682  1.00  0.00    -0.731 NA 
HETATM   16  H   UNL     1     -12.904  11.255  62.585  1.00  0.00     0.000 HD 
HETATM   17  N   UNL     1     -10.958  11.511  63.227  1.00  0.00    -0.304 NA 
HETATM   18  N   UNL     1     -10.439  12.479  63.967  1.00  0.00    -0.399 NA 
ENDBRANCH   8  13
TORSDOF 1
ENDMDL
MODEL        9
REMARK 921   NORMALIZED FREE ENERGY PREDICTED BY IDOCK:   -6.68 KCAL/MOL
REMARK 922        TOTAL FREE ENERGY PREDICTED BY IDOCK:   -7.21 KCAL/MOL
REMARK 923 INTER-LIGAND FREE ENERGY PREDICTED BY IDOCK:   -7.00 KCAL/MOL
REMARK 924 INTRA-LIGAND FREE ENERGY PREDICTED BY IDOCK:   -0.21 KCAL/MOL
REMARK 927      BINDING AFFINITY PREDICTED BY RF-SCORE:    0.00 PKD
ROOT
HETATM    1  C   UNL     1      -9.698   8.711  66.778  1.00  0.00    -0.298 C  
HETATM    2  C   UNL     1     -10.482   9.756  67.508  1.00  0.00    -0.309 A  
HETATM    3  C   UNL     1     -10.978   9.572  68.742  1.00  0.00    -0.116 A  
HETATM    4  C   UNL     1     -11.664  10.629  69.431  1.00  0.00    -0.344 A  
HETATM    5  C   UNL     1     -11.796  11.826  68.850  1.00  0.00    -0.320 A  
HETATM    6  N   UNL     1     -11.334  12.075  67.564  1.00  0.00    -0.296 N  
HETATM    7  C   UNL     1     -11.478  13.360  67.041  1.00  0.00    -0.337 C  
HETATM    8  C   UNL     1     -11.118  13.525  65.606  1.00  0.00    -0.299 C  
HETATM    9  O   UNL     1     -11.844  14.322  67.720  1.00  0.00    -0.359 OA 
HETATM   10  C   UNL     1     -10.697  11.080  66.826  1.00  0.00    -0.266 A  
HETATM   11  C   UNL     1     -10.542  12.464  65.022  1.00  0.00    -0.298 C  
HETATM   12  N   UNL     1     -10.289  11.253  65.606  1.00  0.00    -0.249 NA 
ENDROOT
BRANCH   8  13
HETATM   13  C   UNL     1     -11.377  14.756  64.935  1.00  0.00    -0.410 A  
HETATM   14  N   UNL     1     -11.295  16.629  64.075  1.00  0.00    -1.530 NA 
HETATM   15  N   UNL     1     -10.535  15.800  64.809  1.00  0.00    -0.458 NA 
HETATM   16  H   UNL     1     -10.979  17.563  63.813  1.00  0.00     0.000 HD 
HETATM   17  N   UNL     1     -12.489  16.159  63.707  1.00  0.00    -0.407 NA 
HETATM   18  N   UNL     1     -12.553  14.952  64.249  1.00  0.00    -0.703 NA 
ENDBRANCH   8  13
TORSDOF 1
ENDMDL
MODEL       10
REMARK 921   NORMALIZED FREE ENERGY PREDICTED BY IDOCK:   -6.61 KCAL/MOL
REMARK 922        TOTAL FREE ENERGY PREDICTED BY IDOCK:   -7.14 KCAL/MOL
REMARK 923 INTER-LIGAND FREE ENERGY PREDICTED BY IDOCK:   -6.98 KCAL/MOL
REMARK 924 INTRA-LIGAND FREE ENERGY PREDICTED BY IDOCK:   -0.16 KCAL/MOL
REMARK 927      BINDING AFFINITY PREDICTED BY RF-SCORE:    0.00 PKD
ROOT
HETATM    1  C   UNL     1     -12.170   9.890  70.816  1.00  0.00    -0.380 C  
HETATM    2  C   UNL     1     -12.428  11.363  70.828  1.00  0.00    -0.460 A  
HETATM    3  C   UNL     1     -12.797  12.035  71.931  1.00  0.00    -0.338 A  
HETATM    4  C   UNL     1     -12.965  13.461  71.910  1.00  0.00    -0.422 A  
HETATM    5  C   UNL     1     -12.734  14.142  70.783  1.00  0.00    -0.344 A  
HETATM    6  N   UNL     1     -12.380  13.506  69.599  1.00  0.00    -0.227 N  
HETATM    7  C   UNL     1     -12.120  14.290  68.475  1.00  0.00    -0.260 C  
HETATM    8  C   UNL     1     -11.910  13.552  67.199  1.00  0.00    -0.430 C  
HETATM    9  O   UNL     1     -12.028  15.518  68.521  1.00  0.00    -0.319 OA 
HETATM   10  C   UNL     1     -12.240  12.122  69.542  1.00  0.00    -0.109 A  
HETATM   11  C   UNL     1     -11.830  12.218  67.302  1.00  0.00    -0.260 C  
HETATM   12  N   UNL     1     -11.956  11.482  68.449  1.00  0.00    -0.562 NA 
ENDROOT
BRANCH   8  13
HETATM   13  C   UNL     1     -11.794  14.261  65.967  1.00  0.00    -0.391 A  
HETATM   14  N   UNL     1     -11.182  15.371  64.340  1.00  0.00    -0.714 NA 
HETATM   15  N   UNL     1     -10.736  14.980  65.545  1.00  0.00    -0.334 NA 
HETATM   16  H   UNL     1     -10.636  15.984  63.735  1.00  0.00     0.000 HD 
HETATM   17  N   UNL     1     -12.383  14.912  63.981  1.00  0.00    -0.749 NA 
HETATM   18  N   UNL     1     -12.786  14.190  65.017  1.00  0.00    -0.679 NA 
ENDBRANCH   8  13
TORSDOF 1
ENDMDL
MODEL       11
REMARK 921   NORMALIZED FREE ENERGY PREDICTED BY IDOCK:   -6.54 KCAL/MOL
REMARK 922        TOTAL FREE ENERGY PREDICTED BY IDOCK:   -7.07 KCAL/MOL
REMARK 923 INTER-LIGAND FREE ENERGY PREDICTED BY IDOCK:   -6.86 KCAL/MOL
REMARK 924 INTRA-LIGAND FREE ENERGY PREDICTED BY IDOCK:   -0.21 KCAL/MOL
REMARK 927      BINDING AFFINITY PREDICTED BY RF-SCORE:    0.00 PKD
ROOT
HETATM    1  C   UNL     1     -10.463  15.266  65.692  1.00  0.00    -0.377 C  
HETATM    2  C   UNL     1     -10.997  14.187  66.580  1.00  0.00    -0.303 A  
HETATM    3  C   UNL     1     -11.070  12.899  66.209  1.00  0.00    -0.317 A  
HETATM    4  C   UNL     1     -11.524  11.887  67.121  1.00  0.00    -0.386 A  
HETATM    5  C   UNL     1     -11.863  12.222  68.371  1.00  0.00    -0.304 A  
HETATM    6  N   UNL     1     -11.840  13.540  68.811  1.00  0.00    -0.339 N  
HETATM    7  C   UNL     1     -12.172  13.804  70.139  1.00  0.00    -0.356 C  
HETATM    8  C   UNL     1     -12.292  15.241  70.509  1.00  0.00    -0.434 C  
HETATM    9  O   UNL     1     -12.325  12.916  70.981  1.00  0.00    -0.351 OA 
HETATM   10  C   UNL     1     -11.448  14.573  67.963  1.00  0.00    -0.321 A  
HETATM   11  C   UNL     1     -11.908  16.119  69.573  1.00  0.00    -0.137 C  
HETATM   12  N   UNL     1     -11.454  15.822  68.317  1.00  0.00    -0.360 NA 
ENDROOT
BRANCH   8  13
HETATM   13  C   UNL     1     -12.780  15.616  71.796  1.00  0.00    -0.451 A  
HETATM   14  N   UNL     1     -13.901  15.997  73.485  1.00  0.00    -0.760 NA 
HETATM   15  N   UNL     1     -14.057  15.563  72.223  1.00  0.00    -0.550 NA 
HETATM   16  H   UNL     1     -14.694  16.123  74.114  1.00  0.00     0.000 HD 
HETATM   17  N   UNL     1     -12.649  16.254  73.867  1.00  0.00    -0.623 NA 
HETATM   18  N   UNL     1     -11.916  16.008  72.791  1.00  0.00    -0.492 NA 
ENDBRANCH   8  13
TORSDOF 1
ENDMDL
MODEL       12
REMARK 921   NORMALIZED FREE ENERGY PREDICTED BY IDOCK:   -6.40 KCAL/MOL
REMARK 922        TOTAL FREE ENERGY PREDICTED BY IDOCK:   -6.91 KCAL/MOL
REMARK 923 INTER-LIGAND FREE ENERGY PREDICTED BY IDOCK:   -6.70 KCAL/MOL
REMARK 924 INTRA-LIGAND FREE ENERGY PREDICTED BY IDOCK:   -0.21 KCAL/MOL
REMARK 927      BINDING AFFINITY PREDICTED BY RF-SCORE:    0.00 PKD
ROOT
HETATM    1  C   UNL     1     -10.586   8.633  69.616  1.00  0.00    -0.219 C  
HETATM    2  C   UNL     1     -11.276   9.932  69.887  1.00  0.00    -0.298 A  
HETATM    3  C   UNL     1     -11.827  10.238  71.073  1.00  0.00    -0.472 A  
HETATM    4  C   UNL     1     -12.417  11.526  71.307  1.00  0.00    -0.399 A  
HETATM    5  C   UNL     1     -12.405  12.449  70.341  1.00  0.00    -0.227 A  
HETATM    6  N   UNL     1     -11.879  12.189  69.081  1.00  0.00    -0.312 N  
HETATM    7  C   UNL     1     -11.870  13.216  68.138  1.00  0.00    -0.348 C  
HETATM    8  C   UNL     1     -11.452  12.835  66.761  1.00  0.00    -0.399 C  
HETATM    9  O   UNL     1     -12.153  14.383  68.416  1.00  0.00    -0.322 OA 
HETATM   10  C   UNL     1     -11.329  10.946  68.776  1.00  0.00    -0.292 A  
HETATM   11  C   UNL     1     -10.974  11.591  66.619  1.00  0.00    -0.296 C  
HETATM   12  N   UNL     1     -10.868  10.644  67.601  1.00  0.00    -0.270 NA 
ENDROOT
BRANCH   8  13
HETATM   13  C   UNL     1     -11.559  13.771  65.690  1.00  0.00    -0.330 A  
HETATM   14  N   UNL     1     -11.252  15.207  64.242  1.00  0.00    -0.664 NA 
HETATM   15  N   UNL     1     -10.606  14.623  65.264  1.00  0.00    -0.362 NA 
HETATM   16  H   UNL     1     -10.831  15.957  63.694  1.00  0.00     0.000 HD 
HETATM   17  N   UNL     1     -12.479  14.748  63.984  1.00  0.00    -0.809 NA 
HETATM   18  N   UNL     1     -12.687  13.819  64.905  1.00  0.00    -0.683 NA 
ENDBRANCH   8  13
TORSDOF 1
ENDMDL
MODEL       13
REMARK 921   NORMALIZED FREE ENERGY PREDICTED BY IDOCK:   -6.39 KCAL/MOL
REMARK 922        TOTAL FREE ENERGY PREDICTED BY IDOCK:   -6.91 KCAL/MOL
REMARK 923 INTER-LIGAND FREE ENERGY PREDICTED BY IDOCK:   -6.70 KCAL/MOL
REMARK 924 INTRA-LIGAND FREE ENERGY PREDICTED BY IDOCK:   -0.21 KCAL/MOL
REMARK 927      BINDING AFFINITY PREDICTED BY RF-SCORE:    0.00 PKD
ROOT
HETATM    1  C   UNL     1     -12.172  13.629  70.148  1.00  0.00    -0.413 C  
HETATM    2  C   UNL     1     -11.793  13.647  68.701  1.00  0.00    -0.409 A  
HETATM    3  C   UNL     1     -11.897  12.573  67.901  1.00  0.00    -0.383 A  
HETATM    4  C   UNL     1     -11.588  12.657  66.501  1.00  0.00    -0.441 A  
HETATM    5  C   UNL     1     -11.208  13.825  65.973  1.00  0.00    -0.304 A  
HETATM    6  N   UNL     1     -11.050  14.967  66.749  1.00  0.00    -0.328 N  
HETATM    7  C   UNL     1     -10.686  16.156  66.117  1.00  0.00    -0.221 C  
HETATM    8  C   UNL     1     -10.370  17.301  67.014  1.00  0.00    -0.318 C  
HETATM    9  O   UNL     1     -10.658  16.282  64.891  1.00  0.00    -0.650 OA 
HETATM   10  C   UNL     1     -11.294  14.943  68.119  1.00  0.00    -0.312 A  
HETATM   11  C   UNL     1     -10.628  17.113  68.315  1.00  0.00    -0.375 C  
HETATM   12  N   UNL     1     -11.116  15.972  68.890  1.00  0.00    -0.308 NA 
ENDROOT
BRANCH   8  13
HETATM   13  C   UNL     1      -9.837  18.511  66.478  1.00  0.00    -0.363 A  
HETATM   14  N   UNL     1      -9.505  20.428  65.793  1.00  0.00    -0.574 NA 
HETATM   15  N   UNL     1     -10.503  19.662  66.263  1.00  0.00    -0.493 NA 
HETATM   16  H   UNL     1      -9.661  21.387  65.483  1.00  0.00     0.000 HD 
HETATM   17  N   UNL     1      -8.298  19.861  65.755  1.00  0.00    -0.334 NA 
HETATM   18  N   UNL     1      -8.495  18.628  66.199  1.00  0.00    -0.472 NA 
ENDBRANCH   8  13
TORSDOF 1
ENDMDL
MODEL       14
REMARK 921   NORMALIZED FREE ENERGY PREDICTED BY IDOCK:   -6.17 KCAL/MOL
REMARK 922        TOTAL FREE ENERGY PREDICTED BY IDOCK:   -6.67 KCAL/MOL
REMARK 923 INTER-LIGAND FREE ENERGY PREDICTED BY IDOCK:   -6.58 KCAL/MOL
REMARK 924 INTRA-LIGAND FREE ENERGY PREDICTED BY IDOCK:   -0.10 KCAL/MOL
REMARK 927      BINDING AFFINITY PREDICTED BY RF-SCORE:    0.00 PKD
ROOT
HETATM    1  C   UNL     1     -11.412  13.682  66.359  1.00  0.00    -0.358 C  
HETATM    2  C   UNL     1     -11.632  14.077  67.785  1.00  0.00    -0.378 A  
HETATM    3  C   UNL     1     -11.615  15.352  68.205  1.00  0.00    -0.361 A  
HETATM    4  C   UNL     1     -11.901  15.688  69.572  1.00  0.00    -0.387 A  
HETATM    5  C   UNL     1     -12.211  14.722  70.443  1.00  0.00    -0.336 A  
HETATM    6  N   UNL     1     -12.217  13.380  70.083  1.00  0.00    -0.332 N  
HETATM    7  C   UNL     1     -12.587  12.435  71.039  1.00  0.00    -0.254 C  
HETATM    8  C   UNL     1     -12.416  11.009  70.649  1.00  0.00    -0.465 C  
HETATM    9  O   UNL     1     -13.064  12.742  72.134  1.00  0.00    -0.407 OA 
HETATM   10  C   UNL     1     -11.909  12.985  68.783  1.00  0.00    -0.317 A  
HETATM   11  C   UNL     1     -12.083  10.790  69.369  1.00  0.00    -0.244 C  
HETATM   12  N   UNL     1     -11.858  11.742  68.413  1.00  0.00    -0.447 NA 
ENDROOT
BRANCH   8  13
HETATM   13  C   UNL     1     -12.614   9.970  71.607  1.00  0.00    -0.427 A  
HETATM   14  N   UNL     1     -13.358   8.608  72.965  1.00  0.00    -0.844 NA 
HETATM   15  N   UNL     1     -13.767   9.655  72.229  1.00  0.00    -0.378 NA 
HETATM   16  H   UNL     1     -13.983   8.125  73.610  1.00  0.00     0.000 HD 
HETATM   17  N   UNL     1     -12.086   8.237  72.803  1.00  0.00    -0.275 NA 
HETATM   18  N   UNL     1     -11.597   9.102  71.926  1.00  0.00    -0.370 NA 
ENDBRANCH   8  13
TORSDOF 1
ENDMDL
MODEL       15
REMARK 921   NORMALIZED FREE ENERGY PREDICTED BY IDOCK:   -6.12 KCAL/MOL
REMARK 922        TOTAL FREE ENERGY PREDICTED BY IDOCK:   -6.63 KCAL/MOL
REMARK 923 INTER-LIGAND FREE ENERGY PREDICTED BY IDOCK:   -6.53 KCAL/MOL
REMARK 924 INTRA-LIGAND FREE ENERGY PREDICTED BY IDOCK:   -0.10 KCAL/MOL
REMARK 927      BINDING AFFINITY PREDICTED BY RF-SCORE:    0.00 PKD
ROOT
HETATM    1  C   UNL     1     -13.071  11.551  71.813  1.00  0.00    -0.503 C  
HETATM    2  C   UNL     1     -12.986  13.043  71.729  1.00  0.00    -0.420 A  
HETATM    3  C   UNL     1     -13.417  13.859  72.705  1.00  0.00    -0.652 A  
HETATM    4  C   UNL     1     -13.250  15.282  72.610  1.00  0.00    -0.554 A  
HETATM    5  C   UNL     1     -12.638  15.810  71.545  1.00  0.00    -0.455 A  
HETATM    6  N   UNL     1     -12.197  15.026  70.486  1.00  0.00    -0.312 N  
HETATM    7  C   UNL     1     -11.535  15.649  69.427  1.00  0.00    -0.348 C  
HETATM    8  C   UNL     1     -11.234  14.789  68.250  1.00  0.00    -0.299 C  
HETATM    9  O   UNL     1     -11.180  16.829  69.461  1.00  0.00    -0.164 OA 
HETATM   10  C   UNL     1     -12.365  13.644  70.498  1.00  0.00    -0.355 A  
HETATM   11  C   UNL     1     -11.482  13.481  68.403  1.00  0.00    -0.311 C  
HETATM   12  N   UNL     1     -12.009  12.878  69.512  1.00  0.00    -0.308 NA 
ENDROOT
BRANCH   8  13
HETATM   13  C   UNL     1     -10.704  15.362  67.056  1.00  0.00    -0.321 A  
HETATM   14  N   UNL     1      -9.551  16.263  65.602  1.00  0.00    -0.487 NA 
HETATM   15  N   UNL     1      -9.509  15.968  66.912  1.00  0.00    -0.220 NA 
HETATM   16  H   UNL     1      -8.801  16.776  65.140  1.00  0.00     0.000 HD 
HETATM   17  N   UNL     1     -10.633  15.845  64.941  1.00  0.00    -0.580 NA 
HETATM   18  N   UNL     1     -11.381  15.258  65.863  1.00  0.00    -0.240 NA 
ENDBRANCH   8  13
TORSDOF 1
ENDMDL
MODEL       16
REMARK 921   NORMALIZED FREE ENERGY PREDICTED BY IDOCK:   -6.09 KCAL/MOL
REMARK 922        TOTAL FREE ENERGY PREDICTED BY IDOCK:   -6.59 KCAL/MOL
REMARK 923 INTER-LIGAND FREE ENERGY PREDICTED BY IDOCK:   -6.37 KCAL/MOL
REMARK 924 INTRA-LIGAND FREE ENERGY PREDICTED BY IDOCK:   -0.21 KCAL/MOL
REMARK 927      BINDING AFFINITY PREDICTED BY RF-SCORE:    0.00 PKD
ROOT
HETATM    1  C   UNL     1     -11.140  10.377  67.623  1.00  0.00    -0.361 C  
HETATM    2  C   UNL     1     -10.990  11.862  67.520  1.00  0.00    -0.299 A  
HETATM    3  C   UNL     1     -10.474  12.475  66.442  1.00  0.00    -0.269 A  
HETATM    4  C   UNL     1     -10.414  13.908  66.360  1.00  0.00    -0.284 A  
HETATM    5  C   UNL     1     -10.898  14.652  67.360  1.00  0.00    -0.298 A  
HETATM    6  N   UNL     1     -11.417  14.082  68.517  1.00  0.00    -0.282 N  
HETATM    7  C   UNL     1     -11.936  14.926  69.499  1.00  0.00    -0.310 C  
HETATM    8  C   UNL     1     -12.324  14.274  70.780  1.00  0.00    -0.427 C  
HETATM    9  O   UNL     1     -12.105  16.134  69.324  1.00  0.00    -0.225 OA 
HETATM   10  C   UNL     1     -11.466  12.700  68.676  1.00  0.00    -0.308 A  
HETATM   11  C   UNL     1     -12.287  12.934  70.789  1.00  0.00    -0.299 C  
HETATM   12  N   UNL     1     -11.901  12.125  69.756  1.00  0.00    -0.332 NA 
ENDROOT
BRANCH   8  13
HETATM   13  C   UNL     1     -12.715  15.064  71.901  1.00  0.00    -0.337 A  
HETATM   14  N   UNL     1     -13.723  16.079  73.388  1.00  0.00    -0.807 NA 
HETATM   15  N   UNL     1     -13.974  15.350  72.288  1.00  0.00    -0.530 NA 
HETATM   16  H   UNL     1     -14.470  16.505  73.935  1.00  0.00     0.000 HD 
HETATM   17  N   UNL     1     -12.437  16.211  73.724  1.00  0.00    -0.547 NA 
HETATM   18  N   UNL     1     -11.778  15.558  72.778  1.00  0.00    -0.460 NA 
ENDBRANCH   8  13
TORSDOF 1
ENDMDL
MODEL       17
REMARK 921   NORMALIZED FREE ENERGY PREDICTED BY IDOCK:   -6.08 KCAL/MOL
REMARK 922        TOTAL FREE ENERGY PREDICTED BY IDOCK:   -6.58 KCAL/MOL
REMARK 923 INTER-LIGAND FREE ENERGY PREDICTED BY IDOCK:   -6.37 KCAL/MOL
REMARK 924 INTRA-LIGAND FREE ENERGY PREDICTED BY IDOCK:   -0.22 KCAL/MOL
REMARK 927      BINDING AFFINITY PREDICTED BY RF-SCORE:    0.00 PKD
ROOT
HETATM    1  C   UNL     1      -8.450  18.737  66.338  1.00  0.00    -0.296 C  
HETATM    2  C   UNL     1      -8.127  17.294  66.569  1.00  0.00    -0.313 A  
HETATM    3  C   UNL     1      -7.020  16.883  67.208  1.00  0.00    -0.197 A  
HETATM    4  C   UNL     1      -6.787  15.490  67.469  1.00  0.00    -0.225 A  
HETATM    5  C   UNL     1      -7.693  14.582  67.091  1.00  0.00    -0.062 A  
HETATM    6  N   UNL     1      -8.845  14.936  66.399  1.00  0.00    -0.225 N  
HETATM    7  C   UNL     1      -9.759  13.935  66.071  1.00  0.00    -0.250 C  
HETATM    8  C   UNL     1     -10.886  14.343  65.189  1.00  0.00    -0.397 C  
HETATM    9  O   UNL     1      -9.676  12.784  66.506  1.00  0.00    -0.244 OA 
HETATM   10  C   UNL     1      -9.110  16.265  66.079  1.00  0.00    -0.297 A  
HETATM   11  C   UNL     1     -10.990  15.657  64.944  1.00  0.00    -0.431 C  
HETATM   12  N   UNL     1     -10.149  16.637  65.395  1.00  0.00    -0.590 NA 
ENDROOT
BRANCH   8  13
HETATM   13  C   UNL     1     -11.785  13.366  64.668  1.00  0.00    -0.372 A  
HETATM   14  N   UNL     1     -13.364  12.099  64.275  1.00  0.00    -0.647 NA 
HETATM   15  N   UNL     1     -12.976  13.007  65.186  1.00  0.00    -0.764 NA 
HETATM   16  H   UNL     1     -14.235  11.577  64.370  1.00  0.00     0.000 HD 
HETATM   17  N   UNL     1     -12.543  11.920  63.238  1.00  0.00    -0.578 NA 
HETATM   18  N   UNL     1     -11.525  12.733  63.475  1.00  0.00    -0.481 NA 
ENDBRANCH   8  13
TORSDOF 1
ENDMDL
MODEL       18
REMARK 921   NORMALIZED FREE ENERGY PREDICTED BY IDOCK:   -6.07 KCAL/MOL
REMARK 922        TOTAL FREE ENERGY PREDICTED BY IDOCK:   -6.57 KCAL/MOL
REMARK 923 INTER-LIGAND FREE ENERGY PREDICTED BY IDOCK:   -6.50 KCAL/MOL
REMARK 924 INTRA-LIGAND FREE ENERGY PREDICTED BY IDOCK:   -0.07 KCAL/MOL
REMARK 927      BINDING AFFINITY PREDICTED BY RF-SCORE:    0.00 PKD
ROOT
HETATM    1  C   UNL     1     -13.411  13.616  72.599  1.00  0.00    -0.587 C  
HETATM    2  C   UNL     1     -12.863  12.715  71.538  1.00  0.00    -0.368 A  
HETATM    3  C   UNL     1     -12.795  11.381  71.671  1.00  0.00    -0.497 A  
HETATM    4  C   UNL     1     -12.326  10.550  70.597  1.00  0.00    -0.449 A  
HETATM    5  C   UNL     1     -11.968  11.105  69.434  1.00  0.00    -0.349 A  
HETATM    6  N   UNL     1     -11.984  12.481  69.240  1.00  0.00    -0.281 N  
HETATM    7  C   UNL     1     -11.630  12.981  67.987  1.00  0.00    -0.343 C  
HETATM    8  C   UNL     1     -11.504  14.461  67.886  1.00  0.00    -0.346 C  
HETATM    9  O   UNL     1     -11.464  12.260  67.001  1.00  0.00    -0.314 OA 
HETATM   10  C   UNL     1     -12.389  13.345  70.255  1.00  0.00    -0.284 A  
HETATM   11  C   UNL     1     -11.904  15.156  68.961  1.00  0.00    -0.304 C  
HETATM   12  N   UNL     1     -12.377  14.637  70.134  1.00  0.00    -0.333 NA 
ENDROOT
BRANCH   8  13
HETATM   13  C   UNL     1     -10.996  15.062  66.697  1.00  0.00    -0.325 A  
HETATM   14  N   UNL     1     -10.657  15.745  64.780  1.00  0.00    -0.689 NA 
HETATM   15  N   UNL     1     -11.521  14.972  65.459  1.00  0.00    -0.309 NA 
HETATM   16  H   UNL     1     -10.729  15.878  63.772  1.00  0.00     0.000 HD 
HETATM   17  N   UNL     1      -9.698  16.328  65.503  1.00  0.00    -0.487 NA 
HETATM   18  N   UNL     1      -9.908  15.901  66.740  1.00  0.00    -0.236 NA 
ENDBRANCH   8  13
TORSDOF 1
ENDMDL
MODEL       19
REMARK 921   NORMALIZED FREE ENERGY PREDICTED BY IDOCK:   -6.03 KCAL/MOL
REMARK 922        TOTAL FREE ENERGY PREDICTED BY IDOCK:   -6.53 KCAL/MOL
REMARK 923 INTER-LIGAND FREE ENERGY PREDICTED BY IDOCK:   -6.35 KCAL/MOL
REMARK 924 INTRA-LIGAND FREE ENERGY PREDICTED BY IDOCK:   -0.18 KCAL/MOL
REMARK 927      BINDING AFFINITY PREDICTED BY RF-SCORE:    0.00 PKD
ROOT
HETATM    1  C   UNL     1     -13.045  15.631  71.434  1.00  0.00    -0.559 C  
HETATM    2  C   UNL     1     -12.498  14.645  70.450  1.00  0.00    -0.410 A  
HETATM    3  C   UNL     1     -11.893  15.007  69.307  1.00  0.00    -0.344 A  
HETATM    4  C   UNL     1     -11.321  14.027  68.427  1.00  0.00    -0.321 A  
HETATM    5  C   UNL     1     -11.371  12.731  68.752  1.00  0.00    -0.288 A  
HETATM    6  N   UNL     1     -12.009  12.285  69.903  1.00  0.00    -0.327 N  
HETATM    7  C   UNL     1     -11.986  10.921  70.192  1.00  0.00    -0.352 C  
HETATM    8  C   UNL     1     -12.823  10.483  71.342  1.00  0.00    -0.551 C  
HETATM    9  O   UNL     1     -11.292  10.116  69.567  1.00  0.00    -0.237 OA 
HETATM   10  C   UNL     1     -12.618  13.181  70.779  1.00  0.00    -0.260 A  
HETATM   11  C   UNL     1     -13.373  11.464  72.072  1.00  0.00    -0.283 C  
HETATM   12  N   UNL     1     -13.264  12.807  71.840  1.00  0.00    -0.445 NA 
ENDROOT
BRANCH   8  13
HETATM   13  C   UNL     1     -12.994   9.095  71.622  1.00  0.00    -0.365 A  
HETATM   14  N   UNL     1     -12.819   7.138  72.250  1.00  0.00    -0.516 NA 
HETATM   15  N   UNL     1     -12.118   8.283  72.247  1.00  0.00    -0.362 NA 
HETATM   16  H   UNL     1     -12.435   6.270  72.624  1.00  0.00     0.000 HD 
HETATM   17  N   UNL     1     -14.049   7.201  71.734  1.00  0.00    -0.357 NA 
HETATM   18  N   UNL     1     -14.176   8.456  71.331  1.00  0.00    -0.366 NA 
ENDBRANCH   8  13
TORSDOF 1
ENDMDL
MODEL       20
REMARK 921   NORMALIZED FREE ENERGY PREDICTED BY IDOCK:   -6.03 KCAL/MOL
REMARK 922        TOTAL FREE ENERGY PREDICTED BY IDOCK:   -6.52 KCAL/MOL
REMARK 923 INTER-LIGAND FREE ENERGY PREDICTED BY IDOCK:   -6.31 KCAL/MOL
REMARK 924 INTRA-LIGAND FREE ENERGY PREDICTED BY IDOCK:   -0.21 KCAL/MOL
REMARK 927      BINDING AFFINITY PREDICTED BY RF-SCORE:    0.00 PKD
ROOT
HETATM    1  C   UNL     1     -12.051  10.173  71.155  1.00  0.00    -0.485 C  
HETATM    2  C   UNL     1     -11.397   9.882  69.841  1.00  0.00    -0.273 A  
HETATM    3  C   UNL     1     -10.744   8.737  69.584  1.00  0.00    -0.212 A  
HETATM    4  C   UNL     1     -10.193   8.473  68.284  1.00  0.00    -0.244 A  
HETATM    5  C   UNL     1     -10.344   9.368  67.303  1.00  0.00    -0.260 A  
HETATM    6  N   UNL     1     -10.981  10.586  67.509  1.00  0.00    -0.303 N  
HETATM    7  C   UNL     1     -11.132  11.451  66.426  1.00  0.00    -0.240 C  
HETATM    8  C   UNL     1     -11.669  12.803  66.740  1.00  0.00    -0.459 C  
HETATM    9  O   UNL     1     -10.876  11.122  65.265  1.00  0.00    -0.242 OA 
HETATM   10  C   UNL     1     -11.502  10.921  68.757  1.00  0.00    -0.308 A  
HETATM   11  C   UNL     1     -12.101  12.983  67.995  1.00  0.00    -0.174 C  
HETATM   12  N   UNL     1     -12.064  12.063  69.007  1.00  0.00    -0.233 NA 
ENDROOT
BRANCH   8  13
HETATM   13  C   UNL     1     -11.713  13.813  65.733  1.00  0.00    -0.349 A  
HETATM   14  N   UNL     1     -11.320  15.340  64.404  1.00  0.00    -0.685 NA 
HETATM   15  N   UNL     1     -10.729  14.675  65.409  1.00  0.00    -0.343 NA 
HETATM   16  H   UNL     1     -10.863  16.118  63.928  1.00  0.00     0.000 HD 
HETATM   17  N   UNL     1     -12.542  14.924  64.062  1.00  0.00    -0.786 NA 
HETATM   18  N   UNL     1     -12.805  13.938  64.907  1.00  0.00    -0.715 NA 
ENDBRANCH   8  13
TORSDOF 1
ENDMDL
MODEL       21
REMARK 921   NORMALIZED FREE ENERGY PREDICTED BY IDOCK:   -6.00 KCAL/MOL
REMARK 922        TOTAL FREE ENERGY PREDICTED BY IDOCK:   -6.50 KCAL/MOL
REMARK 923 INTER-LIGAND FREE ENERGY PREDICTED BY IDOCK:   -6.31 KCAL/MOL
REMARK 924 INTRA-LIGAND FREE ENERGY PREDICTED BY IDOCK:   -0.19 KCAL/MOL
REMARK 927      BINDING AFFINITY PREDICTED BY RF-SCORE:    0.00 PKD
ROOT
HETATM    1  C   UNL     1     -11.688  12.367  65.609  1.00  0.00    -0.468 C  
HETATM    2  C   UNL     1     -11.652  13.192  66.857  1.00  0.00    -0.417 A  
HETATM    3  C   UNL     1     -12.026  12.723  68.058  1.00  0.00    -0.315 A  
HETATM    4  C   UNL     1     -11.907  13.530  69.240  1.00  0.00    -0.392 A  
HETATM    5  C   UNL     1     -11.398  14.764  69.155  1.00  0.00    -0.282 A  
HETATM    6  N   UNL     1     -11.020  15.322  67.939  1.00  0.00    -0.296 N  
HETATM    7  C   UNL     1     -10.463  16.600  67.938  1.00  0.00    -0.322 C  
HETATM    8  C   UNL     1     -10.233  17.211  66.600  1.00  0.00    -0.319 C  
HETATM    9  O   UNL     1     -10.139  17.191  68.971  1.00  0.00    -0.295 OA 
HETATM   10  C   UNL     1     -11.148  14.606  66.751  1.00  0.00    -0.335 A  
HETATM   11  C   UNL     1     -10.431  16.404  65.548  1.00  0.00    -0.330 C  
HETATM   12  N   UNL     1     -10.850  15.103  65.589  1.00  0.00    -0.343 NA 
ENDROOT
BRANCH   8  13
HETATM   13  C   UNL     1      -9.816  18.570  66.490  1.00  0.00    -0.363 A  
HETATM   14  N   UNL     1      -9.644  20.625  66.521  1.00  0.00    -0.644 NA 
HETATM   15  N   UNL     1     -10.546  19.665  66.783  1.00  0.00    -0.475 NA 
HETATM   16  H   UNL     1      -9.872  21.616  66.601  1.00  0.00     0.000 HD 
HETATM   17  N   UNL     1      -8.431  20.207  66.151  1.00  0.00    -0.252 NA 
HETATM   18  N   UNL     1      -8.527  18.886  66.132  1.00  0.00    -0.461 NA 
ENDBRANCH   8  13
TORSDOF 1
ENDMDL
MODEL       22
REMARK 921   NORMALIZED FREE ENERGY PREDICTED BY IDOCK:   -5.94 KCAL/MOL
REMARK 922        TOTAL FREE ENERGY PREDICTED BY IDOCK:   -6.43 KCAL/MOL
REMARK 923 INTER-LIGAND FREE ENERGY PREDICTED BY IDOCK:   -6.22 KCAL/MOL
REMARK 924 INTRA-LIGAND FREE ENERGY PREDICTED BY IDOCK:   -0.21 KCAL/MOL
REMARK 927      BINDING AFFINITY PREDICTED BY RF-SCORE:    0.00 PKD
ROOT
HETATM    1  C   UNL     1     -13.118  15.763  72.384  1.00  0.00    -0.544 C  
HETATM    2  C   UNL     1     -12.887  14.389  71.836  1.00  0.00    -0.426 A  
HETATM    3  C   UNL     1     -13.126  13.270  72.538  1.00  0.00    -0.385 A  
HETATM    4  C   UNL     1     -12.957  11.972  71.945  1.00  0.00    -0.428 A  
HETATM    5  C   UNL     1     -12.574  11.869  70.669  1.00  0.00    -0.181 A  
HETATM    6  N   UNL     1     -12.280  12.986  69.896  1.00  0.00    -0.248 N  
HETATM    7  C   UNL     1     -11.923  12.796  68.561  1.00  0.00    -0.225 C  
HETATM    8  C   UNL     1     -11.459  14.008  67.831  1.00  0.00    -0.347 C  
HETATM    9  O   UNL     1     -12.013  11.707  67.992  1.00  0.00    -0.577 OA 
HETATM   10  C   UNL     1     -12.385  14.271  70.422  1.00  0.00    -0.352 A  
HETATM   11  C   UNL     1     -11.594  15.171  68.485  1.00  0.00    -0.335 C  
HETATM   12  N   UNL     1     -12.078  15.339  69.753  1.00  0.00    -0.331 NA 
ENDROOT
BRANCH   8  13
HETATM   13  C   UNL     1     -10.923  13.896  66.514  1.00  0.00    -0.300 A  
HETATM   14  N   UNL     1      -9.767  13.557  64.840  1.00  0.00    -0.566 NA 
HETATM   15  N   UNL     1      -9.683  13.489  66.179  1.00  0.00    -0.277 NA 
HETATM   16  H   UNL     1      -8.971  13.347  64.238  1.00  0.00     0.000 HD 
HETATM   17  N   UNL     1     -10.953  13.914  64.344  1.00  0.00    -0.360 NA 
HETATM   18  N   UNL     1     -11.709  14.130  65.410  1.00  0.00    -0.336 NA 
ENDBRANCH   8  13
TORSDOF 1
ENDMDL
MODEL       23
REMARK 921   NORMALIZED FREE ENERGY PREDICTED BY IDOCK:   -5.88 KCAL/MOL
REMARK 922        TOTAL FREE ENERGY PREDICTED BY IDOCK:   -6.37 KCAL/MOL
REMARK 923 INTER-LIGAND FREE ENERGY PREDICTED BY IDOCK:   -6.23 KCAL/MOL
REMARK 924 INTRA-LIGAND FREE ENERGY PREDICTED BY IDOCK:   -0.14 KCAL/MOL
REMARK 927      BINDING AFFINITY PREDICTED BY RF-SCORE:    0.00 PKD
ROOT
HETATM    1  C   UNL     1      -9.098  16.835  66.237  1.00  0.00    -0.320 C  
HETATM    2  C   UNL     1     -10.076  15.742  66.533  1.00  0.00    -0.292 A  
HETATM    3  C   UNL     1     -10.406  14.791  65.645  1.00  0.00    -0.369 A  
HETATM    4  C   UNL     1     -11.297  13.722  65.998  1.00  0.00    -0.319 A  
HETATM    5  C   UNL     1     -11.796  13.653  67.237  1.00  0.00    -0.391 A  
HETATM    6  N   UNL     1     -11.520  14.621  68.195  1.00  0.00    -0.308 N  
HETATM    7  C   UNL     1     -12.048  14.458  69.476  1.00  0.00    -0.322 C  
HETATM    8  C   UNL     1     -11.860  15.603  70.409  1.00  0.00    -0.395 C  
HETATM    9  O   UNL     1     -12.608  13.423  69.843  1.00  0.00    -0.151 OA 
HETATM   10  C   UNL     1     -10.696  15.705  67.904  1.00  0.00    -0.294 A  
HETATM   11  C   UNL     1     -11.065  16.589  69.972  1.00  0.00    -0.208 C  
HETATM   12  N   UNL     1     -10.447  16.655  68.753  1.00  0.00    -0.301 NA 
ENDROOT
BRANCH   8  13
HETATM   13  C   UNL     1     -12.496  15.604  71.686  1.00  0.00    -0.438 A  
HETATM   14  N   UNL     1     -13.814  15.552  73.272  1.00  0.00    -0.595 NA 
HETATM   15  N   UNL     1     -13.821  15.557  71.929  1.00  0.00    -0.493 NA 
HETATM   16  H   UNL     1     -14.676  15.558  73.816  1.00  0.00     0.000 HD 
HETATM   17  N   UNL     1     -12.612  15.539  73.853  1.00  0.00    -0.580 NA 
HETATM   18  N   UNL     1     -11.755  15.566  72.844  1.00  0.00    -0.454 NA 
ENDBRANCH   8  13
TORSDOF 1
ENDMDL
MODEL       24
REMARK 921   NORMALIZED FREE ENERGY PREDICTED BY IDOCK:   -5.86 KCAL/MOL
REMARK 922        TOTAL FREE ENERGY PREDICTED BY IDOCK:   -6.34 KCAL/MOL
REMARK 923 INTER-LIGAND FREE ENERGY PREDICTED BY IDOCK:   -6.60 KCAL/MOL
REMARK 924 INTRA-LIGAND FREE ENERGY PREDICTED BY IDOCK:    0.26 KCAL/MOL
REMARK 927      BINDING AFFINITY PREDICTED BY RF-SCORE:    0.00 PKD
ROOT
HETATM    1  C   UNL     1      -6.962  17.362  69.398  1.00  0.00    -0.108 C  
HETATM    2  C   UNL     1      -7.918  18.061  68.483  1.00  0.00    -0.310 A  
HETATM    3  C   UNL     1      -8.008  19.398  68.397  1.00  0.00    -0.376 A  
HETATM    4  C   UNL     1      -8.891  20.023  67.453  1.00  0.00    -0.428 A  
HETATM    5  C   UNL     1      -9.625  19.269  66.628  1.00  0.00    -0.349 A  
HETATM    6  N   UNL     1      -9.603  17.881  66.685  1.00  0.00    -0.298 N  
HETATM    7  C   UNL     1     -10.369  17.164  65.766  1.00  0.00    -0.240 C  
HETATM    8  C   UNL     1     -10.438  15.693  65.979  1.00  0.00    -0.343 C  
HETATM    9  O   UNL     1     -10.933  17.695  64.807  1.00  0.00    -0.917 OA 
HETATM   10  C   UNL     1      -8.799  17.213  67.605  1.00  0.00    -0.218 A  
HETATM   11  C   UNL     1      -9.627  15.202  66.927  1.00  0.00    -0.239 C  
HETATM   12  N   UNL     1      -8.780  15.921  67.725  1.00  0.00    -0.169 NA 
ENDROOT
BRANCH   8  13
HETATM   13  C   UNL     1     -11.318  14.891  65.194  1.00  0.00    -0.379 A  
HETATM   14  N   UNL     1     -12.532  14.080  63.737  1.00  0.00    -0.959 NA 
HETATM   15  N   UNL     1     -11.820  15.192  63.981  1.00  0.00    -0.351 NA 
HETATM   16  H   UNL     1     -13.094  13.973  62.893  1.00  0.00     0.000 HD 
HETATM   17  N   UNL     1     -12.462  13.123  64.665  1.00  0.00    -0.587 NA 
HETATM   18  N   UNL     1     -11.679  13.629  65.606  1.00  0.00    -0.330 NA 
ENDBRANCH   8  13
TORSDOF 1
ENDMDL
MODEL       25
REMARK 921   NORMALIZED FREE ENERGY PREDICTED BY IDOCK:   -5.84 KCAL/MOL
REMARK 922        TOTAL FREE ENERGY PREDICTED BY IDOCK:   -6.32 KCAL/MOL
REMARK 923 INTER-LIGAND FREE ENERGY PREDICTED BY IDOCK:   -6.12 KCAL/MOL
REMARK 924 INTRA-LIGAND FREE ENERGY PREDICTED BY IDOCK:   -0.21 KCAL/MOL
REMARK 927      BINDING AFFINITY PREDICTED BY RF-SCORE:    0.00 PKD
ROOT
HETATM    1  C   UNL     1     -10.439  20.273  65.206  1.00  0.00     0.137 C  
HETATM    2  C   UNL     1     -10.267  19.464  66.452  1.00  0.00    -0.556 A  
HETATM    3  C   UNL     1      -9.946  20.004  67.639  1.00  0.00    -0.566 A  
HETATM    4  C   UNL     1      -9.861  19.196  68.824  1.00  0.00    -0.502 A  
HETATM    5  C   UNL     1     -10.125  17.887  68.756  1.00  0.00    -0.384 A  
HETATM    6  N   UNL     1     -10.433  17.260  67.555  1.00  0.00    -0.356 N  
HETATM    7  C   UNL     1     -10.732  15.897  67.573  1.00  0.00    -0.318 C  
HETATM    8  C   UNL     1     -10.890  15.246  66.245  1.00  0.00    -0.312 C  
HETATM    9  O   UNL     1     -10.896  15.262  68.617  1.00  0.00    -0.237 OA 
HETATM   10  C   UNL     1     -10.492  17.979  66.364  1.00  0.00    -0.339 A  
HETATM   11  C   UNL     1     -10.892  16.070  65.187  1.00  0.00    -0.395 C  
HETATM   12  N   UNL     1     -10.731  17.428  65.214  1.00  0.00    -0.614 NA 
ENDROOT
BRANCH   8  13
HETATM   13  C   UNL     1     -11.040  13.831  66.148  1.00  0.00    -0.296 A  
HETATM   14  N   UNL     1     -10.796  11.783  66.140  1.00  0.00    -0.281 NA 
HETATM   15  N   UNL     1     -10.076  12.904  66.312  1.00  0.00    -0.271 NA 
HETATM   16  H   UNL     1     -10.367  10.858  66.161  1.00  0.00     0.000 HD 
HETATM   17  N   UNL     1     -12.105  11.950  65.941  1.00  0.00    -0.392 NA 
HETATM   18  N   UNL     1     -12.277  13.264  65.950  1.00  0.00    -0.437 NA 
ENDBRANCH   8  13
TORSDOF 1
ENDMDL
MODEL       26
REMARK 921   NORMALIZED FREE ENERGY PREDICTED BY IDOCK:   -5.79 KCAL/MOL
REMARK 922        TOTAL FREE ENERGY PREDICTED BY IDOCK:   -6.27 KCAL/MOL
REMARK 923 INTER-LIGAND FREE ENERGY PREDICTED BY IDOCK:   -6.06 KCAL/MOL
REMARK 924 INTRA-LIGAND FREE ENERGY PREDICTED BY IDOCK:   -0.21 KCAL/MOL
REMARK 927      BINDING AFFINITY PREDICTED BY RF-SCORE:    0.00 PKD
ROOT
HETATM    1  C   UNL     1     -10.502  13.779  65.022  1.00  0.00    -0.418 C  
HETATM    2  C   UNL     1     -10.892  12.845  66.124  1.00  0.00    -0.300 A  
HETATM    3  C   UNL     1     -10.831  11.508  66.009  1.00  0.00    -0.330 A  
HETATM    4  C   UNL     1     -11.149  10.652  67.117  1.00  0.00    -0.267 A  
HETATM    5  C   UNL     1     -11.492  11.187  68.294  1.00  0.00    -0.303 A  
HETATM    6  N   UNL     1     -11.604  12.561  68.473  1.00  0.00    -0.299 N  
HETATM    7  C   UNL     1     -11.932  13.043  69.740  1.00  0.00    -0.308 C  
HETATM    8  C   UNL     1     -12.200  14.503  69.833  1.00  0.00    -0.379 C  
HETATM    9  O   UNL     1     -11.966  12.324  70.741  1.00  0.00    -0.266 OA 
HETATM   10  C   UNL     1     -11.349  13.444  67.426  1.00  0.00    -0.309 A  
HETATM   11  C   UNL     1     -11.938  15.218  68.730  1.00  0.00    -0.251 C  
HETATM   12  N   UNL     1     -11.485  14.730  67.535  1.00  0.00    -0.344 NA 
ENDROOT
BRANCH   8  13
HETATM   13  C   UNL     1     -12.695  15.070  71.046  1.00  0.00    -0.366 A  
HETATM   14  N   UNL     1     -13.835  15.749  72.625  1.00  0.00    -0.570 NA 
HETATM   15  N   UNL     1     -13.986  15.190  71.413  1.00  0.00    -0.491 NA 
HETATM   16  H   UNL     1     -14.634  16.023  73.197  1.00  0.00     0.000 HD 
HETATM   17  N   UNL     1     -12.577  15.925  73.037  1.00  0.00    -0.453 NA 
HETATM   18  N   UNL     1     -11.834  15.487  72.033  1.00  0.00    -0.407 NA 
ENDBRANCH   8  13
TORSDOF 1
ENDMDL
MODEL       27
REMARK 921   NORMALIZED FREE ENERGY PREDICTED BY IDOCK:   -5.78 KCAL/MOL
REMARK 922        TOTAL FREE ENERGY PREDICTED BY IDOCK:   -6.26 KCAL/MOL
REMARK 923 INTER-LIGAND FREE ENERGY PREDICTED BY IDOCK:   -6.08 KCAL/MOL
REMARK 924 INTRA-LIGAND FREE ENERGY PREDICTED BY IDOCK:   -0.18 KCAL/MOL
REMARK 927      BINDING AFFINITY PREDICTED BY RF-SCORE:    0.00 PKD
ROOT
HETATM    1  C   UNL     1     -12.227  13.110  63.588  1.00  0.00    -0.553 C  
HETATM    2  C   UNL     1     -11.826  13.369  65.006  1.00  0.00    -0.381 A  
HETATM    3  C   UNL     1     -11.857  12.426  65.961  1.00  0.00    -0.459 A  
HETATM    4  C   UNL     1     -11.396  12.703  67.293  1.00  0.00    -0.372 A  
HETATM    5  C   UNL     1     -10.907  13.912  67.590  1.00  0.00    -0.254 A  
HETATM    6  N   UNL     1     -10.876  14.942  66.657  1.00  0.00    -0.314 N  
HETATM    7  C   UNL     1     -10.318  16.163  67.033  1.00  0.00    -0.290 C  
HETATM    8  C   UNL     1     -10.461  17.275  66.055  1.00  0.00    -0.285 C  
HETATM    9  O   UNL     1      -9.706  16.323  68.092  1.00  0.00    -0.222 OA 
HETATM   10  C   UNL     1     -11.345  14.750  65.360  1.00  0.00    -0.356 A  
HETATM   11  C   UNL     1     -10.962  16.939  64.858  1.00  0.00    -0.001 C  
HETATM   12  N   UNL     1     -11.377  15.695  64.471  1.00  0.00    -0.387 NA 
ENDROOT
BRANCH   8  13
HETATM   13  C   UNL     1     -10.067  18.601  66.406  1.00  0.00    -0.403 A  
HETATM   14  N   UNL     1      -9.170  20.450  66.570  1.00  0.00    -0.604 NA 
HETATM   15  N   UNL     1      -9.023  19.292  65.907  1.00  0.00    -0.408 NA 
HETATM   16  H   UNL     1      -8.510  21.221  66.463  1.00  0.00     0.000 HD 
HETATM   17  N   UNL     1     -10.230  20.535  67.377  1.00  0.00    -0.302 NA 
HETATM   18  N   UNL     1     -10.820  19.353  67.276  1.00  0.00    -0.493 NA 
ENDBRANCH   8  13
TORSDOF 1
ENDMDL
MODEL       28
REMARK 921   NORMALIZED FREE ENERGY PREDICTED BY IDOCK:   -5.76 KCAL/MOL
REMARK 922        TOTAL FREE ENERGY PREDICTED BY IDOCK:   -6.24 KCAL/MOL
REMARK 923 INTER-LIGAND FREE ENERGY PREDICTED BY IDOCK:   -6.29 KCAL/MOL
REMARK 924 INTRA-LIGAND FREE ENERGY PREDICTED BY IDOCK:    0.05 KCAL/MOL
REMARK 927      BINDING AFFINITY PREDICTED BY RF-SCORE:    0.00 PKD
ROOT
HETATM    1  C   UNL     1      -9.952  17.270  66.246  1.00  0.00    -0.311 C  
HETATM    2  C   UNL     1     -10.517  15.890  66.126  1.00  0.00    -0.336 A  
HETATM    3  C   UNL     1     -10.513  15.193  64.978  1.00  0.00    -0.418 A  
HETATM    4  C   UNL     1     -11.003  13.844  64.928  1.00  0.00    -0.391 A  
HETATM    5  C   UNL     1     -11.452  13.257  66.042  1.00  0.00    -0.330 A  
HETATM    6  N   UNL     1     -11.512  13.931  67.256  1.00  0.00    -0.326 N  
HETATM    7  C   UNL     1     -11.959  13.238  68.381  1.00  0.00    -0.301 C  
HETATM    8  C   UNL     1     -12.160  14.052  69.611  1.00  0.00    -0.408 C  
HETATM    9  O   UNL     1     -12.147  12.020  68.386  1.00  0.00    -0.412 OA 
HETATM   10  C   UNL     1     -11.091  15.254  67.363  1.00  0.00    -0.326 A  
HETATM   11  C   UNL     1     -11.733  15.321  69.548  1.00  0.00    -0.339 C  
HETATM   12  N   UNL     1     -11.170  15.936  68.464  1.00  0.00    -0.344 NA 
ENDROOT
BRANCH   8  13
HETATM   13  C   UNL     1     -12.763  13.474  70.767  1.00  0.00    -0.245 A  
HETATM   14  N   UNL     1     -13.300  12.300  72.376  1.00  0.00    -0.533 NA 
HETATM   15  N   UNL     1     -12.448  12.294  71.337  1.00  0.00    -0.191 NA 
HETATM   16  H   UNL     1     -13.366  11.516  73.024  1.00  0.00     0.000 HD 
HETATM   17  N   UNL     1     -14.055  13.393  72.510  1.00  0.00    -0.735 NA 
HETATM   18  N   UNL     1     -13.715  14.159  71.484  1.00  0.00    -0.342 NA 
ENDBRANCH   8  13
TORSDOF 1
ENDMDL
MODEL       29
REMARK 921   NORMALIZED FREE ENERGY PREDICTED BY IDOCK:   -5.74 KCAL/MOL
REMARK 922        TOTAL FREE ENERGY PREDICTED BY IDOCK:   -6.22 KCAL/MOL
REMARK 923 INTER-LIGAND FREE ENERGY PREDICTED BY IDOCK:   -6.05 KCAL/MOL
REMARK 924 INTRA-LIGAND FREE ENERGY PREDICTED BY IDOCK:   -0.17 KCAL/MOL
REMARK 927      BINDING AFFINITY PREDICTED BY RF-SCORE:    0.00 PKD
ROOT
HETATM    1  C   UNL     1     -11.776  15.816  68.705  1.00  0.00    -0.387 C  
HETATM    2  C   UNL     1     -11.713  14.472  68.051  1.00  0.00    -0.373 A  
HETATM    3  C   UNL     1     -11.510  14.305  66.734  1.00  0.00    -0.380 A  
HETATM    4  C   UNL     1     -11.386  12.994  66.162  1.00  0.00    -0.349 A  
HETATM    5  C   UNL     1     -11.453  11.915  66.950  1.00  0.00    -0.322 A  
HETATM    6  N   UNL     1     -11.693  12.015  68.315  1.00  0.00    -0.330 N  
HETATM    7  C   UNL     1     -11.712  10.846  69.075  1.00  0.00    -0.320 C  
HETATM    8  C   UNL     1     -12.136  10.997  70.494  1.00  0.00    -0.470 C  
HETATM    9  O   UNL     1     -11.367   9.751  68.627  1.00  0.00    -0.079 OA 
HETATM   10  C   UNL     1     -11.862  13.256  68.925  1.00  0.00    -0.327 A  
HETATM   11  C   UNL     1     -12.291  12.256  70.927  1.00  0.00    -0.267 C  
HETATM   12  N   UNL     1     -12.132  13.395  70.187  1.00  0.00    -0.350 NA 
ENDROOT
BRANCH   8  13
HETATM   13  C   UNL     1     -12.341   9.846  71.312  1.00  0.00    -0.381 A  
HETATM   14  N   UNL     1     -13.092   8.231  72.352  1.00  0.00    -0.561 NA 
HETATM   15  N   UNL     1     -13.518   9.248  71.584  1.00  0.00    -0.385 NA 
HETATM   16  H   UNL     1     -13.741   7.571  72.781  1.00  0.00     0.000 HD 
HETATM   17  N   UNL     1     -11.772   8.135  72.521  1.00  0.00    -0.400 NA 
HETATM   18  N   UNL     1     -11.275   9.165  71.852  1.00  0.00    -0.370 NA 
ENDBRANCH   8  13
TORSDOF 1
ENDMDL
MODEL       30
REMARK 921   NORMALIZED FREE ENERGY PREDICTED BY IDOCK:   -5.72 KCAL/MOL
REMARK 922        TOTAL FREE ENERGY PREDICTED BY IDOCK:   -6.19 KCAL/MOL
REMARK 923 INTER-LIGAND FREE ENERGY PREDICTED BY IDOCK:   -6.09 KCAL/MOL
REMARK 924 INTRA-LIGAND FREE ENERGY PREDICTED BY IDOCK:   -0.11 KCAL/MOL
REMARK 927      BINDING AFFINITY PREDICTED BY RF-SCORE:    0.00 PKD
ROOT
HETATM    1  C   UNL     1      -8.887   8.231  68.706  1.00  0.00    -0.137 C  
HETATM    2  C   UNL     1      -9.922   9.251  69.062  1.00  0.00    -0.187 A  
HETATM    3  C   UNL     1     -10.448   9.365  70.292  1.00  0.00    -0.298 A  
HETATM    4  C   UNL     1     -11.388  10.406  70.605  1.00  0.00    -0.411 A  
HETATM    5  C   UNL     1     -11.735  11.292  69.666  1.00  0.00    -0.350 A  
HETATM    6  N   UNL     1     -11.252  11.213  68.365  1.00  0.00    -0.238 N  
HETATM    7  C   UNL     1     -11.633  12.197  67.453  1.00  0.00    -0.340 C  
HETATM    8  C   UNL     1     -11.223  11.971  66.040  1.00  0.00    -0.385 C  
HETATM    9  O   UNL     1     -12.240  13.218  67.784  1.00  0.00    -0.287 OA 
HETATM   10  C   UNL     1     -10.370  10.204  67.987  1.00  0.00    -0.190 A  
HETATM   11  C   UNL     1     -10.397  10.937  65.830  1.00  0.00    -0.241 C  
HETATM   12  N   UNL     1      -9.930  10.065  66.774  1.00  0.00    -0.200 NA 
ENDROOT
BRANCH   8  13
HETATM   13  C   UNL     1     -11.695  12.833  65.006  1.00  0.00    -0.354 A  
HETATM   14  N   UNL     1     -12.090  14.398  63.722  1.00  0.00    -0.950 NA 
HETATM   15  N   UNL     1     -11.409  14.141  64.851  1.00  0.00    -0.348 NA 
HETATM   16  H   UNL     1     -12.130  15.333  63.317  1.00  0.00     0.000 HD 
HETATM   17  N   UNL     1     -12.711  13.359  63.161  1.00  0.00    -0.566 NA 
HETATM   18  N   UNL     1     -12.460  12.343  63.974  1.00  0.00    -0.604 NA 
ENDBRANCH   8  13
TORSDOF 1
ENDMDL
MODEL       31
REMARK 921   NORMALIZED FREE ENERGY PREDICTED BY IDOCK:   -5.61 KCAL/MOL
REMARK 922        TOTAL FREE ENERGY PREDICTED BY IDOCK:   -6.08 KCAL/MOL
REMARK 923 INTER-LIGAND FREE ENERGY PREDICTED BY IDOCK:   -5.93 KCAL/MOL
REMARK 924 INTRA-LIGAND FREE ENERGY PREDICTED BY IDOCK:   -0.15 KCAL/MOL
REMARK 927      BINDING AFFINITY PREDICTED BY RF-SCORE:    0.00 PKD
ROOT
HETATM    1  C   UNL     1     -11.457  14.241  68.612  1.00  0.00    -0.328 C  
HETATM    2  C   UNL     1     -12.149  13.793  69.861  1.00  0.00    -0.412 A  
HETATM    3  C   UNL     1     -12.871  14.619  70.636  1.00  0.00    -0.399 A  
HETATM    4  C   UNL     1     -13.576  14.129  71.787  1.00  0.00    -0.483 A  
HETATM    5  C   UNL     1     -13.535  12.827  72.088  1.00  0.00    -0.492 A  
HETATM    6  N   UNL     1     -12.783  11.924  71.347  1.00  0.00    -0.345 N  
HETATM    7  C   UNL     1     -12.821  10.576  71.703  1.00  0.00    -0.475 C  
HETATM    8  C   UNL     1     -11.871   9.684  70.983  1.00  0.00    -0.428 C  
HETATM    9  O   UNL     1     -13.611  10.125  72.534  1.00  0.00    -0.220 OA 
HETATM   10  C   UNL     1     -12.044  12.341  70.243  1.00  0.00    -0.295 A  
HETATM   11  C   UNL     1     -11.205  10.242  69.962  1.00  0.00    -0.311 C  
HETATM   12  N   UNL     1     -11.292  11.543  69.549  1.00  0.00    -0.271 NA 
ENDROOT
BRANCH   8  13
HETATM   13  C   UNL     1     -11.719   8.322  71.380  1.00  0.00    -0.287 A  
HETATM   14  N   UNL     1     -11.642   6.265  71.507  1.00  0.00    -0.302 NA 
HETATM   15  N   UNL     1     -12.013   7.230  70.649  1.00  0.00    -0.262 NA 
HETATM   16  H   UNL     1     -11.762   5.276  71.291  1.00  0.00     0.000 HD 
HETATM   17  N   UNL     1     -11.106   6.677  72.658  1.00  0.00    -0.252 NA 
HETATM   18  N   UNL     1     -11.144   8.000  72.587  1.00  0.00    -0.371 NA 
ENDBRANCH   8  13
TORSDOF 1
ENDMDL
MODEL       32
REMARK 921   NORMALIZED FREE ENERGY PREDICTED BY IDOCK:   -5.61 KCAL/MOL
REMARK 922        TOTAL FREE ENERGY PREDICTED BY IDOCK:   -6.08 KCAL/MOL
REMARK 923 INTER-LIGAND FREE ENERGY PREDICTED BY IDOCK:   -5.98 KCAL/MOL
REMARK 924 INTRA-LIGAND FREE ENERGY PREDICTED BY IDOCK:   -0.10 KCAL/MOL
REMARK 927      BINDING AFFINITY PREDICTED BY RF-SCORE:    0.00 PKD
ROOT
HETATM    1  C   UNL     1     -10.684  13.096  65.939  1.00  0.00    -0.287 C  
HETATM    2  C   UNL     1     -11.140  13.554  67.289  1.00  0.00    -0.302 A  
HETATM    3  C   UNL     1     -11.360  14.844  67.590  1.00  0.00    -0.348 A  
HETATM    4  C   UNL     1     -11.864  15.229  68.879  1.00  0.00    -0.344 A  
HETATM    5  C   UNL     1     -12.142  14.293  69.792  1.00  0.00    -0.347 A  
HETATM    6  N   UNL     1     -11.909  12.943  69.556  1.00  0.00    -0.323 N  
HETATM    7  C   UNL     1     -12.260  12.024  70.545  1.00  0.00    -0.325 C  
HETATM    8  C   UNL     1     -11.836  10.617  70.308  1.00  0.00    -0.430 C  
HETATM    9  O   UNL     1     -12.912  12.333  71.545  1.00  0.00    -0.386 OA 
HETATM   10  C   UNL     1     -11.383  12.507  68.342  1.00  0.00    -0.291 A  
HETATM   11  C   UNL     1     -11.315  10.360  69.100  1.00  0.00    -0.226 C  
HETATM   12  N   UNL     1     -11.108  11.263  68.095  1.00  0.00    -0.237 NA 
ENDROOT
BRANCH   8  13
HETATM   13  C   UNL     1     -12.005   9.632  71.326  1.00  0.00    -0.380 A  
HETATM   14  N   UNL     1     -12.714   8.275  72.707  1.00  0.00    -0.609 NA 
HETATM   15  N   UNL     1     -13.171   9.192  71.838  1.00  0.00    -0.385 NA 
HETATM   16  H   UNL     1     -13.341   7.751  73.318  1.00  0.00     0.000 HD 
HETATM   17  N   UNL     1     -11.393   8.090  72.725  1.00  0.00    -0.406 NA 
HETATM   18  N   UNL     1     -10.924   8.953  71.836  1.00  0.00    -0.359 NA 
ENDBRANCH   8  13
TORSDOF 1
ENDMDL
MODEL       33
REMARK 921   NORMALIZED FREE ENERGY PREDICTED BY IDOCK:   -5.61 KCAL/MOL
REMARK 922        TOTAL FREE ENERGY PREDICTED BY IDOCK:   -6.08 KCAL/MOL
REMARK 923 INTER-LIGAND FREE ENERGY PREDICTED BY IDOCK:   -5.89 KCAL/MOL
REMARK 924 INTRA-LIGAND FREE ENERGY PREDICTED BY IDOCK:   -0.18 KCAL/MOL
REMARK 927      BINDING AFFINITY PREDICTED BY RF-SCORE:    0.00 PKD
ROOT
HETATM    1  C   UNL     1     -12.214  12.210  63.442  1.00  0.00    -0.635 C  
HETATM    2  C   UNL     1     -11.235  12.345  64.566  1.00  0.00    -0.371 A  
HETATM    3  C   UNL     1     -10.656  11.292  65.165  1.00  0.00    -0.343 A  
HETATM    4  C   UNL     1      -9.669  11.473  66.193  1.00  0.00    -0.249 A  
HETATM    5  C   UNL     1      -9.300  12.707  66.551  1.00  0.00    -0.228 A  
HETATM    6  N   UNL     1      -9.881  13.840  65.993  1.00  0.00    -0.298 N  
HETATM    7  C   UNL     1      -9.416  15.093  66.393  1.00  0.00    -0.296 C  
HETATM    8  C   UNL     1     -10.183  16.265  65.891  1.00  0.00    -0.384 C  
HETATM    9  O   UNL     1      -8.409  15.242  67.089  1.00  0.00    -0.183 OA 
HETATM   10  C   UNL     1     -10.873  13.733  65.021  1.00  0.00    -0.371 A  
HETATM   11  C   UNL     1     -11.131  15.997  64.982  1.00  0.00    -0.336 C  
HETATM   12  N   UNL     1     -11.474  14.761  64.506  1.00  0.00    -0.360 NA 
ENDROOT
BRANCH   8  13
HETATM   13  C   UNL     1      -9.888  17.577  66.366  1.00  0.00    -0.309 A  
HETATM   14  N   UNL     1      -9.793  19.370  67.381  1.00  0.00    -0.329 NA 
HETATM   15  N   UNL     1     -10.498  18.226  67.377  1.00  0.00    -0.398 NA 
HETATM   16  H   UNL     1     -10.012  20.137  68.016  1.00  0.00     0.000 HD 
HETATM   17  N   UNL     1      -8.789  19.444  66.505  1.00  0.00    -0.337 NA 
HETATM   18  N   UNL     1      -8.835  18.294  65.848  1.00  0.00    -0.467 NA 
ENDBRANCH   8  13
TORSDOF 1
ENDMDL
MODEL       34
REMARK 921   NORMALIZED FREE ENERGY PREDICTED BY IDOCK:   -5.59 KCAL/MOL
REMARK 922        TOTAL FREE ENERGY PREDICTED BY IDOCK:   -6.06 KCAL/MOL
REMARK 923 INTER-LIGAND FREE ENERGY PREDICTED BY IDOCK:   -5.86 KCAL/MOL
REMARK 924 INTRA-LIGAND FREE ENERGY PREDICTED BY IDOCK:   -0.21 KCAL/MOL
REMARK 927      BINDING AFFINITY PREDICTED BY RF-SCORE:    0.00 PKD
ROOT
HETATM    1  C   UNL     1     -10.914  11.425  65.443  1.00  0.00    -0.249 C  
HETATM    2  C   UNL     1     -10.797  12.882  65.764  1.00  0.00    -0.292 A  
HETATM    3  C   UNL     1     -10.370  13.796  64.879  1.00  0.00    -0.420 A  
HETATM    4  C   UNL     1     -10.341  15.193  65.209  1.00  0.00    -0.425 A  
HETATM    5  C   UNL     1     -10.765  15.601  66.410  1.00  0.00    -0.291 A  
HETATM    6  N   UNL     1     -11.191  14.706  67.383  1.00  0.00    -0.329 N  
HETATM    7  C   UNL     1     -11.653  15.212  68.598  1.00  0.00    -0.338 C  
HETATM    8  C   UNL     1     -11.937  14.208  69.659  1.00  0.00    -0.389 C  
HETATM    9  O   UNL     1     -11.854  16.413  68.789  1.00  0.00    -0.201 OA 
HETATM   10  C   UNL     1     -11.204  13.335  67.140  1.00  0.00    -0.299 A  
HETATM   11  C   UNL     1     -11.877  12.924  69.278  1.00  0.00    -0.309 C  
HETATM   12  N   UNL     1     -11.551  12.459  68.034  1.00  0.00    -0.327 NA 
ENDROOT
BRANCH   8  13
HETATM   13  C   UNL     1     -12.261  14.628  70.983  1.00  0.00    -0.332 A  
HETATM   14  N   UNL     1     -12.269  15.365  72.909  1.00  0.00    -0.384 NA 
HETATM   15  N   UNL     1     -11.412  15.130  71.901  1.00  0.00    -0.417 NA 
HETATM   16  H   UNL     1     -11.956  15.725  73.810  1.00  0.00     0.000 HD 
HETATM   17  N   UNL     1     -13.554  15.102  72.661  1.00  0.00    -0.467 NA 
HETATM   18  N   UNL     1     -13.564  14.632  71.422  1.00  0.00    -0.387 NA 
ENDBRANCH   8  13
TORSDOF 1
ENDMDL
MODEL       35
REMARK 921   NORMALIZED FREE ENERGY PREDICTED BY IDOCK:   -5.45 KCAL/MOL
REMARK 922        TOTAL FREE ENERGY PREDICTED BY IDOCK:   -5.91 KCAL/MOL
REMARK 923 INTER-LIGAND FREE ENERGY PREDICTED BY IDOCK:   -5.70 KCAL/MOL
REMARK 924 INTRA-LIGAND FREE ENERGY PREDICTED BY IDOCK:   -0.22 KCAL/MOL
REMARK 927      BINDING AFFINITY PREDICTED BY RF-SCORE:    0.00 PKD
ROOT
HETATM    1  C   UNL     1     -10.216  19.757  70.044  1.00  0.00     0.462 C  
HETATM    2  C   UNL     1     -10.255  19.504  68.569  1.00  0.00    -0.517 A  
HETATM    3  C   UNL     1     -10.052  20.466  67.654  1.00  0.00    -0.476 A  
HETATM    4  C   UNL     1     -10.030  20.162  66.251  1.00  0.00    -0.557 A  
HETATM    5  C   UNL     1     -10.193  18.900  65.841  1.00  0.00    -0.286 A  
HETATM    6  N   UNL     1     -10.438  17.863  66.732  1.00  0.00    -0.337 N  
HETATM    7  C   UNL     1     -10.561  16.567  66.229  1.00  0.00    -0.223 C  
HETATM    8  C   UNL     1     -10.987  15.526  67.204  1.00  0.00    -0.295 C  
HETATM    9  O   UNL     1     -10.302  16.276  65.060  1.00  0.00    -0.593 OA 
HETATM   10  C   UNL     1     -10.513  18.097  68.103  1.00  0.00    -0.349 A  
HETATM   11  C   UNL     1     -11.044  15.914  68.486  1.00  0.00    -0.340 C  
HETATM   12  N   UNL     1     -10.784  17.168  68.967  1.00  0.00    -0.280 NA 
ENDROOT
BRANCH   8  13
HETATM   13  C   UNL     1     -11.295  14.206  66.760  1.00  0.00    -0.343 A  
HETATM   14  N   UNL     1     -12.155  12.496  65.993  1.00  0.00    -0.612 NA 
HETATM   15  N   UNL     1     -12.466  13.778  66.249  1.00  0.00    -0.424 NA 
HETATM   16  H   UNL     1     -12.841  11.839  65.620  1.00  0.00     0.000 HD 
HETATM   17  N   UNL     1     -10.898  12.133  66.253  1.00  0.00    -0.271 NA 
HETATM   18  N   UNL     1     -10.331  13.226  66.742  1.00  0.00    -0.255 NA 
ENDBRANCH   8  13
TORSDOF 1
ENDMDL
MODEL       36
REMARK 921   NORMALIZED FREE ENERGY PREDICTED BY IDOCK:   -5.44 KCAL/MOL
REMARK 922        TOTAL FREE ENERGY PREDICTED BY IDOCK:   -5.90 KCAL/MOL
REMARK 923 INTER-LIGAND FREE ENERGY PREDICTED BY IDOCK:   -5.84 KCAL/MOL
REMARK 924 INTRA-LIGAND FREE ENERGY PREDICTED BY IDOCK:   -0.06 KCAL/MOL
REMARK 927      BINDING AFFINITY PREDICTED BY RF-SCORE:    0.00 PKD
ROOT
HETATM    1  C   UNL     1     -10.101  17.116  67.281  1.00  0.00    -0.294 C  
HETATM    2  C   UNL     1     -10.720  15.867  66.738  1.00  0.00    -0.281 A  
HETATM    3  C   UNL     1     -10.952  15.671  65.430  1.00  0.00    -0.342 A  
HETATM    4  C   UNL     1     -11.484  14.427  64.948  1.00  0.00    -0.386 A  
HETATM    5  C   UNL     1     -11.737  13.435  65.807  1.00  0.00    -0.349 A  
HETATM    6  N   UNL     1     -11.549  13.581  67.176  1.00  0.00    -0.337 N  
HETATM    7  C   UNL     1     -11.801  12.487  68.004  1.00  0.00    -0.325 C  
HETATM    8  C   UNL     1     -11.745  12.749  69.468  1.00  0.00    -0.383 C  
HETATM    9  O   UNL     1     -12.023  11.355  67.568  1.00  0.00    -0.626 OA 
HETATM   10  C   UNL     1     -11.075  14.776  67.712  1.00  0.00    -0.299 A  
HETATM   11  C   UNL     1     -11.298  13.960  69.828  1.00  0.00    -0.156 C  
HETATM   12  N   UNL     1     -10.927  14.973  68.986  1.00  0.00    -0.238 NA 
ENDROOT
BRANCH   8  13
HETATM   13  C   UNL     1     -12.140  11.741  70.397  1.00  0.00    -0.352 A  
HETATM   14  N   UNL     1     -12.340  10.045  71.553  1.00  0.00    -0.395 NA 
HETATM   15  N   UNL     1     -11.603  10.512  70.532  1.00  0.00    -0.330 NA 
HETATM   16  H   UNL     1     -12.227   9.096  71.910  1.00  0.00     0.000 HD 
HETATM   17  N   UNL     1     -13.229  10.894  72.073  1.00  0.00    -0.458 NA 
HETATM   18  N   UNL     1     -13.107  11.992  71.341  1.00  0.00    -0.292 NA 
ENDBRANCH   8  13
TORSDOF 1
ENDMDL
MODEL       37
REMARK 921   NORMALIZED FREE ENERGY PREDICTED BY IDOCK:   -5.43 KCAL/MOL
REMARK 922        TOTAL FREE ENERGY PREDICTED BY IDOCK:   -5.89 KCAL/MOL
REMARK 923 INTER-LIGAND FREE ENERGY PREDICTED BY IDOCK:   -5.70 KCAL/MOL
REMARK 924 INTRA-LIGAND FREE ENERGY PREDICTED BY IDOCK:   -0.18 KCAL/MOL
REMARK 927      BINDING AFFINITY PREDICTED BY RF-SCORE:    0.00 PKD
ROOT
HETATM    1  C   UNL     1     -12.184  12.001  63.353  1.00  0.00    -0.627 C  
HETATM    2  C   UNL     1     -11.201  11.774  64.458  1.00  0.00    -0.368 A  
HETATM    3  C   UNL     1     -10.216  10.864  64.390  1.00  0.00    -0.423 A  
HETATM    4  C   UNL     1      -9.253  10.731  65.447  1.00  0.00    -0.234 A  
HETATM    5  C   UNL     1      -9.318  11.538  66.511  1.00  0.00    -0.197 A  
HETATM    6  N   UNL     1     -10.328  12.480  66.660  1.00  0.00    -0.226 N  
HETATM    7  C   UNL     1     -10.306  13.309  67.781  1.00  0.00    -0.233 C  
HETATM    8  C   UNL     1     -11.498  14.181  67.972  1.00  0.00    -0.342 C  
HETATM    9  O   UNL     1      -9.351  13.358  68.559  1.00  0.00    -0.181 OA 
HETATM   10  C   UNL     1     -11.317  12.631  65.690  1.00  0.00    -0.322 A  
HETATM   11  C   UNL     1     -12.380  14.194  66.963  1.00  0.00    -0.218 C  
HETATM   12  N   UNL     1     -12.303  13.466  65.807  1.00  0.00    -0.456 NA 
ENDROOT
BRANCH   8  13
HETATM   13  C   UNL     1     -11.646  14.948  69.166  1.00  0.00    -0.307 A  
HETATM   14  N   UNL     1     -11.576  16.365  70.662  1.00  0.00    -0.517 NA 
HETATM   15  N   UNL     1     -11.039  16.115  69.457  1.00  0.00    -0.327 NA 
HETATM   16  H   UNL     1     -11.306  17.179  71.215  1.00  0.00     0.000 HD 
HETATM   17  N   UNL     1     -12.483  15.487  71.095  1.00  0.00    -0.399 NA 
HETATM   18  N   UNL     1     -12.542  14.572  70.138  1.00  0.00    -0.325 NA 
ENDBRANCH   8  13
TORSDOF 1
ENDMDL
MODEL       38
REMARK 921   NORMALIZED FREE ENERGY PREDICTED BY IDOCK:   -5.42 KCAL/MOL
REMARK 922        TOTAL FREE ENERGY PREDICTED BY IDOCK:   -5.88 KCAL/MOL
REMARK 923 INTER-LIGAND FREE ENERGY PREDICTED BY IDOCK:   -5.67 KCAL/MOL
REMARK 924 INTRA-LIGAND FREE ENERGY PREDICTED BY IDOCK:   -0.21 KCAL/MOL
REMARK 927      BINDING AFFINITY PREDICTED BY RF-SCORE:    0.00 PKD
ROOT
HETATM    1  C   UNL     1      -7.463  16.829  67.826  1.00  0.00    -0.176 C  
HETATM    2  C   UNL     1      -7.561  15.337  67.883  1.00  0.00    -0.152 A  
HETATM    3  C   UNL     1      -6.810  14.583  68.702  1.00  0.00    -0.093 A  
HETATM    4  C   UNL     1      -6.989  13.160  68.773  1.00  0.00    -0.103 A  
HETATM    5  C   UNL     1      -7.929  12.570  68.029  1.00  0.00    -0.153 A  
HETATM    6  N   UNL     1      -8.719  13.286  67.137  1.00  0.00    -0.214 N  
HETATM    7  C   UNL     1      -9.703  12.603  66.423  1.00  0.00    -0.258 C  
HETATM    8  C   UNL     1     -10.403  13.384  65.366  1.00  0.00    -0.321 C  
HETATM    9  O   UNL     1     -10.015  11.435  66.662  1.00  0.00    -0.200 OA 
HETATM   10  C   UNL     1      -8.568  14.663  66.991  1.00  0.00    -0.224 A  
HETATM   11  C   UNL     1     -10.128  14.695  65.330  1.00  0.00    -0.372 C  
HETATM   12  N   UNL     1      -9.252  15.365  66.140  1.00  0.00    -0.320 NA 
ENDROOT
BRANCH   8  13
HETATM   13  C   UNL     1     -11.312  12.739  64.476  1.00  0.00    -0.334 A  
HETATM   14  N   UNL     1     -12.226  11.618  63.006  1.00  0.00    -0.951 NA 
HETATM   15  N   UNL     1     -10.996  11.946  63.434  1.00  0.00    -0.407 NA 
HETATM   16  H   UNL     1     -12.374  11.037  62.181  1.00  0.00     0.000 HD 
HETATM   17  N   UNL     1     -13.244  12.097  63.723  1.00  0.00    -0.683 NA 
HETATM   18  N   UNL     1     -12.670  12.816  64.677  1.00  0.00    -0.707 NA 
ENDBRANCH   8  13
TORSDOF 1
ENDMDL
MODEL       39
REMARK 921   NORMALIZED FREE ENERGY PREDICTED BY IDOCK:   -5.40 KCAL/MOL
REMARK 922        TOTAL FREE ENERGY PREDICTED BY IDOCK:   -5.86 KCAL/MOL
REMARK 923 INTER-LIGAND FREE ENERGY PREDICTED BY IDOCK:   -5.81 KCAL/MOL
REMARK 924 INTRA-LIGAND FREE ENERGY PREDICTED BY IDOCK:   -0.05 KCAL/MOL
REMARK 927      BINDING AFFINITY PREDICTED BY RF-SCORE:    0.00 PKD
ROOT
HETATM    1  C   UNL     1     -10.370  19.206  68.358  1.00  0.00    -0.412 C  
HETATM    2  C   UNL     1      -9.740  18.069  67.615  1.00  0.00    -0.291 A  
HETATM    3  C   UNL     1      -8.753  18.234  66.721  1.00  0.00    -0.281 A  
HETATM    4  C   UNL     1      -8.131  17.107  66.085  1.00  0.00    -0.283 A  
HETATM    5  C   UNL     1      -8.523  15.867  66.398  1.00  0.00    -0.313 A  
HETATM    6  N   UNL     1      -9.559  15.627  67.291  1.00  0.00    -0.216 N  
HETATM    7  C   UNL     1      -9.885  14.304  67.594  1.00  0.00    -0.224 C  
HETATM    8  C   UNL     1     -11.105  14.105  68.422  1.00  0.00    -0.273 C  
HETATM    9  O   UNL     1      -9.195  13.347  67.236  1.00  0.00    -0.204 OA 
HETATM   10  C   UNL     1     -10.230  16.678  67.912  1.00  0.00    -0.284 A  
HETATM   11  C   UNL     1     -11.659  15.219  68.923  1.00  0.00    -0.347 C  
HETATM   12  N   UNL     1     -11.233  16.502  68.717  1.00  0.00    -0.315 NA 
ENDROOT
BRANCH   8  13
HETATM   13  C   UNL     1     -11.612  12.793  68.655  1.00  0.00    -0.314 A  
HETATM   14  N   UNL     1     -12.277  10.845  68.520  1.00  0.00    -0.809 NA 
HETATM   15  N   UNL     1     -11.856  11.845  67.729  1.00  0.00    -0.573 NA 
HETATM   16  H   UNL     1     -12.593   9.953  68.141  1.00  0.00     0.000 HD 
HETATM   17  N   UNL     1     -12.259  11.088  69.833  1.00  0.00    -0.339 NA 
HETATM   18  N   UNL     1     -11.827  12.336  69.934  1.00  0.00    -0.331 NA 
ENDBRANCH   8  13
TORSDOF 1
ENDMDL
MODEL       40
REMARK 921   NORMALIZED FREE ENERGY PREDICTED BY IDOCK:   -5.37 KCAL/MOL
REMARK 922        TOTAL FREE ENERGY PREDICTED BY IDOCK:   -5.83 KCAL/MOL
REMARK 923 INTER-LIGAND FREE ENERGY PREDICTED BY IDOCK:   -5.67 KCAL/MOL
REMARK 924 INTRA-LIGAND FREE ENERGY PREDICTED BY IDOCK:   -0.16 KCAL/MOL
REMARK 927      BINDING AFFINITY PREDICTED BY RF-SCORE:    0.00 PKD
ROOT
HETATM    1  C   UNL     1     -12.313   7.465  71.522  1.00  0.00    -0.385 C  
HETATM    2  C   UNL     1     -11.655   8.582  70.775  1.00  0.00    -0.257 A  
HETATM    3  C   UNL     1     -10.681   8.388  69.871  1.00  0.00    -0.227 A  
HETATM    4  C   UNL     1     -10.128   9.485  69.129  1.00  0.00    -0.200 A  
HETATM    5  C   UNL     1     -10.598  10.722  69.319  1.00  0.00    -0.229 A  
HETATM    6  N   UNL     1     -11.583  10.998  70.261  1.00  0.00    -0.324 N  
HETATM    7  C   UNL     1     -12.047  12.308  70.374  1.00  0.00    -0.300 C  
HETATM    8  C   UNL     1     -12.975  12.576  71.506  1.00  0.00    -0.379 C  
HETATM    9  O   UNL     1     -11.747  13.197  69.574  1.00  0.00    -0.296 OA 
HETATM   10  C   UNL     1     -12.132   9.984  71.042  1.00  0.00    -0.373 A  
HETATM   11  C   UNL     1     -13.391  11.499  72.188  1.00  0.00    -0.178 C  
HETATM   12  N   UNL     1     -13.020  10.202  71.964  1.00  0.00    -0.427 NA 
ENDROOT
BRANCH   8  13
HETATM   13  C   UNL     1     -13.382  13.910  71.805  1.00  0.00    -0.381 A  
HETATM   14  N   UNL     1     -14.258  15.776  71.861  1.00  0.00    -0.399 NA 
HETATM   15  N   UNL     1     -14.248  14.667  71.103  1.00  0.00    -0.262 NA 
HETATM   16  H   UNL     1     -14.797  16.602  71.600  1.00  0.00     0.000 HD 
HETATM   17  N   UNL     1     -13.523  15.734  72.974  1.00  0.00    -0.575 NA 
HETATM   18  N   UNL     1     -12.958  14.536  72.954  1.00  0.00    -0.479 NA 
ENDBRANCH   8  13
TORSDOF 1
ENDMDL
MODEL       41
REMARK 921   NORMALIZED FREE ENERGY PREDICTED BY IDOCK:   -5.35 KCAL/MOL
REMARK 922        TOTAL FREE ENERGY PREDICTED BY IDOCK:   -5.80 KCAL/MOL
REMARK 923 INTER-LIGAND FREE ENERGY PREDICTED BY IDOCK:   -5.59 KCAL/MOL
REMARK 924 INTRA-LIGAND FREE ENERGY PREDICTED BY IDOCK:   -0.21 KCAL/MOL
REMARK 927      BINDING AFFINITY PREDICTED BY RF-SCORE:    0.00 PKD
ROOT
HETATM    1  C   UNL     1      -9.447   9.241  65.710  1.00  0.00    -0.329 C  
HETATM    2  C   UNL     1     -10.075  10.524  65.265  1.00  0.00    -0.369 A  
HETATM    3  C   UNL     1     -10.292  10.827  63.975  1.00  0.00    -0.357 A  
HETATM    4  C   UNL     1     -10.963  12.040  63.600  1.00  0.00    -0.517 A  
HETATM    5  C   UNL     1     -11.400  12.879  64.545  1.00  0.00    -0.341 A  
HETATM    6  N   UNL     1     -11.181  12.642  65.897  1.00  0.00    -0.301 N  
HETATM    7  C   UNL     1     -11.699  13.545  66.824  1.00  0.00    -0.391 C  
HETATM    8  C   UNL     1     -11.294  13.333  68.240  1.00  0.00    -0.335 C  
HETATM    9  O   UNL     1     -12.477  14.450  66.514  1.00  0.00    -0.376 OA 
HETATM   10  C   UNL     1     -10.501  11.504  66.325  1.00  0.00    -0.251 A  
HETATM   11  C   UNL     1     -10.613  12.205  68.490  1.00  0.00    -0.233 C  
HETATM   12  N   UNL     1     -10.235  11.264  67.572  1.00  0.00    -0.186 NA 
ENDROOT
BRANCH   8  13
HETATM   13  C   UNL     1     -11.639  14.289  69.241  1.00  0.00    -0.306 A  
HETATM   14  N   UNL     1     -12.474  15.350  70.800  1.00  0.00    -0.391 NA 
HETATM   15  N   UNL     1     -12.671  14.218  70.104  1.00  0.00    -0.279 NA 
HETATM   16  H   UNL     1     -13.112  15.648  71.538  1.00  0.00     0.000 HD 
HETATM   17  N   UNL     1     -11.394  16.062  70.470  1.00  0.00    -0.381 NA 
HETATM   18  N   UNL     1     -10.844  15.387  69.471  1.00  0.00    -0.248 NA 
ENDBRANCH   8  13
TORSDOF 1
ENDMDL
MODEL       42
REMARK 921   NORMALIZED FREE ENERGY PREDICTED BY IDOCK:   -5.33 KCAL/MOL
REMARK 922        TOTAL FREE ENERGY PREDICTED BY IDOCK:   -5.79 KCAL/MOL
REMARK 923 INTER-LIGAND FREE ENERGY PREDICTED BY IDOCK:   -5.74 KCAL/MOL
REMARK 924 INTRA-LIGAND FREE ENERGY PREDICTED BY IDOCK:   -0.05 KCAL/MOL
REMARK 927      BINDING AFFINITY PREDICTED BY RF-SCORE:    0.00 PKD
ROOT
HETATM    1  C   UNL     1     -10.310   9.755  67.418  1.00  0.00    -0.297 C  
HETATM    2  C   UNL     1     -10.924  10.865  68.210  1.00  0.00    -0.293 A  
HETATM    3  C   UNL     1     -11.529  10.676  69.394  1.00  0.00    -0.356 A  
HETATM    4  C   UNL     1     -12.041  11.782  70.152  1.00  0.00    -0.398 A  
HETATM    5  C   UNL     1     -11.901  13.028  69.688  1.00  0.00    -0.319 A  
HETATM    6  N   UNL     1     -11.313  13.293  68.456  1.00  0.00    -0.264 N  
HETATM    7  C   UNL     1     -11.170  14.622  68.059  1.00  0.00    -0.293 C  
HETATM    8  C   UNL     1     -10.689  14.839  66.667  1.00  0.00    -0.309 C  
HETATM    9  O   UNL     1     -11.388  15.574  68.812  1.00  0.00    -0.292 OA 
HETATM   10  C   UNL     1     -10.832  12.261  67.654  1.00  0.00    -0.225 A  
HETATM   11  C   UNL     1     -10.291  13.741  66.009  1.00  0.00    -0.308 C  
HETATM   12  N   UNL     1     -10.317  12.457  66.479  1.00  0.00    -0.226 NA 
ENDROOT
BRANCH   8  13
HETATM   13  C   UNL     1     -10.659  16.152  66.111  1.00  0.00    -0.283 A  
HETATM   14  N   UNL     1     -10.305  18.133  65.661  1.00  0.00    -0.599 NA 
HETATM   15  N   UNL     1      -9.991  17.218  66.593  1.00  0.00    -0.282 NA 
HETATM   16  H   UNL     1      -9.990  19.101  65.727  1.00  0.00     0.000 HD 
HETATM   17  N   UNL     1     -11.052  17.702  64.643  1.00  0.00    -0.587 NA 
HETATM   18  N   UNL     1     -11.283  16.427  64.916  1.00  0.00    -0.412 NA 
ENDBRANCH   8  13
TORSDOF 1
ENDMDL
MODEL       43
REMARK 921   NORMALIZED FREE ENERGY PREDICTED BY IDOCK:   -5.33 KCAL/MOL
REMARK 922        TOTAL FREE ENERGY PREDICTED BY IDOCK:   -5.78 KCAL/MOL
REMARK 923 INTER-LIGAND FREE ENERGY PREDICTED BY IDOCK:   -5.80 KCAL/MOL
REMARK 924 INTRA-LIGAND FREE ENERGY PREDICTED BY IDOCK:    0.02 KCAL/MOL
REMARK 927      BINDING AFFINITY PREDICTED BY RF-SCORE:    0.00 PKD
ROOT
HETATM    1  C   UNL     1     -12.063  10.974  70.859  1.00  0.00    -0.444 C  
HETATM    2  C   UNL     1     -11.168  10.915  69.661  1.00  0.00    -0.348 A  
HETATM    3  C   UNL     1     -10.400   9.853  69.370  1.00  0.00    -0.238 A  
HETATM    4  C   UNL     1      -9.610   9.814  68.171  1.00  0.00    -0.158 A  
HETATM    5  C   UNL     1      -9.651  10.840  67.314  1.00  0.00    -0.160 A  
HETATM    6  N   UNL     1     -10.400  11.983  67.569  1.00  0.00    -0.199 N  
HETATM    7  C   UNL     1     -10.419  12.995  66.610  1.00  0.00    -0.264 C  
HETATM    8  C   UNL     1     -11.098  14.258  67.006  1.00  0.00    -0.317 C  
HETATM    9  O   UNL     1      -9.939  12.857  65.482  1.00  0.00    -0.271 OA 
HETATM   10  C   UNL     1     -11.155  12.100  68.733  1.00  0.00    -0.250 A  
HETATM   11  C   UNL     1     -11.757  14.225  68.173  1.00  0.00    -0.350 C  
HETATM   12  N   UNL     1     -11.833  13.165  69.034  1.00  0.00    -0.311 NA 
ENDROOT
BRANCH   8  13
HETATM   13  C   UNL     1     -11.037  15.406  66.162  1.00  0.00    -0.230 A  
HETATM   14  N   UNL     1     -10.694  17.249  65.302  1.00  0.00    -0.617 NA 
HETATM   15  N   UNL     1     -10.482  16.597  66.458  1.00  0.00    -0.290 NA 
HETATM   16  H   UNL     1     -10.426  18.225  65.176  1.00  0.00     0.000 HD 
HETATM   17  N   UNL     1     -11.275  16.544  64.329  1.00  0.00    -1.010 NA 
HETATM   18  N   UNL     1     -11.496  15.354  64.867  1.00  0.00    -0.346 NA 
ENDBRANCH   8  13
TORSDOF 1
ENDMDL
MODEL       44
REMARK 921   NORMALIZED FREE ENERGY PREDICTED BY IDOCK:   -5.32 KCAL/MOL
REMARK 922        TOTAL FREE ENERGY PREDICTED BY IDOCK:   -5.78 KCAL/MOL
REMARK 923 INTER-LIGAND FREE ENERGY PREDICTED BY IDOCK:   -5.64 KCAL/MOL
REMARK 924 INTRA-LIGAND FREE ENERGY PREDICTED BY IDOCK:   -0.14 KCAL/MOL
REMARK 927      BINDING AFFINITY PREDICTED BY RF-SCORE:    0.00 PKD
ROOT
HETATM    1  C   UNL     1     -12.033  14.267  67.276  1.00  0.00    -0.439 C  
HETATM    2  C   UNL     1     -11.487  12.899  67.014  1.00  0.00    -0.390 A  
HETATM    3  C   UNL     1     -10.992  12.522  65.824  1.00  0.00    -0.327 A  
HETATM    4  C   UNL     1     -10.413  11.220  65.639  1.00  0.00    -0.317 A  
HETATM    5  C   UNL     1     -10.344  10.371  66.669  1.00  0.00    -0.231 A  
HETATM    6  N   UNL     1     -10.865  10.685  67.919  1.00  0.00    -0.254 N  
HETATM    7  C   UNL     1     -10.722   9.760  68.952  1.00  0.00    -0.217 C  
HETATM    8  C   UNL     1     -11.441  10.076  70.216  1.00  0.00    -0.372 C  
HETATM    9  O   UNL     1     -10.016   8.754  68.857  1.00  0.00    -0.180 OA 
HETATM   10  C   UNL     1     -11.476  11.915  68.153  1.00  0.00    -0.320 A  
HETATM   11  C   UNL     1     -12.008  11.289  70.278  1.00  0.00    -0.379 C  
HETATM   12  N   UNL     1     -12.015  12.234  69.289  1.00  0.00    -0.283 NA 
ENDROOT
BRANCH   8  13
HETATM   13  C   UNL     1     -11.489   9.124  71.277  1.00  0.00    -0.335 A  
HETATM   14  N   UNL     1     -11.986   7.642  72.622  1.00  0.00    -0.575 NA 
HETATM   15  N   UNL     1     -12.519   8.314  71.589  1.00  0.00    -0.309 NA 
HETATM   16  H   UNL     1     -12.517   6.947  73.146  1.00  0.00     0.000 HD 
HETATM   17  N   UNL     1     -10.719   7.935  72.923  1.00  0.00    -0.368 NA 
HETATM   18  N   UNL     1     -10.384   8.884  72.060  1.00  0.00    -0.340 NA 
ENDBRANCH   8  13
TORSDOF 1
ENDMDL
MODEL       45
REMARK 921   NORMALIZED FREE ENERGY PREDICTED BY IDOCK:   -5.32 KCAL/MOL
REMARK 922        TOTAL FREE ENERGY PREDICTED BY IDOCK:   -5.77 KCAL/MOL
REMARK 923 INTER-LIGAND FREE ENERGY PREDICTED BY IDOCK:   -6.06 KCAL/MOL
REMARK 924 INTRA-LIGAND FREE ENERGY PREDICTED BY IDOCK:    0.29 KCAL/MOL
REMARK 927      BINDING AFFINITY PREDICTED BY RF-SCORE:    0.00 PKD
ROOT
HETATM    1  C   UNL     1      -6.537  20.161  69.264  1.00  0.00    -0.302 C  
HETATM    2  C   UNL     1      -6.636  18.670  69.198  1.00  0.00    -0.289 A  
HETATM    3  C   UNL     1      -5.915  17.850  69.980  1.00  0.00    -0.179 A  
HETATM    4  C   UNL     1      -6.096  16.427  69.931  1.00  0.00    -0.187 A  
HETATM    5  C   UNL     1      -7.011  15.901  69.109  1.00  0.00    -0.176 A  
HETATM    6  N   UNL     1      -7.769  16.688  68.252  1.00  0.00    -0.176 N  
HETATM    7  C   UNL     1      -8.729  16.068  67.452  1.00  0.00    -0.180 C  
HETATM    8  C   UNL     1      -9.391  16.933  66.438  1.00  0.00    -0.303 C  
HETATM    9  O   UNL     1      -9.049  14.885  67.586  1.00  0.00    -0.177 OA 
HETATM   10  C   UNL     1      -7.613  18.072  68.222  1.00  0.00    -0.275 A  
HETATM   11  C   UNL     1      -9.114  18.242  66.516  1.00  0.00    -0.282 C  
HETATM   12  N   UNL     1      -8.266  18.842  67.406  1.00  0.00    -0.261 NA 
ENDROOT
BRANCH   8  13
HETATM   13  C   UNL     1     -10.270  16.365  65.468  1.00  0.00    -0.269 A  
HETATM   14  N   UNL     1     -11.402  15.130  64.265  1.00  0.00    -0.673 NA 
HETATM   15  N   UNL     1     -10.478  15.054  65.237  1.00  0.00    -0.376 NA 
HETATM   16  H   UNL     1     -11.776  14.298  63.810  1.00  0.00     0.000 HD 
HETATM   17  N   UNL     1     -11.802  16.358  63.930  1.00  0.00    -0.948 NA 
HETATM   18  N   UNL     1     -11.085  17.163  64.701  1.00  0.00    -1.007 NA 
ENDBRANCH   8  13
TORSDOF 1
ENDMDL
MODEL       46
REMARK 921   NORMALIZED FREE ENERGY PREDICTED BY IDOCK:   -5.31 KCAL/MOL
REMARK 922        TOTAL FREE ENERGY PREDICTED BY IDOCK:   -5.76 KCAL/MOL
REMARK 923 INTER-LIGAND FREE ENERGY PREDICTED BY IDOCK:   -6.08 KCAL/MOL
REMARK 924 INTRA-LIGAND FREE ENERGY PREDICTED BY IDOCK:    0.32 KCAL/MOL
REMARK 927      BINDING AFFINITY PREDICTED BY RF-SCORE:    0.00 PKD
ROOT
HETATM    1  C   UNL     1     -13.034  11.648  71.760  1.00  0.00    -0.483 C  
HETATM    2  C   UNL     1     -12.164  10.714  70.979  1.00  0.00    -0.498 A  
HETATM    3  C   UNL     1     -11.717   9.546  71.466  1.00  0.00    -0.472 A  
HETATM    4  C   UNL     1     -10.943   8.650  70.654  1.00  0.00    -0.274 A  
HETATM    5  C   UNL     1     -10.674   8.968  69.384  1.00  0.00    -0.191 A  
HETATM    6  N   UNL     1     -11.078  10.174  68.826  1.00  0.00    -0.224 N  
HETATM    7  C   UNL     1     -10.791  10.417  67.483  1.00  0.00    -0.301 C  
HETATM    8  C   UNL     1     -11.098  11.786  66.986  1.00  0.00    -0.358 C  
HETATM    9  O   UNL     1     -10.343   9.552  66.727  1.00  0.00    -0.246 OA 
HETATM   10  C   UNL     1     -11.798  11.105  69.572  1.00  0.00    -0.353 A  
HETATM   11  C   UNL     1     -11.768  12.579  67.835  1.00  0.00    -0.359 C  
HETATM   12  N   UNL     1     -12.157  12.262  69.107  1.00  0.00    -0.225 NA 
ENDROOT
BRANCH   8  13
HETATM   13  C   UNL     1     -10.698  12.184  65.676  1.00  0.00    -0.275 A  
HETATM   14  N   UNL     1     -10.000  13.168  64.003  1.00  0.00    -0.763 NA 
HETATM   15  N   UNL     1     -10.233  13.394  65.307  1.00  0.00    -0.310 NA 
HETATM   16  H   UNL     1      -9.665  13.903  63.380  1.00  0.00     0.000 HD 
HETATM   17  N   UNL     1     -10.233  11.927  63.571  1.00  0.00    -0.425 NA 
HETATM   18  N   UNL     1     -10.677  11.281  64.639  1.00  0.00    -0.321 NA 
ENDBRANCH   8  13
TORSDOF 1
ENDMDL
MODEL       47
REMARK 921   NORMALIZED FREE ENERGY PREDICTED BY IDOCK:   -5.29 KCAL/MOL
REMARK 922        TOTAL FREE ENERGY PREDICTED BY IDOCK:   -5.74 KCAL/MOL
REMARK 923 INTER-LIGAND FREE ENERGY PREDICTED BY IDOCK:   -5.54 KCAL/MOL
REMARK 924 INTRA-LIGAND FREE ENERGY PREDICTED BY IDOCK:   -0.20 KCAL/MOL
REMARK 927      BINDING AFFINITY PREDICTED BY RF-SCORE:    0.00 PKD
ROOT
HETATM    1  C   UNL     1     -11.784   8.274  72.558  1.00  0.00    -0.451 C  
HETATM    2  C   UNL     1     -10.641   8.765  71.727  1.00  0.00    -0.417 A  
HETATM    3  C   UNL     1      -9.372   8.366  71.915  1.00  0.00    -0.313 A  
HETATM    4  C   UNL     1      -8.318   8.811  71.047  1.00  0.00    -0.208 A  
HETATM    5  C   UNL     1      -8.599   9.619  70.019  1.00  0.00    -0.215 A  
HETATM    6  N   UNL     1      -9.884  10.094  69.786  1.00  0.00    -0.230 N  
HETATM    7  C   UNL     1     -10.103  10.904  68.672  1.00  0.00    -0.191 C  
HETATM    8  C   UNL     1     -11.455  11.516  68.566  1.00  0.00    -0.354 C  
HETATM    9  O   UNL     1      -9.252  11.085  67.798  1.00  0.00    -0.150 OA 
HETATM   10  C   UNL     1     -10.943   9.733  70.615  1.00  0.00    -0.331 A  
HETATM   11  C   UNL     1     -12.360  11.091  69.458  1.00  0.00    -0.197 C  
HETATM   12  N   UNL     1     -12.149  10.187  70.462  1.00  0.00    -0.293 NA 
ENDROOT
BRANCH   8  13
HETATM   13  C   UNL     1     -11.731  12.482  67.553  1.00  0.00    -0.374 A  
HETATM   14  N   UNL     1     -12.246  13.494  65.831  1.00  0.00    -0.442 NA 
HETATM   15  N   UNL     1     -12.104  12.237  66.282  1.00  0.00    -0.620 NA 
HETATM   16  H   UNL     1     -12.494  13.695  64.863  1.00  0.00     0.000 HD 
HETATM   17  N   UNL     1     -12.045  14.464  66.725  1.00  0.00    -0.412 NA 
HETATM   18  N   UNL     1     -11.719  13.827  67.840  1.00  0.00    -0.340 NA 
ENDBRANCH   8  13
TORSDOF 1
ENDMDL
MODEL       48
REMARK 921   NORMALIZED FREE ENERGY PREDICTED BY IDOCK:   -5.27 KCAL/MOL
REMARK 922        TOTAL FREE ENERGY PREDICTED BY IDOCK:   -5.72 KCAL/MOL
REMARK 923 INTER-LIGAND FREE ENERGY PREDICTED BY IDOCK:   -5.56 KCAL/MOL
REMARK 924 INTRA-LIGAND FREE ENERGY PREDICTED BY IDOCK:   -0.17 KCAL/MOL
REMARK 927      BINDING AFFINITY PREDICTED BY RF-SCORE:    0.00 PKD
ROOT
HETATM    1  C   UNL     1     -12.701  12.294  71.313  1.00  0.00    -0.351 C  
HETATM    2  C   UNL     1     -12.195  13.326  70.354  1.00  0.00    -0.404 A  
HETATM    3  C   UNL     1     -12.000  14.610  70.693  1.00  0.00    -0.380 A  
HETATM    4  C   UNL     1     -11.445  15.549  69.758  1.00  0.00    -0.339 A  
HETATM    5  C   UNL     1     -11.095  15.141  68.534  1.00  0.00    -0.276 A  
HETATM    6  N   UNL     1     -11.299  13.834  68.108  1.00  0.00    -0.268 N  
HETATM    7  C   UNL     1     -10.873  13.476  66.829  1.00  0.00    -0.282 C  
HETATM    8  C   UNL     1     -11.265  12.117  66.367  1.00  0.00    -0.380 C  
HETATM    9  O   UNL     1     -10.183  14.214  66.122  1.00  0.00    -0.286 OA 
HETATM   10  C   UNL     1     -11.869  12.884  68.952  1.00  0.00    -0.309 A  
HETATM   11  C   UNL     1     -11.836  11.329  67.288  1.00  0.00     0.237 C  
HETATM   12  N   UNL     1     -12.119  11.666  68.583  1.00  0.00    -0.469 NA 
ENDROOT
BRANCH   8  13
HETATM   13  C   UNL     1     -11.017  11.713  65.021  1.00  0.00    -0.273 A  
HETATM   14  N   UNL     1     -10.950  11.496  62.971  1.00  0.00    -0.783 NA 
HETATM   15  N   UNL     1     -11.571  12.233  63.907  1.00  0.00    -0.404 NA 
HETATM   16  H   UNL     1     -11.160  11.597  61.978  1.00  0.00     0.000 HD 
HETATM   17  N   UNL     1     -10.043  10.624  63.416  1.00  0.00    -0.278 NA 
HETATM   18  N   UNL     1     -10.071  10.758  64.734  1.00  0.00    -0.308 NA 
ENDBRANCH   8  13
TORSDOF 1
ENDMDL
MODEL       49
REMARK 921   NORMALIZED FREE ENERGY PREDICTED BY IDOCK:   -5.22 KCAL/MOL
REMARK 922        TOTAL FREE ENERGY PREDICTED BY IDOCK:   -5.67 KCAL/MOL
REMARK 923 INTER-LIGAND FREE ENERGY PREDICTED BY IDOCK:   -5.54 KCAL/MOL
REMARK 924 INTRA-LIGAND FREE ENERGY PREDICTED BY IDOCK:   -0.13 KCAL/MOL
REMARK 927      BINDING AFFINITY PREDICTED BY RF-SCORE:    0.00 PKD
ROOT
HETATM    1  C   UNL     1     -11.002  15.202  65.595  1.00  0.00    -0.359 C  
HETATM    2  C   UNL     1     -10.946  13.713  65.461  1.00  0.00    -0.297 A  
HETATM    3  C   UNL     1     -10.687  13.089  64.300  1.00  0.00    -0.430 A  
HETATM    4  C   UNL     1     -10.574  11.659  64.235  1.00  0.00    -0.394 A  
HETATM    5  C   UNL     1     -10.707  10.930  65.348  1.00  0.00    -0.119 A  
HETATM    6  N   UNL     1     -11.007  11.508  66.575  1.00  0.00    -0.293 N  
HETATM    7  C   UNL     1     -11.094  10.684  67.697  1.00  0.00    -0.319 C  
HETATM    8  C   UNL     1     -11.579  11.330  68.946  1.00  0.00    -0.386 C  
HETATM    9  O   UNL     1     -10.760   9.497  67.683  1.00  0.00    -0.274 OA 
HETATM   10  C   UNL     1     -11.170  12.886  66.698  1.00  0.00    -0.304 A  
HETATM   11  C   UNL     1     -11.720  12.662  68.898  1.00  0.00    -0.325 C  
HETATM   12  N   UNL     1     -11.494  13.465  67.814  1.00  0.00    -0.297 NA 
ENDROOT
BRANCH   8  13
HETATM   13  C   UNL     1     -11.854  10.545  70.105  1.00  0.00    -0.320 A  
HETATM   14  N   UNL     1     -11.775   9.380  71.805  1.00  0.00    -0.385 NA 
HETATM   15  N   UNL     1     -10.956   9.904  70.878  1.00  0.00    -0.334 NA 
HETATM   16  H   UNL     1     -11.429   8.781  72.554  1.00  0.00     0.000 HD 
HETATM   17  N   UNL     1     -13.068   9.688  71.688  1.00  0.00    -0.384 NA 
HETATM   18  N   UNL     1     -13.133  10.443  70.601  1.00  0.00    -0.321 NA 
ENDBRANCH   8  13
TORSDOF 1
ENDMDL
MODEL       50
REMARK 921   NORMALIZED FREE ENERGY PREDICTED BY IDOCK:   -5.21 KCAL/MOL
REMARK 922        TOTAL FREE ENERGY PREDICTED BY IDOCK:   -5.65 KCAL/MOL
REMARK 923 INTER-LIGAND FREE ENERGY PREDICTED BY IDOCK:   -5.47 KCAL/MOL
REMARK 924 INTRA-LIGAND FREE ENERGY PREDICTED BY IDOCK:   -0.18 KCAL/MOL
REMARK 927      BINDING AFFINITY PREDICTED BY RF-SCORE:    0.00 PKD
ROOT
HETATM    1  C   UNL     1      -9.618  10.533  62.788  1.00  0.00    -0.323 C  
HETATM    2  C   UNL     1     -10.331  11.297  63.860  1.00  0.00    -0.439 A  
HETATM    3  C   UNL     1     -10.959  12.462  63.637  1.00  0.00    -0.525 A  
HETATM    4  C   UNL     1     -11.690  13.123  64.681  1.00  0.00    -0.404 A  
HETATM    5  C   UNL     1     -11.769  12.566  65.894  1.00  0.00    -0.426 A  
HETATM    6  N   UNL     1     -11.117  11.377  66.201  1.00  0.00    -0.247 N  
HETATM    7  C   UNL     1     -11.278  10.840  67.478  1.00  0.00    -0.274 C  
HETATM    8  C   UNL     1     -10.429   9.662  67.802  1.00  0.00    -0.309 C  
HETATM    9  O   UNL     1     -12.095  11.278  68.290  1.00  0.00    -0.619 OA 
HETATM   10  C   UNL     1     -10.358  10.707  65.244  1.00  0.00    -0.251 A  
HETATM   11  C   UNL     1      -9.728   9.148  66.781  1.00  0.00    -0.210 C  
HETATM   12  N   UNL     1      -9.697   9.620  65.498  1.00  0.00    -0.297 NA 
ENDROOT
BRANCH   8  13
HETATM   13  C   UNL     1     -10.401   9.136  69.128  1.00  0.00    -0.212 A  
HETATM   14  N   UNL     1     -10.553   7.990  70.836  1.00  0.00    -0.211 NA 
HETATM   15  N   UNL     1     -10.885   7.946  69.535  1.00  0.00    -0.187 NA 
HETATM   16  H   UNL     1     -10.805   7.244  71.483  1.00  0.00     0.000 HD 
HETATM   17  N   UNL     1      -9.872   9.068  71.232  1.00  0.00    -0.288 NA 
HETATM   18  N   UNL     1      -9.762   9.811  70.141  1.00  0.00    -0.254 NA 
ENDBRANCH   8  13
TORSDOF 1
ENDMDL
MODEL       51
REMARK 921   NORMALIZED FREE ENERGY PREDICTED BY IDOCK:   -5.19 KCAL/MOL
REMARK 922        TOTAL FREE ENERGY PREDICTED BY IDOCK:   -5.64 KCAL/MOL
REMARK 923 INTER-LIGAND FREE ENERGY PREDICTED BY IDOCK:   -5.48 KCAL/MOL
REMARK 924 INTRA-LIGAND FREE ENERGY PREDICTED BY IDOCK:   -0.16 KCAL/MOL
REMARK 927      BINDING AFFINITY PREDICTED BY RF-SCORE:    0.00 PKD
ROOT
HETATM    1  C   UNL     1      -6.360  15.406  69.794  1.00  0.00    -0.163 C  
HETATM    2  C   UNL     1      -7.156  16.320  68.917  1.00  0.00    -0.182 A  
HETATM    3  C   UNL     1      -6.946  17.645  68.856  1.00  0.00    -0.251 A  
HETATM    4  C   UNL     1      -7.688  18.473  67.946  1.00  0.00    -0.265 A  
HETATM    5  C   UNL     1      -8.591  17.920  67.129  1.00  0.00    -0.235 A  
HETATM    6  N   UNL     1      -8.879  16.561  67.163  1.00  0.00    -0.190 N  
HETATM    7  C   UNL     1      -9.807  16.055  66.253  1.00  0.00    -0.308 C  
HETATM    8  C   UNL     1     -10.198  14.631  66.444  1.00  0.00    -0.296 C  
HETATM    9  O   UNL     1     -10.260  16.719  65.318  1.00  0.00    -0.607 OA 
HETATM   10  C   UNL     1      -8.224  15.710  68.050  1.00  0.00    -0.144 A  
HETATM   11  C   UNL     1      -9.496  13.950  67.360  1.00  0.00    -0.226 C  
HETATM   12  N   UNL     1      -8.492  14.444  68.147  1.00  0.00    -0.152 NA 
ENDROOT
BRANCH   8  13
HETATM   13  C   UNL     1     -11.253  14.063  65.669  1.00  0.00    -0.310 A  
HETATM   14  N   UNL     1     -13.045  13.358  64.931  1.00  0.00    -0.685 NA 
HETATM   15  N   UNL     1     -12.533  13.888  66.054  1.00  0.00    -0.472 NA 
HETATM   16  H   UNL     1     -14.017  13.057  64.871  1.00  0.00     0.000 HD 
HETATM   17  N   UNL     1     -12.206  13.249  63.897  1.00  0.00    -0.613 NA 
HETATM   18  N   UNL     1     -11.051  13.705  64.358  1.00  0.00    -0.378 NA 
ENDBRANCH   8  13
TORSDOF 1
ENDMDL
MODEL       52
REMARK 921   NORMALIZED FREE ENERGY PREDICTED BY IDOCK:   -5.18 KCAL/MOL
REMARK 922        TOTAL FREE ENERGY PREDICTED BY IDOCK:   -5.63 KCAL/MOL
REMARK 923 INTER-LIGAND FREE ENERGY PREDICTED BY IDOCK:   -5.69 KCAL/MOL
REMARK 924 INTRA-LIGAND FREE ENERGY PREDICTED BY IDOCK:    0.06 KCAL/MOL
REMARK 927      BINDING AFFINITY PREDICTED BY RF-SCORE:    0.00 PKD
ROOT
HETATM    1  C   UNL     1     -10.121  11.505  65.037  1.00  0.00    -0.315 C  
HETATM    2  C   UNL     1     -10.278  10.585  66.205  1.00  0.00    -0.296 A  
HETATM    3  C   UNL     1      -9.882   9.302  66.188  1.00  0.00    -0.363 A  
HETATM    4  C   UNL     1      -9.989   8.476  67.358  1.00  0.00    -0.275 A  
HETATM    5  C   UNL     1     -10.473   8.990  68.494  1.00  0.00    -0.196 A  
HETATM    6  N   UNL     1     -10.930  10.300  68.572  1.00  0.00    -0.242 N  
HETATM    7  C   UNL     1     -11.386  10.774  69.802  1.00  0.00    -0.300 C  
HETATM    8  C   UNL     1     -12.016  12.122  69.789  1.00  0.00    -0.372 C  
HETATM    9  O   UNL     1     -11.252  10.144  70.853  1.00  0.00    -0.337 OA 
HETATM   10  C   UNL     1     -10.891  11.141  67.462  1.00  0.00    -0.254 A  
HETATM   11  C   UNL     1     -11.926  12.798  68.635  1.00  0.00    -0.233 C  
HETATM   12  N   UNL     1     -11.348  12.356  67.477  1.00  0.00    -0.294 NA 
ENDROOT
BRANCH   8  13
HETATM   13  C   UNL     1     -12.654  12.631  70.959  1.00  0.00    -0.262 A  
HETATM   14  N   UNL     1     -13.691  12.907  72.720  1.00  0.00    -0.719 NA 
HETATM   15  N   UNL     1     -13.390  11.933  71.846  1.00  0.00    -0.405 NA 
HETATM   16  H   UNL     1     -14.288  12.740  73.530  1.00  0.00     0.000 HD 
HETATM   17  N   UNL     1     -13.163  14.107  72.468  1.00  0.00    -0.471 NA 
HETATM   18  N   UNL     1     -12.488  13.942  71.340  1.00  0.00    -0.355 NA 
ENDBRANCH   8  13
TORSDOF 1
ENDMDL
MODEL       53
REMARK 921   NORMALIZED FREE ENERGY PREDICTED BY IDOCK:   -5.12 KCAL/MOL
REMARK 922        TOTAL FREE ENERGY PREDICTED BY IDOCK:   -5.56 KCAL/MOL
REMARK 923 INTER-LIGAND FREE ENERGY PREDICTED BY IDOCK:   -5.74 KCAL/MOL
REMARK 924 INTRA-LIGAND FREE ENERGY PREDICTED BY IDOCK:    0.18 KCAL/MOL
REMARK 927      BINDING AFFINITY PREDICTED BY RF-SCORE:    0.00 PKD
ROOT
HETATM    1  C   UNL     1     -10.790  11.084  67.332  1.00  0.00    -0.327 C  
HETATM    2  C   UNL     1     -11.300  11.973  68.422  1.00  0.00    -0.332 A  
HETATM    3  C   UNL     1     -11.932  11.509  69.512  1.00  0.00    -0.402 A  
HETATM    4  C   UNL     1     -12.342  12.394  70.566  1.00  0.00    -0.346 A  
HETATM    5  C   UNL     1     -12.075  13.702  70.477  1.00  0.00    -0.339 A  
HETATM    6  N   UNL     1     -11.453  14.252  69.363  1.00  0.00    -0.276 N  
HETATM    7  C   UNL     1     -11.177  15.619  69.362  1.00  0.00    -0.313 C  
HETATM    8  C   UNL     1     -10.664  16.180  68.083  1.00  0.00    -0.315 C  
HETATM    9  O   UNL     1     -11.308  16.330  70.361  1.00  0.00    -0.371 OA 
HETATM   10  C   UNL     1     -11.067  13.454  68.289  1.00  0.00    -0.262 A  
HETATM   11  C   UNL     1     -10.369  15.286  67.129  1.00  0.00    -0.265 C  
HETATM   12  N   UNL     1     -10.525  13.929  67.211  1.00  0.00    -0.270 NA 
ENDROOT
BRANCH   8  13
HETATM   13  C   UNL     1     -10.500  17.589  67.927  1.00  0.00    -0.384 A  
HETATM   14  N   UNL     1     -10.120  19.603  68.159  1.00  0.00    -0.419 NA 
HETATM   15  N   UNL     1     -10.136  18.470  68.880  1.00  0.00    -0.375 NA 
HETATM   16  H   UNL     1      -9.914  20.508  68.580  1.00  0.00     0.000 HD 
HETATM   17  N   UNL     1     -10.389  19.474  66.857  1.00  0.00    -0.420 NA 
HETATM   18  N   UNL     1     -10.630  18.182  66.694  1.00  0.00    -0.324 NA 
ENDBRANCH   8  13
TORSDOF 1
ENDMDL
MODEL       54
REMARK 921   NORMALIZED FREE ENERGY PREDICTED BY IDOCK:   -5.11 KCAL/MOL
REMARK 922        TOTAL FREE ENERGY PREDICTED BY IDOCK:   -5.55 KCAL/MOL
REMARK 923 INTER-LIGAND FREE ENERGY PREDICTED BY IDOCK:   -5.61 KCAL/MOL
REMARK 924 INTRA-LIGAND FREE ENERGY PREDICTED BY IDOCK:    0.06 KCAL/MOL
REMARK 927      BINDING AFFINITY PREDICTED BY RF-SCORE:    0.00 PKD
ROOT
HETATM    1  C   UNL     1     -10.573   7.202  70.355  1.00  0.00    -0.242 C  
HETATM    2  C   UNL     1     -11.695   7.956  70.996  1.00  0.00    -0.293 A  
HETATM    3  C   UNL     1     -12.625   7.373  71.769  1.00  0.00    -0.367 A  
HETATM    4  C   UNL     1     -13.643   8.149  72.420  1.00  0.00    -0.104 A  
HETATM    5  C   UNL     1     -13.661   9.478  72.276  1.00  0.00    -0.418 A  
HETATM    6  N   UNL     1     -12.748  10.142  71.465  1.00  0.00    -0.399 N  
HETATM    7  C   UNL     1     -12.809  11.533  71.395  1.00  0.00    -0.384 C  
HETATM    8  C   UNL     1     -11.920  12.176  70.388  1.00  0.00    -0.360 C  
HETATM    9  O   UNL     1     -13.522  12.211  72.138  1.00  0.00    -0.494 OA 
HETATM   10  C   UNL     1     -11.761   9.443  70.774  1.00  0.00    -0.282 A  
HETATM   11  C   UNL     1     -11.044  11.364  69.780  1.00  0.00    -0.126 C  
HETATM   12  N   UNL     1     -10.916  10.016  69.972  1.00  0.00    -0.278 NA 
ENDROOT
BRANCH   8  13
HETATM   13  C   UNL     1     -12.020  13.574  70.127  1.00  0.00    -0.329 A  
HETATM   14  N   UNL     1     -12.287  15.449  69.310  1.00  0.00    -0.606 NA 
HETATM   15  N   UNL     1     -12.293  14.157  68.943  1.00  0.00    -0.207 NA 
HETATM   16  H   UNL     1     -12.426  16.202  68.636  1.00  0.00     0.000 HD 
HETATM   17  N   UNL     1     -12.087  15.690  70.607  1.00  0.00    -0.381 NA 
HETATM   18  N   UNL     1     -11.920  14.492  71.146  1.00  0.00    -0.343 NA 
ENDBRANCH   8  13
TORSDOF 1
ENDMDL
MODEL       55
REMARK 921   NORMALIZED FREE ENERGY PREDICTED BY IDOCK:   -5.06 KCAL/MOL
REMARK 922        TOTAL FREE ENERGY PREDICTED BY IDOCK:   -5.50 KCAL/MOL
REMARK 923 INTER-LIGAND FREE ENERGY PREDICTED BY IDOCK:   -5.28 KCAL/MOL
REMARK 924 INTRA-LIGAND FREE ENERGY PREDICTED BY IDOCK:   -0.21 KCAL/MOL
REMARK 927      BINDING AFFINITY PREDICTED BY RF-SCORE:    0.00 PKD
ROOT
HETATM    1  C   UNL     1     -13.330   9.587  71.988  1.00  0.00    -0.535 C  
HETATM    2  C   UNL     1     -11.921   9.478  71.496  1.00  0.00    -0.475 A  
HETATM    3  C   UNL     1     -11.020   8.638  72.031  1.00  0.00    -0.432 A  
HETATM    4  C   UNL     1      -9.700   8.517  71.480  1.00  0.00    -0.303 A  
HETATM    5  C   UNL     1      -9.360   9.234  70.404  1.00  0.00    -0.250 A  
HETATM    6  N   UNL     1     -10.233  10.144  69.820  1.00  0.00    -0.246 N  
HETATM    7  C   UNL     1      -9.816  10.828  68.678  1.00  0.00    -0.184 C  
HETATM    8  C   UNL     1     -10.722  11.906  68.196  1.00  0.00    -0.246 C  
HETATM    9  O   UNL     1      -8.782  10.547  68.069  1.00  0.00    -0.124 OA 
HETATM   10  C   UNL     1     -11.514  10.339  70.331  1.00  0.00    -0.335 A  
HETATM   11  C   UNL     1     -11.910  11.989  68.811  1.00  0.00    -0.302 C  
HETATM   12  N   UNL     1     -12.346  11.209  69.847  1.00  0.00    -0.289 NA 
ENDROOT
BRANCH   8  13
HETATM   13  C   UNL     1     -10.317  12.767  67.134  1.00  0.00    -0.233 A  
HETATM   14  N   UNL     1      -9.986  13.710  65.329  1.00  0.00    -0.535 NA 
HETATM   15  N   UNL     1     -10.569  12.604  65.820  1.00  0.00    -0.266 NA 
HETATM   16  H   UNL     1      -9.950  13.902  64.328  1.00  0.00     0.000 HD 
HETATM   17  N   UNL     1      -9.455  14.542  66.228  1.00  0.00    -0.295 NA 
HETATM   18  N   UNL     1      -9.666  13.950  67.394  1.00  0.00    -0.229 NA 
ENDBRANCH   8  13
TORSDOF 1
ENDMDL
MODEL       56
REMARK 921   NORMALIZED FREE ENERGY PREDICTED BY IDOCK:   -5.05 KCAL/MOL
REMARK 922        TOTAL FREE ENERGY PREDICTED BY IDOCK:   -5.49 KCAL/MOL
REMARK 923 INTER-LIGAND FREE ENERGY PREDICTED BY IDOCK:   -5.77 KCAL/MOL
REMARK 924 INTRA-LIGAND FREE ENERGY PREDICTED BY IDOCK:    0.28 KCAL/MOL
REMARK 927      BINDING AFFINITY PREDICTED BY RF-SCORE:    0.00 PKD
ROOT
HETATM    1  C   UNL     1     -12.276  11.404  70.686  1.00  0.00    -0.484 C  
HETATM    2  C   UNL     1     -11.736  11.427  69.291  1.00  0.00    -0.404 A  
HETATM    3  C   UNL     1     -11.473  10.315  68.587  1.00  0.00    -0.178 A  
HETATM    4  C   UNL     1     -11.022  10.387  67.226  1.00  0.00    -0.306 A  
HETATM    5  C   UNL     1     -10.878  11.577  66.635  1.00  0.00    -0.287 A  
HETATM    6  N   UNL     1     -11.102  12.768  67.315  1.00  0.00    -0.265 N  
HETATM    7  C   UNL     1     -10.966  13.969  66.618  1.00  0.00    -0.300 C  
HETATM    8  C   UNL     1     -11.054  15.211  67.434  1.00  0.00    -0.325 C  
HETATM    9  O   UNL     1     -10.817  14.020  65.396  1.00  0.00    -0.302 OA 
HETATM   10  C   UNL     1     -11.502  12.768  68.649  1.00  0.00    -0.303 A  
HETATM   11  C   UNL     1     -11.419  15.044  68.713  1.00  0.00    -0.319 C  
HETATM   12  N   UNL     1     -11.680  13.855  69.336  1.00  0.00    -0.294 NA 
ENDROOT
BRANCH   8  13
HETATM   13  C   UNL     1     -10.772  16.480  66.848  1.00  0.00    -0.175 A  
HETATM   14  N   UNL     1     -10.476  18.090  65.594  1.00  0.00    -0.621 NA 
HETATM   15  N   UNL     1     -10.771  16.781  65.535  1.00  0.00    -0.453 NA 
HETATM   16  H   UNL     1     -10.354  18.654  64.753  1.00  0.00     0.000 HD 
HETATM   17  N   UNL     1     -10.352  18.610  66.817  1.00  0.00    -0.386 NA 
HETATM   18  N   UNL     1     -10.546  17.585  67.634  1.00  0.00    -0.370 NA 
ENDBRANCH   8  13
TORSDOF 1
ENDMDL
MODEL       57
REMARK 921   NORMALIZED FREE ENERGY PREDICTED BY IDOCK:   -5.05 KCAL/MOL
REMARK 922        TOTAL FREE ENERGY PREDICTED BY IDOCK:   -5.49 KCAL/MOL
REMARK 923 INTER-LIGAND FREE ENERGY PREDICTED BY IDOCK:   -5.29 KCAL/MOL
REMARK 924 INTRA-LIGAND FREE ENERGY PREDICTED BY IDOCK:   -0.19 KCAL/MOL
REMARK 927      BINDING AFFINITY PREDICTED BY RF-SCORE:    0.00 PKD
ROOT
HETATM    1  C   UNL     1      -7.424   7.097  63.637  1.00  0.00    -0.100 C  
HETATM    2  C   UNL     1      -8.338   7.540  64.736  1.00  0.00    -0.014 A  
HETATM    3  C   UNL     1      -8.559   6.815  65.844  1.00  0.00    -0.153 A  
HETATM    4  C   UNL     1      -9.390   7.313  66.904  1.00  0.00    -0.192 A  
HETATM    5  C   UNL     1      -9.941   8.527  66.803  1.00  0.00    -0.281 A  
HETATM    6  N   UNL     1      -9.778   9.317  65.671  1.00  0.00    -0.275 N  
HETATM    7  C   UNL     1     -10.354  10.587  65.657  1.00  0.00    -0.204 C  
HETATM    8  C   UNL     1     -10.289  11.319  64.363  1.00  0.00    -0.388 C  
HETATM    9  O   UNL     1     -10.858  11.105  66.656  1.00  0.00    -0.266 OA 
HETATM   10  C   UNL     1      -9.018   8.875  64.591  1.00  0.00     0.010 A  
HETATM   11  C   UNL     1      -9.544  10.748  63.406  1.00  0.00    -0.338 C  
HETATM   12  N   UNL     1      -8.876   9.558  63.497  1.00  0.00    -0.229 NA 
ENDROOT
BRANCH   8  13
HETATM   13  C   UNL     1     -10.983  12.554  64.197  1.00  0.00    -0.381 A  
HETATM   14  N   UNL     1     -11.590  14.525  64.151  1.00  0.00    -0.648 NA 
HETATM   15  N   UNL     1     -10.568  13.773  64.593  1.00  0.00    -0.425 NA 
HETATM   16  H   UNL     1     -11.631  15.530  64.315  1.00  0.00     0.000 HD 
HETATM   17  N   UNL     1     -12.549  13.878  63.484  1.00  0.00    -0.805 NA 
HETATM   18  N   UNL     1     -12.168  12.610  63.501  1.00  0.00    -0.605 NA 
ENDBRANCH   8  13
TORSDOF 1
ENDMDL
MODEL       58
REMARK 921   NORMALIZED FREE ENERGY PREDICTED BY IDOCK:   -5.03 KCAL/MOL
REMARK 922        TOTAL FREE ENERGY PREDICTED BY IDOCK:   -5.47 KCAL/MOL
REMARK 923 INTER-LIGAND FREE ENERGY PREDICTED BY IDOCK:   -5.33 KCAL/MOL
REMARK 924 INTRA-LIGAND FREE ENERGY PREDICTED BY IDOCK:   -0.14 KCAL/MOL
REMARK 927      BINDING AFFINITY PREDICTED BY RF-SCORE:    0.00 PKD
ROOT
HETATM    1  C   UNL     1     -10.522   8.822  71.339  1.00  0.00    -0.354 C  
HETATM    2  C   UNL     1      -9.607   9.597  70.445  1.00  0.00    -0.292 A  
HETATM    3  C   UNL     1      -8.271   9.591  70.580  1.00  0.00    -0.203 A  
HETATM    4  C   UNL     1      -7.428  10.294  69.654  1.00  0.00    -0.159 A  
HETATM    5  C   UNL     1      -7.973  10.953  68.626  1.00  0.00    -0.140 A  
HETATM    6  N   UNL     1      -9.349  11.026  68.446  1.00  0.00    -0.172 N  
HETATM    7  C   UNL     1      -9.840  11.701  67.328  1.00  0.00    -0.187 C  
HETATM    8  C   UNL     1     -11.315  11.891  67.275  1.00  0.00    -0.393 C  
HETATM    9  O   UNL     1      -9.115  12.093  66.411  1.00  0.00    -0.212 OA 
HETATM   10  C   UNL     1     -10.223  10.400  69.331  1.00  0.00    -0.234 A  
HETATM   11  C   UNL     1     -12.020  11.250  68.218  1.00  0.00    -0.145 C  
HETATM   12  N   UNL     1     -11.514  10.479  69.228  1.00  0.00    -0.261 NA 
ENDROOT
BRANCH   8  13
HETATM   13  C   UNL     1     -11.902  12.702  66.260  1.00  0.00    -0.410 A  
HETATM   14  N   UNL     1     -12.746  14.210  65.134  1.00  0.00    -0.672 NA 
HETATM   15  N   UNL     1     -12.343  13.969  66.392  1.00  0.00    -0.461 NA 
HETATM   16  H   UNL     1     -13.184  15.091  64.867  1.00  0.00     0.000 HD 
HETATM   17  N   UNL     1     -12.541  13.228  64.253  1.00  0.00    -0.653 NA 
HETATM   18  N   UNL     1     -11.993  12.253  64.963  1.00  0.00    -0.378 NA 
ENDBRANCH   8  13
TORSDOF 1
ENDMDL
MODEL       59
REMARK 921   NORMALIZED FREE ENERGY PREDICTED BY IDOCK:   -5.03 KCAL/MOL
REMARK 922        TOTAL FREE ENERGY PREDICTED BY IDOCK:   -5.46 KCAL/MOL
REMARK 923 INTER-LIGAND FREE ENERGY PREDICTED BY IDOCK:   -5.29 KCAL/MOL
REMARK 924 INTRA-LIGAND FREE ENERGY PREDICTED BY IDOCK:   -0.17 KCAL/MOL
REMARK 927      BINDING AFFINITY PREDICTED BY RF-SCORE:    0.00 PKD
ROOT
HETATM    1  C   UNL     1     -12.379  14.074  66.205  1.00  0.00    -0.491 C  
HETATM    2  C   UNL     1     -11.637  13.032  65.429  1.00  0.00    -0.374 A  
HETATM    3  C   UNL     1     -11.291  13.184  64.140  1.00  0.00    -0.440 A  
HETATM    4  C   UNL     1     -10.517  12.186  63.457  1.00  0.00    -0.490 A  
HETATM    5  C   UNL     1     -10.113  11.093  64.113  1.00  0.00    -0.333 A  
HETATM    6  N   UNL     1     -10.461  10.859  65.437  1.00  0.00    -0.251 N  
HETATM    7  C   UNL     1      -9.970   9.713  66.063  1.00  0.00    -0.274 C  
HETATM    8  C   UNL     1     -10.508   9.429  67.421  1.00  0.00    -0.343 C  
HETATM    9  O   UNL     1      -9.114   8.987  65.553  1.00  0.00    -0.207 OA 
HETATM   10  C   UNL     1     -11.244  11.768  66.145  1.00  0.00    -0.306 A  
HETATM   11  C   UNL     1     -11.275  10.388  67.958  1.00  0.00    -0.272 C  
HETATM   12  N   UNL     1     -11.631  11.570  67.368  1.00  0.00    -0.556 NA 
ENDROOT
BRANCH   8  13
HETATM   13  C   UNL     1     -10.192   8.204  68.080  1.00  0.00    -0.209 A  
HETATM   14  N   UNL     1      -9.521   6.723  69.349  1.00  0.00    -0.148 NA 
HETATM   15  N   UNL     1      -9.438   8.054  69.187  1.00  0.00    -0.155 NA 
HETATM   16  H   UNL     1      -9.022   6.238  70.095  1.00  0.00     0.000 HD 
HETATM   17  N   UNL     1     -10.293   6.072  68.476  1.00  0.00    -0.184 NA 
HETATM   18  N   UNL     1     -10.736   7.015  67.657  1.00  0.00    -0.254 NA 
ENDBRANCH   8  13
TORSDOF 1
ENDMDL
MODEL       60
REMARK 921   NORMALIZED FREE ENERGY PREDICTED BY IDOCK:   -4.93 KCAL/MOL
REMARK 922        TOTAL FREE ENERGY PREDICTED BY IDOCK:   -5.36 KCAL/MOL
REMARK 923 INTER-LIGAND FREE ENERGY PREDICTED BY IDOCK:   -5.19 KCAL/MOL
REMARK 924 INTRA-LIGAND FREE ENERGY PREDICTED BY IDOCK:   -0.17 KCAL/MOL
REMARK 927      BINDING AFFINITY PREDICTED BY RF-SCORE:    0.00 PKD
ROOT
HETATM    1  C   UNL     1      -9.398   7.881  70.981  1.00  0.00    -0.167 C  
HETATM    2  C   UNL     1     -10.504   8.847  70.695  1.00  0.00    -0.271 A  
HETATM    3  C   UNL     1     -11.504   9.094  71.557  1.00  0.00    -0.437 A  
HETATM    4  C   UNL     1     -12.505  10.083  71.269  1.00  0.00    -0.494 A  
HETATM    5  C   UNL     1     -12.437  10.787  70.134  1.00  0.00    -0.285 A  
HETATM    6  N   UNL     1     -11.447  10.560  69.186  1.00  0.00    -0.259 N  
HETATM    7  C   UNL     1     -11.423  11.362  68.045  1.00  0.00    -0.307 C  
HETATM    8  C   UNL     1     -10.449  10.967  66.990  1.00  0.00    -0.291 C  
HETATM    9  O   UNL     1     -12.131  12.363  67.914  1.00  0.00    -0.428 OA 
HETATM   10  C   UNL     1     -10.470   9.588  69.386  1.00  0.00    -0.217 A  
HETATM   11  C   UNL     1      -9.593   9.990  67.322  1.00  0.00    -0.156 C  
HETATM   12  N   UNL     1      -9.555   9.311  68.509  1.00  0.00    -0.146 NA 
ENDROOT
BRANCH   8  13
HETATM   13  C   UNL     1     -10.453  11.622  65.723  1.00  0.00    -0.263 A  
HETATM   14  N   UNL     1     -10.221  12.910  64.129  1.00  0.00    -0.569 NA 
HETATM   15  N   UNL     1      -9.982  12.854  65.450  1.00  0.00    -0.237 NA 
HETATM   16  H   UNL     1     -10.017  13.744  63.578  1.00  0.00     0.000 HD 
HETATM   17  N   UNL     1     -10.741  11.810  63.580  1.00  0.00    -0.416 NA 
HETATM   18  N   UNL     1     -10.890  10.971  64.594  1.00  0.00    -0.251 NA 
ENDBRANCH   8  13
TORSDOF 1
ENDMDL
MODEL       61
REMARK 921   NORMALIZED FREE ENERGY PREDICTED BY IDOCK:   -4.88 KCAL/MOL
REMARK 922        TOTAL FREE ENERGY PREDICTED BY IDOCK:   -5.30 KCAL/MOL
REMARK 923 INTER-LIGAND FREE ENERGY PREDICTED BY IDOCK:   -5.22 KCAL/MOL
REMARK 924 INTRA-LIGAND FREE ENERGY PREDICTED BY IDOCK:   -0.09 KCAL/MOL
REMARK 927      BINDING AFFINITY PREDICTED BY RF-SCORE:    0.00 PKD
ROOT
HETATM    1  C   UNL     1     -10.140  11.560  65.929  1.00  0.00    -0.271 C  
HETATM    2  C   UNL     1     -10.737  12.003  67.227  1.00  0.00    -0.269 A  
HETATM    3  C   UNL     1     -11.146  13.261  67.456  1.00  0.00    -0.292 A  
HETATM    4  C   UNL     1     -11.778  13.623  68.694  1.00  0.00    -0.389 A  
HETATM    5  C   UNL     1     -11.985  12.693  69.632  1.00  0.00    -0.286 A  
HETATM    6  N   UNL     1     -11.560  11.380  69.472  1.00  0.00    -0.300 N  
HETATM    7  C   UNL     1     -11.846  10.460  70.481  1.00  0.00    -0.337 C  
HETATM    8  C   UNL     1     -11.225   9.116  70.334  1.00  0.00    -0.279 C  
HETATM    9  O   UNL     1     -12.596  10.714  71.426  1.00  0.00    -0.369 OA 
HETATM   10  C   UNL     1     -10.904  10.974  68.312  1.00  0.00    -0.215 A  
HETATM   11  C   UNL     1     -10.598   8.886  69.171  1.00  0.00    -0.195 C  
HETATM   12  N   UNL     1     -10.450   9.770  68.139  1.00  0.00    -0.203 NA 
ENDROOT
BRANCH   8  13
HETATM   13  C   UNL     1     -11.324   8.156  71.385  1.00  0.00    -0.259 A  
HETATM   14  N   UNL     1     -11.314   7.133  73.175  1.00  0.00    -0.564 NA 
HETATM   15  N   UNL     1     -10.972   8.331  72.674  1.00  0.00    -0.353 NA 
HETATM   16  H   UNL     1     -11.148   6.889  74.151  1.00  0.00     0.000 HD 
HETATM   17  N   UNL     1     -11.884   6.280  72.321  1.00  0.00    -0.306 NA 
HETATM   18  N   UNL     1     -11.902   6.928  71.166  1.00  0.00    -0.330 NA 
ENDBRANCH   8  13
TORSDOF 1
ENDMDL
MODEL       62
REMARK 921   NORMALIZED FREE ENERGY PREDICTED BY IDOCK:   -4.87 KCAL/MOL
REMARK 922        TOTAL FREE ENERGY PREDICTED BY IDOCK:   -5.29 KCAL/MOL
REMARK 923 INTER-LIGAND FREE ENERGY PREDICTED BY IDOCK:   -5.08 KCAL/MOL
REMARK 924 INTRA-LIGAND FREE ENERGY PREDICTED BY IDOCK:   -0.21 KCAL/MOL
REMARK 927      BINDING AFFINITY PREDICTED BY RF-SCORE:    0.00 PKD
ROOT
HETATM    1  C   UNL     1     -13.112   9.661  72.239  1.00  0.00    -0.468 C  
HETATM    2  C   UNL     1     -12.950  11.022  71.639  1.00  0.00    -0.561 A  
HETATM    3  C   UNL     1     -13.497  12.128  72.169  1.00  0.00    -0.383 A  
HETATM    4  C   UNL     1     -13.256  13.423  71.597  1.00  0.00    -0.449 A  
HETATM    5  C   UNL     1     -12.458  13.542  70.531  1.00  0.00    -0.302 A  
HETATM    6  N   UNL     1     -11.886  12.436  69.914  1.00  0.00    -0.328 N  
HETATM    7  C   UNL     1     -11.036  12.645  68.828  1.00  0.00    -0.263 C  
HETATM    8  C   UNL     1     -10.587  11.423  68.106  1.00  0.00    -0.220 C  
HETATM    9  O   UNL     1     -10.641  13.763  68.492  1.00  0.00    -0.242 OA 
HETATM   10  C   UNL     1     -12.113  11.148  70.394  1.00  0.00    -0.385 A  
HETATM   11  C   UNL     1     -10.912  10.255  68.677  1.00  0.00    -0.244 C  
HETATM   12  N   UNL     1     -11.636  10.084  69.824  1.00  0.00    -0.182 NA 
ENDROOT
BRANCH   8  13
HETATM   13  C   UNL     1      -9.847  11.534  66.891  1.00  0.00    -0.197 A  
HETATM   14  N   UNL     1      -8.408  11.576  65.415  1.00  0.00    -0.286 NA 
HETATM   15  N   UNL     1      -8.514  11.408  66.743  1.00  0.00    -0.160 NA 
HETATM   16  H   UNL     1      -7.504  11.578  64.942  1.00  0.00     0.000 HD 
HETATM   17  N   UNL     1      -9.554  11.738  64.750  1.00  0.00    -0.150 NA 
HETATM   18  N   UNL     1     -10.489  11.708  65.688  1.00  0.00    -0.259 NA 
ENDBRANCH   8  13
TORSDOF 1
ENDMDL
MODEL       63
REMARK 921   NORMALIZED FREE ENERGY PREDICTED BY IDOCK:   -4.86 KCAL/MOL
REMARK 922        TOTAL FREE ENERGY PREDICTED BY IDOCK:   -5.28 KCAL/MOL
REMARK 923 INTER-LIGAND FREE ENERGY PREDICTED BY IDOCK:   -5.07 KCAL/MOL
REMARK 924 INTRA-LIGAND FREE ENERGY PREDICTED BY IDOCK:   -0.22 KCAL/MOL
REMARK 927      BINDING AFFINITY PREDICTED BY RF-SCORE:    0.00 PKD
ROOT
HETATM    1  C   UNL     1      -9.879   7.590  71.342  1.00  0.00    -0.191 C  
HETATM    2  C   UNL     1     -11.015   8.554  71.482  1.00  0.00    -0.337 A  
HETATM    3  C   UNL     1     -12.050   8.352  72.313  1.00  0.00    -0.456 A  
HETATM    4  C   UNL     1     -13.083   9.338  72.466  1.00  0.00    -0.416 A  
HETATM    5  C   UNL     1     -13.009  10.489  71.789  1.00  0.00    -0.476 A  
HETATM    6  N   UNL     1     -11.982  10.749  70.890  1.00  0.00    -0.339 N  
HETATM    7  C   UNL     1     -11.956  11.988  70.249  1.00  0.00    -0.314 C  
HETATM    8  C   UNL     1     -10.934  12.147  69.179  1.00  0.00    -0.215 C  
HETATM    9  O   UNL     1     -12.701  12.919  70.562  1.00  0.00    -0.154 OA 
HETATM   10  C   UNL     1     -10.972   9.817  70.665  1.00  0.00    -0.331 A  
HETATM   11  C   UNL     1     -10.049  11.147  69.062  1.00  0.00    -0.155 C  
HETATM   12  N   UNL     1     -10.019   9.998  69.803  1.00  0.00    -0.237 NA 
ENDROOT
BRANCH   8  13
HETATM   13  C   UNL     1     -10.926  13.313  68.357  1.00  0.00    -0.264 A  
HETATM   14  N   UNL     1     -11.283  14.782  66.955  1.00  0.00    -0.340 NA 
HETATM   15  N   UNL     1     -11.708  13.552  67.286  1.00  0.00    -0.361 NA 
HETATM   16  H   UNL     1     -11.644  15.276  66.139  1.00  0.00     0.000 HD 
HETATM   17  N   UNL     1     -10.360  15.321  67.755  1.00  0.00    -0.241 NA 
HETATM   18  N   UNL     1     -10.126  14.388  68.666  1.00  0.00    -0.239 NA 
ENDBRANCH   8  13
TORSDOF 1
ENDMDL
MODEL       64
REMARK 921   NORMALIZED FREE ENERGY PREDICTED BY IDOCK:   -4.84 KCAL/MOL
REMARK 922        TOTAL FREE ENERGY PREDICTED BY IDOCK:   -5.27 KCAL/MOL
REMARK 923 INTER-LIGAND FREE ENERGY PREDICTED BY IDOCK:   -5.18 KCAL/MOL
REMARK 924 INTRA-LIGAND FREE ENERGY PREDICTED BY IDOCK:   -0.08 KCAL/MOL
REMARK 927      BINDING AFFINITY PREDICTED BY RF-SCORE:    0.00 PKD
ROOT
HETATM    1  C   UNL     1      -8.489   8.983  70.944  1.00  0.00    -0.253 C  
HETATM    2  C   UNL     1      -9.818   9.578  70.599  1.00  0.00    -0.328 A  
HETATM    3  C   UNL     1     -10.930   9.354  71.316  1.00  0.00    -0.440 A  
HETATM    4  C   UNL     1     -12.169  10.003  70.987  1.00  0.00    -0.462 A  
HETATM    5  C   UNL     1     -12.218  10.861  69.963  1.00  0.00    -0.347 A  
HETATM    6  N   UNL     1     -11.112  11.114  69.161  1.00  0.00    -0.229 N  
HETATM    7  C   UNL     1     -11.234  12.050  68.134  1.00  0.00    -0.260 C  
HETATM    8  C   UNL     1     -10.075  12.158  67.207  1.00  0.00    -0.214 C  
HETATM    9  O   UNL     1     -12.220  12.780  68.007  1.00  0.00    -0.215 OA 
HETATM   10  C   UNL     1      -9.893  10.487  69.401  1.00  0.00    -0.182 A  
HETATM   11  C   UNL     1      -8.981  11.466  67.557  1.00  0.00    -0.150 C  
HETATM   12  N   UNL     1      -8.847  10.658  68.652  1.00  0.00    -0.144 NA 
ENDROOT
BRANCH   8  13
HETATM   13  C   UNL     1     -10.160  12.967  66.036  1.00  0.00    -0.284 A  
HETATM   14  N   UNL     1     -10.329  13.716  64.121  1.00  0.00    -0.699 NA 
HETATM   15  N   UNL     1     -10.246  12.538  64.761  1.00  0.00    -0.293 NA 
HETATM   16  H   UNL     1     -10.372  13.775  63.104  1.00  0.00     0.000 HD 
HETATM   17  N   UNL     1     -10.353  14.804  64.894  1.00  0.00    -0.388 NA 
HETATM   18  N   UNL     1     -10.251  14.336  66.129  1.00  0.00    -0.296 NA 
ENDBRANCH   8  13
TORSDOF 1
ENDMDL
MODEL       65
REMARK 921   NORMALIZED FREE ENERGY PREDICTED BY IDOCK:   -4.81 KCAL/MOL
REMARK 922        TOTAL FREE ENERGY PREDICTED BY IDOCK:   -5.23 KCAL/MOL
REMARK 923 INTER-LIGAND FREE ENERGY PREDICTED BY IDOCK:   -5.11 KCAL/MOL
REMARK 924 INTRA-LIGAND FREE ENERGY PREDICTED BY IDOCK:   -0.12 KCAL/MOL
REMARK 927      BINDING AFFINITY PREDICTED BY RF-SCORE:    0.00 PKD
ROOT
HETATM    1  C   UNL     1      -6.489  17.129  66.831  1.00  0.00    -0.239 C  
HETATM    2  C   UNL     1      -7.781  17.341  67.556  1.00  0.00    -0.191 A  
HETATM    3  C   UNL     1      -8.180  18.540  68.010  1.00  0.00    -0.286 A  
HETATM    4  C   UNL     1      -9.461  18.708  68.637  1.00  0.00    -0.396 A  
HETATM    5  C   UNL     1     -10.285  17.662  68.758  1.00  0.00    -0.373 A  
HETATM    6  N   UNL     1      -9.922  16.388  68.338  1.00  0.00    -0.231 N  
HETATM    7  C   UNL     1     -10.852  15.356  68.464  1.00  0.00    -0.264 C  
HETATM    8  C   UNL     1     -10.354  13.987  68.155  1.00  0.00    -0.241 C  
HETATM    9  O   UNL     1     -12.029  15.549  68.776  1.00  0.00    -0.336 OA 
HETATM   10  C   UNL     1      -8.678  16.150  67.758  1.00  0.00    -0.172 A  
HETATM   11  C   UNL     1      -9.121  13.918  67.633  1.00  0.00    -0.197 C  
HETATM   12  N   UNL     1      -8.280  14.970  67.393  1.00  0.00    -0.179 NA 
ENDROOT
BRANCH   8  13
HETATM   13  C   UNL     1     -11.175  12.848  68.404  1.00  0.00    -0.270 A  
HETATM   14  N   UNL     1     -12.285  11.113  68.299  1.00  0.00    -0.709 NA 
HETATM   15  N   UNL     1     -11.598  11.944  67.499  1.00  0.00    -0.474 NA 
HETATM   16  H   UNL     1     -12.790  10.305  67.934  1.00  0.00     0.000 HD 
HETATM   17  N   UNL     1     -12.270  11.406  69.602  1.00  0.00    -0.280 NA 
HETATM   18  N   UNL     1     -11.554  12.517  69.684  1.00  0.00    -0.277 NA 
ENDBRANCH   8  13
TORSDOF 1
ENDMDL
MODEL       66
REMARK 921   NORMALIZED FREE ENERGY PREDICTED BY IDOCK:   -4.68 KCAL/MOL
REMARK 922        TOTAL FREE ENERGY PREDICTED BY IDOCK:   -5.10 KCAL/MOL
REMARK 923 INTER-LIGAND FREE ENERGY PREDICTED BY IDOCK:   -4.89 KCAL/MOL
REMARK 924 INTRA-LIGAND FREE ENERGY PREDICTED BY IDOCK:   -0.20 KCAL/MOL
REMARK 927      BINDING AFFINITY PREDICTED BY RF-SCORE:    0.00 PKD
ROOT
HETATM    1  C   UNL     1      -9.452  10.051  64.925  1.00  0.00    -0.355 C  
HETATM    2  C   UNL     1      -9.989  10.917  66.020  1.00  0.00    -0.290 A  
HETATM    3  C   UNL     1     -10.208  12.234  65.874  1.00  0.00    -0.274 A  
HETATM    4  C   UNL     1     -10.790  13.011  66.932  1.00  0.00    -0.282 A  
HETATM    5  C   UNL     1     -11.142  12.418  68.077  1.00  0.00    -0.245 A  
HETATM    6  N   UNL     1     -10.915  11.066  68.306  1.00  0.00    -0.214 N  
HETATM    7  C   UNL     1     -11.344  10.514  69.513  1.00  0.00    -0.278 C  
HETATM    8  C   UNL     1     -10.928   9.108  69.771  1.00  0.00    -0.195 C  
HETATM    9  O   UNL     1     -12.056  11.124  70.313  1.00  0.00    -0.316 OA 
HETATM   10  C   UNL     1     -10.317  10.265  67.336  1.00  0.00    -0.233 A  
HETATM   11  C   UNL     1     -10.332   8.478  68.750  1.00  0.00    -0.213 C  
HETATM   12  N   UNL     1     -10.045   9.010  67.523  1.00  0.00    -0.211 NA 
ENDROOT
BRANCH   8  13
HETATM   13  C   UNL     1     -11.179   8.504  71.039  1.00  0.00    -0.268 A  
HETATM   14  N   UNL     1     -11.955   7.503  72.666  1.00  0.00    -0.560 NA 
HETATM   15  N   UNL     1     -12.309   7.883  71.428  1.00  0.00    -0.312 NA 
HETATM   16  H   UNL     1     -12.603   7.021  73.290  1.00  0.00     0.000 HD 
HETATM   17  N   UNL     1     -10.704   7.791  73.034  1.00  0.00    -0.382 NA 
HETATM   18  N   UNL     1     -10.191   8.431  71.993  1.00  0.00    -0.265 NA 
ENDBRANCH   8  13
TORSDOF 1
ENDMDL
MODEL       67
REMARK 921   NORMALIZED FREE ENERGY PREDICTED BY IDOCK:   -4.68 KCAL/MOL
REMARK 922        TOTAL FREE ENERGY PREDICTED BY IDOCK:   -5.09 KCAL/MOL
REMARK 923 INTER-LIGAND FREE ENERGY PREDICTED BY IDOCK:   -5.29 KCAL/MOL
REMARK 924 INTRA-LIGAND FREE ENERGY PREDICTED BY IDOCK:    0.19 KCAL/MOL
REMARK 927      BINDING AFFINITY PREDICTED BY RF-SCORE:    0.00 PKD
ROOT
HETATM    1  C   UNL     1      -9.594   8.225  67.145  1.00  0.00    -0.234 C  
HETATM    2  C   UNL     1     -10.398   7.914  68.368  1.00  0.00    -0.235 A  
HETATM    3  C   UNL     1     -10.606   6.663  68.811  1.00  0.00    -0.271 A  
HETATM    4  C   UNL     1     -11.325   6.417  70.029  1.00  0.00    -0.496 A  
HETATM    5  C   UNL     1     -11.782   7.445  70.752  1.00  0.00    -0.276 A  
HETATM    6  N   UNL     1     -11.628   8.762  70.335  1.00  0.00    -0.159 N  
HETATM    7  C   UNL     1     -12.100   9.781  71.163  1.00  0.00    -0.370 C  
HETATM    8  C   UNL     1     -12.060  11.156  70.593  1.00  0.00    -0.477 C  
HETATM    9  O   UNL     1     -12.496   9.581  72.313  1.00  0.00    -0.322 OA 
HETATM   10  C   UNL     1     -10.976   9.067  69.143  1.00  0.00    -0.001 A  
HETATM   11  C   UNL     1     -11.425  11.284  69.420  1.00  0.00    -0.301 C  
HETATM   12  N   UNL     1     -10.849  10.278  68.693  1.00  0.00    -0.221 NA 
ENDROOT
BRANCH   8  13
HETATM   13  C   UNL     1     -12.662  12.244  71.292  1.00  0.00    -0.251 A  
HETATM   14  N   UNL     1     -13.772  13.468  72.526  1.00  0.00    -0.708 NA 
HETATM   15  N   UNL     1     -13.650  12.170  72.205  1.00  0.00    -0.349 NA 
HETATM   16  H   UNL     1     -14.476  13.798  73.186  1.00  0.00     0.000 HD 
HETATM   17  N   UNL     1     -12.916  14.303  71.932  1.00  0.00    -0.333 NA 
HETATM   18  N   UNL     1     -12.192  13.527  71.139  1.00  0.00    -0.281 NA 
ENDBRANCH   8  13
TORSDOF 1
ENDMDL
MODEL       68
REMARK 921   NORMALIZED FREE ENERGY PREDICTED BY IDOCK:   -4.66 KCAL/MOL
REMARK 922        TOTAL FREE ENERGY PREDICTED BY IDOCK:   -5.08 KCAL/MOL
REMARK 923 INTER-LIGAND FREE ENERGY PREDICTED BY IDOCK:   -4.92 KCAL/MOL
REMARK 924 INTRA-LIGAND FREE ENERGY PREDICTED BY IDOCK:   -0.16 KCAL/MOL
REMARK 927      BINDING AFFINITY PREDICTED BY RF-SCORE:    0.00 PKD
ROOT
HETATM    1  C   UNL     1      -7.784   8.216  64.444  1.00  0.00    -0.126 C  
HETATM    2  C   UNL     1      -8.684   9.399  64.276  1.00  0.00    -0.224 A  
HETATM    3  C   UNL     1      -8.943   9.960  63.084  1.00  0.00    -0.275 A  
HETATM    4  C   UNL     1      -9.869  11.051  62.963  1.00  0.00    -0.370 A  
HETATM    5  C   UNL     1     -10.504  11.509  64.047  1.00  0.00    -0.370 A  
HETATM    6  N   UNL     1     -10.260  10.994  65.314  1.00  0.00    -0.270 N  
HETATM    7  C   UNL     1     -10.989  11.499  66.390  1.00  0.00    -0.284 C  
HETATM    8  C   UNL     1     -10.571  11.032  67.740  1.00  0.00    -0.250 C  
HETATM    9  O   UNL     1     -11.950  12.259  66.250  1.00  0.00    -0.588 OA 
HETATM   10  C   UNL     1      -9.343   9.963  65.506  1.00  0.00    -0.223 A  
HETATM   11  C   UNL     1      -9.652  10.056  67.761  1.00  0.00    -0.148 C  
HETATM   12  N   UNL     1      -9.051   9.482  66.675  1.00  0.00    -0.145 NA 
ENDROOT
BRANCH   8  13
HETATM   13  C   UNL     1     -11.145  11.607  68.912  1.00  0.00    -0.232 A  
HETATM   14  N   UNL     1     -11.789  12.843  70.433  1.00  0.00    -0.546 NA 
HETATM   15  N   UNL     1     -11.037  12.887  69.320  1.00  0.00    -0.183 NA 
HETATM   16  H   UNL     1     -11.904  13.655  71.038  1.00  0.00     0.000 HD 
HETATM   17  N   UNL     1     -12.377  11.674  70.699  1.00  0.00    -0.363 NA 
HETATM   18  N   UNL     1     -11.975  10.871  69.724  1.00  0.00    -0.326 NA 
ENDBRANCH   8  13
TORSDOF 1
ENDMDL
MODEL       69
REMARK 921   NORMALIZED FREE ENERGY PREDICTED BY IDOCK:   -4.66 KCAL/MOL
REMARK 922        TOTAL FREE ENERGY PREDICTED BY IDOCK:   -5.07 KCAL/MOL
REMARK 923 INTER-LIGAND FREE ENERGY PREDICTED BY IDOCK:   -4.88 KCAL/MOL
REMARK 924 INTRA-LIGAND FREE ENERGY PREDICTED BY IDOCK:   -0.20 KCAL/MOL
REMARK 927      BINDING AFFINITY PREDICTED BY RF-SCORE:    0.00 PKD
ROOT
HETATM    1  C   UNL     1     -11.055  12.631  67.827  1.00  0.00    -0.287 C  
HETATM    2  C   UNL     1     -10.973  13.712  66.796  1.00  0.00    -0.297 A  
HETATM    3  C   UNL     1     -11.671  13.689  65.650  1.00  0.00    -0.360 A  
HETATM    4  C   UNL     1     -11.613  14.783  64.722  1.00  0.00    -0.418 A  
HETATM    5  C   UNL     1     -10.869  15.857  65.006  1.00  0.00    -0.426 A  
HETATM    6  N   UNL     1     -10.098  15.934  66.159  1.00  0.00    -0.293 N  
HETATM    7  C   UNL     1      -9.377  17.103  66.402  1.00  0.00    -0.262 C  
HETATM    8  C   UNL     1      -8.443  17.065  67.560  1.00  0.00    -0.208 C  
HETATM    9  O   UNL     1      -9.519  18.128  65.732  1.00  0.00    -0.483 OA 
HETATM   10  C   UNL     1     -10.078  14.889  67.080  1.00  0.00    -0.240 A  
HETATM   11  C   UNL     1      -8.519  15.976  68.337  1.00  0.00    -0.180 C  
HETATM   12  N   UNL     1      -9.339  14.898  68.147  1.00  0.00    -0.189 NA 
ENDROOT
BRANCH   8  13
HETATM   13  C   UNL     1      -7.546  18.149  67.799  1.00  0.00    -0.222 A  
HETATM   14  N   UNL     1      -5.962  19.469  67.853  1.00  0.00    -0.207 NA 
HETATM   15  N   UNL     1      -6.280  18.263  67.354  1.00  0.00    -0.174 NA 
HETATM   16  H   UNL     1      -5.033  19.873  67.738  1.00  0.00     0.000 HD 
HETATM   17  N   UNL     1      -6.934  20.107  68.509  1.00  0.00    -0.284 NA 
HETATM   18  N   UNL     1      -7.961  19.271  68.477  1.00  0.00    -0.349 NA 
ENDBRANCH   8  13
TORSDOF 1
ENDMDL
MODEL       70
REMARK 921   NORMALIZED FREE ENERGY PREDICTED BY IDOCK:   -4.64 KCAL/MOL
REMARK 922        TOTAL FREE ENERGY PREDICTED BY IDOCK:   -5.05 KCAL/MOL
REMARK 923 INTER-LIGAND FREE ENERGY PREDICTED BY IDOCK:   -4.97 KCAL/MOL
REMARK 924 INTRA-LIGAND FREE ENERGY PREDICTED BY IDOCK:   -0.09 KCAL/MOL
REMARK 927      BINDING AFFINITY PREDICTED BY RF-SCORE:    0.00 PKD
ROOT
HETATM    1  C   UNL     1     -11.927  14.133  66.769  1.00  0.00    -0.475 C  
HETATM    2  C   UNL     1     -10.459  14.202  67.047  1.00  0.00    -0.271 A  
HETATM    3  C   UNL     1      -9.732  13.139  67.427  1.00  0.00    -0.220 A  
HETATM    4  C   UNL     1      -8.312  13.238  67.614  1.00  0.00    -0.181 A  
HETATM    5  C   UNL     1      -7.691  14.400  67.388  1.00  0.00    -0.185 A  
HETATM    6  N   UNL     1      -8.386  15.547  67.023  1.00  0.00    -0.212 N  
HETATM    7  C   UNL     1      -7.662  16.712  66.770  1.00  0.00    -0.257 C  
HETATM    8  C   UNL     1      -8.466  17.945  66.548  1.00  0.00    -0.284 C  
HETATM    9  O   UNL     1      -6.431  16.733  66.695  1.00  0.00    -0.192 OA 
HETATM   10  C   UNL     1      -9.769  15.528  66.865  1.00  0.00    -0.233 A  
HETATM   11  C   UNL     1      -9.791  17.769  66.451  1.00  0.00    -0.324 C  
HETATM   12  N   UNL     1     -10.464  16.584  66.570  1.00  0.00    -0.294 NA 
ENDROOT
BRANCH   8  13
HETATM   13  C   UNL     1      -7.824  19.214  66.438  1.00  0.00    -0.284 A  
HETATM   14  N   UNL     1      -7.059  21.108  66.726  1.00  0.00    -0.667 NA 
HETATM   15  N   UNL     1      -7.834  20.206  67.351  1.00  0.00    -0.301 NA 
HETATM   16  H   UNL     1      -6.874  22.028  67.125  1.00  0.00     0.000 HD 
HETATM   17  N   UNL     1      -6.546  20.729  65.553  1.00  0.00    -0.198 NA 
HETATM   18  N   UNL     1      -7.026  19.510  65.358  1.00  0.00    -0.389 NA 
ENDBRANCH   8  13
TORSDOF 1
ENDMDL
MODEL       71
REMARK 921   NORMALIZED FREE ENERGY PREDICTED BY IDOCK:   -4.59 KCAL/MOL
REMARK 922        TOTAL FREE ENERGY PREDICTED BY IDOCK:   -5.00 KCAL/MOL
REMARK 923 INTER-LIGAND FREE ENERGY PREDICTED BY IDOCK:   -4.79 KCAL/MOL
REMARK 924 INTRA-LIGAND FREE ENERGY PREDICTED BY IDOCK:   -0.20 KCAL/MOL
REMARK 927      BINDING AFFINITY PREDICTED BY RF-SCORE:    0.00 PKD
ROOT
HETATM    1  C   UNL     1      -8.424  16.177  67.619  1.00  0.00    -0.178 C  
HETATM    2  C   UNL     1      -9.417  15.612  66.653  1.00  0.00    -0.282 A  
HETATM    3  C   UNL     1     -10.202  16.376  65.877  1.00  0.00    -0.379 A  
HETATM    4  C   UNL     1     -11.091  15.789  64.913  1.00  0.00    -0.411 A  
HETATM    5  C   UNL     1     -11.129  14.461  64.766  1.00  0.00    -0.394 A  
HETATM    6  N   UNL     1     -10.366  13.611  65.558  1.00  0.00    -0.299 N  
HETATM    7  C   UNL     1     -10.434  12.238  65.318  1.00  0.00    -0.282 C  
HETATM    8  C   UNL     1      -9.729  11.369  66.300  1.00  0.00    -0.239 C  
HETATM    9  O   UNL     1     -11.007  11.757  64.339  1.00  0.00    -0.307 OA 
HETATM   10  C   UNL     1      -9.515  14.115  66.538  1.00  0.00    -0.285 A  
HETATM   11  C   UNL     1      -8.973  12.004  67.206  1.00  0.00    -0.180 C  
HETATM   12  N   UNL     1      -8.819  13.358  67.330  1.00  0.00    -0.211 NA 
ENDROOT
BRANCH   8  13
HETATM   13  C   UNL     1      -9.868   9.951  66.236  1.00  0.00    -0.245 A  
HETATM   14  N   UNL     1      -9.690   7.932  65.854  1.00  0.00    -0.423 NA 
HETATM   15  N   UNL     1      -9.146   9.102  65.479  1.00  0.00    -0.211 NA 
HETATM   16  H   UNL     1      -9.401   7.046  65.440  1.00  0.00     0.000 HD 
HETATM   17  N   UNL     1     -10.629   7.997  66.800  1.00  0.00    -0.270 NA 
HETATM   18  N   UNL     1     -10.750   9.291  67.059  1.00  0.00    -0.196 NA 
ENDBRANCH   8  13
TORSDOF 1
ENDMDL
MODEL       72
REMARK 921   NORMALIZED FREE ENERGY PREDICTED BY IDOCK:   -4.58 KCAL/MOL
REMARK 922        TOTAL FREE ENERGY PREDICTED BY IDOCK:   -5.00 KCAL/MOL
REMARK 923 INTER-LIGAND FREE ENERGY PREDICTED BY IDOCK:   -5.28 KCAL/MOL
REMARK 924 INTRA-LIGAND FREE ENERGY PREDICTED BY IDOCK:    0.28 KCAL/MOL
REMARK 927      BINDING AFFINITY PREDICTED BY RF-SCORE:    0.00 PKD
ROOT
HETATM    1  C   UNL     1     -10.621   8.466  68.695  1.00  0.00    -0.149 C  
HETATM    2  C   UNL     1     -10.545   9.821  68.064  1.00  0.00    -0.291 A  
HETATM    3  C   UNL     1      -9.958  10.046  66.878  1.00  0.00    -0.263 A  
HETATM    4  C   UNL     1      -9.971  11.351  66.279  1.00  0.00    -0.259 A  
HETATM    5  C   UNL     1     -10.594  12.360  66.896  1.00  0.00    -0.229 A  
HETATM    6  N   UNL     1     -11.193  12.204  68.140  1.00  0.00    -0.246 N  
HETATM    7  C   UNL     1     -11.854  13.295  68.703  1.00  0.00    -0.345 C  
HETATM    8  C   UNL     1     -12.331  13.120  70.102  1.00  0.00    -0.284 C  
HETATM    9  O   UNL     1     -12.072  14.339  68.083  1.00  0.00    -0.323 OA 
HETATM   10  C   UNL     1     -11.180  10.974  68.793  1.00  0.00    -0.266 A  
HETATM   11  C   UNL     1     -12.221  11.882  70.605  1.00  0.00    -0.331 C  
HETATM   12  N   UNL     1     -11.688  10.792  69.974  1.00  0.00    -0.305 NA 
ENDROOT
BRANCH   8  13
HETATM   13  C   UNL     1     -12.877  14.224  70.822  1.00  0.00    -0.337 A  
HETATM   14  N   UNL     1     -13.527  16.067  71.478  1.00  0.00    -0.342 NA 
HETATM   15  N   UNL     1     -12.856  15.519  70.452  1.00  0.00    -0.365 NA 
HETATM   16  H   UNL     1     -13.674  17.074  71.550  1.00  0.00     0.000 HD 
HETATM   17  N   UNL     1     -13.992  15.218  72.397  1.00  0.00    -0.523 NA 
HETATM   18  N   UNL     1     -13.585  14.027  71.984  1.00  0.00    -0.420 NA 
ENDBRANCH   8  13
TORSDOF 1
ENDMDL
MODEL       73
REMARK 921   NORMALIZED FREE ENERGY PREDICTED BY IDOCK:   -4.56 KCAL/MOL
REMARK 922        TOTAL FREE ENERGY PREDICTED BY IDOCK:   -4.97 KCAL/MOL
REMARK 923 INTER-LIGAND FREE ENERGY PREDICTED BY IDOCK:   -4.84 KCAL/MOL
REMARK 924 INTRA-LIGAND FREE ENERGY PREDICTED BY IDOCK:   -0.13 KCAL/MOL
REMARK 927      BINDING AFFINITY PREDICTED BY RF-SCORE:    0.00 PKD
ROOT
HETATM    1  C   UNL     1     -11.725   7.653  72.572  1.00  0.00    -0.352 C  
HETATM    2  C   UNL     1     -11.133   7.286  71.248  1.00  0.00    -0.270 A  
HETATM    3  C   UNL     1     -10.671   6.058  70.965  1.00  0.00    -0.325 A  
HETATM    4  C   UNL     1     -10.175   5.734  69.657  1.00  0.00    -0.299 A  
HETATM    5  C   UNL     1     -10.189   6.660  68.692  1.00  0.00    -0.171 A  
HETATM    6  N   UNL     1     -10.625   7.958  68.925  1.00  0.00    -0.187 N  
HETATM    7  C   UNL     1     -10.643   8.856  67.858  1.00  0.00    -0.183 C  
HETATM    8  C   UNL     1     -10.958  10.270  68.199  1.00  0.00    -0.328 C  
HETATM    9  O   UNL     1     -10.449   8.512  66.690  1.00  0.00    -0.289 OA 
HETATM   10  C   UNL     1     -11.079   8.348  70.182  1.00  0.00    -0.182 A  
HETATM   11  C   UNL     1     -11.350  10.493  69.462  1.00  0.00    -0.278 C  
HETATM   12  N   UNL     1     -11.453   9.560  70.457  1.00  0.00    -0.271 NA 
ENDROOT
BRANCH   8  13
HETATM   13  C   UNL     1     -10.848  11.293  67.211  1.00  0.00    -0.267 A  
HETATM   14  N   UNL     1     -10.240  12.609  65.745  1.00  0.00    -0.269 NA 
HETATM   15  N   UNL     1      -9.739  11.643  66.531  1.00  0.00    -0.201 NA 
HETATM   16  H   UNL     1      -9.653  13.141  65.102  1.00  0.00     0.000 HD 
HETATM   17  N   UNL     1     -11.552  12.833  65.852  1.00  0.00    -0.360 NA 
HETATM   18  N   UNL     1     -11.957  11.988  66.789  1.00  0.00    -0.610 NA 
ENDBRANCH   8  13
TORSDOF 1
ENDMDL
MODEL       74
REMARK 921   NORMALIZED FREE ENERGY PREDICTED BY IDOCK:   -4.55 KCAL/MOL
REMARK 922        TOTAL FREE ENERGY PREDICTED BY IDOCK:   -4.96 KCAL/MOL
REMARK 923 INTER-LIGAND FREE ENERGY PREDICTED BY IDOCK:   -4.85 KCAL/MOL
REMARK 924 INTRA-LIGAND FREE ENERGY PREDICTED BY IDOCK:   -0.11 KCAL/MOL
REMARK 927      BINDING AFFINITY PREDICTED BY RF-SCORE:    0.00 PKD
ROOT
HETATM    1  C   UNL     1      -7.153  19.599  66.509  1.00  0.00    -0.231 C  
HETATM    2  C   UNL     1      -7.221  18.424  67.433  1.00  0.00    -0.210 A  
HETATM    3  C   UNL     1      -6.474  18.320  68.544  1.00  0.00    -0.222 A  
HETATM    4  C   UNL     1      -6.625  17.206  69.438  1.00  0.00    -0.220 A  
HETATM    5  C   UNL     1      -7.536  16.263  69.178  1.00  0.00    -0.227 A  
HETATM    6  N   UNL     1      -8.320  16.294  68.031  1.00  0.00    -0.163 N  
HETATM    7  C   UNL     1      -9.274  15.292  67.850  1.00  0.00    -0.184 C  
HETATM    8  C   UNL     1      -9.966  15.281  66.532  1.00  0.00    -0.278 C  
HETATM    9  O   UNL     1      -9.567  14.480  68.729  1.00  0.00    -0.210 OA 
HETATM   10  C   UNL     1      -8.194  17.325  67.104  1.00  0.00    -0.204 A  
HETATM   11  C   UNL     1      -9.716  16.327  65.732  1.00  0.00    -0.264 C  
HETATM   12  N   UNL     1      -8.873  17.370  65.998  1.00  0.00    -0.528 NA 
ENDROOT
BRANCH   8  13
HETATM   13  C   UNL     1     -10.841  14.209  66.186  1.00  0.00    -0.296 A  
HETATM   14  N   UNL     1     -12.385  12.851  66.026  1.00  0.00    -0.534 NA 
HETATM   15  N   UNL     1     -12.011  13.899  66.778  1.00  0.00    -0.421 NA 
HETATM   16  H   UNL     1     -13.237  12.324  66.219  1.00  0.00     0.000 HD 
HETATM   17  N   UNL     1     -11.576  12.539  65.010  1.00  0.00    -0.335 NA 
HETATM   18  N   UNL     1     -10.581  13.409  65.098  1.00  0.00    -0.326 NA 
ENDBRANCH   8  13
TORSDOF 1
ENDMDL
MODEL       75
REMARK 921   NORMALIZED FREE ENERGY PREDICTED BY IDOCK:   -4.52 KCAL/MOL
REMARK 922        TOTAL FREE ENERGY PREDICTED BY IDOCK:   -4.92 KCAL/MOL
REMARK 923 INTER-LIGAND FREE ENERGY PREDICTED BY IDOCK:   -4.71 KCAL/MOL
REMARK 924 INTRA-LIGAND FREE ENERGY PREDICTED BY IDOCK:   -0.21 KCAL/MOL
REMARK 927      BINDING AFFINITY PREDICTED BY RF-SCORE:    0.00 PKD
ROOT
HETATM    1  C   UNL     1     -11.736  15.905  64.212  1.00  0.00    -0.132 C  
HETATM    2  C   UNL     1     -10.633  15.460  65.120  1.00  0.00    -0.458 A  
HETATM    3  C   UNL     1      -9.838  16.314  65.783  1.00  0.00    -0.332 A  
HETATM    4  C   UNL     1      -8.838  15.840  66.698  1.00  0.00    -0.324 A  
HETATM    5  C   UNL     1      -8.704  14.528  66.915  1.00  0.00    -0.211 A  
HETATM    6  N   UNL     1      -9.473  13.588  66.240  1.00  0.00    -0.228 N  
HETATM    7  C   UNL     1      -9.299  12.239  66.549  1.00  0.00    -0.230 C  
HETATM    8  C   UNL     1     -10.025  11.272  65.682  1.00  0.00    -0.292 C  
HETATM    9  O   UNL     1      -8.618  11.853  67.502  1.00  0.00    -0.147 OA 
HETATM   10  C   UNL     1     -10.432  13.980  65.309  1.00  0.00    -0.382 A  
HETATM   11  C   UNL     1     -10.892  11.805  64.809  1.00  0.00    -0.302 C  
HETATM   12  N   UNL     1     -11.141  13.137  64.623  1.00  0.00    -0.328 NA 
ENDROOT
BRANCH   8  13
HETATM   13  C   UNL     1      -9.792   9.870  65.812  1.00  0.00    -0.287 A  
HETATM   14  N   UNL     1      -9.085   7.936  65.710  1.00  0.00    -0.370 NA 
HETATM   15  N   UNL     1      -8.845   9.147  65.183  1.00  0.00    -0.198 NA 
HETATM   16  H   UNL     1      -8.561   7.109  65.423  1.00  0.00     0.000 HD 
HETATM   17  N   UNL     1     -10.050   7.876  66.631  1.00  0.00    -0.261 NA 
HETATM   18  N   UNL     1     -10.509   9.116  66.710  1.00  0.00    -0.231 NA 
ENDBRANCH   8  13
TORSDOF 1
ENDMDL
MODEL       76
REMARK 921   NORMALIZED FREE ENERGY PREDICTED BY IDOCK:   -4.51 KCAL/MOL
REMARK 922        TOTAL FREE ENERGY PREDICTED BY IDOCK:   -4.91 KCAL/MOL
REMARK 923 INTER-LIGAND FREE ENERGY PREDICTED BY IDOCK:   -4.71 KCAL/MOL
REMARK 924 INTRA-LIGAND FREE ENERGY PREDICTED BY IDOCK:   -0.21 KCAL/MOL
REMARK 927      BINDING AFFINITY PREDICTED BY RF-SCORE:    0.00 PKD
ROOT
HETATM    1  C   UNL     1      -8.709  11.383  66.668  1.00  0.00    -0.178 C  
HETATM    2  C   UNL     1      -9.826  12.376  66.744  1.00  0.00    -0.228 A  
HETATM    3  C   UNL     1     -11.121  12.030  66.680  1.00  0.00    -0.358 A  
HETATM    4  C   UNL     1     -12.160  13.011  66.828  1.00  0.00    -0.366 A  
HETATM    5  C   UNL     1     -11.840  14.290  67.054  1.00  0.00    -0.428 A  
HETATM    6  N   UNL     1     -10.520  14.721  67.101  1.00  0.00    -0.263 N  
HETATM    7  C   UNL     1     -10.268  16.064  67.378  1.00  0.00    -0.273 C  
HETATM    8  C   UNL     1      -8.851  16.502  67.251  1.00  0.00    -0.206 C  
HETATM    9  O   UNL     1     -11.146  16.849  67.743  1.00  0.00    -0.267 OA 
HETATM   10  C   UNL     1      -9.467  13.827  66.924  1.00  0.00    -0.262 A  
HETATM   11  C   UNL     1      -7.954  15.526  67.048  1.00  0.00    -0.233 C  
HETATM   12  N   UNL     1      -8.221  14.191  66.915  1.00  0.00    -0.062 NA 
ENDROOT
BRANCH   8  13
HETATM   13  C   UNL     1      -8.510  17.883  67.357  1.00  0.00    -0.235 A  
HETATM   14  N   UNL     1      -7.973  19.775  67.976  1.00  0.00    -0.303 NA 
HETATM   15  N   UNL     1      -8.256  18.567  68.490  1.00  0.00    -0.332 NA 
HETATM   16  H   UNL     1      -7.762  20.578  68.569  1.00  0.00     0.000 HD 
HETATM   17  N   UNL     1      -7.983  19.864  66.645  1.00  0.00    -0.301 NA 
HETATM   18  N   UNL     1      -8.321  18.652  66.233  1.00  0.00    -0.413 NA 
ENDBRANCH   8  13
TORSDOF 1
ENDMDL
MODEL       77
REMARK 921   NORMALIZED FREE ENERGY PREDICTED BY IDOCK:   -4.50 KCAL/MOL
REMARK 922        TOTAL FREE ENERGY PREDICTED BY IDOCK:   -4.91 KCAL/MOL
REMARK 923 INTER-LIGAND FREE ENERGY PREDICTED BY IDOCK:   -4.70 KCAL/MOL
REMARK 924 INTRA-LIGAND FREE ENERGY PREDICTED BY IDOCK:   -0.21 KCAL/MOL
REMARK 927      BINDING AFFINITY PREDICTED BY RF-SCORE:    0.00 PKD
ROOT
HETATM    1  C   UNL     1      -6.571  17.053  69.391  1.00  0.00    -0.225 C  
HETATM    2  C   UNL     1      -6.627  15.736  68.682  1.00  0.00    -0.116 A  
HETATM    3  C   UNL     1      -5.622  14.847  68.703  1.00  0.00    -0.092 A  
HETATM    4  C   UNL     1      -5.749  13.567  68.065  1.00  0.00    -0.124 A  
HETATM    5  C   UNL     1      -6.893  13.238  67.455  1.00  0.00    -0.146 A  
HETATM    6  N   UNL     1      -7.961  14.123  67.370  1.00  0.00    -0.186 N  
HETATM    7  C   UNL     1      -9.134  13.692  66.749  1.00  0.00    -0.217 C  
HETATM    8  C   UNL     1     -10.180  14.730  66.538  1.00  0.00    -0.281 C  
HETATM    9  O   UNL     1      -9.326  12.520  66.420  1.00  0.00    -0.234 OA 
HETATM   10  C   UNL     1      -7.887  15.395  67.932  1.00  0.00    -0.133 A  
HETATM   11  C   UNL     1      -9.948  15.918  67.114  1.00  0.00    -0.240 C  
HETATM   12  N   UNL     1      -8.841  16.269  67.837  1.00  0.00    -0.182 NA 
ENDROOT
BRANCH   8  13
HETATM   13  C   UNL     1     -11.347  14.433  65.774  1.00  0.00    -0.330 A  
HETATM   14  N   UNL     1     -13.227  13.920  65.100  1.00  0.00    -0.690 NA 
HETATM   15  N   UNL     1     -12.526  13.980  66.244  1.00  0.00    -0.454 NA 
HETATM   16  H   UNL     1     -14.186  13.572  65.072  1.00  0.00     0.000 HD 
HETATM   17  N   UNL     1     -12.597  14.342  64.002  1.00  0.00    -0.763 NA 
HETATM   18  N   UNL     1     -11.387  14.680  64.422  1.00  0.00    -0.282 NA 
ENDBRANCH   8  13
TORSDOF 1
ENDMDL
MODEL       78
REMARK 921   NORMALIZED FREE ENERGY PREDICTED BY IDOCK:   -4.43 KCAL/MOL
REMARK 922        TOTAL FREE ENERGY PREDICTED BY IDOCK:   -4.83 KCAL/MOL
REMARK 923 INTER-LIGAND FREE ENERGY PREDICTED BY IDOCK:   -4.64 KCAL/MOL
REMARK 924 INTRA-LIGAND FREE ENERGY PREDICTED BY IDOCK:   -0.19 KCAL/MOL
REMARK 927      BINDING AFFINITY PREDICTED BY RF-SCORE:    0.00 PKD
ROOT
HETATM    1  C   UNL     1      -9.745  19.978  66.698  1.00  0.00    -0.566 C  
HETATM    2  C   UNL     1      -8.749  18.893  66.962  1.00  0.00    -0.305 A  
HETATM    3  C   UNL     1      -7.494  19.133  67.375  1.00  0.00    -0.254 A  
HETATM    4  C   UNL     1      -6.595  18.057  67.684  1.00  0.00    -0.191 A  
HETATM    5  C   UNL     1      -7.013  16.791  67.580  1.00  0.00    -0.135 A  
HETATM    6  N   UNL     1      -8.288  16.472  67.129  1.00  0.00    -0.170 N  
HETATM    7  C   UNL     1      -8.662  15.129  67.084  1.00  0.00    -0.216 C  
HETATM    8  C   UNL     1      -9.971  14.836  66.439  1.00  0.00    -0.291 C  
HETATM    9  O   UNL     1      -7.979  14.227  67.576  1.00  0.00    -0.162 OA 
HETATM   10  C   UNL     1      -9.195  17.468  66.775  1.00  0.00    -0.265 A  
HETATM   11  C   UNL     1     -10.718  15.904  66.124  1.00  0.00    -0.271 C  
HETATM   12  N   UNL     1     -10.378  17.216  66.307  1.00  0.00    -0.329 NA 
ENDROOT
BRANCH   8  13
HETATM   13  C   UNL     1     -10.372  13.488  66.200  1.00  0.00    -0.296 A  
HETATM   14  N   UNL     1     -10.579  11.540  65.556  1.00  0.00    -0.274 NA 
HETATM   15  N   UNL     1      -9.833  12.630  65.313  1.00  0.00    -0.178 NA 
HETATM   16  H   UNL     1     -10.467  10.679  65.021  1.00  0.00     0.000 HD 
HETATM   17  N   UNL     1     -11.476  11.650  66.538  1.00  0.00    -0.447 NA 
HETATM   18  N   UNL     1     -11.350  12.898  66.965  1.00  0.00    -0.293 NA 
ENDBRANCH   8  13
TORSDOF 1
ENDMDL
MODEL       79
REMARK 921   NORMALIZED FREE ENERGY PREDICTED BY IDOCK:   -4.42 KCAL/MOL
REMARK 922        TOTAL FREE ENERGY PREDICTED BY IDOCK:   -4.82 KCAL/MOL
REMARK 923 INTER-LIGAND FREE ENERGY PREDICTED BY IDOCK:   -4.72 KCAL/MOL
REMARK 924 INTRA-LIGAND FREE ENERGY PREDICTED BY IDOCK:   -0.11 KCAL/MOL
REMARK 927      BINDING AFFINITY PREDICTED BY RF-SCORE:    0.00 PKD
ROOT
HETATM    1  C   UNL     1      -9.691  13.542  66.703  1.00  0.00    -0.281 C  
HETATM    2  C   UNL     1      -9.197  12.305  67.384  1.00  0.00    -0.182 A  
HETATM    3  C   UNL     1      -7.996  11.760  67.135  1.00  0.00    -0.166 A  
HETATM    4  C   UNL     1      -7.536  10.612  67.865  1.00  0.00    -0.090 A  
HETATM    5  C   UNL     1      -8.302  10.083  68.825  1.00  0.00    -0.121 A  
HETATM    6  N   UNL     1      -9.568  10.579  69.112  1.00  0.00    -0.205 N  
HETATM    7  C   UNL     1     -10.291   9.996  70.153  1.00  0.00    -0.266 C  
HETATM    8  C   UNL     1     -11.698  10.454  70.306  1.00  0.00    -0.406 C  
HETATM    9  O   UNL     1      -9.800   9.176  70.932  1.00  0.00    -0.243 OA 
HETATM   10  C   UNL     1     -10.089  11.665  68.413  1.00  0.00    -0.206 A  
HETATM   11  C   UNL     1     -12.063  11.490  69.538  1.00  0.00    -0.284 C  
HETATM   12  N   UNL     1     -11.282  12.132  68.616  1.00  0.00    -0.247 NA 
ENDROOT
BRANCH   8  13
HETATM   13  C   UNL     1     -12.569   9.809  71.235  1.00  0.00    -0.365 A  
HETATM   14  N   UNL     1     -13.889   9.323  72.743  1.00  0.00    -0.860 NA 
HETATM   15  N   UNL     1     -13.220  10.385  72.265  1.00  0.00    -0.320 NA 
HETATM   16  H   UNL     1     -14.476   9.385  73.575  1.00  0.00     0.000 HD 
HETATM   17  N   UNL     1     -13.740   8.182  72.067  1.00  0.00    -0.320 NA 
HETATM   18  N   UNL     1     -12.898   8.482  71.089  1.00  0.00    -0.155 NA 
ENDBRANCH   8  13
TORSDOF 1
ENDMDL
MODEL       80
REMARK 921   NORMALIZED FREE ENERGY PREDICTED BY IDOCK:   -4.42 KCAL/MOL
REMARK 922        TOTAL FREE ENERGY PREDICTED BY IDOCK:   -4.82 KCAL/MOL
REMARK 923 INTER-LIGAND FREE ENERGY PREDICTED BY IDOCK:   -4.61 KCAL/MOL
REMARK 924 INTRA-LIGAND FREE ENERGY PREDICTED BY IDOCK:   -0.21 KCAL/MOL
REMARK 927      BINDING AFFINITY PREDICTED BY RF-SCORE:    0.00 PKD
ROOT
HETATM    1  C   UNL     1      -7.043  19.951  65.645  1.00  0.00    -0.337 C  
HETATM    2  C   UNL     1      -8.285  19.504  66.349  1.00  0.00    -0.347 A  
HETATM    3  C   UNL     1      -9.256  20.348  66.733  1.00  0.00    -0.404 A  
HETATM    4  C   UNL     1     -10.463  19.864  67.343  1.00  0.00    -0.542 A  
HETATM    5  C   UNL     1     -10.640  18.550  67.516  1.00  0.00    -0.423 A  
HETATM    6  N   UNL     1      -9.664  17.624  67.170  1.00  0.00    -0.282 N  
HETATM    7  C   UNL     1      -9.939  16.269  67.348  1.00  0.00    -0.249 C  
HETATM    8  C   UNL     1      -8.802  15.336  67.119  1.00  0.00    -0.232 C  
HETATM    9  O   UNL     1     -11.059  15.846  67.642  1.00  0.00    -0.323 OA 
HETATM   10  C   UNL     1      -8.454  18.031  66.612  1.00  0.00    -0.262 A  
HETATM   11  C   UNL     1      -7.690  15.885  66.608  1.00  0.00    -0.164 C  
HETATM   12  N   UNL     1      -7.497  17.207  66.315  1.00  0.00    -0.304 NA 
ENDROOT
BRANCH   8  13
HETATM   13  C   UNL     1      -8.933  13.949  67.425  1.00  0.00    -0.210 A  
HETATM   14  N   UNL     1      -9.185  11.903  67.396  1.00  0.00    -0.173 NA 
HETATM   15  N   UNL     1      -9.231  12.956  66.565  1.00  0.00    -0.218 NA 
HETATM   16  H   UNL     1      -9.402  10.957  67.082  1.00  0.00     0.000 HD 
HETATM   17  N   UNL     1      -8.837  12.165  68.658  1.00  0.00    -0.070 NA 
HETATM   18  N   UNL     1      -8.666  13.478  68.689  1.00  0.00    -0.068 NA 
ENDBRANCH   8  13
TORSDOF 1
ENDMDL
MODEL       81
REMARK 921   NORMALIZED FREE ENERGY PREDICTED BY IDOCK:   -4.41 KCAL/MOL
REMARK 922        TOTAL FREE ENERGY PREDICTED BY IDOCK:   -4.81 KCAL/MOL
REMARK 923 INTER-LIGAND FREE ENERGY PREDICTED BY IDOCK:   -4.60 KCAL/MOL
REMARK 924 INTRA-LIGAND FREE ENERGY PREDICTED BY IDOCK:   -0.21 KCAL/MOL
REMARK 927      BINDING AFFINITY PREDICTED BY RF-SCORE:    0.00 PKD
ROOT
HETATM    1  C   UNL     1      -5.812   9.730  67.910  1.00  0.00    -0.040 C  
HETATM    2  C   UNL     1      -6.450  11.064  68.137  1.00  0.00    -0.057 A  
HETATM    3  C   UNL     1      -5.967  11.971  69.001  1.00  0.00    -0.068 A  
HETATM    4  C   UNL     1      -6.573  13.266  69.134  1.00  0.00    -0.105 A  
HETATM    5  C   UNL     1      -7.625  13.590  68.374  1.00  0.00    -0.133 A  
HETATM    6  N   UNL     1      -8.194  12.688  67.483  1.00  0.00    -0.166 N  
HETATM    7  C   UNL     1      -9.266  13.113  66.700  1.00  0.00    -0.215 C  
HETATM    8  C   UNL     1      -9.939  12.062  65.889  1.00  0.00    -0.260 C  
HETATM    9  O   UNL     1      -9.627  14.290  66.640  1.00  0.00    -0.266 OA 
HETATM   10  C   UNL     1      -7.679  11.402  67.336  1.00  0.00    -0.135 A  
HETATM   11  C   UNL     1      -9.340  10.863  65.873  1.00  0.00    -0.200 C  
HETATM   12  N   UNL     1      -8.204  10.513  66.551  1.00  0.00    -0.128 NA 
ENDROOT
BRANCH   8  13
HETATM   13  C   UNL     1     -11.140  12.358  65.177  1.00  0.00    -0.309 A  
HETATM   14  N   UNL     1     -13.082  12.694  64.571  1.00  0.00    -0.820 NA 
HETATM   15  N   UNL     1     -12.399  12.273  65.648  1.00  0.00    -0.563 NA 
HETATM   16  H   UNL     1     -14.101  12.724  64.556  1.00  0.00     0.000 HD 
HETATM   17  N   UNL     1     -12.349  13.071  63.521  1.00  0.00    -0.725 NA 
HETATM   18  N   UNL     1     -11.096  12.865  63.900  1.00  0.00    -0.414 NA 
ENDBRANCH   8  13
TORSDOF 1
ENDMDL
MODEL       82
REMARK 921   NORMALIZED FREE ENERGY PREDICTED BY IDOCK:   -4.39 KCAL/MOL
REMARK 922        TOTAL FREE ENERGY PREDICTED BY IDOCK:   -4.79 KCAL/MOL
REMARK 923 INTER-LIGAND FREE ENERGY PREDICTED BY IDOCK:   -4.58 KCAL/MOL
REMARK 924 INTRA-LIGAND FREE ENERGY PREDICTED BY IDOCK:   -0.21 KCAL/MOL
REMARK 927      BINDING AFFINITY PREDICTED BY RF-SCORE:    0.00 PKD
ROOT
HETATM    1  C   UNL     1     -11.477  12.180  69.403  1.00  0.00    -0.355 C  
HETATM    2  C   UNL     1     -11.923  11.097  70.334  1.00  0.00    -0.469 A  
HETATM    3  C   UNL     1     -12.822  11.294  71.312  1.00  0.00    -0.491 A  
HETATM    4  C   UNL     1     -13.272  10.207  72.136  1.00  0.00    -0.463 A  
HETATM    5  C   UNL     1     -12.809   8.972  71.919  1.00  0.00    -0.387 A  
HETATM    6  N   UNL     1     -11.856   8.704  70.944  1.00  0.00    -0.264 N  
HETATM    7  C   UNL     1     -11.450   7.383  70.754  1.00  0.00    -0.288 C  
HETATM    8  C   UNL     1     -10.312   7.178  69.818  1.00  0.00    -0.224 C  
HETATM    9  O   UNL     1     -12.012   6.426  71.292  1.00  0.00    -0.326 OA 
HETATM   10  C   UNL     1     -11.348   9.720  70.139  1.00  0.00    -0.251 A  
HETATM   11  C   UNL     1      -9.912   8.261  69.137  1.00  0.00    -0.196 C  
HETATM   12  N   UNL     1     -10.425   9.525  69.248  1.00  0.00    -0.205 NA 
ENDROOT
BRANCH   8  13
HETATM   13  C   UNL     1      -9.719   5.888  69.675  1.00  0.00    -0.158 A  
HETATM   14  N   UNL     1      -8.629   4.148  69.867  1.00  0.00    -0.067 NA 
HETATM   15  N   UNL     1      -8.750   5.355  70.444  1.00  0.00    -0.127 NA 
HETATM   16  H   UNL     1      -7.936   3.467  70.179  1.00  0.00     0.000 HD 
HETATM   17  N   UNL     1      -9.469   3.891  68.862  1.00  0.00    -0.170 NA 
HETATM   18  N   UNL     1     -10.180   5.000  68.732  1.00  0.00    -0.136 NA 
ENDBRANCH   8  13
TORSDOF 1
ENDMDL
MODEL       83
REMARK 921   NORMALIZED FREE ENERGY PREDICTED BY IDOCK:   -4.39 KCAL/MOL
REMARK 922        TOTAL FREE ENERGY PREDICTED BY IDOCK:   -4.78 KCAL/MOL
REMARK 923 INTER-LIGAND FREE ENERGY PREDICTED BY IDOCK:   -4.61 KCAL/MOL
REMARK 924 INTRA-LIGAND FREE ENERGY PREDICTED BY IDOCK:   -0.17 KCAL/MOL
REMARK 927      BINDING AFFINITY PREDICTED BY RF-SCORE:    0.00 PKD
ROOT
HETATM    1  C   UNL     1      -9.198   6.311  67.866  1.00  0.00    -0.116 C  
HETATM    2  C   UNL     1      -9.872   7.490  68.494  1.00  0.00    -0.170 A  
HETATM    3  C   UNL     1     -10.271   7.511  69.776  1.00  0.00    -0.211 A  
HETATM    4  C   UNL     1     -10.849   8.691  70.354  1.00  0.00    -0.250 A  
HETATM    5  C   UNL     1     -10.978   9.799  69.616  1.00  0.00    -0.241 A  
HETATM    6  N   UNL     1     -10.615   9.836  68.276  1.00  0.00    -0.220 N  
HETATM    7  C   UNL     1     -10.746  11.040  67.584  1.00  0.00    -0.238 C  
HETATM    8  C   UNL     1     -10.501  10.980  66.117  1.00  0.00    -0.301 C  
HETATM    9  O   UNL     1     -11.012  12.107  68.141  1.00  0.00    -0.207 OA 
HETATM   10  C   UNL     1     -10.086   8.714  67.644  1.00  0.00    -0.213 A  
HETATM   11  C   UNL     1     -10.023   9.818  65.652  1.00  0.00    -0.282 C  
HETATM   12  N   UNL     1      -9.774   8.689  66.384  1.00  0.00    -0.249 NA 
ENDROOT
BRANCH   8  13
HETATM   13  C   UNL     1     -10.762  12.116  65.295  1.00  0.00    -0.288 A  
HETATM   14  N   UNL     1     -10.712  13.904  64.267  1.00  0.00    -0.585 NA 
HETATM   15  N   UNL     1      -9.998  13.220  65.177  1.00  0.00    -0.206 NA 
HETATM   16  H   UNL     1     -10.438  14.836  63.956  1.00  0.00     0.000 HD 
HETATM   17  N   UNL     1     -11.799  13.292  63.793  1.00  0.00    -0.468 NA 
HETATM   18  N   UNL     1     -11.840  12.137  64.442  1.00  0.00    -0.365 NA 
ENDBRANCH   8  13
TORSDOF 1
ENDMDL
MODEL       84
REMARK 921   NORMALIZED FREE ENERGY PREDICTED BY IDOCK:   -4.37 KCAL/MOL
REMARK 922        TOTAL FREE ENERGY PREDICTED BY IDOCK:   -4.77 KCAL/MOL
REMARK 923 INTER-LIGAND FREE ENERGY PREDICTED BY IDOCK:   -5.25 KCAL/MOL
REMARK 924 INTRA-LIGAND FREE ENERGY PREDICTED BY IDOCK:    0.48 KCAL/MOL
REMARK 927      BINDING AFFINITY PREDICTED BY RF-SCORE:    0.00 PKD
ROOT
HETATM    1  C   UNL     1      -9.527  15.752  65.871  1.00  0.00    -0.377 C  
HETATM    2  C   UNL     1      -9.937  16.014  67.286  1.00  0.00    -0.242 A  
HETATM    3  C   UNL     1      -9.783  17.206  67.885  1.00  0.00    -0.270 A  
HETATM    4  C   UNL     1     -10.257  17.431  69.222  1.00  0.00    -0.204 A  
HETATM    5  C   UNL     1     -10.880  16.448  69.881  1.00  0.00    -0.333 A  
HETATM    6  N   UNL     1     -11.044  15.182  69.332  1.00  0.00    -0.260 N  
HETATM    7  C   UNL     1     -11.738  14.222  70.068  1.00  0.00    -0.298 C  
HETATM    8  C   UNL     1     -11.738  12.844  69.505  1.00  0.00    -0.387 C  
HETATM    9  O   UNL     1     -12.350  14.486  71.105  1.00  0.00    -0.304 OA 
HETATM   10  C   UNL     1     -10.572  14.888  68.055  1.00  0.00    -0.248 A  
HETATM   11  C   UNL     1     -11.217  12.714  68.277  1.00  0.00    -0.272 C  
HETATM   12  N   UNL     1     -10.663  13.709  67.520  1.00  0.00    -0.258 NA 
ENDROOT
BRANCH   8  13
HETATM   13  C   UNL     1     -12.282  11.759  70.256  1.00  0.00    -0.299 A  
HETATM   14  N   UNL     1     -12.933   9.933  70.959  1.00  0.00    -0.474 NA 
HETATM   15  N   UNL     1     -12.400  10.478  69.854  1.00  0.00    -0.236 NA 
HETATM   16  H   UNL     1     -13.198   8.949  71.002  1.00  0.00     0.000 HD 
HETATM   17  N   UNL     1     -13.095  10.754  71.999  1.00  0.00    -0.464 NA 
HETATM   18  N   UNL     1     -12.674  11.932  71.562  1.00  0.00    -0.322 NA 
ENDBRANCH   8  13
TORSDOF 1
ENDMDL
MODEL       85
REMARK 921   NORMALIZED FREE ENERGY PREDICTED BY IDOCK:   -4.33 KCAL/MOL
REMARK 922        TOTAL FREE ENERGY PREDICTED BY IDOCK:   -4.72 KCAL/MOL
REMARK 923 INTER-LIGAND FREE ENERGY PREDICTED BY IDOCK:   -5.04 KCAL/MOL
REMARK 924 INTRA-LIGAND FREE ENERGY PREDICTED BY IDOCK:    0.32 KCAL/MOL
REMARK 927      BINDING AFFINITY PREDICTED BY RF-SCORE:    0.00 PKD
ROOT
HETATM    1  C   UNL     1     -11.332   7.455  70.997  1.00  0.00    -0.298 C  
HETATM    2  C   UNL     1     -10.961   8.216  69.763  1.00  0.00    -0.133 A  
HETATM    3  C   UNL     1     -10.372   7.647  68.699  1.00  0.00    -0.220 A  
HETATM    4  C   UNL     1     -10.097   8.403  67.510  1.00  0.00    -0.279 A  
HETATM    5  C   UNL     1     -10.450   9.691  67.444  1.00  0.00    -0.257 A  
HETATM    6  N   UNL     1     -11.034  10.349  68.520  1.00  0.00    -0.238 N  
HETATM    7  C   UNL     1     -11.406  11.684  68.360  1.00  0.00    -0.279 C  
HETATM    8  C   UNL     1     -11.872  12.383  69.589  1.00  0.00    -0.380 C  
HETATM    9  O   UNL     1     -11.393  12.257  67.269  1.00  0.00    -0.286 OA 
HETATM   10  C   UNL     1     -11.290   9.684  69.716  1.00  0.00    -0.120 A  
HETATM   11  C   UNL     1     -12.038  11.611  70.673  1.00  0.00    -0.335 C  
HETATM   12  N   UNL     1     -11.792  10.269  70.760  1.00  0.00    -0.336 NA 
ENDROOT
BRANCH   8  13
HETATM   13  C   UNL     1     -12.124  13.787  69.569  1.00  0.00    -0.334 A  
HETATM   14  N   UNL     1     -12.729  15.722  69.943  1.00  0.00    -0.553 NA 
HETATM   15  N   UNL     1     -12.893  14.482  70.431  1.00  0.00    -0.322 NA 
HETATM   16  H   UNL     1     -13.213  16.527  70.342  1.00  0.00     0.000 HD 
HETATM   17  N   UNL     1     -11.897  15.841  68.906  1.00  0.00    -0.389 NA 
HETATM   18  N   UNL     1     -11.496  14.603  68.659  1.00  0.00    -0.285 NA 
ENDBRANCH   8  13
TORSDOF 1
ENDMDL
MODEL       86
REMARK 921   NORMALIZED FREE ENERGY PREDICTED BY IDOCK:   -4.32 KCAL/MOL
REMARK 922        TOTAL FREE ENERGY PREDICTED BY IDOCK:   -4.72 KCAL/MOL
REMARK 923 INTER-LIGAND FREE ENERGY PREDICTED BY IDOCK:   -4.69 KCAL/MOL
REMARK 924 INTRA-LIGAND FREE ENERGY PREDICTED BY IDOCK:   -0.03 KCAL/MOL
REMARK 927      BINDING AFFINITY PREDICTED BY RF-SCORE:    0.00 PKD
ROOT
HETATM    1  C   UNL     1      -7.140  12.078  67.276  1.00  0.00    -0.149 C  
HETATM    2  C   UNL     1      -8.569  12.425  67.553  1.00  0.00    -0.177 A  
HETATM    3  C   UNL     1      -9.178  13.501  67.030  1.00  0.00    -0.248 A  
HETATM    4  C   UNL     1     -10.572  13.755  67.269  1.00  0.00    -0.275 A  
HETATM    5  C   UNL     1     -11.287  12.899  68.006  1.00  0.00    -0.292 A  
HETATM    6  N   UNL     1     -10.712  11.783  68.602  1.00  0.00    -0.213 N  
HETATM    7  C   UNL     1     -11.533  10.919  69.327  1.00  0.00    -0.302 C  
HETATM    8  C   UNL     1     -10.839   9.837  70.079  1.00  0.00    -0.319 C  
HETATM    9  O   UNL     1     -12.762  11.006  69.327  1.00  0.00    -0.280 OA 
HETATM   10  C   UNL     1      -9.357  11.502  68.444  1.00  0.00    -0.194 A  
HETATM   11  C   UNL     1      -9.525   9.713  69.845  1.00  0.00    -0.231 C  
HETATM   12  N   UNL     1      -8.769  10.498  69.018  1.00  0.00    -0.154 NA 
ENDROOT
BRANCH   8  13
HETATM   13  C   UNL     1     -11.568   8.999  70.974  1.00  0.00    -0.300 A  
HETATM   14  N   UNL     1     -12.822   8.201  72.403  1.00  0.00    -0.557 NA 
HETATM   15  N   UNL     1     -12.446   9.395  71.916  1.00  0.00    -0.381 NA 
HETATM   16  H   UNL     1     -13.475   8.117  73.182  1.00  0.00     0.000 HD 
HETATM   17  N   UNL     1     -12.292   7.130  71.807  1.00  0.00    -0.336 NA 
HETATM   18  N   UNL     1     -11.487   7.630  70.881  1.00  0.00    -0.280 NA 
ENDBRANCH   8  13
TORSDOF 1
ENDMDL
MODEL       87
REMARK 921   NORMALIZED FREE ENERGY PREDICTED BY IDOCK:   -4.30 KCAL/MOL
REMARK 922        TOTAL FREE ENERGY PREDICTED BY IDOCK:   -4.69 KCAL/MOL
REMARK 923 INTER-LIGAND FREE ENERGY PREDICTED BY IDOCK:   -4.50 KCAL/MOL
REMARK 924 INTRA-LIGAND FREE ENERGY PREDICTED BY IDOCK:   -0.20 KCAL/MOL
REMARK 927      BINDING AFFINITY PREDICTED BY RF-SCORE:    0.00 PKD
ROOT
HETATM    1  C   UNL     1     -13.093  11.452  71.469  1.00  0.00    -0.438 C  
HETATM    2  C   UNL     1     -12.304  10.235  71.102  1.00  0.00    -0.501 A  
HETATM    3  C   UNL     1     -12.220   9.150  71.889  1.00  0.00    -0.449 A  
HETATM    4  C   UNL     1     -11.508   7.977  71.463  1.00  0.00    -0.303 A  
HETATM    5  C   UNL     1     -10.934   7.949  70.256  1.00  0.00    -0.248 A  
HETATM    6  N   UNL     1     -10.956   9.048  69.405  1.00  0.00    -0.131 N  
HETATM    7  C   UNL     1     -10.366   8.928  68.147  1.00  0.00    -0.212 C  
HETATM    8  C   UNL     1     -10.272  10.179  67.348  1.00  0.00    -0.267 C  
HETATM    9  O   UNL     1      -9.972   7.851  67.693  1.00  0.00    -0.159 OA 
HETATM   10  C   UNL     1     -11.595  10.229  69.775  1.00  0.00    -0.227 A  
HETATM   11  C   UNL     1     -10.912  11.244  67.852  1.00  0.00    -0.248 C  
HETATM   12  N   UNL     1     -11.602  11.293  69.032  1.00  0.00    -0.289 NA 
ENDROOT
BRANCH   8  13
HETATM   13  C   UNL     1      -9.548  10.198  66.119  1.00  0.00    -0.203 A  
HETATM   14  N   UNL     1      -8.935  10.282  64.152  1.00  0.00    -0.216 NA 
HETATM   15  N   UNL     1     -10.065  10.267  64.877  1.00  0.00    -0.326 NA 
HETATM   16  H   UNL     1      -8.948  10.294  63.132  1.00  0.00     0.000 HD 
HETATM   17  N   UNL     1      -7.793  10.282  64.843  1.00  0.00    -0.147 NA 
HETATM   18  N   UNL     1      -8.173  10.234  66.112  1.00  0.00    -0.132 NA 
ENDBRANCH   8  13
TORSDOF 1
ENDMDL
MODEL       88
REMARK 921   NORMALIZED FREE ENERGY PREDICTED BY IDOCK:   -4.30 KCAL/MOL
REMARK 922        TOTAL FREE ENERGY PREDICTED BY IDOCK:   -4.69 KCAL/MOL
REMARK 923 INTER-LIGAND FREE ENERGY PREDICTED BY IDOCK:   -4.87 KCAL/MOL
REMARK 924 INTRA-LIGAND FREE ENERGY PREDICTED BY IDOCK:    0.18 KCAL/MOL
REMARK 927      BINDING AFFINITY PREDICTED BY RF-SCORE:    0.00 PKD
ROOT
HETATM    1  C   UNL     1     -10.492  15.649  65.602  1.00  0.00    -0.402 C  
HETATM    2  C   UNL     1     -10.928  15.140  66.940  1.00  0.00    -0.323 A  
HETATM    3  C   UNL     1     -11.357  15.944  67.926  1.00  0.00    -0.252 A  
HETATM    4  C   UNL     1     -11.833  15.404  69.169  1.00  0.00    -0.357 A  
HETATM    5  C   UNL     1     -11.871  14.080  69.349  1.00  0.00    -0.333 A  
HETATM    6  N   UNL     1     -11.413  13.193  68.382  1.00  0.00    -0.292 N  
HETATM    7  C   UNL     1     -11.520  11.825  68.629  1.00  0.00    -0.288 C  
HETATM    8  C   UNL     1     -10.865  10.929  67.637  1.00  0.00    -0.317 C  
HETATM    9  O   UNL     1     -12.146  11.364  69.586  1.00  0.00    -0.308 OA 
HETATM   10  C   UNL     1     -10.902  13.653  67.170  1.00  0.00    -0.285 A  
HETATM   11  C   UNL     1     -10.390  11.526  66.535  1.00  0.00    -0.232 C  
HETATM   12  N   UNL     1     -10.422  12.865  66.258  1.00  0.00    -0.266 NA 
ENDROOT
BRANCH   8  13
HETATM   13  C   UNL     1     -10.779   9.526  67.879  1.00  0.00    -0.228 A  
HETATM   14  N   UNL     1     -10.661   7.471  67.750  1.00  0.00    -0.436 NA 
HETATM   15  N   UNL     1     -10.808   8.544  66.956  1.00  0.00    -0.112 NA 
HETATM   16  H   UNL     1     -10.676   6.520  67.380  1.00  0.00     0.000 HD 
HETATM   17  N   UNL     1     -10.496   7.720  69.050  1.00  0.00    -0.217 NA 
HETATM   18  N   UNL     1     -10.564   9.040  69.147  1.00  0.00    -0.224 NA 
ENDBRANCH   8  13
TORSDOF 1
ENDMDL
MODEL       89
REMARK 921   NORMALIZED FREE ENERGY PREDICTED BY IDOCK:   -4.28 KCAL/MOL
REMARK 922        TOTAL FREE ENERGY PREDICTED BY IDOCK:   -4.68 KCAL/MOL
REMARK 923 INTER-LIGAND FREE ENERGY PREDICTED BY IDOCK:   -4.50 KCAL/MOL
REMARK 924 INTRA-LIGAND FREE ENERGY PREDICTED BY IDOCK:   -0.18 KCAL/MOL
REMARK 927      BINDING AFFINITY PREDICTED BY RF-SCORE:    0.00 PKD
ROOT
HETATM    1  C   UNL     1     -11.633  12.411  67.734  1.00  0.00    -0.413 C  
HETATM    2  C   UNL     1     -11.649  12.219  66.250  1.00  0.00    -0.446 A  
HETATM    3  C   UNL     1     -12.506  12.857  65.436  1.00  0.00    -0.511 A  
HETATM    4  C   UNL     1     -12.437  12.695  64.011  1.00  0.00    -0.487 A  
HETATM    5  C   UNL     1     -11.494  11.913  63.475  1.00  0.00    -0.430 A  
HETATM    6  N   UNL     1     -10.596  11.200  64.261  1.00  0.00    -0.357 N  
HETATM    7  C   UNL     1      -9.618  10.435  63.626  1.00  0.00    -0.310 C  
HETATM    8  C   UNL     1      -8.794   9.565  64.509  1.00  0.00    -0.249 C  
HETATM    9  O   UNL     1      -9.409  10.488  62.412  1.00  0.00    -0.265 OA 
HETATM   10  C   UNL     1     -10.635  11.282  65.650  1.00  0.00    -0.244 A  
HETATM   11  C   UNL     1      -8.970   9.737  65.827  1.00  0.00    -0.160 C  
HETATM   12  N   UNL     1      -9.847  10.600  66.424  1.00  0.00    -0.203 NA 
ENDROOT
BRANCH   8  13
HETATM   13  C   UNL     1      -7.876   8.629  63.947  1.00  0.00    -0.147 A  
HETATM   14  N   UNL     1      -6.924   6.978  63.159  1.00  0.00    -0.055 NA 
HETATM   15  N   UNL     1      -8.103   7.323  63.703  1.00  0.00    -0.062 NA 
HETATM   16  H   UNL     1      -6.720   6.019  62.878  1.00  0.00     0.000 HD 
HETATM   17  N   UNL     1      -6.036   7.962  63.007  1.00  0.00    -0.067 NA 
HETATM   18  N   UNL     1      -6.638   9.032  63.505  1.00  0.00    -0.089 NA 
ENDBRANCH   8  13
TORSDOF 1
ENDMDL
MODEL       90
REMARK 921   NORMALIZED FREE ENERGY PREDICTED BY IDOCK:   -4.26 KCAL/MOL
REMARK 922        TOTAL FREE ENERGY PREDICTED BY IDOCK:   -4.65 KCAL/MOL
REMARK 923 INTER-LIGAND FREE ENERGY PREDICTED BY IDOCK:   -4.72 KCAL/MOL
REMARK 924 INTRA-LIGAND FREE ENERGY PREDICTED BY IDOCK:    0.07 KCAL/MOL
REMARK 927      BINDING AFFINITY PREDICTED BY RF-SCORE:    0.00 PKD
ROOT
HETATM    1  C   UNL     1     -11.744  12.319  69.385  1.00  0.00    -0.392 C  
HETATM    2  C   UNL     1     -11.318  10.997  68.829  1.00  0.00    -0.349 A  
HETATM    3  C   UNL     1     -11.040  10.803  67.529  1.00  0.00    -0.374 A  
HETATM    4  C   UNL     1     -10.567   9.533  67.053  1.00  0.00    -0.271 A  
HETATM    5  C   UNL     1     -10.376   8.529  67.915  1.00  0.00    -0.223 A  
HETATM    6  N   UNL     1     -10.672   8.653  69.267  1.00  0.00    -0.183 N  
HETATM    7  C   UNL     1     -10.411   7.571  70.108  1.00  0.00    -0.216 C  
HETATM    8  C   UNL     1     -10.900   7.700  71.508  1.00  0.00    -0.256 C  
HETATM    9  O   UNL     1      -9.783   6.576  69.743  1.00  0.00    -0.158 OA 
HETATM   10  C   UNL     1     -11.173   9.845  69.785  1.00  0.00    -0.235 A  
HETATM   11  C   UNL     1     -11.387   8.901  71.848  1.00  0.00    -0.376 C  
HETATM   12  N   UNL     1     -11.506   9.992  71.031  1.00  0.00    -0.374 NA 
ENDROOT
BRANCH   8  13
HETATM   13  C   UNL     1     -10.825   6.591  72.403  1.00  0.00    -0.233 A  
HETATM   14  N   UNL     1     -10.792   4.734  73.298  1.00  0.00    -0.253 NA 
HETATM   15  N   UNL     1     -11.018   5.293  72.098  1.00  0.00    -0.199 NA 
HETATM   16  H   UNL     1     -10.889   3.731  73.453  1.00  0.00     0.000 HD 
HETATM   17  N   UNL     1     -10.431   5.568  74.276  1.00  0.00    -0.274 NA 
HETATM   18  N   UNL     1     -10.443   6.766  73.712  1.00  0.00    -0.353 NA 
ENDBRANCH   8  13
TORSDOF 1
ENDMDL
MODEL       91
REMARK 921   NORMALIZED FREE ENERGY PREDICTED BY IDOCK:   -4.23 KCAL/MOL
REMARK 922        TOTAL FREE ENERGY PREDICTED BY IDOCK:   -4.62 KCAL/MOL
REMARK 923 INTER-LIGAND FREE ENERGY PREDICTED BY IDOCK:   -4.51 KCAL/MOL
REMARK 924 INTRA-LIGAND FREE ENERGY PREDICTED BY IDOCK:   -0.11 KCAL/MOL
REMARK 927      BINDING AFFINITY PREDICTED BY RF-SCORE:    0.00 PKD
ROOT
HETATM    1  C   UNL     1     -10.206   9.121  66.499  1.00  0.00    -0.322 C  
HETATM    2  C   UNL     1     -10.733   9.665  67.789  1.00  0.00    -0.316 A  
HETATM    3  C   UNL     1     -11.231  10.906  67.913  1.00  0.00    -0.387 A  
HETATM    4  C   UNL     1     -11.790  11.360  69.155  1.00  0.00    -0.413 A  
HETATM    5  C   UNL     1     -11.839  10.534  70.205  1.00  0.00    -0.320 A  
HETATM    6  N   UNL     1     -11.314   9.248  70.154  1.00  0.00    -0.210 N  
HETATM    7  C   UNL     1     -11.436   8.434  71.279  1.00  0.00    -0.280 C  
HETATM    8  C   UNL     1     -10.713   7.134  71.226  1.00  0.00    -0.245 C  
HETATM    9  O   UNL     1     -12.127   8.738  72.254  1.00  0.00    -0.366 OA 
HETATM   10  C   UNL     1     -10.721   8.761  68.991  1.00  0.00    -0.112 A  
HETATM   11  C   UNL     1     -10.164   6.818  70.045  1.00  0.00    -0.191 C  
HETATM   12  N   UNL     1     -10.179   7.584  68.912  1.00  0.00    -0.203 NA 
ENDROOT
BRANCH   8  13
HETATM   13  C   UNL     1     -10.643   6.300  72.381  1.00  0.00    -0.211 A  
HETATM   14  N   UNL     1     -10.729   4.766  73.757  1.00  0.00    -0.271 NA 
HETATM   15  N   UNL     1     -11.087   5.032  72.490  1.00  0.00    -0.189 NA 
HETATM   16  H   UNL     1     -10.948   3.876  74.204  1.00  0.00     0.000 HD 
HETATM   17  N   UNL     1     -10.068   5.733  74.397  1.00  0.00    -0.257 NA 
HETATM   18  N   UNL     1     -10.001   6.725  73.521  1.00  0.00    -0.214 NA 
ENDBRANCH   8  13
TORSDOF 1
ENDMDL
MODEL       92
REMARK 921   NORMALIZED FREE ENERGY PREDICTED BY IDOCK:   -4.23 KCAL/MOL
REMARK 922        TOTAL FREE ENERGY PREDICTED BY IDOCK:   -4.61 KCAL/MOL
REMARK 923 INTER-LIGAND FREE ENERGY PREDICTED BY IDOCK:   -4.40 KCAL/MOL
REMARK 924 INTRA-LIGAND FREE ENERGY PREDICTED BY IDOCK:   -0.22 KCAL/MOL
REMARK 927      BINDING AFFINITY PREDICTED BY RF-SCORE:    0.00 PKD
ROOT
HETATM    1  C   UNL     1      -9.732  17.869  67.357  1.00  0.00    -0.288 C  
HETATM    2  C   UNL     1     -10.376  16.890  66.426  1.00  0.00    -0.302 A  
HETATM    3  C   UNL     1     -10.842  17.228  65.213  1.00  0.00    -0.001 A  
HETATM    4  C   UNL     1     -11.389  16.240  64.326  1.00  0.00    -0.012 A  
HETATM    5  C   UNL     1     -11.420  14.956  64.698  1.00  0.00    -0.379 A  
HETATM    6  N   UNL     1     -10.982  14.543  65.951  1.00  0.00    -0.313 N  
HETATM    7  C   UNL     1     -11.012  13.181  66.250  1.00  0.00    -0.280 C  
HETATM    8  C   UNL     1     -10.691  12.815  67.657  1.00  0.00    -0.236 C  
HETATM    9  O   UNL     1     -11.252  12.315  65.406  1.00  0.00    -0.307 OA 
HETATM   10  C   UNL     1     -10.479  15.457  66.873  1.00  0.00    -0.295 A  
HETATM   11  C   UNL     1     -10.249  13.813  68.434  1.00  0.00    -0.248 C  
HETATM   12  N   UNL     1     -10.101  15.123  68.069  1.00  0.00    -0.221 NA 
ENDROOT
BRANCH   8  13
HETATM   13  C   UNL     1     -10.847  11.469  68.105  1.00  0.00    -0.215 A  
HETATM   14  N   UNL     1     -11.535   9.644  68.774  1.00  0.00    -0.434 NA 
HETATM   15  N   UNL     1     -11.988  10.881  68.514  1.00  0.00    -0.527 NA 
HETATM   16  H   UNL     1     -12.141   8.915  69.151  1.00  0.00     0.000 HD 
HETATM   17  N   UNL     1     -10.245   9.423  68.510  1.00  0.00    -0.192 NA 
HETATM   18  N   UNL     1      -9.791  10.589  68.073  1.00  0.00    -0.146 NA 
ENDBRANCH   8  13
TORSDOF 1
ENDMDL
MODEL       93
REMARK 921   NORMALIZED FREE ENERGY PREDICTED BY IDOCK:   -4.19 KCAL/MOL
REMARK 922        TOTAL FREE ENERGY PREDICTED BY IDOCK:   -4.58 KCAL/MOL
REMARK 923 INTER-LIGAND FREE ENERGY PREDICTED BY IDOCK:   -4.37 KCAL/MOL
REMARK 924 INTRA-LIGAND FREE ENERGY PREDICTED BY IDOCK:   -0.20 KCAL/MOL
REMARK 927      BINDING AFFINITY PREDICTED BY RF-SCORE:    0.00 PKD
ROOT
HETATM    1  C   UNL     1      -8.809   4.722  70.191  1.00  0.00    -0.130 C  
HETATM    2  C   UNL     1      -9.744   5.602  70.960  1.00  0.00    -0.221 A  
HETATM    3  C   UNL     1     -10.302   5.239  72.126  1.00  0.00    -0.268 A  
HETATM    4  C   UNL     1     -11.138   6.144  72.863  1.00  0.00    -0.281 A  
HETATM    5  C   UNL     1     -11.354   7.379  72.397  1.00  0.00    -0.297 A  
HETATM    6  N   UNL     1     -10.833   7.809  71.183  1.00  0.00    -0.232 N  
HETATM    7  C   UNL     1     -11.072   9.123  70.783  1.00  0.00    -0.275 C  
HETATM    8  C   UNL     1     -10.635   9.477  69.405  1.00  0.00    -0.235 C  
HETATM    9  O   UNL     1     -11.581   9.966  71.525  1.00  0.00    -0.373 OA 
HETATM   10  C   UNL     1     -10.047   6.966  70.400  1.00  0.00    -0.187 A  
HETATM   11  C   UNL     1      -9.914   8.546  68.764  1.00  0.00    -0.186 C  
HETATM   12  N   UNL     1      -9.578   7.308  69.240  1.00  0.00    -0.156 NA 
ENDROOT
BRANCH   8  13
HETATM   13  C   UNL     1     -10.973  10.744  68.843  1.00  0.00    -0.241 A  
HETATM   14  N   UNL     1     -11.866  12.350  67.907  1.00  0.00    -0.411 NA 
HETATM   15  N   UNL     1     -12.078  11.042  68.131  1.00  0.00    -0.563 NA 
HETATM   16  H   UNL     1     -12.507  12.912  67.347  1.00  0.00     0.000 HD 
HETATM   17  N   UNL     1     -10.769  12.871  68.461  1.00  0.00    -0.249 NA 
HETATM   18  N   UNL     1     -10.188  11.849  69.072  1.00  0.00    -0.068 NA 
ENDBRANCH   8  13
TORSDOF 1
ENDMDL
MODEL       94
REMARK 921   NORMALIZED FREE ENERGY PREDICTED BY IDOCK:   -4.09 KCAL/MOL
REMARK 922        TOTAL FREE ENERGY PREDICTED BY IDOCK:   -4.47 KCAL/MOL
REMARK 923 INTER-LIGAND FREE ENERGY PREDICTED BY IDOCK:   -4.26 KCAL/MOL
REMARK 924 INTRA-LIGAND FREE ENERGY PREDICTED BY IDOCK:   -0.22 KCAL/MOL
REMARK 927      BINDING AFFINITY PREDICTED BY RF-SCORE:    0.00 PKD
ROOT
HETATM    1  C   UNL     1     -11.353  11.540  69.676  1.00  0.00    -0.329 C  
HETATM    2  C   UNL     1     -11.836  10.521  70.659  1.00  0.00    -0.458 A  
HETATM    3  C   UNL     1     -13.054  10.564  71.222  1.00  0.00    -0.478 A  
HETATM    4  C   UNL     1     -13.501   9.525  72.107  1.00  0.00    -0.535 A  
HETATM    5  C   UNL     1     -12.704   8.483  72.365  1.00  0.00    -0.337 A  
HETATM    6  N   UNL     1     -11.420   8.391  71.840  1.00  0.00    -0.295 N  
HETATM    7  C   UNL     1     -10.664   7.254  72.126  1.00  0.00    -0.219 C  
HETATM    8  C   UNL     1      -9.245   7.285  71.679  1.00  0.00    -0.155 C  
HETATM    9  O   UNL     1     -11.135   6.259  72.681  1.00  0.00    -0.242 OA 
HETATM   10  C   UNL     1     -10.912   9.385  71.008  1.00  0.00    -0.338 A  
HETATM   11  C   UNL     1      -8.897   8.326  70.910  1.00  0.00    -0.150 C  
HETATM   12  N   UNL     1      -9.705   9.363  70.532  1.00  0.00    -0.256 NA 
ENDROOT
BRANCH   8  13
HETATM   13  C   UNL     1      -8.346   6.244  72.059  1.00  0.00    -0.110 A  
HETATM   14  N   UNL     1      -7.024   4.985  73.018  1.00  0.00    -0.076 NA 
HETATM   15  N   UNL     1      -7.650   6.158  73.209  1.00  0.00    -0.096 NA 
HETATM   16  H   UNL     1      -6.362   4.609  73.696  1.00  0.00     0.000 HD 
HETATM   17  N   UNL     1      -7.320   4.339  71.887  1.00  0.00    -0.066 NA 
HETATM   18  N   UNL     1      -8.174   5.136  71.263  1.00  0.00    -0.115 NA 
ENDBRANCH   8  13
TORSDOF 1
ENDMDL
MODEL       95
REMARK 921   NORMALIZED FREE ENERGY PREDICTED BY IDOCK:   -4.09 KCAL/MOL
REMARK 922        TOTAL FREE ENERGY PREDICTED BY IDOCK:   -4.47 KCAL/MOL
REMARK 923 INTER-LIGAND FREE ENERGY PREDICTED BY IDOCK:   -4.26 KCAL/MOL
REMARK 924 INTRA-LIGAND FREE ENERGY PREDICTED BY IDOCK:   -0.21 KCAL/MOL
REMARK 927      BINDING AFFINITY PREDICTED BY RF-SCORE:    0.00 PKD
ROOT
HETATM    1  C   UNL     1     -10.556   5.982  70.494  1.00  0.00    -0.329 C  
HETATM    2  C   UNL     1     -10.078   6.359  69.127  1.00  0.00    -0.194 A  
HETATM    3  C   UNL     1      -9.464   5.497  68.301  1.00  0.00    -0.137 A  
HETATM    4  C   UNL     1      -9.086   5.885  66.971  1.00  0.00    -0.116 A  
HETATM    5  C   UNL     1      -9.365   7.117  66.533  1.00  0.00    -0.164 A  
HETATM    6  N   UNL     1      -9.970   8.067  67.346  1.00  0.00    -0.187 N  
HETATM    7  C   UNL     1     -10.262   9.319  66.804  1.00  0.00    -0.255 C  
HETATM    8  C   UNL     1     -10.754  10.346  67.762  1.00  0.00    -0.327 C  
HETATM    9  O   UNL     1     -10.159   9.568  65.601  1.00  0.00    -0.285 OA 
HETATM   10  C   UNL     1     -10.325   7.767  68.659  1.00  0.00    -0.199 A  
HETATM   11  C   UNL     1     -11.020   9.910  69.001  1.00  0.00    -0.190 C  
HETATM   12  N   UNL     1     -10.851   8.636  69.468  1.00  0.00    -0.181 NA 
ENDROOT
BRANCH   8  13
HETATM   13  C   UNL     1     -10.930  11.698  67.342  1.00  0.00    -0.261 A  
HETATM   14  N   UNL     1     -10.718  13.685  66.833  1.00  0.00    -0.274 NA 
HETATM   15  N   UNL     1     -10.003  12.676  67.357  1.00  0.00    -0.203 NA 
HETATM   16  H   UNL     1     -10.330  14.623  66.726  1.00  0.00     0.000 HD 
HETATM   17  N   UNL     1     -11.964  13.390  66.459  1.00  0.00    -0.393 NA 
HETATM   18  N   UNL     1     -12.113  12.113  66.776  1.00  0.00    -0.565 NA 
ENDBRANCH   8  13
TORSDOF 1
ENDMDL
MODEL       96
REMARK 921   NORMALIZED FREE ENERGY PREDICTED BY IDOCK:   -4.09 KCAL/MOL
REMARK 922        TOTAL FREE ENERGY PREDICTED BY IDOCK:   -4.47 KCAL/MOL
REMARK 923 INTER-LIGAND FREE ENERGY PREDICTED BY IDOCK:   -4.31 KCAL/MOL
REMARK 924 INTRA-LIGAND FREE ENERGY PREDICTED BY IDOCK:   -0.16 KCAL/MOL
REMARK 927      BINDING AFFINITY PREDICTED BY RF-SCORE:    0.00 PKD
ROOT
HETATM    1  C   UNL     1     -10.320  19.607  65.945  1.00  0.00    -0.584 C  
HETATM    2  C   UNL     1      -9.254  19.201  66.913  1.00  0.00    -0.348 A  
HETATM    3  C   UNL     1      -8.581  20.078  67.675  1.00  0.00    -0.385 A  
HETATM    4  C   UNL     1      -7.616  19.635  68.641  1.00  0.00    -0.366 A  
HETATM    5  C   UNL     1      -7.392  18.327  68.807  1.00  0.00    -0.284 A  
HETATM    6  N   UNL     1      -8.031  17.368  68.031  1.00  0.00    -0.217 N  
HETATM    7  C   UNL     1      -7.771  16.022  68.289  1.00  0.00    -0.142 C  
HETATM    8  C   UNL     1      -8.351  15.049  67.324  1.00  0.00    -0.228 C  
HETATM    9  O   UNL     1      -7.133  15.640  69.272  1.00  0.00    -0.161 OA 
HETATM   10  C   UNL     1      -8.948  17.733  67.048  1.00  0.00    -0.252 A  
HETATM   11  C   UNL     1      -9.192  15.559  66.413  1.00  0.00    -0.305 C  
HETATM   12  N   UNL     1      -9.534  16.876  66.271  1.00  0.00    -0.323 NA 
ENDROOT
BRANCH   8  13
HETATM   13  C   UNL     1      -8.015  13.665  67.405  1.00  0.00    -0.166 A  
HETATM   14  N   UNL     1      -7.085  11.825  67.451  1.00  0.00    -0.116 NA 
HETATM   15  N   UNL     1      -6.798  13.117  67.222  1.00  0.00    -0.121 NA 
HETATM   16  H   UNL     1      -6.381  11.091  67.361  1.00  0.00     0.000 HD 
HETATM   17  N   UNL     1      -8.344  11.556  67.804  1.00  0.00    -0.131 NA 
HETATM   18  N   UNL     1      -8.952  12.733  67.784  1.00  0.00    -0.180 NA 
ENDBRANCH   8  13
TORSDOF 1
ENDMDL
MODEL       97
REMARK 921   NORMALIZED FREE ENERGY PREDICTED BY IDOCK:   -4.08 KCAL/MOL
REMARK 922        TOTAL FREE ENERGY PREDICTED BY IDOCK:   -4.46 KCAL/MOL
REMARK 923 INTER-LIGAND FREE ENERGY PREDICTED BY IDOCK:   -4.26 KCAL/MOL
REMARK 924 INTRA-LIGAND FREE ENERGY PREDICTED BY IDOCK:   -0.20 KCAL/MOL
REMARK 927      BINDING AFFINITY PREDICTED BY RF-SCORE:    0.00 PKD
ROOT
HETATM    1  C   UNL     1      -9.812  12.138  65.764  1.00  0.00    -0.264 C  
HETATM    2  C   UNL     1      -9.687  10.665  65.994  1.00  0.00    -0.258 A  
HETATM    3  C   UNL     1      -9.224   9.813  65.064  1.00  0.00    -0.307 A  
HETATM    4  C   UNL     1      -9.056   8.417  65.354  1.00  0.00    -0.050 A  
HETATM    5  C   UNL     1      -9.343   7.952  66.574  1.00  0.00    -0.200 A  
HETATM    6  N   UNL     1      -9.854   8.772  67.573  1.00  0.00    -0.168 N  
HETATM    7  C   UNL     1     -10.094   8.219  68.831  1.00  0.00    -0.199 C  
HETATM    8  C   UNL     1     -10.794   9.098  69.807  1.00  0.00    -0.224 C  
HETATM    9  O   UNL     1      -9.723   7.086  69.146  1.00  0.00    -0.155 OA 
HETATM   10  C   UNL     1     -10.079  10.127  67.343  1.00  0.00    -0.205 A  
HETATM   11  C   UNL     1     -10.968  10.371  69.427  1.00  0.00    -0.251 C  
HETATM   12  N   UNL     1     -10.597  10.920  68.231  1.00  0.00    -0.178 NA 
ENDROOT
BRANCH   8  13
HETATM   13  C   UNL     1     -11.226   8.579  71.064  1.00  0.00    -0.268 A  
HETATM   14  N   UNL     1     -12.242   7.708  72.633  1.00  0.00    -0.566 NA 
HETATM   15  N   UNL     1     -12.425   8.032  71.342  1.00  0.00    -0.312 NA 
HETATM   16  H   UNL     1     -12.984   7.293  73.196  1.00  0.00     0.000 HD 
HETATM   17  N   UNL     1     -11.032   7.962  73.136  1.00  0.00    -0.338 NA 
HETATM   18  N   UNL     1     -10.366   8.517  72.135  1.00  0.00    -0.322 NA 
ENDBRANCH   8  13
TORSDOF 1
ENDMDL
MODEL       98
REMARK 921   NORMALIZED FREE ENERGY PREDICTED BY IDOCK:   -4.08 KCAL/MOL
REMARK 922        TOTAL FREE ENERGY PREDICTED BY IDOCK:   -4.46 KCAL/MOL
REMARK 923 INTER-LIGAND FREE ENERGY PREDICTED BY IDOCK:   -4.25 KCAL/MOL
REMARK 924 INTRA-LIGAND FREE ENERGY PREDICTED BY IDOCK:   -0.20 KCAL/MOL
REMARK 927      BINDING AFFINITY PREDICTED BY RF-SCORE:    0.00 PKD
ROOT
HETATM    1  C   UNL     1      -6.807   9.599  67.453  1.00  0.00    -0.083 C  
HETATM    2  C   UNL     1      -7.915   8.594  67.409  1.00  0.00    -0.102 A  
HETATM    3  C   UNL     1      -7.985   7.619  66.488  1.00  0.00    -0.106 A  
HETATM    4  C   UNL     1      -9.030   6.634  66.529  1.00  0.00    -0.155 A  
HETATM    5  C   UNL     1      -9.940   6.669  67.507  1.00  0.00    -0.135 A  
HETATM    6  N   UNL     1      -9.944   7.669  68.473  1.00  0.00    -0.174 N  
HETATM    7  C   UNL     1     -10.905   7.616  69.482  1.00  0.00    -0.165 C  
HETATM    8  C   UNL     1     -10.967   8.796  70.387  1.00  0.00    -0.262 C  
HETATM    9  O   UNL     1     -11.643   6.643  69.653  1.00  0.00    -0.324 OA 
HETATM   10  C   UNL     1      -8.983   8.677  68.466  1.00  0.00    -0.139 A  
HETATM   11  C   UNL     1      -9.988   9.699  70.237  1.00  0.00    -0.270 C  
HETATM   12  N   UNL     1      -8.974   9.654  69.320  1.00  0.00    -0.160 NA 
ENDROOT
BRANCH   8  13
HETATM   13  C   UNL     1     -12.013   8.912  71.350  1.00  0.00    -0.311 A  
HETATM   14  N   UNL     1     -13.220   8.839  73.020  1.00  0.00    -0.854 NA 
HETATM   15  N   UNL     1     -12.035   8.379  72.587  1.00  0.00    -0.360 NA 
HETATM   16  H   UNL     1     -13.592   8.594  73.938  1.00  0.00     0.000 HD 
HETATM   17  N   UNL     1     -13.883   9.637  72.180  1.00  0.00    -0.318 NA 
HETATM   18  N   UNL     1     -13.114   9.697  71.103  1.00  0.00    -0.336 NA 
ENDBRANCH   8  13
TORSDOF 1
ENDMDL
MODEL       99
REMARK 921   NORMALIZED FREE ENERGY PREDICTED BY IDOCK:   -4.06 KCAL/MOL
REMARK 922        TOTAL FREE ENERGY PREDICTED BY IDOCK:   -4.44 KCAL/MOL
REMARK 923 INTER-LIGAND FREE ENERGY PREDICTED BY IDOCK:   -4.23 KCAL/MOL
REMARK 924 INTRA-LIGAND FREE ENERGY PREDICTED BY IDOCK:   -0.21 KCAL/MOL
REMARK 927      BINDING AFFINITY PREDICTED BY RF-SCORE:    0.00 PKD
ROOT
HETATM    1  C   UNL     1      -7.136  14.640  67.576  1.00  0.00    -0.203 C  
HETATM    2  C   UNL     1      -8.613  14.413  67.508  1.00  0.00    -0.199 A  
HETATM    3  C   UNL     1      -9.475  15.325  67.030  1.00  0.00    -0.235 A  
HETATM    4  C   UNL     1     -10.877  15.034  66.919  1.00  0.00    -0.315 A  
HETATM    5  C   UNL     1     -11.338  13.831  67.277  1.00  0.00    -0.321 A  
HETATM    6  N   UNL     1     -10.506  12.853  67.809  1.00  0.00    -0.217 N  
HETATM    7  C   UNL     1     -11.056  11.611  68.124  1.00  0.00    -0.242 C  
HETATM    8  C   UNL     1     -10.160  10.664  68.841  1.00  0.00    -0.215 C  
HETATM    9  O   UNL     1     -12.201  11.285  67.804  1.00  0.00    -0.504 OA 
HETATM   10  C   UNL     1      -9.144  13.086  67.980  1.00  0.00    -0.210 A  
HETATM   11  C   UNL     1      -8.880  11.044  68.957  1.00  0.00    -0.058 C  
HETATM   12  N   UNL     1      -8.338  12.220  68.514  1.00  0.00    -0.126 NA 
ENDROOT
BRANCH   8  13
HETATM   13  C   UNL     1     -10.670   9.431  69.348  1.00  0.00    -0.217 A  
HETATM   14  N   UNL     1     -11.226   7.473  69.674  1.00  0.00    -0.453 NA 
HETATM   15  N   UNL     1     -10.656   8.236  68.727  1.00  0.00    -0.171 NA 
HETATM   16  H   UNL     1     -11.415   6.481  69.527  1.00  0.00     0.000 HD 
HETATM   17  N   UNL     1     -11.529   8.087  70.820  1.00  0.00    -0.278 NA 
HETATM   18  N   UNL     1     -11.171   9.348  70.625  1.00  0.00    -0.265 NA 
ENDBRANCH   8  13
TORSDOF 1
ENDMDL
MODEL      100
REMARK 921   NORMALIZED FREE ENERGY PREDICTED BY IDOCK:   -4.05 KCAL/MOL
REMARK 922        TOTAL FREE ENERGY PREDICTED BY IDOCK:   -4.43 KCAL/MOL
REMARK 923 INTER-LIGAND FREE ENERGY PREDICTED BY IDOCK:   -4.31 KCAL/MOL
REMARK 924 INTRA-LIGAND FREE ENERGY PREDICTED BY IDOCK:   -0.13 KCAL/MOL
REMARK 927      BINDING AFFINITY PREDICTED BY RF-SCORE:    0.00 PKD
ROOT
HETATM    1  C   UNL     1      -9.378  16.152  66.062  1.00  0.00    -0.368 C  
HETATM    2  C   UNL     1     -10.300  15.020  65.734  1.00  0.00    -0.354 A  
HETATM    3  C   UNL     1     -11.054  14.985  64.623  1.00  0.00    -0.335 A  
HETATM    4  C   UNL     1     -11.871  13.845  64.316  1.00  0.00    -0.441 A  
HETATM    5  C   UNL     1     -11.871  12.786  65.133  1.00  0.00    -0.391 A  
HETATM    6  N   UNL     1     -11.138  12.769  66.314  1.00  0.00    -0.280 N  
HETATM    7  C   UNL     1     -11.161  11.613  67.095  1.00  0.00    -0.299 C  
HETATM    8  C   UNL     1     -10.496  11.710  68.423  1.00  0.00    -0.230 C  
HETATM    9  O   UNL     1     -11.664  10.556  66.711  1.00  0.00     0.160 OA 
HETATM   10  C   UNL     1     -10.357  13.859  66.690  1.00  0.00    -0.278 A  
HETATM   11  C   UNL     1      -9.809  12.838  68.652  1.00  0.00    -0.063 C  
HETATM   12  N   UNL     1      -9.693  13.905  67.804  1.00  0.00    -0.220 NA 
ENDROOT
BRANCH   8  13
HETATM   13  C   UNL     1     -10.600  10.640  69.361  1.00  0.00    -0.239 A  
HETATM   14  N   UNL     1     -11.088   9.369  70.910  1.00  0.00    -0.290 NA 
HETATM   15  N   UNL     1     -11.386  10.597  70.454  1.00  0.00    -0.317 NA 
HETATM   16  H   UNL     1     -11.487   9.002  71.774  1.00  0.00     0.000 HD 
HETATM   17  N   UNL     1     -10.241   8.656  70.165  1.00  0.00    -0.188 NA 
HETATM   18  N   UNL     1      -9.922   9.460  69.162  1.00  0.00    -0.175 NA 
ENDBRANCH   8  13
TORSDOF 1
ENDMDL
MODEL      101
REMARK 921   NORMALIZED FREE ENERGY PREDICTED BY IDOCK:   -4.03 KCAL/MOL
REMARK 922        TOTAL FREE ENERGY PREDICTED BY IDOCK:   -4.41 KCAL/MOL
REMARK 923 INTER-LIGAND FREE ENERGY PREDICTED BY IDOCK:   -4.20 KCAL/MOL
REMARK 924 INTRA-LIGAND FREE ENERGY PREDICTED BY IDOCK:   -0.21 KCAL/MOL
REMARK 927      BINDING AFFINITY PREDICTED BY RF-SCORE:    0.00 PKD
ROOT
HETATM    1  C   UNL     1      -7.100  16.457  69.098  1.00  0.00    -0.224 C  
HETATM    2  C   UNL     1      -8.476  16.166  68.588  1.00  0.00    -0.216 A  
HETATM    3  C   UNL     1      -9.489  17.044  68.668  1.00  0.00    -0.274 A  
HETATM    4  C   UNL     1     -10.775  16.747  68.102  1.00  0.00    -0.361 A  
HETATM    5  C   UNL     1     -10.970  15.588  67.464  1.00  0.00    -0.316 A  
HETATM    6  N   UNL     1      -9.974  14.623  67.372  1.00  0.00    -0.230 N  
HETATM    7  C   UNL     1     -10.243  13.455  66.659  1.00  0.00    -0.274 C  
HETATM    8  C   UNL     1      -9.205  12.391  66.733  1.00  0.00    -0.212 C  
HETATM    9  O   UNL     1     -11.257  13.308  65.972  1.00  0.00    -0.292 OA 
HETATM   10  C   UNL     1      -8.718  14.832  67.935  1.00  0.00    -0.167 A  
HETATM   11  C   UNL     1      -8.059  12.734  67.338  1.00  0.00    -0.185 C  
HETATM   12  N   UNL     1      -7.773  13.942  67.913  1.00  0.00    -0.143 NA 
ENDROOT
BRANCH   8  13
HETATM   13  C   UNL     1      -9.452  11.102  66.173  1.00  0.00    -0.204 A  
HETATM   14  N   UNL     1      -9.574   9.420  64.985  1.00  0.00    -0.453 NA 
HETATM   15  N   UNL     1      -9.146  10.692  64.926  1.00  0.00    -0.196 NA 
HETATM   16  H   UNL     1      -9.532   8.799  64.178  1.00  0.00     0.000 HD 
HETATM   17  N   UNL     1     -10.057   9.018  66.163  1.00  0.00    -0.256 NA 
HETATM   18  N   UNL     1      -9.979  10.089  66.938  1.00  0.00    -0.199 NA 
ENDBRANCH   8  13
TORSDOF 1
ENDMDL
MODEL      102
REMARK 921   NORMALIZED FREE ENERGY PREDICTED BY IDOCK:   -3.97 KCAL/MOL
REMARK 922        TOTAL FREE ENERGY PREDICTED BY IDOCK:   -4.34 KCAL/MOL
REMARK 923 INTER-LIGAND FREE ENERGY PREDICTED BY IDOCK:   -4.36 KCAL/MOL
REMARK 924 INTRA-LIGAND FREE ENERGY PREDICTED BY IDOCK:    0.01 KCAL/MOL
REMARK 927      BINDING AFFINITY PREDICTED BY RF-SCORE:    0.00 PKD
ROOT
HETATM    1  C   UNL     1      -9.720   4.441  65.170  1.00  0.00    -0.186 C  
HETATM    2  C   UNL     1      -9.545   3.857  66.537  1.00  0.00    -0.211 A  
HETATM    3  C   UNL     1      -8.958   2.670  66.759  1.00  0.00    -0.160 A  
HETATM    4  C   UNL     1      -8.748   2.184  68.094  1.00  0.00    -0.126 A  
HETATM    5  C   UNL     1      -9.123   2.928  69.139  1.00  0.00    -0.135 A  
HETATM    6  N   UNL     1      -9.763   4.151  68.980  1.00  0.00    -0.157 N  
HETATM    7  C   UNL     1     -10.090   4.884  70.121  1.00  0.00    -0.261 C  
HETATM    8  C   UNL     1     -10.919   6.100  69.899  1.00  0.00    -0.458 C  
HETATM    9  O   UNL     1      -9.695   4.581  71.248  1.00  0.00    -0.161 OA 
HETATM   10  C   UNL     1     -10.033   4.660  67.713  1.00  0.00    -0.092 A  
HETATM   11  C   UNL     1     -11.120   6.446  68.620  1.00  0.00    -0.311 C  
HETATM   12  N   UNL     1     -10.668   5.775  67.517  1.00  0.00    -0.255 NA 
ENDROOT
BRANCH   8  13
HETATM   13  C   UNL     1     -11.439   6.831  71.009  1.00  0.00    -0.324 A  
HETATM   14  N   UNL     1     -12.611   7.731  72.447  1.00  0.00    -0.534 NA 
HETATM   15  N   UNL     1     -12.737   7.016  71.317  1.00  0.00    -0.379 NA 
HETATM   16  H   UNL     1     -13.421   8.090  72.952  1.00  0.00     0.000 HD 
HETATM   17  N   UNL     1     -11.363   7.946  72.870  1.00  0.00    -0.401 NA 
HETATM   18  N   UNL     1     -10.599   7.366  71.957  1.00  0.00    -0.205 NA 
ENDBRANCH   8  13
TORSDOF 1
ENDMDL
MODEL      103
REMARK 921   NORMALIZED FREE ENERGY PREDICTED BY IDOCK:   -3.92 KCAL/MOL
REMARK 922        TOTAL FREE ENERGY PREDICTED BY IDOCK:   -4.29 KCAL/MOL
REMARK 923 INTER-LIGAND FREE ENERGY PREDICTED BY IDOCK:   -4.29 KCAL/MOL
REMARK 924 INTRA-LIGAND FREE ENERGY PREDICTED BY IDOCK:   -0.00 KCAL/MOL
REMARK 927      BINDING AFFINITY PREDICTED BY RF-SCORE:    0.00 PKD
ROOT
HETATM    1  C   UNL     1     -11.707   8.870  72.181  1.00  0.00    -0.411 C  
HETATM    2  C   UNL     1     -11.604   9.492  70.825  1.00  0.00    -0.378 A  
HETATM    3  C   UNL     1     -11.909  10.777  70.581  1.00  0.00    -0.460 A  
HETATM    4  C   UNL     1     -11.727  11.349  69.277  1.00  0.00    -0.404 A  
HETATM    5  C   UNL     1     -11.227  10.603  68.287  1.00  0.00    -0.301 A  
HETATM    6  N   UNL     1     -10.919   9.259  68.462  1.00  0.00    -0.062 N  
HETATM    7  C   UNL     1     -10.367   8.557  67.390  1.00  0.00    -0.286 C  
HETATM    8  C   UNL     1     -10.214   7.089  67.581  1.00  0.00    -0.245 C  
HETATM    9  O   UNL     1      -9.988   9.107  66.354  1.00  0.00    -0.259 OA 
HETATM   10  C   UNL     1     -11.111   8.633  69.691  1.00  0.00    -0.013 A  
HETATM   11  C   UNL     1     -10.468   6.631  68.815  1.00  0.00    -0.213 C  
HETATM   12  N   UNL     1     -10.880   7.372  69.888  1.00  0.00    -0.250 NA 
ENDROOT
BRANCH   8  13
HETATM   13  C   UNL     1      -9.808   6.259  66.494  1.00  0.00    -0.126 A  
HETATM   14  N   UNL     1      -8.841   5.350  64.916  1.00  0.00    -0.300 NA 
HETATM   15  N   UNL     1      -8.716   6.418  65.721  1.00  0.00    -0.148 NA 
HETATM   16  H   UNL     1      -8.186   5.167  64.156  1.00  0.00     0.000 HD 
HETATM   17  N   UNL     1      -9.873   4.541  65.169  1.00  0.00    -0.167 NA 
HETATM   18  N   UNL     1     -10.500   5.112  66.186  1.00  0.00    -0.265 NA 
ENDBRANCH   8  13
TORSDOF 1
ENDMDL
MODEL      104
REMARK 921   NORMALIZED FREE ENERGY PREDICTED BY IDOCK:   -3.90 KCAL/MOL
REMARK 922        TOTAL FREE ENERGY PREDICTED BY IDOCK:   -4.27 KCAL/MOL
REMARK 923 INTER-LIGAND FREE ENERGY PREDICTED BY IDOCK:   -4.06 KCAL/MOL
REMARK 924 INTRA-LIGAND FREE ENERGY PREDICTED BY IDOCK:   -0.22 KCAL/MOL
REMARK 927      BINDING AFFINITY PREDICTED BY RF-SCORE:    0.00 PKD
ROOT
HETATM    1  C   UNL     1      -8.287   8.509  64.740  1.00  0.00    -0.163 C  
HETATM    2  C   UNL     1      -9.096   8.521  65.998  1.00  0.00    -0.246 A  
HETATM    3  C   UNL     1      -9.444   7.404  66.658  1.00  0.00    -0.240 A  
HETATM    4  C   UNL     1     -10.162   7.469  67.900  1.00  0.00    -0.245 A  
HETATM    5  C   UNL     1     -10.476   8.657  68.425  1.00  0.00    -0.176 A  
HETATM    6  N   UNL     1     -10.174   9.850  67.780  1.00  0.00    -0.184 N  
HETATM    7  C   UNL     1     -10.502  11.050  68.411  1.00  0.00    -0.180 C  
HETATM    8  C   UNL     1     -10.309  12.286  67.604  1.00  0.00    -0.214 C  
HETATM    9  O   UNL     1     -10.896  11.107  69.578  1.00  0.00    -0.239 OA 
HETATM   10  C   UNL     1      -9.515   9.855  66.553  1.00  0.00    -0.181 A  
HETATM   11  C   UNL     1      -9.687  12.124  66.427  1.00  0.00    -0.231 C  
HETATM   12  N   UNL     1      -9.253  10.942  65.893  1.00  0.00    -0.184 NA 
ENDROOT
BRANCH   8  13
HETATM   13  C   UNL     1     -10.760  13.546  68.096  1.00  0.00    -0.252 A  
HETATM   14  N   UNL     1     -11.844  15.198  68.688  1.00  0.00    -0.492 NA 
HETATM   15  N   UNL     1     -12.024  14.013  68.082  1.00  0.00    -0.365 NA 
HETATM   16  H   UNL     1     -12.610  15.859  68.819  1.00  0.00     0.000 HD 
HETATM   17  N   UNL     1     -10.605  15.460  69.108  1.00  0.00    -0.236 NA 
HETATM   18  N   UNL     1      -9.898  14.403  68.739  1.00  0.00    -0.232 NA 
ENDBRANCH   8  13
TORSDOF 1
ENDMDL
MODEL      105
REMARK 921   NORMALIZED FREE ENERGY PREDICTED BY IDOCK:   -3.90 KCAL/MOL
REMARK 922        TOTAL FREE ENERGY PREDICTED BY IDOCK:   -4.27 KCAL/MOL
REMARK 923 INTER-LIGAND FREE ENERGY PREDICTED BY IDOCK:   -4.59 KCAL/MOL
REMARK 924 INTRA-LIGAND FREE ENERGY PREDICTED BY IDOCK:    0.32 KCAL/MOL
REMARK 927      BINDING AFFINITY PREDICTED BY RF-SCORE:    0.00 PKD
ROOT
HETATM    1  C   UNL     1      -8.414  10.852  66.003  1.00  0.00    -0.167 C  
HETATM    2  C   UNL     1      -9.311  10.224  67.022  1.00  0.00    -0.177 A  
HETATM    3  C   UNL     1      -9.414   8.896  67.193  1.00  0.00    -0.202 A  
HETATM    4  C   UNL     1     -10.236   8.342  68.232  1.00  0.00    -0.244 A  
HETATM    5  C   UNL     1     -10.898   9.155  69.061  1.00  0.00    -0.090 A  
HETATM    6  N   UNL     1     -10.861  10.538  68.922  1.00  0.00    -0.219 N  
HETATM    7  C   UNL     1     -11.549  11.319  69.849  1.00  0.00    -0.334 C  
HETATM    8  C   UNL     1     -11.612  12.777  69.556  1.00  0.00    -0.342 C  
HETATM    9  O   UNL     1     -12.050  10.855  70.876  1.00  0.00    -0.332 OA 
HETATM   10  C   UNL     1     -10.115  11.137  67.909  1.00  0.00    -0.176 A  
HETATM   11  C   UNL     1     -10.864  13.198  68.526  1.00  0.00    -0.262 C  
HETATM   12  N   UNL     1     -10.087  12.419  67.714  1.00  0.00    -0.199 NA 
ENDROOT
BRANCH   8  13
HETATM   13  C   UNL     1     -12.422  13.639  70.353  1.00  0.00    -0.294 A  
HETATM   14  N   UNL     1     -13.632  14.498  71.785  1.00  0.00    -0.362 NA 
HETATM   15  N   UNL     1     -13.100  13.306  71.469  1.00  0.00    -0.355 NA 
HETATM   16  H   UNL     1     -14.258  14.616  72.582  1.00  0.00     0.000 HD 
HETATM   17  N   UNL     1     -13.295  15.520  70.995  1.00  0.00    -0.533 NA 
HETATM   18  N   UNL     1     -12.511  14.982  70.073  1.00  0.00    -0.304 NA 
ENDBRANCH   8  13
TORSDOF 1
ENDMDL
MODEL      106
REMARK 921   NORMALIZED FREE ENERGY PREDICTED BY IDOCK:   -3.85 KCAL/MOL
REMARK 922        TOTAL FREE ENERGY PREDICTED BY IDOCK:   -4.21 KCAL/MOL
REMARK 923 INTER-LIGAND FREE ENERGY PREDICTED BY IDOCK:   -4.00 KCAL/MOL
REMARK 924 INTRA-LIGAND FREE ENERGY PREDICTED BY IDOCK:   -0.21 KCAL/MOL
REMARK 927      BINDING AFFINITY PREDICTED BY RF-SCORE:    0.00 PKD
ROOT
HETATM    1  C   UNL     1     -11.114   7.169  73.003  1.00  0.00    -0.323 C  
HETATM    2  C   UNL     1     -11.507   8.348  72.169  1.00  0.00    -0.442 A  
HETATM    3  C   UNL     1     -12.619   9.068  72.392  1.00  0.00    -0.403 A  
HETATM    4  C   UNL     1     -12.918  10.234  71.610  1.00  0.00    -0.570 A  
HETATM    5  C   UNL     1     -12.071  10.629  70.654  1.00  0.00    -0.365 A  
HETATM    6  N   UNL     1     -10.919   9.913  70.350  1.00  0.00    -0.295 N  
HETATM    7  C   UNL     1     -10.068  10.410  69.363  1.00  0.00    -0.229 C  
HETATM    8  C   UNL     1      -8.942   9.522  68.965  1.00  0.00    -0.144 C  
HETATM    9  O   UNL     1     -10.201  11.530  68.866  1.00  0.00    -0.206 OA 
HETATM   10  C   UNL     1     -10.592   8.751  71.044  1.00  0.00    -0.230 A  
HETATM   11  C   UNL     1      -8.775   8.420  69.710  1.00  0.00    -0.133 C  
HETATM   12  N   UNL     1      -9.552   8.027  70.765  1.00  0.00    -0.161 NA 
ENDROOT
BRANCH   8  13
HETATM   13  C   UNL     1      -8.109   9.865  67.859  1.00  0.00    -0.109 A  
HETATM   14  N   UNL     1      -7.289  10.237  66.004  1.00  0.00    -0.122 NA 
HETATM   15  N   UNL     1      -8.409   9.738  66.552  1.00  0.00    -0.123 NA 
HETATM   16  H   UNL     1      -7.147  10.263  64.994  1.00  0.00     0.000 HD 
HETATM   17  N   UNL     1      -6.371  10.697  66.857  1.00  0.00    -0.076 NA 
HETATM   18  N   UNL     1      -6.889  10.469  68.055  1.00  0.00    -0.072 NA 
ENDBRANCH   8  13
TORSDOF 1
ENDMDL
MODEL      107
REMARK 921   NORMALIZED FREE ENERGY PREDICTED BY IDOCK:   -3.81 KCAL/MOL
REMARK 922        TOTAL FREE ENERGY PREDICTED BY IDOCK:   -4.17 KCAL/MOL
REMARK 923 INTER-LIGAND FREE ENERGY PREDICTED BY IDOCK:   -3.98 KCAL/MOL
REMARK 924 INTRA-LIGAND FREE ENERGY PREDICTED BY IDOCK:   -0.20 KCAL/MOL
REMARK 927      BINDING AFFINITY PREDICTED BY RF-SCORE:    0.00 PKD
ROOT
HETATM    1  C   UNL     1      -8.850   6.163  71.854  1.00  0.00    -0.137 C  
HETATM    2  C   UNL     1      -9.948   7.169  71.714  1.00  0.00    -0.186 A  
HETATM    3  C   UNL     1     -10.977   7.258  72.573  1.00  0.00    -0.322 A  
HETATM    4  C   UNL     1     -11.970   8.286  72.437  1.00  0.00    -0.447 A  
HETATM    5  C   UNL     1     -11.867   9.186  71.454  1.00  0.00    -0.345 A  
HETATM    6  N   UNL     1     -10.846   9.134  70.513  1.00  0.00    -0.240 N  
HETATM    7  C   UNL     1     -10.785  10.131  69.540  1.00  0.00    -0.249 C  
HETATM    8  C   UNL     1      -9.776   9.932  68.464  1.00  0.00    -0.163 C  
HETATM    9  O   UNL     1     -11.491  11.141  69.571  1.00  0.00    -0.249 OA 
HETATM   10  C   UNL     1      -9.873   8.138  70.564  1.00  0.00    -0.186 A  
HETATM   11  C   UNL     1      -8.929   8.908  68.639  1.00  0.00    -0.137 C  
HETATM   12  N   UNL     1      -8.929   8.023  69.682  1.00  0.00    -0.144 NA 
ENDROOT
BRANCH   8  13
HETATM   13  C   UNL     1      -9.739  10.808  67.339  1.00  0.00    -0.171 A  
HETATM   14  N   UNL     1      -9.270  12.213  65.904  1.00  0.00    -0.414 NA 
HETATM   15  N   UNL     1      -8.808  11.746  67.075  1.00  0.00    -0.176 NA 
HETATM   16  H   UNL     1      -8.817  12.984  65.414  1.00  0.00     0.000 HD 
HETATM   17  N   UNL     1     -10.357  11.610  65.418  1.00  0.00    -0.256 NA 
HETATM   18  N   UNL     1     -10.666  10.699  66.329  1.00  0.00    -0.155 NA 
ENDBRANCH   8  13
TORSDOF 1
ENDMDL
MODEL      108
REMARK 921   NORMALIZED FREE ENERGY PREDICTED BY IDOCK:   -3.80 KCAL/MOL
REMARK 922        TOTAL FREE ENERGY PREDICTED BY IDOCK:   -4.17 KCAL/MOL
REMARK 923 INTER-LIGAND FREE ENERGY PREDICTED BY IDOCK:   -4.34 KCAL/MOL
REMARK 924 INTRA-LIGAND FREE ENERGY PREDICTED BY IDOCK:    0.17 KCAL/MOL
REMARK 927      BINDING AFFINITY PREDICTED BY RF-SCORE:    0.00 PKD
ROOT
HETATM    1  C   UNL     1     -10.562   7.829  66.985  1.00  0.00    -0.396 C  
HETATM    2  C   UNL     1      -9.702   9.052  67.051  1.00  0.00    -0.247 A  
HETATM    3  C   UNL     1      -8.455   9.099  66.556  1.00  0.00    -0.127 A  
HETATM    4  C   UNL     1      -7.692  10.316  66.580  1.00  0.00    -0.113 A  
HETATM    5  C   UNL     1      -8.234  11.430  67.082  1.00  0.00    -0.157 A  
HETATM    6  N   UNL     1      -9.507  11.444  67.638  1.00  0.00    -0.160 N  
HETATM    7  C   UNL     1     -10.016  12.654  68.109  1.00  0.00    -0.225 C  
HETATM    8  C   UNL     1     -11.309  12.578  68.842  1.00  0.00    -0.346 C  
HETATM    9  O   UNL     1      -9.461  13.737  67.909  1.00  0.00    -0.200 OA 
HETATM   10  C   UNL     1     -10.282  10.288  67.684  1.00  0.00    -0.205 A  
HETATM   11  C   UNL     1     -11.921  11.386  68.824  1.00  0.00    -0.287 C  
HETATM   12  N   UNL     1     -11.457  10.243  68.233  1.00  0.00    -0.252 NA 
ENDROOT
BRANCH   8  13
HETATM   13  C   UNL     1     -11.835  13.731  69.498  1.00  0.00    -0.339 A  
HETATM   14  N   UNL     1     -12.605  15.106  70.828  1.00  0.00    -0.363 NA 
HETATM   15  N   UNL     1     -12.268  13.807  70.771  1.00  0.00    -0.361 NA 
HETATM   16  H   UNL     1     -13.019  15.521  71.662  1.00  0.00     0.000 HD 
HETATM   17  N   UNL     1     -12.365  15.823  69.727  1.00  0.00    -0.245 NA 
HETATM   18  N   UNL     1     -11.864  14.951  68.865  1.00  0.00    -0.313 NA 
ENDBRANCH   8  13
TORSDOF 1
ENDMDL
MODEL      109
REMARK 921   NORMALIZED FREE ENERGY PREDICTED BY IDOCK:   -3.73 KCAL/MOL
REMARK 922        TOTAL FREE ENERGY PREDICTED BY IDOCK:   -4.09 KCAL/MOL
REMARK 923 INTER-LIGAND FREE ENERGY PREDICTED BY IDOCK:   -3.88 KCAL/MOL
REMARK 924 INTRA-LIGAND FREE ENERGY PREDICTED BY IDOCK:   -0.21 KCAL/MOL
REMARK 927      BINDING AFFINITY PREDICTED BY RF-SCORE:    0.00 PKD
ROOT
HETATM    1  C   UNL     1     -12.271  14.198  65.924  1.00  0.00    -0.458 C  
HETATM    2  C   UNL     1     -10.858  13.986  66.370  1.00  0.00    -0.299 A  
HETATM    3  C   UNL     1      -9.891  14.902  66.203  1.00  0.00    -0.332 A  
HETATM    4  C   UNL     1      -8.565  14.683  66.710  1.00  0.00    -0.195 A  
HETATM    5  C   UNL     1      -8.286  13.560  67.379  1.00  0.00    -0.194 A  
HETATM    6  N   UNL     1      -9.231  12.557  67.560  1.00  0.00    -0.181 N  
HETATM    7  C   UNL     1      -8.874  11.431  68.301  1.00  0.00    -0.167 C  
HETATM    8  C   UNL     1      -9.865  10.321  68.321  1.00  0.00    -0.161 C  
HETATM    9  O   UNL     1      -7.820  11.354  68.937  1.00  0.00    -0.138 OA 
HETATM   10  C   UNL     1     -10.523  12.690  67.058  1.00  0.00    -0.232 A  
HETATM   11  C   UNL     1     -11.056  10.591  67.767  1.00  0.00    -0.317 C  
HETATM   12  N   UNL     1     -11.424  11.762  67.164  1.00  0.00    -0.456 NA 
ENDROOT
BRANCH   8  13
HETATM   13  C   UNL     1      -9.533   9.067  68.915  1.00  0.00    -0.151 A  
HETATM   14  N   UNL     1      -9.344   7.406  70.122  1.00  0.00    -0.158 NA 
HETATM   15  N   UNL     1      -9.920   8.619  70.125  1.00  0.00    -0.179 NA 
HETATM   16  H   UNL     1      -9.400   6.780  70.925  1.00  0.00     0.000 HD 
HETATM   17  N   UNL     1      -8.695   7.067  69.005  1.00  0.00    -0.128 NA 
HETATM   18  N   UNL     1      -8.814   8.125  68.218  1.00  0.00    -0.133 NA 
ENDBRANCH   8  13
TORSDOF 1
ENDMDL
MODEL      110
REMARK 921   NORMALIZED FREE ENERGY PREDICTED BY IDOCK:   -3.70 KCAL/MOL
REMARK 922        TOTAL FREE ENERGY PREDICTED BY IDOCK:   -4.06 KCAL/MOL
REMARK 923 INTER-LIGAND FREE ENERGY PREDICTED BY IDOCK:   -3.85 KCAL/MOL
REMARK 924 INTRA-LIGAND FREE ENERGY PREDICTED BY IDOCK:   -0.21 KCAL/MOL
REMARK 927      BINDING AFFINITY PREDICTED BY RF-SCORE:    0.00 PKD
ROOT
HETATM    1  C   UNL     1      -7.077   7.216  69.177  1.00  0.00    -0.083 C  
HETATM    2  C   UNL     1      -8.414   7.675  69.665  1.00  0.00    -0.135 A  
HETATM    3  C   UNL     1      -9.100   7.041  70.630  1.00  0.00    -0.158 A  
HETATM    4  C   UNL     1     -10.349   7.558  71.116  1.00  0.00    -0.208 A  
HETATM    5  C   UNL     1     -10.834   8.701  70.619  1.00  0.00    -0.229 A  
HETATM    6  N   UNL     1     -10.190   9.391  69.599  1.00  0.00    -0.200 N  
HETATM    7  C   UNL     1     -10.740  10.596  69.160  1.00  0.00    -0.228 C  
HETATM    8  C   UNL     1     -10.106  11.204  67.959  1.00  0.00    -0.191 C  
HETATM    9  O   UNL     1     -11.672  11.157  69.740  1.00  0.00    -0.281 OA 
HETATM   10  C   UNL     1      -8.997   8.921  69.056  1.00  0.00    -0.137 A  
HETATM   11  C   UNL     1      -8.979  10.616  67.533  1.00  0.00    -0.135 C  
HETATM   12  N   UNL     1      -8.386   9.508  68.073  1.00  0.00    -0.118 NA 
ENDROOT
BRANCH   8  13
HETATM   13  C   UNL     1     -10.688  12.348  67.337  1.00  0.00    -0.229 A  
HETATM   14  N   UNL     1     -11.176  14.234  66.660  1.00  0.00    -0.324 NA 
HETATM   15  N   UNL     1     -10.311  13.632  67.493  1.00  0.00    -0.240 NA 
HETATM   16  H   UNL     1     -11.204  15.248  66.551  1.00  0.00     0.000 HD 
HETATM   17  N   UNL     1     -11.997  13.428  65.983  1.00  0.00    -0.392 NA 
HETATM   18  N   UNL     1     -11.690  12.211  66.405  1.00  0.00    -0.560 NA 
ENDBRANCH   8  13
TORSDOF 1
ENDMDL
MODEL      111
REMARK 921   NORMALIZED FREE ENERGY PREDICTED BY IDOCK:   -3.68 KCAL/MOL
REMARK 922        TOTAL FREE ENERGY PREDICTED BY IDOCK:   -4.04 KCAL/MOL
REMARK 923 INTER-LIGAND FREE ENERGY PREDICTED BY IDOCK:   -3.89 KCAL/MOL
REMARK 924 INTRA-LIGAND FREE ENERGY PREDICTED BY IDOCK:   -0.15 KCAL/MOL
REMARK 927      BINDING AFFINITY PREDICTED BY RF-SCORE:    0.00 PKD
ROOT
HETATM    1  C   UNL     1     -11.722  11.129  70.692  1.00  0.00    -0.310 C  
HETATM    2  C   UNL     1     -11.488  11.051  69.216  1.00  0.00    -0.370 A  
HETATM    3  C   UNL     1     -11.691  12.086  68.385  1.00  0.00    -0.390 A  
HETATM    4  C   UNL     1     -11.385  11.986  66.985  1.00  0.00    -0.396 A  
HETATM    5  C   UNL     1     -10.871  10.852  66.496  1.00  0.00    -0.171 A  
HETATM    6  N   UNL     1     -10.665   9.734  67.294  1.00  0.00    -0.255 N  
HETATM    7  C   UNL     1     -10.090   8.601  66.718  1.00  0.00    -0.296 C  
HETATM    8  C   UNL     1     -10.048   7.383  67.573  1.00  0.00    -0.250 C  
HETATM    9  O   UNL     1      -9.608   8.599  65.583  1.00  0.00    -0.142 OA 
HETATM   10  C   UNL     1     -10.979   9.752  68.651  1.00  0.00    -0.147 A  
HETATM   11  C   UNL     1     -10.413   7.554  68.851  1.00  0.00    -0.203 C  
HETATM   12  N   UNL     1     -10.846   8.718  69.424  1.00  0.00    -0.166 NA 
ENDROOT
BRANCH   8  13
HETATM   13  C   UNL     1      -9.626   6.134  67.028  1.00  0.00    -0.135 A  
HETATM   14  N   UNL     1      -9.487   4.257  66.185  1.00  0.00    -0.163 NA 
HETATM   15  N   UNL     1     -10.418   5.127  66.611  1.00  0.00    -0.279 NA 
HETATM   16  H   UNL     1      -9.734   3.336  65.824  1.00  0.00     0.000 HD 
HETATM   17  N   UNL     1      -8.220   4.670  66.259  1.00  0.00    -0.107 NA 
HETATM   18  N   UNL     1      -8.295   5.879  66.795  1.00  0.00    -0.109 NA 
ENDBRANCH   8  13
TORSDOF 1
ENDMDL
MODEL      112
REMARK 921   NORMALIZED FREE ENERGY PREDICTED BY IDOCK:   -3.65 KCAL/MOL
REMARK 922        TOTAL FREE ENERGY PREDICTED BY IDOCK:   -4.01 KCAL/MOL
REMARK 923 INTER-LIGAND FREE ENERGY PREDICTED BY IDOCK:   -3.79 KCAL/MOL
REMARK 924 INTRA-LIGAND FREE ENERGY PREDICTED BY IDOCK:   -0.21 KCAL/MOL
REMARK 927      BINDING AFFINITY PREDICTED BY RF-SCORE:    0.00 PKD
ROOT
HETATM    1  C   UNL     1      -9.402   4.715  65.552  1.00  0.00    -0.159 C  
HETATM    2  C   UNL     1      -9.133   6.092  66.073  1.00  0.00    -0.143 A  
HETATM    3  C   UNL     1      -8.423   7.008  65.396  1.00  0.00    -0.093 A  
HETATM    4  C   UNL     1      -8.251   8.340  65.906  1.00  0.00    -0.119 A  
HETATM    5  C   UNL     1      -8.821   8.687  67.064  1.00  0.00    -0.132 A  
HETATM    6  N   UNL     1      -9.543   7.780  67.830  1.00  0.00    -0.144 N  
HETATM    7  C   UNL     1     -10.138   8.230  69.009  1.00  0.00    -0.202 C  
HETATM    8  C   UNL     1     -10.754   7.183  69.869  1.00  0.00    -0.258 C  
HETATM    9  O   UNL     1     -10.193   9.422  69.319  1.00  0.00    -0.187 OA 
HETATM   10  C   UNL     1      -9.712   6.463  67.412  1.00  0.00    -0.121 A  
HETATM   11  C   UNL     1     -10.814   5.953  69.340  1.00  0.00    -0.352 C  
HETATM   12  N   UNL     1     -10.339   5.571  68.116  1.00  0.00    -0.187 NA 
ENDROOT
BRANCH   8  13
HETATM   13  C   UNL     1     -11.248   7.514  71.166  1.00  0.00    -0.257 A  
HETATM   14  N   UNL     1     -12.387   7.980  72.821  1.00  0.00    -0.610 NA 
HETATM   15  N   UNL     1     -12.527   7.773  71.501  1.00  0.00    -0.316 NA 
HETATM   16  H   UNL     1     -13.174   8.245  73.412  1.00  0.00     0.000 HD 
HETATM   17  N   UNL     1     -11.156   7.819  73.313  1.00  0.00    -0.297 NA 
HETATM   18  N   UNL     1     -10.414   7.513  72.260  1.00  0.00    -0.218 NA 
ENDBRANCH   8  13
TORSDOF 1
ENDMDL
MODEL      113
REMARK 921   NORMALIZED FREE ENERGY PREDICTED BY IDOCK:   -3.64 KCAL/MOL
REMARK 922        TOTAL FREE ENERGY PREDICTED BY IDOCK:   -4.00 KCAL/MOL
REMARK 923 INTER-LIGAND FREE ENERGY PREDICTED BY IDOCK:   -3.79 KCAL/MOL
REMARK 924 INTRA-LIGAND FREE ENERGY PREDICTED BY IDOCK:   -0.21 KCAL/MOL
REMARK 927      BINDING AFFINITY PREDICTED BY RF-SCORE:    0.00 PKD
ROOT
HETATM    1  C   UNL     1     -11.666  12.186  67.118  1.00  0.00    -0.372 C  
HETATM    2  C   UNL     1     -11.123  11.808  65.777  1.00  0.00    -0.351 A  
HETATM    3  C   UNL     1     -11.376  12.506  64.658  1.00  0.00    -0.363 A  
HETATM    4  C   UNL     1     -10.774  12.145  63.405  1.00  0.00    -0.461 A  
HETATM    5  C   UNL     1      -9.931  11.108  63.346  1.00  0.00    -0.387 A  
HETATM    6  N   UNL     1      -9.650  10.325  64.459  1.00  0.00    -0.294 N  
HETATM    7  C   UNL     1      -8.732   9.283  64.325  1.00  0.00    -0.175 C  
HETATM    8  C   UNL     1      -8.596   8.378  65.498  1.00  0.00    -0.201 C  
HETATM    9  O   UNL     1      -8.039   9.128  63.317  1.00  0.00    -0.146 OA 
HETATM   10  C   UNL     1     -10.232  10.597  65.694  1.00  0.00    -0.253 A  
HETATM   11  C   UNL     1      -9.245   8.758  66.608  1.00  0.00    -0.177 C  
HETATM   12  N   UNL     1     -10.034   9.866  66.748  1.00  0.00    -0.202 NA 
ENDROOT
BRANCH   8  13
HETATM   13  C   UNL     1      -7.804   7.195  65.408  1.00  0.00    -0.119 A  
HETATM   14  N   UNL     1      -6.351   5.738  65.541  1.00  0.00    -0.040 NA 
HETATM   15  N   UNL     1      -6.556   7.020  65.883  1.00  0.00    -0.050 NA 
HETATM   16  H   UNL     1      -5.464   5.266  65.719  1.00  0.00     0.000 HD 
HETATM   17  N   UNL     1      -7.376   5.116  64.954  1.00  0.00    -0.066 NA 
HETATM   18  N   UNL     1      -8.320   6.040  64.867  1.00  0.00    -0.131 NA 
ENDBRANCH   8  13
TORSDOF 1
ENDMDL
MODEL      114
REMARK 921   NORMALIZED FREE ENERGY PREDICTED BY IDOCK:   -3.64 KCAL/MOL
REMARK 922        TOTAL FREE ENERGY PREDICTED BY IDOCK:   -3.99 KCAL/MOL
REMARK 923 INTER-LIGAND FREE ENERGY PREDICTED BY IDOCK:   -3.79 KCAL/MOL
REMARK 924 INTRA-LIGAND FREE ENERGY PREDICTED BY IDOCK:   -0.20 KCAL/MOL
REMARK 927      BINDING AFFINITY PREDICTED BY RF-SCORE:    0.00 PKD
ROOT
HETATM    1  C   UNL     1     -12.884  12.964  71.133  1.00  0.00    -0.326 C  
HETATM    2  C   UNL     1     -12.006  13.360  69.988  1.00  0.00    -0.407 A  
HETATM    3  C   UNL     1     -11.882  14.628  69.563  1.00  0.00    -0.374 A  
HETATM    4  C   UNL     1     -10.973  14.970  68.505  1.00  0.00    -0.259 A  
HETATM    5  C   UNL     1     -10.220  14.020  67.941  1.00  0.00    -0.240 A  
HETATM    6  N   UNL     1     -10.322  12.685  68.312  1.00  0.00    -0.236 N  
HETATM    7  C   UNL     1      -9.475  11.758  67.702  1.00  0.00    -0.180 C  
HETATM    8  C   UNL     1      -9.741  10.328  68.014  1.00  0.00    -0.167 C  
HETATM    9  O   UNL     1      -8.535  12.087  66.975  1.00  0.00    -0.172 OA 
HETATM   10  C   UNL     1     -11.213  12.281  69.303  1.00  0.00    -0.213 A  
HETATM   11  C   UNL     1     -10.652  10.097  68.970  1.00  0.00    -0.223 C  
HETATM   12  N   UNL     1     -11.373  11.040  69.650  1.00  0.00    -0.268 NA 
ENDROOT
BRANCH   8  13
HETATM   13  C   UNL     1      -9.038   9.296  67.323  1.00  0.00    -0.126 A  
HETATM   14  N   UNL     1      -7.695   7.875  66.668  1.00  0.00    -0.096 NA 
HETATM   15  N   UNL     1      -7.806   8.830  67.606  1.00  0.00    -0.101 NA 
HETATM   16  H   UNL     1      -6.845   7.322  66.558  1.00  0.00     0.000 HD 
HETATM   17  N   UNL     1      -8.762   7.692  65.887  1.00  0.00    -0.162 NA 
HETATM   18  N   UNL     1      -9.636   8.597  66.302  1.00  0.00    -0.245 NA 
ENDBRANCH   8  13
TORSDOF 1
ENDMDL
MODEL      115
REMARK 921   NORMALIZED FREE ENERGY PREDICTED BY IDOCK:   -3.58 KCAL/MOL
REMARK 922        TOTAL FREE ENERGY PREDICTED BY IDOCK:   -3.94 KCAL/MOL
REMARK 923 INTER-LIGAND FREE ENERGY PREDICTED BY IDOCK:   -4.25 KCAL/MOL
REMARK 924 INTRA-LIGAND FREE ENERGY PREDICTED BY IDOCK:    0.32 KCAL/MOL
REMARK 927      BINDING AFFINITY PREDICTED BY RF-SCORE:    0.00 PKD
ROOT
HETATM    1  C   UNL     1     -11.811   9.202  71.989  1.00  0.00    -0.407 C  
HETATM    2  C   UNL     1     -11.060   7.920  72.163  1.00  0.00    -0.351 A  
HETATM    3  C   UNL     1     -10.611   7.488  73.353  1.00  0.00    -0.409 A  
HETATM    4  C   UNL     1      -9.956   6.216  73.481  1.00  0.00    -0.196 A  
HETATM    5  C   UNL     1      -9.804   5.434  72.408  1.00  0.00    -0.163 A  
HETATM    6  N   UNL     1     -10.217   5.833  71.142  1.00  0.00    -0.209 N  
HETATM    7  C   UNL     1     -10.057   4.945  70.079  1.00  0.00    -0.266 C  
HETATM    8  C   UNL     1     -10.361   5.486  68.726  1.00  0.00    -0.271 C  
HETATM    9  O   UNL     1      -9.721   3.770  70.233  1.00  0.00    -0.194 OA 
HETATM   10  C   UNL     1     -10.823   7.072  70.943  1.00  0.00    -0.241 A  
HETATM   11  C   UNL     1     -10.911   6.708  68.695  1.00  0.00    -0.251 C  
HETATM   12  N   UNL     1     -11.183   7.504  69.774  1.00  0.00    -0.126 NA 
ENDROOT
BRANCH   8  13
HETATM   13  C   UNL     1     -10.080   4.713  67.560  1.00  0.00    -0.075 A  
HETATM   14  N   UNL     1      -9.545   3.263  66.195  1.00  0.00    -0.390 NA 
HETATM   15  N   UNL     1      -9.537   3.481  67.520  1.00  0.00    -0.186 NA 
HETATM   16  H   UNL     1      -9.159   2.413  65.785  1.00  0.00     0.000 HD 
HETATM   17  N   UNL     1     -10.089   4.225  65.445  1.00  0.00    -0.228 NA 
HETATM   18  N   UNL     1     -10.443   5.162  66.312  1.00  0.00    -0.290 NA 
ENDBRANCH   8  13
TORSDOF 1
ENDMDL
MODEL      116
REMARK 921   NORMALIZED FREE ENERGY PREDICTED BY IDOCK:   -3.52 KCAL/MOL
REMARK 922        TOTAL FREE ENERGY PREDICTED BY IDOCK:   -3.87 KCAL/MOL
REMARK 923 INTER-LIGAND FREE ENERGY PREDICTED BY IDOCK:   -3.66 KCAL/MOL
REMARK 924 INTRA-LIGAND FREE ENERGY PREDICTED BY IDOCK:   -0.21 KCAL/MOL
REMARK 927      BINDING AFFINITY PREDICTED BY RF-SCORE:    0.00 PKD
ROOT
HETATM    1  C   UNL     1     -11.383  12.081  63.411  1.00  0.00    -0.484 C  
HETATM    2  C   UNL     1     -10.172  11.231  63.634  1.00  0.00    -0.446 A  
HETATM    3  C   UNL     1      -9.354  10.844  62.642  1.00  0.00    -0.343 A  
HETATM    4  C   UNL     1      -8.163  10.088  62.913  1.00  0.00    -0.153 A  
HETATM    5  C   UNL     1      -7.846   9.777  64.174  1.00  0.00    -0.134 A  
HETATM    6  N   UNL     1      -8.664  10.119  65.244  1.00  0.00    -0.156 N  
HETATM    7  C   UNL     1      -8.245   9.790  66.534  1.00  0.00    -0.120 C  
HETATM    8  C   UNL     1      -9.233  10.030  67.621  1.00  0.00    -0.148 C  
HETATM    9  O   UNL     1      -7.117   9.360  66.782  1.00  0.00    -0.081 OA 
HETATM   10  C   UNL     1      -9.852  10.817  65.045  1.00  0.00    -0.288 A  
HETATM   11  C   UNL     1     -10.346  10.686  67.266  1.00  0.00    -0.220 C  
HETATM   12  N   UNL     1     -10.668  11.118  66.008  1.00  0.00    -0.243 NA 
ENDROOT
BRANCH   8  13
HETATM   13  C   UNL     1      -8.965   9.583  68.950  1.00  0.00    -0.141 A  
HETATM   14  N   UNL     1      -8.383   9.372  70.917  1.00  0.00    -0.294 NA 
HETATM   15  N   UNL     1      -8.283  10.248  69.903  1.00  0.00    -0.107 NA 
HETATM   16  H   UNL     1      -7.935   9.537  71.818  1.00  0.00     0.000 HD 
HETATM   17  N   UNL     1      -9.102   8.274  70.676  1.00  0.00    -0.148 NA 
HETATM   18  N   UNL     1      -9.488   8.400  69.414  1.00  0.00    -0.158 NA 
ENDBRANCH   8  13
TORSDOF 1
ENDMDL
MODEL      117
REMARK 921   NORMALIZED FREE ENERGY PREDICTED BY IDOCK:   -3.49 KCAL/MOL
REMARK 922        TOTAL FREE ENERGY PREDICTED BY IDOCK:   -3.83 KCAL/MOL
REMARK 923 INTER-LIGAND FREE ENERGY PREDICTED BY IDOCK:   -3.62 KCAL/MOL
REMARK 924 INTRA-LIGAND FREE ENERGY PREDICTED BY IDOCK:   -0.22 KCAL/MOL
REMARK 927      BINDING AFFINITY PREDICTED BY RF-SCORE:    0.00 PKD
ROOT
HETATM    1  C   UNL     1     -12.240  10.349  71.223  1.00  0.00    -0.491 C  
HETATM    2  C   UNL     1     -11.908   8.890  71.202  1.00  0.00    -0.353 A  
HETATM    3  C   UNL     1     -12.398   8.013  72.093  1.00  0.00    -0.358 A  
HETATM    4  C   UNL     1     -12.107   6.610  71.990  1.00  0.00    -0.353 A  
HETATM    5  C   UNL     1     -11.354   6.159  70.982  1.00  0.00    -0.282 A  
HETATM    6  N   UNL     1     -10.790   7.015  70.044  1.00  0.00    -0.251 N  
HETATM    7  C   UNL     1     -10.046   6.463  69.001  1.00  0.00    -0.165 C  
HETATM    8  C   UNL     1      -9.331   7.432  68.126  1.00  0.00    -0.135 C  
HETATM    9  O   UNL     1     -10.001   5.252  68.779  1.00  0.00    -0.153 OA 
HETATM   10  C   UNL     1     -11.000   8.390  70.111  1.00  0.00    -0.215 A  
HETATM   11  C   UNL     1      -9.613   8.726  68.334  1.00  0.00    -0.147 C  
HETATM   12  N   UNL     1     -10.458   9.231  69.284  1.00  0.00    -0.215 NA 
ENDROOT
BRANCH   8  13
HETATM   13  C   UNL     1      -8.420   6.968  67.131  1.00  0.00    -0.121 A  
HETATM   14  N   UNL     1      -6.808   6.246  66.067  1.00  0.00    -0.056 NA 
HETATM   15  N   UNL     1      -7.133   6.615  67.317  1.00  0.00    -0.078 NA 
HETATM   16  H   UNL     1      -5.865   5.945  65.821  1.00  0.00     0.000 HD 
HETATM   17  N   UNL     1      -7.790   6.296  65.165  1.00  0.00    -0.102 NA 
HETATM   18  N   UNL     1      -8.836   6.754  65.838  1.00  0.00    -0.142 NA 
ENDBRANCH   8  13
TORSDOF 1
ENDMDL
MODEL      118
REMARK 921   NORMALIZED FREE ENERGY PREDICTED BY IDOCK:   -3.47 KCAL/MOL
REMARK 922        TOTAL FREE ENERGY PREDICTED BY IDOCK:   -3.81 KCAL/MOL
REMARK 923 INTER-LIGAND FREE ENERGY PREDICTED BY IDOCK:   -3.74 KCAL/MOL
REMARK 924 INTRA-LIGAND FREE ENERGY PREDICTED BY IDOCK:   -0.08 KCAL/MOL
REMARK 927      BINDING AFFINITY PREDICTED BY RF-SCORE:    0.00 PKD
ROOT
HETATM    1  C   UNL     1     -11.236   6.817  70.910  1.00  0.00    -0.338 C  
HETATM    2  C   UNL     1     -10.836   6.940  69.474  1.00  0.00    -0.287 A  
HETATM    3  C   UNL     1     -11.058   5.977  68.565  1.00  0.00    -0.279 A  
HETATM    4  C   UNL     1     -10.720   6.169  67.182  1.00  0.00    -0.422 A  
HETATM    5  C   UNL     1     -10.192   7.330  66.781  1.00  0.00    -0.235 A  
HETATM    6  N   UNL     1      -9.906   8.356  67.674  1.00  0.00    -0.163 N  
HETATM    7  C   UNL     1      -9.390   9.550  67.173  1.00  0.00    -0.143 C  
HETATM    8  C   UNL     1      -8.950  10.547  68.186  1.00  0.00    -0.138 C  
HETATM    9  O   UNL     1      -9.328   9.799  65.967  1.00  0.00    -0.168 OA 
HETATM   10  C   UNL     1     -10.173   8.218  69.034  1.00  0.00    -0.217 A  
HETATM   11  C   UNL     1      -9.249  10.257  69.460  1.00  0.00    -0.170 C  
HETATM   12  N   UNL     1      -9.883   9.131  69.910  1.00  0.00    -0.180 NA 
ENDROOT
BRANCH   8  13
HETATM   13  C   UNL     1      -8.264  11.731  67.783  1.00  0.00    -0.144 A  
HETATM   14  N   UNL     1      -7.006  13.136  66.948  1.00  0.00    -0.353 NA 
HETATM   15  N   UNL     1      -7.165  11.804  67.006  1.00  0.00    -0.145 NA 
HETATM   16  H   UNL     1      -6.222  13.565  66.456  1.00  0.00     0.000 HD 
HETATM   17  N   UNL     1      -7.933  13.866  67.572  1.00  0.00    -0.169 NA 
HETATM   18  N   UNL     1      -8.753  12.975  68.109  1.00  0.00    -0.186 NA 
ENDBRANCH   8  13
TORSDOF 1
ENDMDL
MODEL      119
REMARK 921   NORMALIZED FREE ENERGY PREDICTED BY IDOCK:   -3.44 KCAL/MOL
REMARK 922        TOTAL FREE ENERGY PREDICTED BY IDOCK:   -3.78 KCAL/MOL
REMARK 923 INTER-LIGAND FREE ENERGY PREDICTED BY IDOCK:   -3.72 KCAL/MOL
REMARK 924 INTRA-LIGAND FREE ENERGY PREDICTED BY IDOCK:   -0.07 KCAL/MOL
REMARK 927      BINDING AFFINITY PREDICTED BY RF-SCORE:    0.00 PKD
ROOT
HETATM    1  C   UNL     1      -8.976   5.425  65.254  1.00  0.00    -0.104 C  
HETATM    2  C   UNL     1      -9.511   5.540  66.646  1.00  0.00    -0.154 A  
HETATM    3  C   UNL     1      -9.707   4.481  67.447  1.00  0.00    -0.218 A  
HETATM    4  C   UNL     1     -10.156   4.647  68.801  1.00  0.00    -0.085 A  
HETATM    5  C   UNL     1     -10.366   5.875  69.287  1.00  0.00    -0.246 A  
HETATM    6  N   UNL     1     -10.213   7.012  68.503  1.00  0.00    -0.166 N  
HETATM    7  C   UNL     1     -10.415   8.259  69.093  1.00  0.00    -0.206 C  
HETATM    8  C   UNL     1     -10.401   9.427  68.170  1.00  0.00    -0.255 C  
HETATM    9  O   UNL     1     -10.562   8.410  70.307  1.00  0.00    -0.217 OA 
HETATM   10  C   UNL     1      -9.819   6.917  67.170  1.00  0.00    -0.165 A  
HETATM   11  C   UNL     1     -10.033   9.170  66.907  1.00  0.00    -0.238 C  
HETATM   12  N   UNL     1      -9.706   7.947  66.389  1.00  0.00    -0.198 NA 
ENDROOT
BRANCH   8  13
HETATM   13  C   UNL     1     -10.754  10.726  68.645  1.00  0.00    -0.208 A  
HETATM   14  N   UNL     1     -10.854  12.730  69.119  1.00  0.00    -0.427 NA 
HETATM   15  N   UNL     1     -10.022  11.852  68.536  1.00  0.00    -0.208 NA 
HETATM   16  H   UNL     1     -10.600  13.710  69.248  1.00  0.00     0.000 HD 
HETATM   17  N   UNL     1     -12.032  12.247  69.518  1.00  0.00    -0.295 NA 
HETATM   18  N   UNL     1     -11.983  10.959  69.214  1.00  0.00    -0.327 NA 
ENDBRANCH   8  13
TORSDOF 1
ENDMDL
MODEL      120
REMARK 921   NORMALIZED FREE ENERGY PREDICTED BY IDOCK:   -3.44 KCAL/MOL
REMARK 922        TOTAL FREE ENERGY PREDICTED BY IDOCK:   -3.78 KCAL/MOL
REMARK 923 INTER-LIGAND FREE ENERGY PREDICTED BY IDOCK:   -3.57 KCAL/MOL
REMARK 924 INTRA-LIGAND FREE ENERGY PREDICTED BY IDOCK:   -0.21 KCAL/MOL
REMARK 927      BINDING AFFINITY PREDICTED BY RF-SCORE:    0.00 PKD
ROOT
HETATM    1  C   UNL     1      -7.951  13.406  68.389  1.00  0.00    -0.139 C  
HETATM    2  C   UNL     1      -8.912  12.570  67.605  1.00  0.00    -0.185 A  
HETATM    3  C   UNL     1      -9.474  12.978  66.456  1.00  0.00    -0.246 A  
HETATM    4  C   UNL     1     -10.336  12.113  65.702  1.00  0.00    -0.289 A  
HETATM    5  C   UNL     1     -10.574  10.870  66.134  1.00  0.00    -0.206 A  
HETATM    6  N   UNL     1     -10.050  10.394  67.330  1.00  0.00    -0.191 N  
HETATM    7  C   UNL     1     -10.314   9.074  67.694  1.00  0.00    -0.257 C  
HETATM    8  C   UNL     1      -9.871   8.671  69.056  1.00  0.00    -0.184 C  
HETATM    9  O   UNL     1     -10.849   8.263  66.933  1.00  0.00    -0.228 OA 
HETATM   10  C   UNL     1      -9.239  11.197  68.128  1.00  0.00    -0.166 A  
HETATM   11  C   UNL     1      -9.124   9.567  69.716  1.00  0.00    -0.205 C  
HETATM   12  N   UNL     1      -8.766  10.810  69.273  1.00  0.00    -0.089 NA 
ENDROOT
BRANCH   8  13
HETATM   13  C   UNL     1     -10.231   7.396  69.584  1.00  0.00    -0.210 A  
HETATM   14  N   UNL     1     -10.334   5.417  70.157  1.00  0.00    -0.273 NA 
HETATM   15  N   UNL     1      -9.555   6.240  69.435  1.00  0.00    -0.141 NA 
HETATM   16  H   UNL     1     -10.137   4.419  70.236  1.00  0.00     0.000 HD 
HETATM   17  N   UNL     1     -11.380   5.981  70.764  1.00  0.00    -0.279 NA 
HETATM   18  N   UNL     1     -11.322   7.256  70.409  1.00  0.00    -0.283 NA 
ENDBRANCH   8  13
TORSDOF 1
ENDMDL
MODEL      121
REMARK 921   NORMALIZED FREE ENERGY PREDICTED BY IDOCK:   -3.42 KCAL/MOL
REMARK 922        TOTAL FREE ENERGY PREDICTED BY IDOCK:   -3.76 KCAL/MOL
REMARK 923 INTER-LIGAND FREE ENERGY PREDICTED BY IDOCK:   -3.55 KCAL/MOL
REMARK 924 INTRA-LIGAND FREE ENERGY PREDICTED BY IDOCK:   -0.21 KCAL/MOL
REMARK 927      BINDING AFFINITY PREDICTED BY RF-SCORE:    0.00 PKD
ROOT
HETATM    1  C   UNL     1      -8.815   7.801  73.807  1.00  0.00    -0.326 C  
HETATM    2  C   UNL     1      -9.958   7.648  72.854  1.00  0.00    -0.319 A  
HETATM    3  C   UNL     1     -11.170   8.185  73.068  1.00  0.00    -0.166 A  
HETATM    4  C   UNL     1     -12.216   8.070  72.091  1.00  0.00    -0.377 A  
HETATM    5  C   UNL     1     -11.982   7.437  70.937  1.00  0.00    -0.277 A  
HETATM    6  N   UNL     1     -10.761   6.832  70.664  1.00  0.00    -0.227 N  
HETATM    7  C   UNL     1     -10.583   6.223  69.422  1.00  0.00    -0.271 C  
HETATM    8  C   UNL     1      -9.323   5.451  69.249  1.00  0.00    -0.159 C  
HETATM    9  O   UNL     1     -11.392   6.336  68.499  1.00  0.00    -0.324 OA 
HETATM   10  C   UNL     1      -9.719   6.872  71.587  1.00  0.00    -0.161 A  
HETATM   11  C   UNL     1      -8.428   5.563  70.241  1.00  0.00    -0.121 C  
HETATM   12  N   UNL     1      -8.578   6.284  71.394  1.00  0.00    -0.131 NA 
ENDROOT
BRANCH   8  13
HETATM   13  C   UNL     1      -9.115   4.662  68.079  1.00  0.00    -0.120 A  
HETATM   14  N   UNL     1      -8.576   3.908  66.236  1.00  0.00    -0.110 NA 
HETATM   15  N   UNL     1      -8.500   5.047  66.944  1.00  0.00    -0.107 NA 
HETATM   16  H   UNL     1      -8.231   3.843  65.279  1.00  0.00     0.000 HD 
HETATM   17  N   UNL     1      -9.130   2.866  66.860  1.00  0.00    -0.162 NA 
HETATM   18  N   UNL     1      -9.477   3.336  68.049  1.00  0.00    -0.189 NA 
ENDBRANCH   8  13
TORSDOF 1
ENDMDL
MODEL      122
REMARK 921   NORMALIZED FREE ENERGY PREDICTED BY IDOCK:   -3.36 KCAL/MOL
REMARK 922        TOTAL FREE ENERGY PREDICTED BY IDOCK:   -3.70 KCAL/MOL
REMARK 923 INTER-LIGAND FREE ENERGY PREDICTED BY IDOCK:   -3.50 KCAL/MOL
REMARK 924 INTRA-LIGAND FREE ENERGY PREDICTED BY IDOCK:   -0.20 KCAL/MOL
REMARK 927      BINDING AFFINITY PREDICTED BY RF-SCORE:    0.00 PKD
ROOT
HETATM    1  C   UNL     1      -8.495   9.236  65.223  1.00  0.00    -0.167 C  
HETATM    2  C   UNL     1      -8.726   7.870  65.788  1.00  0.00    -0.163 A  
HETATM    3  C   UNL     1      -8.390   6.742  65.142  1.00  0.00    -0.084 A  
HETATM    4  C   UNL     1      -8.567   5.455  65.754  1.00  0.00    -0.139 A  
HETATM    5  C   UNL     1      -9.055   5.370  66.996  1.00  0.00    -0.112 A  
HETATM    6  N   UNL     1      -9.451   6.495  67.709  1.00  0.00    -0.120 N  
HETATM    7  C   UNL     1      -9.915   6.327  69.013  1.00  0.00    -0.146 C  
HETATM    8  C   UNL     1     -10.480   7.540  69.666  1.00  0.00    -0.235 C  
HETATM    9  O   UNL     1      -9.838   5.256  69.619  1.00  0.00    -0.167 OA 
HETATM   10  C   UNL     1      -9.343   7.769  67.157  1.00  0.00    -0.150 A  
HETATM   11  C   UNL     1     -10.328   8.690  68.994  1.00  0.00    -0.213 C  
HETATM   12  N   UNL     1      -9.742   8.843  67.767  1.00  0.00    -0.155 NA 
ENDROOT
BRANCH   8  13
HETATM   13  C   UNL     1     -11.123   7.442  70.935  1.00  0.00    -0.263 A  
HETATM   14  N   UNL     1     -12.386   7.063  72.521  1.00  0.00    -0.492 NA 
HETATM   15  N   UNL     1     -12.332   6.902  71.189  1.00  0.00    -0.380 NA 
HETATM   16  H   UNL     1     -13.206   6.791  73.064  1.00  0.00     0.000 HD 
HETATM   17  N   UNL     1     -11.306   7.598  73.093  1.00  0.00    -0.299 NA 
HETATM   18  N   UNL     1     -10.482   7.842  72.084  1.00  0.00    -0.218 NA 
ENDBRANCH   8  13
TORSDOF 1
ENDMDL
MODEL      123
REMARK 921   NORMALIZED FREE ENERGY PREDICTED BY IDOCK:   -3.36 KCAL/MOL
REMARK 922        TOTAL FREE ENERGY PREDICTED BY IDOCK:   -3.70 KCAL/MOL
REMARK 923 INTER-LIGAND FREE ENERGY PREDICTED BY IDOCK:   -3.52 KCAL/MOL
REMARK 924 INTRA-LIGAND FREE ENERGY PREDICTED BY IDOCK:   -0.18 KCAL/MOL
REMARK 927      BINDING AFFINITY PREDICTED BY RF-SCORE:    0.00 PKD
ROOT
HETATM    1  C   UNL     1     -11.087  14.922  65.184  1.00  0.00    -0.399 C  
HETATM    2  C   UNL     1     -11.014  14.422  66.592  1.00  0.00    -0.318 A  
HETATM    3  C   UNL     1     -11.538  15.085  67.635  1.00  0.00    -0.327 A  
HETATM    4  C   UNL     1     -11.505  14.532  68.960  1.00  0.00    -0.318 A  
HETATM    5  C   UNL     1     -10.963  13.327  69.164  1.00  0.00    -0.161 A  
HETATM    6  N   UNL     1     -10.375  12.601  68.135  1.00  0.00    -0.227 N  
HETATM    7  C   UNL     1      -9.864  11.335  68.421  1.00  0.00    -0.199 C  
HETATM    8  C   UNL     1      -9.101  10.676  67.326  1.00  0.00    -0.151 C  
HETATM    9  O   UNL     1     -10.052  10.764  69.497  1.00  0.00    -0.189 OA 
HETATM   10  C   UNL     1     -10.338  13.099  66.835  1.00  0.00    -0.247 A  
HETATM   11  C   UNL     1      -9.132  11.296  66.138  1.00  0.00    -0.204 C  
HETATM   12  N   UNL     1      -9.761  12.477  65.853  1.00  0.00    -0.247 NA 
ENDROOT
BRANCH   8  13
HETATM   13  C   UNL     1      -8.405   9.454  67.565  1.00  0.00    -0.122 A  
HETATM   14  N   UNL     1      -7.141   7.958  68.210  1.00  0.00    -0.085 NA 
HETATM   15  N   UNL     1      -7.320   9.283  68.344  1.00  0.00    -0.077 NA 
HETATM   16  H   UNL     1      -6.359   7.472  68.650  1.00  0.00     0.000 HD 
HETATM   17  N   UNL     1      -8.045   7.316  67.468  1.00  0.00    -0.113 NA 
HETATM   18  N   UNL     1      -8.869   8.266  67.051  1.00  0.00    -0.132 NA 
ENDBRANCH   8  13
TORSDOF 1
ENDMDL
MODEL      124
REMARK 921   NORMALIZED FREE ENERGY PREDICTED BY IDOCK:   -3.34 KCAL/MOL
REMARK 922        TOTAL FREE ENERGY PREDICTED BY IDOCK:   -3.68 KCAL/MOL
REMARK 923 INTER-LIGAND FREE ENERGY PREDICTED BY IDOCK:   -3.98 KCAL/MOL
REMARK 924 INTRA-LIGAND FREE ENERGY PREDICTED BY IDOCK:    0.30 KCAL/MOL
REMARK 927      BINDING AFFINITY PREDICTED BY RF-SCORE:    0.00 PKD
ROOT
HETATM    1  C   UNL     1     -11.501  11.081  69.905  1.00  0.00    -0.400 C  
HETATM    2  C   UNL     1     -11.376  11.440  68.458  1.00  0.00    -0.333 A  
HETATM    3  C   UNL     1     -11.901  12.558  67.930  1.00  0.00    -0.383 A  
HETATM    4  C   UNL     1     -11.694  12.896  66.550  1.00  0.00    -0.453 A  
HETATM    5  C   UNL     1     -10.951  12.100  65.774  1.00  0.00    -0.297 A  
HETATM    6  N   UNL     1     -10.404  10.913  66.248  1.00  0.00    -0.246 N  
HETATM    7  C   UNL     1      -9.610  10.155  65.387  1.00  0.00    -0.264 C  
HETATM    8  C   UNL     1      -9.191   8.819  65.891  1.00  0.00    -0.282 C  
HETATM    9  O   UNL     1      -9.237  10.565  64.286  1.00  0.00    -0.206 OA 
HETATM   10  C   UNL     1     -10.601  10.508  67.565  1.00  0.00    -0.259 A  
HETATM   11  C   UNL     1      -9.483   8.562  67.174  1.00  0.00    -0.162 C  
HETATM   12  N   UNL     1     -10.149   9.387  68.038  1.00  0.00    -0.181 NA 
ENDROOT
BRANCH   8  13
HETATM   13  C   UNL     1      -8.513   7.904  65.033  1.00  0.00    -0.055 A  
HETATM   14  N   UNL     1      -7.452   6.973  63.529  1.00  0.00    -0.092 NA 
HETATM   15  N   UNL     1      -7.950   8.182  63.841  1.00  0.00    -0.146 NA 
HETATM   16  H   UNL     1      -6.974   6.798  62.645  1.00  0.00     0.000 HD 
HETATM   17  N   UNL     1      -7.620   6.016  64.443  1.00  0.00    -0.086 NA 
HETATM   18  N   UNL     1      -8.296   6.603  65.419  1.00  0.00    -0.141 NA 
ENDBRANCH   8  13
TORSDOF 1
ENDMDL
MODEL      125
REMARK 921   NORMALIZED FREE ENERGY PREDICTED BY IDOCK:   -3.30 KCAL/MOL
REMARK 922        TOTAL FREE ENERGY PREDICTED BY IDOCK:   -3.64 KCAL/MOL
REMARK 923 INTER-LIGAND FREE ENERGY PREDICTED BY IDOCK:   -3.56 KCAL/MOL
REMARK 924 INTRA-LIGAND FREE ENERGY PREDICTED BY IDOCK:   -0.08 KCAL/MOL
REMARK 927      BINDING AFFINITY PREDICTED BY RF-SCORE:    0.00 PKD
ROOT
HETATM    1  C   UNL     1     -12.169  13.932  64.503  1.00  0.00    -0.451 C  
HETATM    2  C   UNL     1     -10.991  14.255  65.368  1.00  0.00    -0.335 A  
HETATM    3  C   UNL     1     -10.637  15.510  65.687  1.00  0.00    -0.389 A  
HETATM    4  C   UNL     1      -9.541  15.769  66.578  1.00  0.00    -0.288 A  
HETATM    5  C   UNL     1      -8.869  14.748  67.120  1.00  0.00    -0.216 A  
HETATM    6  N   UNL     1      -9.163  13.426  66.809  1.00  0.00    -0.247 N  
HETATM    7  C   UNL     1      -8.441  12.416  67.445  1.00  0.00    -0.179 C  
HETATM    8  C   UNL     1      -8.683  11.032  66.952  1.00  0.00    -0.148 C  
HETATM    9  O   UNL     1      -7.672  12.632  68.384  1.00  0.00    -0.126 OA 
HETATM   10  C   UNL     1     -10.188  13.109  65.921  1.00  0.00    -0.291 A  
HETATM   11  C   UNL     1      -9.683  10.892  66.072  1.00  0.00    -0.224 C  
HETATM   12  N   UNL     1     -10.468  11.892  65.567  1.00  0.00    -0.258 NA 
ENDROOT
BRANCH   8  13
HETATM   13  C   UNL     1      -7.883   9.949  67.424  1.00  0.00    -0.098 A  
HETATM   14  N   UNL     1      -7.151   8.179  68.189  1.00  0.00    -0.080 NA 
HETATM   15  N   UNL     1      -8.322   8.807  67.988  1.00  0.00    -0.118 NA 
HETATM   16  H   UNL     1      -7.098   7.270  68.648  1.00  0.00     0.000 HD 
HETATM   17  N   UNL     1      -6.062   8.814  67.751  1.00  0.00    -0.047 NA 
HETATM   18  N   UNL     1      -6.519   9.953  67.251  1.00  0.00    -0.068 NA 
ENDBRANCH   8  13
TORSDOF 1
ENDMDL
MODEL      126
REMARK 921   NORMALIZED FREE ENERGY PREDICTED BY IDOCK:   -3.28 KCAL/MOL
REMARK 922        TOTAL FREE ENERGY PREDICTED BY IDOCK:   -3.61 KCAL/MOL
REMARK 923 INTER-LIGAND FREE ENERGY PREDICTED BY IDOCK:   -3.73 KCAL/MOL
REMARK 924 INTRA-LIGAND FREE ENERGY PREDICTED BY IDOCK:    0.12 KCAL/MOL
REMARK 927      BINDING AFFINITY PREDICTED BY RF-SCORE:    0.00 PKD
ROOT
HETATM    1  C   UNL     1      -9.739   7.959  72.718  1.00  0.00    -0.322 C  
HETATM    2  C   UNL     1     -10.462   8.664  71.614  1.00  0.00    -0.366 A  
HETATM    3  C   UNL     1     -11.473   9.521  71.828  1.00  0.00    -0.349 A  
HETATM    4  C   UNL     1     -12.090  10.228  70.741  1.00  0.00    -0.451 A  
HETATM    5  C   UNL     1     -11.643  10.051  69.494  1.00  0.00    -0.059 A  
HETATM    6  N   UNL     1     -10.622   9.157  69.198  1.00  0.00    -0.223 N  
HETATM    7  C   UNL     1     -10.186   9.056  67.877  1.00  0.00    -0.221 C  
HETATM    8  C   UNL     1      -9.211   7.968  67.592  1.00  0.00    -0.145 C  
HETATM    9  O   UNL     1     -10.548   9.834  66.991  1.00  0.00    -0.239 OA 
HETATM   10  C   UNL     1     -10.009   8.410  70.201  1.00  0.00    -0.187 A  
HETATM   11  C   UNL     1      -8.735   7.316  68.662  1.00  0.00    -0.127 C  
HETATM   12  N   UNL     1      -9.083   7.531  69.967  1.00  0.00    -0.148 NA 
ENDROOT
BRANCH   8  13
HETATM   13  C   UNL     1      -8.825   7.679  66.249  1.00  0.00    -0.156 A  
HETATM   14  N   UNL     1      -8.234   7.738  64.274  1.00  0.00    -0.333 NA 
HETATM   15  N   UNL     1      -8.569   8.572  65.273  1.00  0.00    -0.176 NA 
HETATM   16  H   UNL     1      -8.007   8.078  63.340  1.00  0.00     0.000 HD 
HETATM   17  N   UNL     1      -8.215   6.438  64.576  1.00  0.00    -0.085 NA 
HETATM   18  N   UNL     1      -8.588   6.386  65.847  1.00  0.00    -0.146 NA 
ENDBRANCH   8  13
TORSDOF 1
ENDMDL
MODEL      127
REMARK 921   NORMALIZED FREE ENERGY PREDICTED BY IDOCK:   -3.22 KCAL/MOL
REMARK 922        TOTAL FREE ENERGY PREDICTED BY IDOCK:   -3.55 KCAL/MOL
REMARK 923 INTER-LIGAND FREE ENERGY PREDICTED BY IDOCK:   -3.34 KCAL/MOL
REMARK 924 INTRA-LIGAND FREE ENERGY PREDICTED BY IDOCK:   -0.22 KCAL/MOL
REMARK 927      BINDING AFFINITY PREDICTED BY RF-SCORE:    0.00 PKD
ROOT
HETATM    1  C   UNL     1     -11.153  11.632  63.404  1.00  0.00    -0.422 C  
HETATM    2  C   UNL     1      -9.842  10.932  63.578  1.00  0.00    -0.407 A  
HETATM    3  C   UNL     1      -9.239  10.248  62.593  1.00  0.00    -0.318 A  
HETATM    4  C   UNL     1      -7.947   9.652  62.787  1.00  0.00    -0.125 A  
HETATM    5  C   UNL     1      -7.317   9.793  63.958  1.00  0.00    -0.128 A  
HETATM    6  N   UNL     1      -7.898  10.462  65.029  1.00  0.00    -0.138 N  
HETATM    7  C   UNL     1      -7.163  10.599  66.206  1.00  0.00    -0.137 C  
HETATM    8  C   UNL     1      -7.892  11.174  67.369  1.00  0.00    -0.121 C  
HETATM    9  O   UNL     1      -5.969  10.301  66.288  1.00  0.00    -0.061 OA 
HETATM   10  C   UNL     1      -9.166  11.028  64.920  1.00  0.00    -0.188 A  
HETATM   11  C   UNL     1      -9.120  11.648  67.112  1.00  0.00    -0.171 C  
HETATM   12  N   UNL     1      -9.765  11.622  65.906  1.00  0.00    -0.229 NA 
ENDROOT
BRANCH   8  13
HETATM   13  C   UNL     1      -7.282  11.210  68.658  1.00  0.00    -0.098 A  
HETATM   14  N   UNL     1      -6.543  10.806  70.540  1.00  0.00    -0.435 NA 
HETATM   15  N   UNL     1      -7.271  10.222  69.574  1.00  0.00    -0.105 NA 
HETATM   16  H   UNL     1      -6.358  10.343  71.430  1.00  0.00     0.000 HD 
HETATM   17  N   UNL     1      -6.076  12.026  70.267  1.00  0.00    -0.160 NA 
HETATM   18  N   UNL     1      -6.539  12.296  69.056  1.00  0.00    -0.094 NA 
ENDBRANCH   8  13
TORSDOF 1
ENDMDL
MODEL      128
REMARK 921   NORMALIZED FREE ENERGY PREDICTED BY IDOCK:   -3.19 KCAL/MOL
REMARK 922        TOTAL FREE ENERGY PREDICTED BY IDOCK:   -3.52 KCAL/MOL
REMARK 923 INTER-LIGAND FREE ENERGY PREDICTED BY IDOCK:   -3.47 KCAL/MOL
REMARK 924 INTRA-LIGAND FREE ENERGY PREDICTED BY IDOCK:   -0.05 KCAL/MOL
REMARK 927      BINDING AFFINITY PREDICTED BY RF-SCORE:    0.00 PKD
ROOT
HETATM    1  C   UNL     1     -12.310  13.093  69.807  1.00  0.00    -0.164 C  
HETATM    2  C   UNL     1     -11.894  11.691  70.123  1.00  0.00    -0.428 A  
HETATM    3  C   UNL     1     -12.405  10.985  71.144  1.00  0.00    -0.465 A  
HETATM    4  C   UNL     1     -12.026   9.618  71.365  1.00  0.00    -0.480 A  
HETATM    5  C   UNL     1     -11.165   9.023  70.533  1.00  0.00    -0.260 A  
HETATM    6  N   UNL     1     -10.575   9.704  69.475  1.00  0.00    -0.218 N  
HETATM    7  C   UNL     1      -9.715   9.004  68.629  1.00  0.00    -0.160 C  
HETATM    8  C   UNL     1      -8.986   9.819  67.619  1.00  0.00    -0.133 C  
HETATM    9  O   UNL     1      -9.581   7.779  68.675  1.00  0.00    -0.151 OA 
HETATM   10  C   UNL     1     -10.869  11.044  69.230  1.00  0.00    -0.238 A  
HETATM   11  C   UNL     1      -9.359  11.103  67.525  1.00  0.00    -0.168 C  
HETATM   12  N   UNL     1     -10.309  11.731  68.283  1.00  0.00    -0.199 NA 
ENDROOT
BRANCH   8  13
HETATM   13  C   UNL     1      -7.969   9.227  66.813  1.00  0.00    -0.108 A  
HETATM   14  N   UNL     1      -6.858   8.100  65.491  1.00  0.00    -0.062 NA 
HETATM   15  N   UNL     1      -8.106   8.176  65.982  1.00  0.00    -0.106 NA 
HETATM   16  H   UNL     1      -6.580   7.370  64.835  1.00  0.00     0.000 HD 
HETATM   17  N   UNL     1      -6.004   9.036  65.909  1.00  0.00    -0.051 NA 
HETATM   18  N   UNL     1      -6.707   9.772  66.757  1.00  0.00    -0.078 NA 
ENDBRANCH   8  13
TORSDOF 1
ENDMDL
MODEL      129
REMARK 921   NORMALIZED FREE ENERGY PREDICTED BY IDOCK:   -3.16 KCAL/MOL
REMARK 922        TOTAL FREE ENERGY PREDICTED BY IDOCK:   -3.48 KCAL/MOL
REMARK 923 INTER-LIGAND FREE ENERGY PREDICTED BY IDOCK:   -3.84 KCAL/MOL
REMARK 924 INTRA-LIGAND FREE ENERGY PREDICTED BY IDOCK:    0.36 KCAL/MOL
REMARK 927      BINDING AFFINITY PREDICTED BY RF-SCORE:    0.00 PKD
ROOT
HETATM    1  C   UNL     1     -10.040  17.955  67.894  1.00  0.00    -0.350 C  
HETATM    2  C   UNL     1      -9.002  16.888  67.742  1.00  0.00    -0.225 A  
HETATM    3  C   UNL     1      -7.701  17.154  67.541  1.00  0.00    -0.190 A  
HETATM    4  C   UNL     1      -6.730  16.098  67.472  1.00  0.00    -0.198 A  
HETATM    5  C   UNL     1      -7.116  14.827  67.629  1.00  0.00    -0.184 A  
HETATM    6  N   UNL     1      -8.450  14.481  67.809  1.00  0.00    -0.163 N  
HETATM    7  C   UNL     1      -8.769  13.137  68.002  1.00  0.00    -0.190 C  
HETATM    8  C   UNL     1     -10.220  12.806  68.023  1.00  0.00    -0.228 C  
HETATM    9  O   UNL     1      -7.915  12.266  68.184  1.00  0.00    -0.138 OA 
HETATM   10  C   UNL     1      -9.446  15.454  67.845  1.00  0.00    -0.197 A  
HETATM   11  C   UNL     1     -11.057  13.853  68.019  1.00  0.00    -0.259 C  
HETATM   12  N   UNL     1     -10.707  15.174  67.966  1.00  0.00    -0.258 NA 
ENDROOT
BRANCH   8  13
HETATM   13  C   UNL     1     -10.649  11.446  68.056  1.00  0.00    -0.191 A  
HETATM   14  N   UNL     1     -11.693   9.675  68.214  1.00  0.00    -0.106 NA 
HETATM   15  N   UNL     1     -11.871  10.993  68.398  1.00  0.00    -0.552 NA 
HETATM   16  H   UNL     1     -12.427   8.997  68.420  1.00  0.00     0.000 HD 
HETATM   17  N   UNL     1     -10.500   9.303  67.745  1.00  0.00    -0.247 NA 
HETATM   18  N   UNL     1      -9.820  10.434  67.633  1.00  0.00    -0.167 NA 
ENDBRANCH   8  13
TORSDOF 1
ENDMDL
MODEL      130
REMARK 921   NORMALIZED FREE ENERGY PREDICTED BY IDOCK:   -3.15 KCAL/MOL
REMARK 922        TOTAL FREE ENERGY PREDICTED BY IDOCK:   -3.48 KCAL/MOL
REMARK 923 INTER-LIGAND FREE ENERGY PREDICTED BY IDOCK:   -3.66 KCAL/MOL
REMARK 924 INTRA-LIGAND FREE ENERGY PREDICTED BY IDOCK:    0.18 KCAL/MOL
REMARK 927      BINDING AFFINITY PREDICTED BY RF-SCORE:    0.00 PKD
ROOT
HETATM    1  C   UNL     1      -7.506   7.215  66.699  1.00  0.00    -0.088 C  
HETATM    2  C   UNL     1      -7.977   6.809  68.060  1.00  0.00    -0.114 A  
HETATM    3  C   UNL     1      -7.562   5.690  68.676  1.00  0.00    -0.088 A  
HETATM    4  C   UNL     1      -7.987   5.378  70.012  1.00  0.00    -0.082 A  
HETATM    5  C   UNL     1      -8.793   6.220  70.668  1.00  0.00    -0.144 A  
HETATM    6  N   UNL     1      -9.283   7.379  70.078  1.00  0.00    -0.148 N  
HETATM    7  C   UNL     1     -10.088   8.224  70.841  1.00  0.00    -0.190 C  
HETATM    8  C   UNL     1     -10.718   9.359  70.111  1.00  0.00    -0.282 C  
HETATM    9  O   UNL     1     -10.252   8.079  72.054  1.00  0.00    -0.196 OA 
HETATM   10  C   UNL     1      -8.941   7.718  68.771  1.00  0.00    -0.141 A  
HETATM   11  C   UNL     1     -10.311   9.538  68.847  1.00  0.00    -0.208 C  
HETATM   12  N   UNL     1      -9.410   8.766  68.166  1.00  0.00    -0.140 NA 
ENDROOT
BRANCH   8  13
HETATM   13  C   UNL     1     -11.681  10.187  70.760  1.00  0.00    -0.357 A  
HETATM   14  N   UNL     1     -12.910  11.717  71.394  1.00  0.00    -0.386 NA 
HETATM   15  N   UNL     1     -11.890  11.501  70.548  1.00  0.00    -0.328 NA 
HETATM   16  H   UNL     1     -13.314  12.644  71.527  1.00  0.00     0.000 HD 
HETATM   17  N   UNL     1     -13.364  10.648  72.052  1.00  0.00    -0.400 NA 
HETATM   18  N   UNL     1     -12.585   9.655  71.648  1.00  0.00    -0.373 NA 
ENDBRANCH   8  13
TORSDOF 1
ENDMDL
MODEL      131
REMARK 921   NORMALIZED FREE ENERGY PREDICTED BY IDOCK:   -3.11 KCAL/MOL
REMARK 922        TOTAL FREE ENERGY PREDICTED BY IDOCK:   -3.43 KCAL/MOL
REMARK 923 INTER-LIGAND FREE ENERGY PREDICTED BY IDOCK:   -3.22 KCAL/MOL
REMARK 924 INTRA-LIGAND FREE ENERGY PREDICTED BY IDOCK:   -0.21 KCAL/MOL
REMARK 927      BINDING AFFINITY PREDICTED BY RF-SCORE:    0.00 PKD
ROOT
HETATM    1  C   UNL     1     -11.554   8.811  71.569  1.00  0.00    -0.374 C  
HETATM    2  C   UNL     1     -10.207   8.567  70.965  1.00  0.00    -0.255 A  
HETATM    3  C   UNL     1      -9.112   9.264  71.308  1.00  0.00    -0.127 A  
HETATM    4  C   UNL     1      -7.826   8.947  70.752  1.00  0.00    -0.135 A  
HETATM    5  C   UNL     1      -7.705   7.930  69.892  1.00  0.00    -0.098 A  
HETATM    6  N   UNL     1      -8.803   7.188  69.471  1.00  0.00    -0.137 N  
HETATM    7  C   UNL     1      -8.590   6.119  68.601  1.00  0.00    -0.113 C  
HETATM    8  C   UNL     1      -9.812   5.469  68.055  1.00  0.00    -0.173 C  
HETATM    9  O   UNL     1      -7.465   5.700  68.318  1.00  0.00    -0.075 OA 
HETATM   10  C   UNL     1     -10.083   7.471  69.942  1.00  0.00    -0.193 A  
HETATM   11  C   UNL     1     -10.975   5.872  68.585  1.00  0.00    -0.215 C  
HETATM   12  N   UNL     1     -11.141   6.835  69.542  1.00  0.00    -0.277 NA 
ENDROOT
BRANCH   8  13
HETATM   13  C   UNL     1      -9.706   4.473  67.039  1.00  0.00    -0.202 A  
HETATM   14  N   UNL     1      -9.569   2.732  65.942  1.00  0.00    -0.376 NA 
HETATM   15  N   UNL     1      -9.600   3.142  67.220  1.00  0.00    -0.112 NA 
HETATM   16  H   UNL     1      -9.453   1.750  65.692  1.00  0.00     0.000 HD 
HETATM   17  N   UNL     1      -9.698   3.685  65.016  1.00  0.00    -0.170 NA 
HETATM   18  N   UNL     1      -9.794   4.810  65.709  1.00  0.00    -0.191 NA 
ENDBRANCH   8  13
TORSDOF 1
ENDMDL
MODEL      132
REMARK 921   NORMALIZED FREE ENERGY PREDICTED BY IDOCK:   -3.09 KCAL/MOL
REMARK 922        TOTAL FREE ENERGY PREDICTED BY IDOCK:   -3.41 KCAL/MOL
REMARK 923 INTER-LIGAND FREE ENERGY PREDICTED BY IDOCK:   -3.23 KCAL/MOL
REMARK 924 INTRA-LIGAND FREE ENERGY PREDICTED BY IDOCK:   -0.19 KCAL/MOL
REMARK 927      BINDING AFFINITY PREDICTED BY RF-SCORE:    0.00 PKD
ROOT
HETATM    1  C   UNL     1     -11.118   8.114  72.434  1.00  0.00    -0.437 C  
HETATM    2  C   UNL     1     -10.852   7.558  71.070  1.00  0.00    -0.249 A  
HETATM    3  C   UNL     1     -11.506   6.498  70.568  1.00  0.00    -0.448 A  
HETATM    4  C   UNL     1     -11.266   6.044  69.227  1.00  0.00    -0.367 A  
HETATM    5  C   UNL     1     -10.392   6.694  68.451  1.00  0.00    -0.193 A  
HETATM    6  N   UNL     1      -9.658   7.778  68.918  1.00  0.00    -0.153 N  
HETATM    7  C   UNL     1      -8.793   8.426  68.036  1.00  0.00    -0.142 C  
HETATM    8  C   UNL     1      -7.915   9.469  68.631  1.00  0.00    -0.092 C  
HETATM    9  O   UNL     1      -8.769   8.189  66.826  1.00  0.00    -0.126 OA 
HETATM   10  C   UNL     1      -9.815   8.243  70.221  1.00  0.00    -0.184 A  
HETATM   11  C   UNL     1      -8.167   9.785  69.909  1.00  0.00    -0.183 C  
HETATM   12  N   UNL     1      -9.120   9.223  70.713  1.00  0.00    -0.250 NA 
ENDROOT
BRANCH   8  13
HETATM   13  C   UNL     1      -6.887  10.078  67.851  1.00  0.00    -0.075 A  
HETATM   14  N   UNL     1      -5.135  10.601  66.897  1.00  0.00    -0.041 NA 
HETATM   15  N   UNL     1      -5.593   9.708  67.790  1.00  0.00    -0.040 NA 
HETATM   16  H   UNL     1      -4.152  10.640  66.628  1.00  0.00     0.000 HD 
HETATM   17  N   UNL     1      -6.042  11.433  66.381  1.00  0.00    -0.126 NA 
HETATM   18  N   UNL     1      -7.176  11.104  66.982  1.00  0.00    -0.120 NA 
ENDBRANCH   8  13
TORSDOF 1
ENDMDL
MODEL      133
REMARK 921   NORMALIZED FREE ENERGY PREDICTED BY IDOCK:   -3.05 KCAL/MOL
REMARK 922        TOTAL FREE ENERGY PREDICTED BY IDOCK:   -3.37 KCAL/MOL
REMARK 923 INTER-LIGAND FREE ENERGY PREDICTED BY IDOCK:   -3.16 KCAL/MOL
REMARK 924 INTRA-LIGAND FREE ENERGY PREDICTED BY IDOCK:   -0.21 KCAL/MOL
REMARK 927      BINDING AFFINITY PREDICTED BY RF-SCORE:    0.00 PKD
ROOT
HETATM    1  C   UNL     1      -8.263   5.799  65.115  1.00  0.00    -0.140 C  
HETATM    2  C   UNL     1      -8.658   5.051  66.350  1.00  0.00    -0.111 A  
HETATM    3  C   UNL     1      -8.418   3.742  66.524  1.00  0.00    -0.106 A  
HETATM    4  C   UNL     1      -8.753   3.083  67.755  1.00  0.00    -0.140 A  
HETATM    5  C   UNL     1      -9.295   3.781  68.758  1.00  0.00    -0.164 A  
HETATM    6  N   UNL     1      -9.598   5.132  68.634  1.00  0.00    -0.133 N  
HETATM    7  C   UNL     1     -10.127   5.800  69.738  1.00  0.00    -0.209 C  
HETATM    8  C   UNL     1     -10.586   7.195  69.498  1.00  0.00    -0.247 C  
HETATM    9  O   UNL     1     -10.187   5.294  70.861  1.00  0.00    -0.211 OA 
HETATM   10  C   UNL     1      -9.335   5.821  67.452  1.00  0.00    -0.112 A  
HETATM   11  C   UNL     1     -10.288   7.710  68.297  1.00  0.00    -0.198 C  
HETATM   12  N   UNL     1      -9.642   7.069  67.276  1.00  0.00    -0.135 NA 
ENDROOT
BRANCH   8  13
HETATM   13  C   UNL     1     -11.285   7.909  70.516  1.00  0.00    -0.253 A  
HETATM   14  N   UNL     1     -11.884   9.184  72.023  1.00  0.00    -0.360 NA 
HETATM   15  N   UNL     1     -10.787   8.876  71.312  1.00  0.00    -0.264 NA 
HETATM   16  H   UNL     1     -11.866   9.876  72.771  1.00  0.00     0.000 HD 
HETATM   17  N   UNL     1     -13.000   8.530  71.693  1.00  0.00    -0.337 NA 
HETATM   18  N   UNL     1     -12.630   7.710  70.720  1.00  0.00    -0.036 NA 
ENDBRANCH   8  13
TORSDOF 1
ENDMDL
MODEL      134
REMARK 921   NORMALIZED FREE ENERGY PREDICTED BY IDOCK:   -2.92 KCAL/MOL
REMARK 922        TOTAL FREE ENERGY PREDICTED BY IDOCK:   -3.23 KCAL/MOL
REMARK 923 INTER-LIGAND FREE ENERGY PREDICTED BY IDOCK:   -3.17 KCAL/MOL
REMARK 924 INTRA-LIGAND FREE ENERGY PREDICTED BY IDOCK:   -0.06 KCAL/MOL
REMARK 927      BINDING AFFINITY PREDICTED BY RF-SCORE:    0.00 PKD
ROOT
HETATM    1  C   UNL     1     -11.774   8.966  71.439  1.00  0.00    -0.385 C  
HETATM    2  C   UNL     1     -10.964   7.710  71.369  1.00  0.00    -0.257 A  
HETATM    3  C   UNL     1     -10.591   7.015  72.455  1.00  0.00    -0.255 A  
HETATM    4  C   UNL     1      -9.873   5.777  72.335  1.00  0.00    -0.186 A  
HETATM    5  C   UNL     1      -9.585   5.290  71.123  1.00  0.00    -0.163 A  
HETATM    6  N   UNL     1      -9.915   5.974  69.959  1.00  0.00    -0.171 N  
HETATM    7  C   UNL     1      -9.613   5.382  68.732  1.00  0.00    -0.137 C  
HETATM    8  C   UNL     1      -9.835   6.228  67.527  1.00  0.00    -0.139 C  
HETATM    9  O   UNL     1      -9.220   4.218  68.628  1.00  0.00    -0.120 OA 
HETATM   10  C   UNL     1     -10.574   7.199  70.008  1.00  0.00    -0.232 A  
HETATM   11  C   UNL     1     -10.453   7.398  67.741  1.00  0.00    -0.232 C  
HETATM   12  N   UNL     1     -10.861   7.893  68.949  1.00  0.00    -0.058 NA 
ENDROOT
BRANCH   8  13
HETATM   13  C   UNL     1      -9.411   5.778  66.242  1.00  0.00    -0.156 A  
HETATM   14  N   UNL     1      -9.122   4.783  64.459  1.00  0.00    -0.258 NA 
HETATM   15  N   UNL     1      -9.816   4.663  65.602  1.00  0.00    -0.194 NA 
HETATM   16  H   UNL     1      -9.159   4.072  63.728  1.00  0.00     0.000 HD 
HETATM   17  N   UNL     1      -8.383   5.887  64.333  1.00  0.00    -0.094 NA 
HETATM   18  N   UNL     1      -8.564   6.539  65.472  1.00  0.00    -0.136 NA 
ENDBRANCH   8  13
TORSDOF 1
ENDMDL
MODEL      135
REMARK 921   NORMALIZED FREE ENERGY PREDICTED BY IDOCK:   -2.82 KCAL/MOL
REMARK 922        TOTAL FREE ENERGY PREDICTED BY IDOCK:   -3.13 KCAL/MOL
REMARK 923 INTER-LIGAND FREE ENERGY PREDICTED BY IDOCK:   -2.98 KCAL/MOL
REMARK 924 INTRA-LIGAND FREE ENERGY PREDICTED BY IDOCK:   -0.15 KCAL/MOL
REMARK 927      BINDING AFFINITY PREDICTED BY RF-SCORE:    0.00 PKD
ROOT
HETATM    1  C   UNL     1     -11.236   5.617  66.646  1.00  0.00     0.196 C  
HETATM    2  C   UNL     1     -10.833   6.432  67.834  1.00  0.00    -0.404 A  
HETATM    3  C   UNL     1     -11.282   6.191  69.076  1.00  0.00    -0.375 A  
HETATM    4  C   UNL     1     -10.813   6.956  70.197  1.00  0.00    -0.300 A  
HETATM    5  C   UNL     1      -9.898   7.914  70.012  1.00  0.00    -0.181 A  
HETATM    6  N   UNL     1      -9.415   8.236  68.750  1.00  0.00    -0.147 N  
HETATM    7  C   UNL     1      -8.435   9.223  68.644  1.00  0.00    -0.123 C  
HETATM    8  C   UNL     1      -8.077   9.642  67.261  1.00  0.00    -0.110 C  
HETATM    9  O   UNL     1      -7.862   9.705  69.623  1.00  0.00    -0.099 OA 
HETATM   10  C   UNL     1      -9.860   7.559  67.617  1.00  0.00    -0.161 A  
HETATM   11  C   UNL     1      -8.613   8.912  66.273  1.00  0.00    -0.133 C  
HETATM   12  N   UNL     1      -9.470   7.856  66.415  1.00  0.00    -0.205 NA 
ENDROOT
BRANCH   8  13
HETATM   13  C   UNL     1      -7.205  10.750  67.047  1.00  0.00    -0.109 A  
HETATM   14  N   UNL     1      -5.675  12.025  66.512  1.00  0.00    -0.501 NA 
HETATM   15  N   UNL     1      -5.991  10.721  66.462  1.00  0.00    -0.085 NA 
HETATM   16  H   UNL     1      -4.777  12.376  66.179  1.00  0.00     0.000 HD 
HETATM   17  N   UNL     1      -6.604  12.836  67.023  1.00  0.00    -0.101 NA 
HETATM   18  N   UNL     1      -7.597  12.029  67.366  1.00  0.00    -0.142 NA 
ENDBRANCH   8  13
TORSDOF 1
ENDMDL
MODEL      136
REMARK 921   NORMALIZED FREE ENERGY PREDICTED BY IDOCK:   -2.74 KCAL/MOL
REMARK 922        TOTAL FREE ENERGY PREDICTED BY IDOCK:   -3.05 KCAL/MOL
REMARK 923 INTER-LIGAND FREE ENERGY PREDICTED BY IDOCK:   -3.24 KCAL/MOL
REMARK 924 INTRA-LIGAND FREE ENERGY PREDICTED BY IDOCK:    0.20 KCAL/MOL
REMARK 927      BINDING AFFINITY PREDICTED BY RF-SCORE:    0.00 PKD
ROOT
HETATM    1  C   UNL     1     -10.550  18.222  64.997  1.00  0.00     1.165 C  
HETATM    2  C   UNL     1     -10.281  18.217  66.469  1.00  0.00    -0.409 A  
HETATM    3  C   UNL     1      -9.643  19.215  67.102  1.00  0.00    -0.378 A  
HETATM    4  C   UNL     1      -9.470  19.199  68.527  1.00  0.00    -0.444 A  
HETATM    5  C   UNL     1      -9.966  18.187  69.247  1.00  0.00    -0.074 A  
HETATM    6  N   UNL     1     -10.609  17.108  68.652  1.00  0.00    -0.359 N  
HETATM    7  C   UNL     1     -11.131  16.109  69.474  1.00  0.00    -0.344 C  
HETATM    8  C   UNL     1     -11.658  14.903  68.780  1.00  0.00    -0.348 C  
HETATM    9  O   UNL     1     -11.194  16.217  70.701  1.00  0.00    -0.368 OA 
HETATM   10  C   UNL     1     -10.774  17.043  67.271  1.00  0.00    -0.206 A  
HETATM   11  C   UNL     1     -11.724  14.979  67.444  1.00  0.00    -0.239 C  
HETATM   12  N   UNL     1     -11.327  16.035  66.670  1.00  0.00     0.138 NA 
ENDROOT
BRANCH   8  13
HETATM   13  C   UNL     1     -12.068  13.761  69.531  1.00  0.00    -0.334 A  
HETATM   14  N   UNL     1     -12.368  11.878  70.316  1.00  0.00    -0.247 NA 
HETATM   15  N   UNL     1     -11.729  12.478  69.298  1.00  0.00    -0.309 NA 
HETATM   16  H   UNL     1     -12.361  10.865  70.436  1.00  0.00     0.000 HD 
HETATM   17  N   UNL     1     -13.012  12.685  71.163  1.00  0.00    -0.220 NA 
HETATM   18  N   UNL     1     -12.822  13.900  70.672  1.00  0.00    -0.267 NA 
ENDBRANCH   8  13
TORSDOF 1
ENDMDL
MODEL      137
REMARK 921   NORMALIZED FREE ENERGY PREDICTED BY IDOCK:   -2.71 KCAL/MOL
REMARK 922        TOTAL FREE ENERGY PREDICTED BY IDOCK:   -3.01 KCAL/MOL
REMARK 923 INTER-LIGAND FREE ENERGY PREDICTED BY IDOCK:   -2.84 KCAL/MOL
REMARK 924 INTRA-LIGAND FREE ENERGY PREDICTED BY IDOCK:   -0.18 KCAL/MOL
REMARK 927      BINDING AFFINITY PREDICTED BY RF-SCORE:    0.00 PKD
ROOT
HETATM    1  C   UNL     1      -7.907   6.351  72.519  1.00  0.00    -0.101 C  
HETATM    2  C   UNL     1      -8.952   6.261  71.453  1.00  0.00    -0.139 A  
HETATM    3  C   UNL     1      -9.999   5.422  71.519  1.00  0.00    -0.237 A  
HETATM    4  C   UNL     1     -11.015   5.421  70.505  1.00  0.00    -0.101 A  
HETATM    5  C   UNL     1     -10.937   6.281  69.483  1.00  0.00    -0.379 A  
HETATM    6  N   UNL     1      -9.866   7.154  69.337  1.00  0.00    -0.160 N  
HETATM    7  C   UNL     1      -9.875   8.046  68.265  1.00  0.00    -0.170 C  
HETATM    8  C   UNL     1      -8.631   8.838  68.064  1.00  0.00    -0.134 C  
HETATM    9  O   UNL     1     -10.858   8.209  67.538  1.00  0.00    -0.194 OA 
HETATM   10  C   UNL     1      -8.827   7.177  70.265  1.00  0.00    -0.148 A  
HETATM   11  C   UNL     1      -7.707   8.729  69.028  1.00  0.00    -0.091 C  
HETATM   12  N   UNL     1      -7.786   7.943  70.145  1.00  0.00    -0.096 NA 
ENDROOT
BRANCH   8  13
HETATM   13  C   UNL     1      -8.478   9.659  66.908  1.00  0.00    -0.120 A  
HETATM   14  N   UNL     1      -8.251  11.202  65.558  1.00  0.00    -0.365 NA 
HETATM   15  N   UNL     1      -8.436  11.006  66.873  1.00  0.00    -0.135 NA 
HETATM   16  H   UNL     1      -8.207  12.136  65.152  1.00  0.00     0.000 HD 
HETATM   17  N   UNL     1      -8.127  10.102  64.812  1.00  0.00    -0.151 NA 
HETATM   18  N   UNL     1      -8.266   9.101  65.669  1.00  0.00    -0.116 NA 
ENDBRANCH   8  13
TORSDOF 1
ENDMDL
MODEL      138
REMARK 921   NORMALIZED FREE ENERGY PREDICTED BY IDOCK:   -2.70 KCAL/MOL
REMARK 922        TOTAL FREE ENERGY PREDICTED BY IDOCK:   -3.00 KCAL/MOL
REMARK 923 INTER-LIGAND FREE ENERGY PREDICTED BY IDOCK:   -2.80 KCAL/MOL
REMARK 924 INTRA-LIGAND FREE ENERGY PREDICTED BY IDOCK:   -0.20 KCAL/MOL
REMARK 927      BINDING AFFINITY PREDICTED BY RF-SCORE:    0.00 PKD
ROOT
HETATM    1  C   UNL     1     -10.645   8.053  70.890  1.00  0.00    -0.233 C  
HETATM    2  C   UNL     1     -10.443   8.254  69.421  1.00  0.00    -0.224 A  
HETATM    3  C   UNL     1     -10.657   9.427  68.805  1.00  0.00    -0.234 A  
HETATM    4  C   UNL     1     -10.381   9.591  67.405  1.00  0.00    -0.319 A  
HETATM    5  C   UNL     1      -9.885   8.569  66.700  1.00  0.00    -0.272 A  
HETATM    6  N   UNL     1      -9.669   7.320  67.269  1.00  0.00    -0.149 N  
HETATM    7  C   UNL     1      -9.114   6.315  66.477  1.00  0.00    -0.153 C  
HETATM    8  C   UNL     1      -9.061   4.958  67.087  1.00  0.00    -0.122 C  
HETATM    9  O   UNL     1      -8.656   6.525  65.352  1.00  0.00    -0.141 OA 
HETATM   10  C   UNL     1      -9.954   7.083  68.612  1.00  0.00    -0.156 A  
HETATM   11  C   UNL     1      -9.398   4.886  68.382  1.00  0.00    -0.131 C  
HETATM   12  N   UNL     1      -9.811   5.922  69.173  1.00  0.00    -0.148 NA 
ENDROOT
BRANCH   8  13
HETATM   13  C   UNL     1      -8.659   3.832  66.308  1.00  0.00    -0.113 A  
HETATM   14  N   UNL     1      -7.690   2.221  65.461  1.00  0.00    -0.072 NA 
HETATM   15  N   UNL     1      -7.485   3.175  66.384  1.00  0.00    -0.075 NA 
HETATM   16  H   UNL     1      -6.969   1.541  65.219  1.00  0.00     0.000 HD 
HETATM   17  N   UNL     1      -8.892   2.213  64.880  1.00  0.00    -0.113 NA 
HETATM   18  N   UNL     1      -9.528   3.243  65.420  1.00  0.00    -0.148 NA 
ENDBRANCH   8  13
TORSDOF 1
ENDMDL
MODEL      139
REMARK 921   NORMALIZED FREE ENERGY PREDICTED BY IDOCK:   -2.69 KCAL/MOL
REMARK 922        TOTAL FREE ENERGY PREDICTED BY IDOCK:   -2.99 KCAL/MOL
REMARK 923 INTER-LIGAND FREE ENERGY PREDICTED BY IDOCK:   -2.79 KCAL/MOL
REMARK 924 INTRA-LIGAND FREE ENERGY PREDICTED BY IDOCK:   -0.20 KCAL/MOL
REMARK 927      BINDING AFFINITY PREDICTED BY RF-SCORE:    0.00 PKD
ROOT
HETATM    1  C   UNL     1      -5.556  12.993  67.864  1.00  0.00    -0.123 C  
HETATM    2  C   UNL     1      -6.992  12.754  67.518  1.00  0.00    -0.149 A  
HETATM    3  C   UNL     1      -7.937  13.704  67.610  1.00  0.00    -0.180 A  
HETATM    4  C   UNL     1      -9.289  13.448  67.199  1.00  0.00    -0.240 A  
HETATM    5  C   UNL     1      -9.616  12.253  66.696  1.00  0.00    -0.223 A  
HETATM    6  N   UNL     1      -8.696  11.217  66.602  1.00  0.00    -0.169 N  
HETATM    7  C   UNL     1      -9.105  10.012  66.032  1.00  0.00    -0.155 C  
HETATM    8  C   UNL     1      -8.132   8.889  66.109  1.00  0.00    -0.114 C  
HETATM    9  O   UNL     1     -10.190   9.875  65.462  1.00  0.00    -0.273 OA 
HETATM   10  C   UNL     1      -7.378  11.387  67.021  1.00  0.00    -0.144 A  
HETATM   11  C   UNL     1      -6.912   9.204  66.567  1.00  0.00    -0.080 C  
HETATM   12  N   UNL     1      -6.497  10.435  66.994  1.00  0.00    -0.071 NA 
ENDROOT
BRANCH   8  13
HETATM   13  C   UNL     1      -8.511   7.576  65.700  1.00  0.00    -0.132 A  
HETATM   14  N   UNL     1      -8.753   5.762  64.750  1.00  0.00    -0.344 NA 
HETATM   15  N   UNL     1      -8.120   6.934  64.581  1.00  0.00    -0.114 NA 
HETATM   16  H   UNL     1      -8.710   5.020  64.051  1.00  0.00     0.000 HD 
HETATM   17  N   UNL     1      -9.441   5.623  65.885  1.00  0.00    -0.115 NA 
HETATM   18  N   UNL     1      -9.289   6.782  66.509  1.00  0.00    -0.165 NA 
ENDBRANCH   8  13
TORSDOF 1
ENDMDL
MODEL      140
REMARK 921   NORMALIZED FREE ENERGY PREDICTED BY IDOCK:   -2.69 KCAL/MOL
REMARK 922        TOTAL FREE ENERGY PREDICTED BY IDOCK:   -2.99 KCAL/MOL
REMARK 923 INTER-LIGAND FREE ENERGY PREDICTED BY IDOCK:   -2.77 KCAL/MOL
REMARK 924 INTRA-LIGAND FREE ENERGY PREDICTED BY IDOCK:   -0.22 KCAL/MOL
REMARK 927      BINDING AFFINITY PREDICTED BY RF-SCORE:    0.00 PKD
ROOT
HETATM    1  C   UNL     1      -7.748   7.005  63.849  1.00  0.00    -0.119 C  
HETATM    2  C   UNL     1      -8.370   5.825  64.527  1.00  0.00    -0.091 A  
HETATM    3  C   UNL     1      -8.475   4.617  63.949  1.00  0.00    -0.126 A  
HETATM    4  C   UNL     1      -9.017   3.497  64.665  1.00  0.00    -0.127 A  
HETATM    5  C   UNL     1      -9.408   3.644  65.935  1.00  0.00    -0.166 A  
HETATM    6  N   UNL     1      -9.356   4.872  66.582  1.00  0.00    -0.132 N  
HETATM    7  C   UNL     1      -9.748   4.937  67.919  1.00  0.00    -0.155 C  
HETATM    8  C   UNL     1      -9.831   6.301  68.510  1.00  0.00    -0.152 C  
HETATM    9  O   UNL     1      -9.981   3.935  68.598  1.00  0.00    -0.019 OA 
HETATM   10  C   UNL     1      -8.879   6.007  65.931  1.00  0.00    -0.149 A  
HETATM   11  C   UNL     1      -9.362   7.298  67.746  1.00  0.00    -0.128 C  
HETATM   12  N   UNL     1      -8.855   7.183  66.481  1.00  0.00    -0.136 NA 
ENDROOT
BRANCH   8  13
HETATM   13  C   UNL     1     -10.371   6.489  69.817  1.00  0.00    -0.195 A  
HETATM   14  N   UNL     1     -11.570   6.705  71.481  1.00  0.00    -0.294 NA 
HETATM   15  N   UNL     1     -11.675   6.555  70.150  1.00  0.00    -0.411 NA 
HETATM   16  H   UNL     1     -12.389   6.828  72.076  1.00  0.00     0.000 HD 
HETATM   17  N   UNL     1     -10.332   6.682  71.979  1.00  0.00    -0.197 NA 
HETATM   18  N   UNL     1      -9.550   6.538  70.919  1.00  0.00    -0.175 NA 
ENDBRANCH   8  13
TORSDOF 1
ENDMDL
MODEL      141
REMARK 921   NORMALIZED FREE ENERGY PREDICTED BY IDOCK:   -2.64 KCAL/MOL
REMARK 922        TOTAL FREE ENERGY PREDICTED BY IDOCK:   -2.94 KCAL/MOL
REMARK 923 INTER-LIGAND FREE ENERGY PREDICTED BY IDOCK:   -3.37 KCAL/MOL
REMARK 924 INTRA-LIGAND FREE ENERGY PREDICTED BY IDOCK:    0.43 KCAL/MOL
REMARK 927      BINDING AFFINITY PREDICTED BY RF-SCORE:    0.00 PKD
ROOT
HETATM    1  C   UNL     1      -6.917   6.608  63.429  1.00  0.00    -0.052 C  
HETATM    2  C   UNL     1      -7.587   6.026  64.634  1.00  0.00    -0.091 A  
HETATM    3  C   UNL     1      -7.476   4.735  64.984  1.00  0.00    -0.076 A  
HETATM    4  C   UNL     1      -8.079   4.237  66.188  1.00  0.00    -0.102 A  
HETATM    5  C   UNL     1      -8.748   5.072  66.991  1.00  0.00    -0.103 A  
HETATM    6  N   UNL     1      -8.927   6.413  66.673  1.00  0.00    -0.135 N  
HETATM    7  C   UNL     1      -9.605   7.227  67.580  1.00  0.00    -0.135 C  
HETATM    8  C   UNL     1      -9.912   8.607  67.116  1.00  0.00    -0.297 C  
HETATM    9  O   UNL     1      -9.908   6.856  68.716  1.00  0.00    -0.146 OA 
HETATM   10  C   UNL     1      -8.402   6.949  65.500  1.00  0.00    -0.137 A  
HETATM   11  C   UNL     1      -9.361   8.966  65.948  1.00  0.00    -0.236 C  
HETATM   12  N   UNL     1      -8.582   8.183  65.141  1.00  0.00    -0.118 NA 
ENDROOT
BRANCH   8  13
HETATM   13  C   UNL     1     -10.737   9.466  67.901  1.00  0.00    -0.210 A  
HETATM   14  N   UNL     1     -12.050  10.889  68.611  1.00  0.00    -0.796 NA 
HETATM   15  N   UNL     1     -11.497  10.485  67.455  1.00  0.00    -0.390 NA 
HETATM   16  H   UNL     1     -12.676  11.693  68.658  1.00  0.00     0.000 HD 
HETATM   17  N   UNL     1     -11.735  10.175  69.694  1.00  0.00    -0.153 NA 
HETATM   18  N   UNL     1     -10.894   9.252  69.250  1.00  0.00    -0.195 NA 
ENDBRANCH   8  13
TORSDOF 1
ENDMDL
MODEL      142
REMARK 921   NORMALIZED FREE ENERGY PREDICTED BY IDOCK:   -2.61 KCAL/MOL
REMARK 922        TOTAL FREE ENERGY PREDICTED BY IDOCK:   -2.91 KCAL/MOL
REMARK 923 INTER-LIGAND FREE ENERGY PREDICTED BY IDOCK:   -2.72 KCAL/MOL
REMARK 924 INTRA-LIGAND FREE ENERGY PREDICTED BY IDOCK:   -0.19 KCAL/MOL
REMARK 927      BINDING AFFINITY PREDICTED BY RF-SCORE:    0.00 PKD
ROOT
HETATM    1  C   UNL     1      -9.639  11.970  68.657  1.00  0.00    -0.087 C  
HETATM    2  C   UNL     1      -9.767  10.778  67.762  1.00  0.00    -0.179 A  
HETATM    3  C   UNL     1      -9.980  10.872  66.440  1.00  0.00    -0.266 A  
HETATM    4  C   UNL     1     -10.027   9.701  65.609  1.00  0.00    -0.321 A  
HETATM    5  C   UNL     1      -9.835   8.494  66.151  1.00  0.00    -0.157 A  
HETATM    6  N   UNL     1      -9.640   8.322  67.516  1.00  0.00    -0.148 N  
HETATM    7  C   UNL     1      -9.411   7.034  67.999  1.00  0.00    -0.127 C  
HETATM    8  C   UNL     1      -9.376   6.889  69.480  1.00  0.00    -0.147 C  
HETATM    9  O   UNL     1      -9.210   6.068  67.261  1.00  0.00    -0.115 OA 
HETATM   10  C   UNL     1      -9.625   9.413  68.382  1.00  0.00    -0.146 A  
HETATM   11  C   UNL     1      -9.403   8.032  70.180  1.00  0.00    -0.156 C  
HETATM   12  N   UNL     1      -9.492   9.297  69.667  1.00  0.00    -0.170 NA 
ENDROOT
BRANCH   8  13
HETATM   13  C   UNL     1      -9.306   5.595  70.077  1.00  0.00    -0.149 A  
HETATM   14  N   UNL     1      -9.637   3.671  70.742  1.00  0.00    -0.172 NA 
HETATM   15  N   UNL     1     -10.270   4.654  70.081  1.00  0.00    -0.209 NA 
HETATM   16  H   UNL     1     -10.097   2.789  70.967  1.00  0.00     0.000 HD 
HETATM   17  N   UNL     1      -8.371   3.916  71.087  1.00  0.00    -0.071 NA 
HETATM   18  N   UNL     1      -8.143   5.149  70.659  1.00  0.00    -0.103 NA 
ENDBRANCH   8  13
TORSDOF 1
ENDMDL
MODEL      143
REMARK 921   NORMALIZED FREE ENERGY PREDICTED BY IDOCK:   -2.58 KCAL/MOL
REMARK 922        TOTAL FREE ENERGY PREDICTED BY IDOCK:   -2.87 KCAL/MOL
REMARK 923 INTER-LIGAND FREE ENERGY PREDICTED BY IDOCK:   -2.89 KCAL/MOL
REMARK 924 INTRA-LIGAND FREE ENERGY PREDICTED BY IDOCK:    0.02 KCAL/MOL
REMARK 927      BINDING AFFINITY PREDICTED BY RF-SCORE:    0.00 PKD
ROOT
HETATM    1  C   UNL     1     -12.312  12.978  68.998  1.00  0.00     0.093 C  
HETATM    2  C   UNL     1     -11.320  12.190  68.201  1.00  0.00    -0.349 A  
HETATM    3  C   UNL     1     -10.987  12.495  66.937  1.00  0.00    -0.296 A  
HETATM    4  C   UNL     1      -9.978  11.751  66.236  1.00  0.00    -0.246 A  
HETATM    5  C   UNL     1      -9.339  10.751  66.852  1.00  0.00    -0.160 A  
HETATM    6  N   UNL     1      -9.656  10.365  68.149  1.00  0.00    -0.143 N  
HETATM    7  C   UNL     1      -8.920   9.336  68.735  1.00  0.00    -0.132 C  
HETATM    8  C   UNL     1      -9.410   8.853  70.055  1.00  0.00    -0.184 C  
HETATM    9  O   UNL     1      -7.901   8.866  68.225  1.00  0.00    -0.099 OA 
HETATM   10  C   UNL     1     -10.654  11.018  68.869  1.00  0.00    -0.207 A  
HETATM   11  C   UNL     1     -10.400   9.568  70.608  1.00  0.00    -0.302 C  
HETATM   12  N   UNL     1     -11.014  10.662  70.064  1.00  0.00    -0.281 NA 
ENDROOT
BRANCH   8  13
HETATM   13  C   UNL     1      -8.825   7.704  70.665  1.00  0.00    -0.145 A  
HETATM   14  N   UNL     1      -8.412   5.850  71.470  1.00  0.00    -0.127 NA 
HETATM   15  N   UNL     1      -9.442   6.542  70.956  1.00  0.00    -0.164 NA 
HETATM   16  H   UNL     1      -8.527   4.907  71.842  1.00  0.00     0.000 HD 
HETATM   17  N   UNL     1      -7.229   6.469  71.466  1.00  0.00    -0.081 NA 
HETATM   18  N   UNL     1      -7.480   7.661  70.945  1.00  0.00    -0.070 NA 
ENDBRANCH   8  13
TORSDOF 1
ENDMDL
MODEL      144
REMARK 921   NORMALIZED FREE ENERGY PREDICTED BY IDOCK:   -2.54 KCAL/MOL
REMARK 922        TOTAL FREE ENERGY PREDICTED BY IDOCK:   -2.83 KCAL/MOL
REMARK 923 INTER-LIGAND FREE ENERGY PREDICTED BY IDOCK:   -2.86 KCAL/MOL
REMARK 924 INTRA-LIGAND FREE ENERGY PREDICTED BY IDOCK:    0.03 KCAL/MOL
REMARK 927      BINDING AFFINITY PREDICTED BY RF-SCORE:    0.00 PKD
ROOT
HETATM    1  C   UNL     1     -10.099   5.377  68.148  1.00  0.00    -0.220 C  
HETATM    2  C   UNL     1      -9.492   4.886  69.424  1.00  0.00    -0.218 A  
HETATM    3  C   UNL     1      -9.580   3.611  69.837  1.00  0.00    -0.238 A  
HETATM    4  C   UNL     1      -8.921   3.171  71.035  1.00  0.00    -0.164 A  
HETATM    5  C   UNL     1      -8.188   4.034  71.746  1.00  0.00    -0.090 A  
HETATM    6  N   UNL     1      -8.079   5.373  71.392  1.00  0.00    -0.114 N  
HETATM    7  C   UNL     1      -7.266   6.202  72.165  1.00  0.00    -0.092 C  
HETATM    8  C   UNL     1      -7.318   7.654  71.841  1.00  0.00    -0.070 C  
HETATM    9  O   UNL     1      -6.514   5.773  73.043  1.00  0.00    -0.060 OA 
HETATM   10  C   UNL     1      -8.727   5.873  70.265  1.00  0.00    -0.142 A  
HETATM   11  C   UNL     1      -8.011   7.983  70.742  1.00  0.00    -0.099 C  
HETATM   12  N   UNL     1      -8.690   7.124  69.922  1.00  0.00    -0.141 NA 
ENDROOT
BRANCH   8  13
HETATM   13  C   UNL     1      -6.649   8.602  72.670  1.00  0.00    -0.027 A  
HETATM   14  N   UNL     1      -5.824   9.683  74.221  1.00  0.00    -0.333 NA 
HETATM   15  N   UNL     1      -6.596   8.603  74.017  1.00  0.00    -0.260 NA 
HETATM   16  H   UNL     1      -5.598  10.016  75.158  1.00  0.00     0.000 HD 
HETATM   17  N   UNL     1      -5.368  10.295  73.126  1.00  0.00    -0.305 NA 
HETATM   18  N   UNL     1      -5.887   9.606  72.120  1.00  0.00    -0.284 NA 
ENDBRANCH   8  13
TORSDOF 1
ENDMDL
MODEL      145
REMARK 921   NORMALIZED FREE ENERGY PREDICTED BY IDOCK:   -2.41 KCAL/MOL
REMARK 922        TOTAL FREE ENERGY PREDICTED BY IDOCK:   -2.69 KCAL/MOL
REMARK 923 INTER-LIGAND FREE ENERGY PREDICTED BY IDOCK:   -2.49 KCAL/MOL
REMARK 924 INTRA-LIGAND FREE ENERGY PREDICTED BY IDOCK:   -0.20 KCAL/MOL
REMARK 927      BINDING AFFINITY PREDICTED BY RF-SCORE:    0.00 PKD
ROOT
HETATM    1  C   UNL     1      -9.037  14.827  66.799  1.00  0.00    -0.291 C  
HETATM    2  C   UNL     1      -8.196  13.685  67.275  1.00  0.00    -0.164 A  
HETATM    3  C   UNL     1      -6.883  13.582  67.016  1.00  0.00     0.622 A  
HETATM    4  C   UNL     1      -6.102  12.504  67.554  1.00  0.00    -0.154 A  
HETATM    5  C   UNL     1      -6.680  11.593  68.343  1.00  0.00    -0.064 A  
HETATM    6  N   UNL     1      -8.041  11.622  68.626  1.00  0.00    -0.144 N  
HETATM    7  C   UNL     1      -8.562  10.658  69.488  1.00  0.00     0.042 C  
HETATM    8  C   UNL     1     -10.044  10.636  69.623  1.00  0.00    -0.120 C  
HETATM    9  O   UNL     1      -7.853   9.885  70.136  1.00  0.00    -0.170 OA 
HETATM   10  C   UNL     1      -8.861  12.619  68.103  1.00  0.00    -0.194 A  
HETATM   11  C   UNL     1     -10.699  11.646  69.034  1.00  0.00    -0.179 C  
HETATM   12  N   UNL     1     -10.143  12.660  68.304  1.00  0.00    -0.230 NA 
ENDROOT
BRANCH   8  13
HETATM   13  C   UNL     1     -10.687   9.592  70.353  1.00  0.00    -0.298 A  
HETATM   14  N   UNL     1     -11.711   8.435  71.719  1.00  0.00    -0.289 NA 
HETATM   15  N   UNL     1     -11.260   9.691  71.568  1.00  0.00    -0.362 NA 
HETATM   16  H   UNL     1     -12.181   8.129  72.570  1.00  0.00     0.000 HD 
HETATM   17  N   UNL     1     -11.507   7.611  70.689  1.00  0.00    -0.279 NA 
HETATM   18  N   UNL     1     -10.854   8.344  69.800  1.00  0.00    -0.219 NA 
ENDBRANCH   8  13
TORSDOF 1
ENDMDL
MODEL      146
REMARK 921   NORMALIZED FREE ENERGY PREDICTED BY IDOCK:   -2.30 KCAL/MOL
REMARK 922        TOTAL FREE ENERGY PREDICTED BY IDOCK:   -2.58 KCAL/MOL
REMARK 923 INTER-LIGAND FREE ENERGY PREDICTED BY IDOCK:   -2.60 KCAL/MOL
REMARK 924 INTRA-LIGAND FREE ENERGY PREDICTED BY IDOCK:    0.02 KCAL/MOL
REMARK 927      BINDING AFFINITY PREDICTED BY RF-SCORE:    0.00 PKD
ROOT
HETATM    1  C   UNL     1      -9.472   6.230  65.992  1.00  0.00    -0.028 C  
HETATM    2  C   UNL     1      -9.458   7.034  67.253  1.00  0.00    -0.165 A  
HETATM    3  C   UNL     1      -9.249   8.360  67.276  1.00  0.00    -0.165 A  
HETATM    4  C   UNL     1      -9.315   9.101  68.505  1.00  0.00    -0.137 A  
HETATM    5  C   UNL     1      -9.608   8.471  69.647  1.00  0.00    -0.170 A  
HETATM    6  N   UNL     1      -9.805   7.096  69.699  1.00  0.00    -0.162 N  
HETATM    7  C   UNL     1     -10.143   6.518  70.922  1.00  0.00    -0.185 C  
HETATM    8  C   UNL     1     -10.178   5.030  70.954  1.00  0.00    -0.287 C  
HETATM    9  O   UNL     1     -10.436   7.182  71.919  1.00  0.00    -0.197 OA 
HETATM   10  C   UNL     1      -9.715   6.314  68.550  1.00  0.00    -0.129 A  
HETATM   11  C   UNL     1     -10.043   4.417  69.769  1.00  0.00    -0.030 C  
HETATM   12  N   UNL     1      -9.847   5.023  68.558  1.00  0.00    -0.154 NA 
ENDROOT
BRANCH   8  13
HETATM   13  C   UNL     1     -10.357   4.339  72.188  1.00  0.00    -0.123 A  
HETATM   14  N   UNL     1     -11.008   3.612  74.005  1.00  0.00    -0.190 NA 
HETATM   15  N   UNL     1     -11.323   4.555  73.102  1.00  0.00    -0.254 NA 
HETATM   16  H   UNL     1     -11.525   3.506  74.878  1.00  0.00     0.000 HD 
HETATM   17  N   UNL     1      -9.980   2.820  73.693  1.00  0.00    -0.100 NA 
HETATM   18  N   UNL     1      -9.555   3.273  72.523  1.00  0.00    -0.121 NA 
ENDBRANCH   8  13
TORSDOF 1
ENDMDL
MODEL      147
REMARK 921   NORMALIZED FREE ENERGY PREDICTED BY IDOCK:   -2.22 KCAL/MOL
REMARK 922        TOTAL FREE ENERGY PREDICTED BY IDOCK:   -2.49 KCAL/MOL
REMARK 923 INTER-LIGAND FREE ENERGY PREDICTED BY IDOCK:   -2.43 KCAL/MOL
REMARK 924 INTRA-LIGAND FREE ENERGY PREDICTED BY IDOCK:   -0.06 KCAL/MOL
REMARK 927      BINDING AFFINITY PREDICTED BY RF-SCORE:    0.00 PKD
ROOT
HETATM    1  C   UNL     1      -9.942   3.669  63.971  1.00  0.00    -0.190 C  
HETATM    2  C   UNL     1      -9.583   3.251  65.362  1.00  0.00    -0.069 A  
HETATM    3  C   UNL     1      -9.180   2.009  65.675  1.00  0.00    -0.006 A  
HETATM    4  C   UNL     1      -8.778   1.674  67.013  1.00  0.00    -0.122 A  
HETATM    5  C   UNL     1      -8.783   2.613  67.964  1.00  0.00    -0.105 A  
HETATM    6  N   UNL     1      -9.218   3.910  67.716  1.00  0.00    -0.152 N  
HETATM    7  C   UNL     1      -9.158   4.842  68.752  1.00  0.00    -0.112 C  
HETATM    8  C   UNL     1      -9.789   6.162  68.479  1.00  0.00    -0.157 C  
HETATM    9  O   UNL     1      -8.590   4.617  69.822  1.00  0.00    -0.073 OA 
HETATM   10  C   UNL     1      -9.659   4.289  66.450  1.00  0.00    -0.198 A  
HETATM   11  C   UNL     1     -10.195   6.366  67.218  1.00  0.00    -0.187 C  
HETATM   12  N   UNL     1     -10.115   5.474  66.184  1.00  0.00    -0.130 NA 
ENDROOT
BRANCH   8  13
HETATM   13  C   UNL     1      -9.922   7.127  69.521  1.00  0.00    -0.164 A  
HETATM   14  N   UNL     1      -9.636   8.511  71.022  1.00  0.00    -0.178 NA 
HETATM   15  N   UNL     1      -8.926   7.680  70.241  1.00  0.00    -0.145 NA 
HETATM   16  H   UNL     1      -9.194   9.084  71.742  1.00  0.00     0.000 HD 
HETATM   17  N   UNL     1     -10.952   8.545  70.802  1.00  0.00    -0.241 NA 
HETATM   18  N   UNL     1     -11.149   7.662  69.834  1.00  0.00    -0.202 NA 
ENDBRANCH   8  13
TORSDOF 1
ENDMDL
MODEL      148
REMARK 921   NORMALIZED FREE ENERGY PREDICTED BY IDOCK:   -2.19 KCAL/MOL
REMARK 922        TOTAL FREE ENERGY PREDICTED BY IDOCK:   -2.46 KCAL/MOL
REMARK 923 INTER-LIGAND FREE ENERGY PREDICTED BY IDOCK:   -2.78 KCAL/MOL
REMARK 924 INTRA-LIGAND FREE ENERGY PREDICTED BY IDOCK:    0.32 KCAL/MOL
REMARK 927      BINDING AFFINITY PREDICTED BY RF-SCORE:    0.00 PKD
ROOT
HETATM    1  C   UNL     1      -6.088  10.039  65.268  1.00  0.00    -0.104 C  
HETATM    2  C   UNL     1      -7.390  10.461  65.872  1.00  0.00    -0.135 A  
HETATM    3  C   UNL     1      -8.293  11.211  65.220  1.00  0.00     0.147 A  
HETATM    4  C   UNL     1      -9.560  11.532  65.815  1.00  0.00    -0.259 A  
HETATM    5  C   UNL     1      -9.862  11.065  67.031  1.00  0.00    -0.182 A  
HETATM    6  N   UNL     1      -8.961  10.310  67.773  1.00  0.00    -0.134 N  
HETATM    7  C   UNL     1      -9.364   9.828  69.018  1.00  0.00    -0.161 C  
HETATM    8  C   UNL     1      -8.308   9.171  69.836  1.00  0.00    -0.146 C  
HETATM    9  O   UNL     1     -10.528   9.899  69.419  1.00  0.00    -0.203 OA 
HETATM   10  C   UNL     1      -7.701   9.997  67.269  1.00  0.00    -0.095 A  
HETATM   11  C   UNL     1      -7.134   8.969  69.222  1.00  0.00    -0.058 C  
HETATM   12  N   UNL     1      -6.812   9.335  67.944  1.00  0.00    -0.071 NA 
ENDROOT
BRANCH   8  13
HETATM   13  C   UNL     1      -8.576   8.786  71.184  1.00  0.00    -0.195 A  
HETATM   14  N   UNL     1      -8.522   8.401  73.209  1.00  0.00    -0.365 NA 
HETATM   15  N   UNL     1      -7.726   8.856  72.227  1.00  0.00    -0.356 NA 
HETATM   16  H   UNL     1      -8.185   8.280  74.164  1.00  0.00     0.000 HD 
HETATM   17  N   UNL     1      -9.779   8.115  72.862  1.00  0.00    -0.275 NA 
HETATM   18  N   UNL     1      -9.829   8.364  71.561  1.00  0.00    -0.189 NA 
ENDBRANCH   8  13
TORSDOF 1
ENDMDL
MODEL      149
REMARK 921   NORMALIZED FREE ENERGY PREDICTED BY IDOCK:   -2.01 KCAL/MOL
REMARK 922        TOTAL FREE ENERGY PREDICTED BY IDOCK:   -2.27 KCAL/MOL
REMARK 923 INTER-LIGAND FREE ENERGY PREDICTED BY IDOCK:   -2.24 KCAL/MOL
REMARK 924 INTRA-LIGAND FREE ENERGY PREDICTED BY IDOCK:   -0.03 KCAL/MOL
REMARK 927      BINDING AFFINITY PREDICTED BY RF-SCORE:    0.00 PKD
ROOT
HETATM    1  C   UNL     1      -8.299  16.768  68.480  1.00  0.00    -0.243 C  
HETATM    2  C   UNL     1      -7.228  15.896  69.056  1.00  0.00    -0.177 A  
HETATM    3  C   UNL     1      -6.180  16.378  69.743  1.00  0.00    -0.204 A  
HETATM    4  C   UNL     1      -5.214  15.497  70.338  1.00  0.00    -0.137 A  
HETATM    5  C   UNL     1      -5.364  14.173  70.227  1.00  0.00    -0.105 A  
HETATM    6  N   UNL     1      -6.408  13.609  69.504  1.00  0.00    -0.113 N  
HETATM    7  C   UNL     1      -6.517  12.219  69.466  1.00  0.00    -0.094 C  
HETATM    8  C   UNL     1      -7.549  11.669  68.545  1.00  0.00    -0.127 C  
HETATM    9  O   UNL     1      -5.834  11.474  70.172  1.00  0.00    -0.117 OA 
HETATM   10  C   UNL     1      -7.356  14.408  68.869  1.00  0.00    -0.127 A  
HETATM   11  C   UNL     1      -8.367  12.569  67.982  1.00  0.00    -0.171 C  
HETATM   12  N   UNL     1      -8.320  13.926  68.147  1.00  0.00    -0.154 NA 
ENDROOT
BRANCH   8  13
HETATM   13  C   UNL     1      -7.635  10.265  68.313  1.00  0.00    -0.091 A  
HETATM   14  N   UNL     1      -7.589   8.351  67.547  1.00  0.00    -0.097 NA 
HETATM   15  N   UNL     1      -7.374   9.619  67.160  1.00  0.00    -0.087 NA 
HETATM   16  H   UNL     1      -7.517   7.568  66.896  1.00  0.00     0.000 HD 
HETATM   17  N   UNL     1      -7.902   8.174  68.832  1.00  0.00    -0.110 NA 
HETATM   18  N   UNL     1      -7.929   9.397  69.339  1.00  0.00    -0.083 NA 
ENDBRANCH   8  13
TORSDOF 1
ENDMDL
MODEL      150
REMARK 921   NORMALIZED FREE ENERGY PREDICTED BY IDOCK:   -1.87 KCAL/MOL
REMARK 922        TOTAL FREE ENERGY PREDICTED BY IDOCK:   -2.12 KCAL/MOL
REMARK 923 INTER-LIGAND FREE ENERGY PREDICTED BY IDOCK:   -1.92 KCAL/MOL
REMARK 924 INTRA-LIGAND FREE ENERGY PREDICTED BY IDOCK:   -0.20 KCAL/MOL
REMARK 927      BINDING AFFINITY PREDICTED BY RF-SCORE:    0.00 PKD
ROOT
HETATM    1  C   UNL     1      -9.327   4.461  63.537  1.00  0.00    -0.097 C  
HETATM    2  C   UNL     1      -9.099   4.106  64.973  1.00  0.00    -0.143 A  
HETATM    3  C   UNL     1      -9.195   2.852  65.443  1.00  0.00    -0.131 A  
HETATM    4  C   UNL     1      -8.898   2.549  66.815  1.00  0.00    -0.144 A  
HETATM    5  C   UNL     1      -8.499   3.522  67.640  1.00  0.00    -0.096 A  
HETATM    6  N   UNL     1      -8.408   4.846  67.227  1.00  0.00    -0.106 N  
HETATM    7  C   UNL     1      -7.948   5.798  68.137  1.00  0.00    -0.104 C  
HETATM    8  C   UNL     1      -8.029   7.217  67.694  1.00  0.00    -0.114 C  
HETATM    9  O   UNL     1      -7.466   5.499  69.231  1.00  0.00    -0.074 OA 
HETATM   10  C   UNL     1      -8.721   5.213  65.920  1.00  0.00    -0.135 A  
HETATM   11  C   UNL     1      -8.378   7.410  66.414  1.00  0.00    -0.127 C  
HETATM   12  N   UNL     1      -8.693   6.441  65.502  1.00  0.00    -0.112 NA 
ENDROOT
BRANCH   8  13
HETATM   13  C   UNL     1      -7.734   8.274  68.605  1.00  0.00    -0.114 A  
HETATM   14  N   UNL     1      -6.857   9.726  69.778  1.00  0.00    -0.063 NA 
HETATM   15  N   UNL     1      -6.513   8.744  68.928  1.00  0.00    -0.048 NA 
HETATM   16  H   UNL     1      -6.158  10.290  70.261  1.00  0.00     0.000 HD 
HETATM   17  N   UNL     1      -8.166   9.921  69.951  1.00  0.00    -0.182 NA 
HETATM   18  N   UNL     1      -8.742   8.997  69.198  1.00  0.00    -0.133 NA 
ENDBRANCH   8  13
TORSDOF 1
ENDMDL
MODEL      151
REMARK 921   NORMALIZED FREE ENERGY PREDICTED BY IDOCK:   -1.79 KCAL/MOL
REMARK 922        TOTAL FREE ENERGY PREDICTED BY IDOCK:   -2.04 KCAL/MOL
REMARK 923 INTER-LIGAND FREE ENERGY PREDICTED BY IDOCK:   -2.20 KCAL/MOL
REMARK 924 INTRA-LIGAND FREE ENERGY PREDICTED BY IDOCK:    0.17 KCAL/MOL
REMARK 927      BINDING AFFINITY PREDICTED BY RF-SCORE:    0.00 PKD
ROOT
HETATM    1  C   UNL     1      -7.668   5.181  66.153  1.00  0.00    -0.091 C  
HETATM    2  C   UNL     1      -7.632   4.285  67.351  1.00  0.00    -0.077 A  
HETATM    3  C   UNL     1      -7.191   3.018  67.307  1.00  0.00    -0.058 A  
HETATM    4  C   UNL     1      -7.109   2.219  68.497  1.00  0.00    -0.044 A  
HETATM    5  C   UNL     1      -7.457   2.744  69.677  1.00  0.00    -0.044 A  
HETATM    6  N   UNL     1      -7.950   4.038  69.789  1.00  0.00    -0.055 N  
HETATM    7  C   UNL     1      -8.256   4.527  71.059  1.00  0.00    -0.089 C  
HETATM    8  C   UNL     1      -8.934   5.851  71.103  1.00  0.00    -0.145 C  
HETATM    9  O   UNL     1      -7.958   3.930  72.096  1.00  0.00    -0.076 OA 
HETATM   10  C   UNL     1      -8.093   4.852  68.667  1.00  0.00    -0.084 A  
HETATM   11  C   UNL     1      -9.026   6.500  69.934  1.00  0.00    -0.143 C  
HETATM   12  N   UNL     1      -8.591   6.049  68.718  1.00  0.00    -0.112 NA 
ENDROOT
BRANCH   8  13
HETATM   13  C   UNL     1      -9.431   6.366  72.337  1.00  0.00    -0.143 A  
HETATM   14  N   UNL     1     -10.054   7.534  73.918  1.00  0.00    -0.388 NA 
HETATM   15  N   UNL     1      -9.476   7.659  72.713  1.00  0.00    -0.169 NA 
HETATM   16  H   UNL     1     -10.216   8.337  74.525  1.00  0.00     0.000 HD 
HETATM   17  N   UNL     1     -10.406   6.297  74.276  1.00  0.00    -0.318 NA 
HETATM   18  N   UNL     1     -10.015   5.536  73.264  1.00  0.00    -0.167 NA 
ENDBRANCH   8  13
TORSDOF 1
ENDMDL
MODEL      152
REMARK 921   NORMALIZED FREE ENERGY PREDICTED BY IDOCK:   -1.59 KCAL/MOL
REMARK 922        TOTAL FREE ENERGY PREDICTED BY IDOCK:   -1.83 KCAL/MOL
REMARK 923 INTER-LIGAND FREE ENERGY PREDICTED BY IDOCK:   -1.64 KCAL/MOL
REMARK 924 INTRA-LIGAND FREE ENERGY PREDICTED BY IDOCK:   -0.19 KCAL/MOL
REMARK 927      BINDING AFFINITY PREDICTED BY RF-SCORE:    0.00 PKD
ROOT
HETATM    1  C   UNL     1     -11.796  14.839  73.955  1.00  0.00    -0.119 C  
HETATM    2  C   UNL     1     -12.485  14.738  72.630  1.00  0.00    -0.414 A  
HETATM    3  C   UNL     1     -13.758  14.332  72.493  1.00  0.00    -0.608 A  
HETATM    4  C   UNL     1     -14.399  14.318  71.208  1.00  0.00    -0.125 A  
HETATM    5  C   UNL     1     -13.731  14.734  70.127  1.00  0.00     0.989 A  
HETATM    6  N   UNL     1     -12.403  15.138  70.193  1.00  0.00    -0.343 N  
HETATM    7  C   UNL     1     -11.787  15.593  69.028  1.00  0.00    -0.364 C  
HETATM    8  C   UNL     1     -10.324  15.852  69.121  1.00  0.00    -0.237 C  
HETATM    9  O   UNL     1     -12.405  15.809  67.983  1.00  0.00     0.378 OA 
HETATM   10  C   UNL     1     -11.711  15.136  71.402  1.00  0.00    -0.374 A  
HETATM   11  C   UNL     1      -9.795  15.779  70.351  1.00  0.00     0.465 C  
HETATM   12  N   UNL     1     -10.459  15.461  71.503  1.00  0.00     0.464 NA 
ENDROOT
BRANCH   8  13
HETATM   13  C   UNL     1      -9.571  16.168  67.951  1.00  0.00    -0.223 A  
HETATM   14  N   UNL     1      -8.430  16.149  66.233  1.00  0.00    -0.332 NA 
HETATM   15  N   UNL     1      -8.898  15.303  67.167  1.00  0.00    -0.198 NA 
HETATM   16  H   UNL     1      -7.826  15.834  65.475  1.00  0.00     0.000 HD 
HETATM   17  N   UNL     1      -8.802  17.425  66.357  1.00  0.00    -0.345 NA 
HETATM   18  N   UNL     1      -9.542  17.450  67.455  1.00  0.00    -0.253 NA 
ENDBRANCH   8  13
TORSDOF 1
ENDMDL
MODEL      153
REMARK 921   NORMALIZED FREE ENERGY PREDICTED BY IDOCK:   -1.19 KCAL/MOL
REMARK 922        TOTAL FREE ENERGY PREDICTED BY IDOCK:   -1.40 KCAL/MOL
REMARK 923 INTER-LIGAND FREE ENERGY PREDICTED BY IDOCK:   -1.66 KCAL/MOL
REMARK 924 INTRA-LIGAND FREE ENERGY PREDICTED BY IDOCK:    0.26 KCAL/MOL
REMARK 927      BINDING AFFINITY PREDICTED BY RF-SCORE:    0.00 PKD
ROOT
HETATM    1  C   UNL     1      -8.248   4.543  70.130  1.00  0.00    -0.069 C  
HETATM    2  C   UNL     1      -8.633   5.881  70.678  1.00  0.00    -0.133 A  
HETATM    3  C   UNL     1      -9.122   6.055  71.917  1.00  0.00    -0.143 A  
HETATM    4  C   UNL     1      -9.411   7.367  72.424  1.00  0.00    -0.179 A  
HETATM    5  C   UNL     1      -9.173   8.441  71.664  1.00  0.00    -0.206 A  
HETATM    6  N   UNL     1      -8.698   8.331  70.363  1.00  0.00    -0.136 N  
HETATM    7  C   UNL     1      -8.440   9.500  69.647  1.00  0.00    -0.169 C  
HETATM    8  C   UNL     1      -8.094   9.323  68.211  1.00  0.00    -0.107 C  
HETATM    9  O   UNL     1      -8.458  10.619  70.164  1.00  0.00     0.322 OA 
HETATM   10  C   UNL     1      -8.436   7.086  69.797  1.00  0.00    -0.137 A  
HETATM   11  C   UNL     1      -7.906   8.059  67.806  1.00  0.00    -0.126 C  
HETATM   12  N   UNL     1      -8.034   6.933  68.573  1.00  0.00    -0.118 NA 
ENDROOT
BRANCH   8  13
HETATM   13  C   UNL     1      -7.968  10.457  67.354  1.00  0.00    -0.107 A  
HETATM   14  N   UNL     1      -7.522  11.796  65.851  1.00  0.00    -0.021 NA 
HETATM   15  N   UNL     1      -7.229  10.542  66.230  1.00  0.00    -0.126 NA 
HETATM   16  H   UNL     1      -7.096  12.225  65.029  1.00  0.00     0.000 HD 
HETATM   17  N   UNL     1      -8.404  12.449  66.611  1.00  0.00    -0.057 NA 
HETATM   18  N   UNL     1      -8.703  11.596  67.579  1.00  0.00    -0.151 NA 
ENDBRANCH   8  13
TORSDOF 1
ENDMDL
MODEL      154
REMARK 921   NORMALIZED FREE ENERGY PREDICTED BY IDOCK:   -1.16 KCAL/MOL
REMARK 922        TOTAL FREE ENERGY PREDICTED BY IDOCK:   -1.37 KCAL/MOL
REMARK 923 INTER-LIGAND FREE ENERGY PREDICTED BY IDOCK:   -1.80 KCAL/MOL
REMARK 924 INTRA-LIGAND FREE ENERGY PREDICTED BY IDOCK:    0.43 KCAL/MOL
REMARK 927      BINDING AFFINITY PREDICTED BY RF-SCORE:    0.00 PKD
ROOT
HETATM    1  C   UNL     1      -7.185  12.886  69.458  1.00  0.00     0.376 C  
HETATM    2  C   UNL     1      -8.171  11.956  68.824  1.00  0.00     0.000 A  
HETATM    3  C   UNL     1      -8.949  12.308  67.787  1.00  0.00    -0.177 A  
HETATM    4  C   UNL     1      -9.830  11.359  67.165  1.00  0.00    -0.212 A  
HETATM    5  C   UNL     1      -9.868  10.098  67.607  1.00  0.00    -0.172 A  
HETATM    6  N   UNL     1      -9.112   9.676  68.694  1.00  0.00    -0.131 N  
HETATM    7  C   UNL     1      -9.179   8.335  69.071  1.00  0.00    -0.147 C  
HETATM    8  C   UNL     1      -8.483   7.977  70.337  1.00  0.00    -0.130 C  
HETATM    9  O   UNL     1      -9.745   7.475  68.392  1.00  0.00    -0.151 OA 
HETATM   10  C   UNL     1      -8.268  10.556  69.367  1.00  0.00    -0.119 A  
HETATM   11  C   UNL     1      -7.734   8.944  70.885  1.00  0.00    -0.122 C  
HETATM   12  N   UNL     1      -7.580  10.218  70.413  1.00  0.00    -0.177 NA 
ENDROOT
BRANCH   8  13
HETATM   13  C   UNL     1      -8.622   6.670  70.893  1.00  0.00    -0.134 A  
HETATM   14  N   UNL     1      -8.769   5.013  72.111  1.00  0.00    -0.128 NA 
HETATM   15  N   UNL     1      -8.517   6.329  72.192  1.00  0.00    -0.113 NA 
HETATM   16  H   UNL     1      -8.735   4.405  72.930  1.00  0.00     0.000 HD 
HETATM   17  N   UNL     1      -9.066   4.545  70.896  1.00  0.00    -0.125 NA 
HETATM   18  N   UNL     1      -8.981   5.603  70.103  1.00  0.00    -0.136 NA 
ENDBRANCH   8  13
TORSDOF 1
ENDMDL
MODEL      155
REMARK 921   NORMALIZED FREE ENERGY PREDICTED BY IDOCK:   -0.92 KCAL/MOL
REMARK 922        TOTAL FREE ENERGY PREDICTED BY IDOCK:   -1.11 KCAL/MOL
REMARK 923 INTER-LIGAND FREE ENERGY PREDICTED BY IDOCK:   -1.06 KCAL/MOL
REMARK 924 INTRA-LIGAND FREE ENERGY PREDICTED BY IDOCK:   -0.05 KCAL/MOL
REMARK 927      BINDING AFFINITY PREDICTED BY RF-SCORE:    0.00 PKD
ROOT
HETATM    1  C   UNL     1      -9.510   8.337  74.328  1.00  0.00     1.451 C  
HETATM    2  C   UNL     1     -10.192   7.561  73.246  1.00  0.00    -0.398 A  
HETATM    3  C   UNL     1     -11.470   7.768  72.888  1.00  0.00    -0.359 A  
HETATM    4  C   UNL     1     -12.060   7.047  71.795  1.00  0.00    -0.371 A  
HETATM    5  C   UNL     1     -11.327   6.168  71.104  1.00  0.00    -0.275 A  
HETATM    6  N   UNL     1     -10.009   5.884  71.440  1.00  0.00    -0.181 N  
HETATM    7  C   UNL     1      -9.299   4.982  70.648  1.00  0.00    -0.160 C  
HETATM    8  C   UNL     1      -7.954   4.590  71.150  1.00  0.00    -0.082 C  
HETATM    9  O   UNL     1      -9.728   4.552  69.575  1.00  0.00    -0.183 OA 
HETATM   10  C   UNL     1      -9.390   6.518  72.515  1.00  0.00    -0.141 A  
HETATM   11  C   UNL     1      -7.507   5.270  72.215  1.00  0.00    -0.095 C  
HETATM   12  N   UNL     1      -8.178   6.252  72.892  1.00  0.00    -0.115 NA 
ENDROOT
BRANCH   8  13
HETATM   13  C   UNL     1      -7.214   3.558  70.500  1.00  0.00    -0.037 A  
HETATM   14  N   UNL     1      -6.158   2.367  69.189  1.00  0.00    -0.024 NA 
HETATM   15  N   UNL     1      -6.823   3.534  69.211  1.00  0.00    -0.041 NA 
HETATM   16  H   UNL     1      -5.744   1.998  68.333  1.00  0.00     0.000 HD 
HETATM   17  N   UNL     1      -6.070   1.719  70.353  1.00  0.00    -0.022 NA 
HETATM   18  N   UNL     1      -6.741   2.478  71.207  1.00  0.00    -0.030 NA 
ENDBRANCH   8  13
TORSDOF 1
ENDMDL
MODEL      156
REMARK 921   NORMALIZED FREE ENERGY PREDICTED BY IDOCK:    0.42 KCAL/MOL
REMARK 922        TOTAL FREE ENERGY PREDICTED BY IDOCK:    0.30 KCAL/MOL
REMARK 923 INTER-LIGAND FREE ENERGY PREDICTED BY IDOCK:   -0.20 KCAL/MOL
REMARK 924 INTRA-LIGAND FREE ENERGY PREDICTED BY IDOCK:    0.50 KCAL/MOL
REMARK 927      BINDING AFFINITY PREDICTED BY RF-SCORE:    0.00 PKD
ROOT
HETATM    1  C   UNL     1      -7.675  13.505  70.419  1.00  0.00     2.575 C  
HETATM    2  C   UNL     1      -7.008  14.248  69.306  1.00  0.00    -0.116 A  
HETATM    3  C   UNL     1      -5.779  13.948  68.855  1.00  0.00    -0.082 A  
HETATM    4  C   UNL     1      -5.207  14.644  67.737  1.00  0.00    -0.005 A  
HETATM    5  C   UNL     1      -5.912  15.595  67.114  1.00  0.00     0.253 A  
HETATM    6  N   UNL     1      -7.176  15.976  67.547  1.00  0.00    -0.152 N  
HETATM    7  C   UNL     1      -7.862  16.950  66.822  1.00  0.00    -0.244 C  
HETATM    8  C   UNL     1      -9.134  17.437  67.424  1.00  0.00    -0.236 C  
HETATM    9  O   UNL     1      -7.474  17.369  65.730  1.00  0.00    -0.453 OA 
HETATM   10  C   UNL     1      -7.770  15.369  68.651  1.00  0.00    -0.143 A  
HETATM   11  C   UNL     1      -9.561  16.770  68.506  1.00  0.00    -0.245 C  
HETATM   12  N   UNL     1      -8.928  15.723  69.117  1.00  0.00    -0.242 NA 
ENDROOT
BRANCH   8  13
HETATM   13  C   UNL     1      -9.830  18.540  66.846  1.00  0.00    -0.334 A  
HETATM   14  N   UNL     1     -11.061  20.141  66.433  1.00  0.00     0.182 NA 
HETATM   15  N   UNL     1     -10.846  19.232  67.397  1.00  0.00    -0.487 NA 
HETATM   16  H   UNL     1     -11.810  20.831  66.498  1.00  0.00     0.000 HD 
HETATM   17  N   UNL     1     -10.238  20.091  65.383  1.00  0.00    -0.272 NA 
HETATM   18  N   UNL     1      -9.436  19.068  65.639  1.00  0.00    -0.203 NA 
ENDBRANCH   8  13
TORSDOF 1
ENDMDL
MODEL      157
REMARK 921   NORMALIZED FREE ENERGY PREDICTED BY IDOCK:    1.18 KCAL/MOL
REMARK 922        TOTAL FREE ENERGY PREDICTED BY IDOCK:    1.11 KCAL/MOL
REMARK 923 INTER-LIGAND FREE ENERGY PREDICTED BY IDOCK:    0.97 KCAL/MOL
REMARK 924 INTRA-LIGAND FREE ENERGY PREDICTED BY IDOCK:    0.14 KCAL/MOL
REMARK 927      BINDING AFFINITY PREDICTED BY RF-SCORE:    0.00 PKD
ROOT
HETATM    1  C   UNL     1      -7.362  19.931  70.925  1.00  0.00     0.971 C  
HETATM    2  C   UNL     1      -7.051  18.845  69.944  1.00  0.00     0.291 A  
HETATM    3  C   UNL     1      -6.845  17.567  70.303  1.00  0.00     1.174 A  
HETATM    4  C   UNL     1      -6.619  16.547  69.319  1.00  0.00    -0.207 A  
HETATM    5  C   UNL     1      -6.632  16.861  68.019  1.00  0.00    -0.144 A  
HETATM    6  N   UNL     1      -6.808  18.167  67.580  1.00  0.00    -0.195 N  
HETATM    7  C   UNL     1      -6.846  18.409  66.207  1.00  0.00    -0.233 C  
HETATM    8  C   UNL     1      -6.869  19.839  65.796  1.00  0.00    -0.303 C  
HETATM    9  O   UNL     1      -6.895  17.506  65.369  1.00  0.00    -0.138 OA 
HETATM   10  C   UNL     1      -6.992  19.210  68.485  1.00  0.00    -0.283 A  
HETATM   11  C   UNL     1      -7.018  20.729  66.787  1.00  0.00    -0.269 C  
HETATM   12  N   UNL     1      -7.115  20.450  68.123  1.00  0.00    -0.263 NA 
ENDROOT
BRANCH   8  13
HETATM   13  C   UNL     1      -6.750  20.196  64.420  1.00  0.00     0.066 A  
HETATM   14  N   UNL     1      -6.347  20.294  62.400  1.00  0.00    -0.043 NA 
HETATM   15  N   UNL     1      -6.088  19.516  63.464  1.00  0.00    -0.316 NA 
HETATM   16  H   UNL     1      -5.959  20.095  61.478  1.00  0.00     0.000 HD 
HETATM   17  N   UNL     1      -7.143  21.344  62.620  1.00  0.00     0.054 NA 
HETATM   18  N   UNL     1      -7.414  21.289  63.915  1.00  0.00     0.809 NA 
ENDBRANCH   8  13
TORSDOF 1
ENDMDL
MODEL      158
REMARK 921   NORMALIZED FREE ENERGY PREDICTED BY IDOCK:    3.21 KCAL/MOL
REMARK 922        TOTAL FREE ENERGY PREDICTED BY IDOCK:    3.26 KCAL/MOL
REMARK 923 INTER-LIGAND FREE ENERGY PREDICTED BY IDOCK:    2.99 KCAL/MOL
REMARK 924 INTRA-LIGAND FREE ENERGY PREDICTED BY IDOCK:    0.27 KCAL/MOL
REMARK 927      BINDING AFFINITY PREDICTED BY RF-SCORE:    0.00 PKD
ROOT
HETATM    1  C   UNL     1      -6.643   8.875  69.787  1.00  0.00    -0.041 C  
HETATM    2  C   UNL     1      -7.966   8.175  69.788  1.00  0.00    -0.111 A  
HETATM    3  C   UNL     1      -8.136   6.927  69.322  1.00  0.00    -0.120 A  
HETATM    4  C   UNL     1      -9.410   6.270  69.409  1.00  0.00    -0.145 A  
HETATM    5  C   UNL     1     -10.444   6.895  69.980  1.00  0.00    -0.207 A  
HETATM    6  N   UNL     1     -10.345   8.198  70.454  1.00  0.00    -0.202 N  
HETATM    7  C   UNL     1     -11.458   8.769  71.070  1.00  0.00    -0.285 C  
HETATM    8  C   UNL     1     -11.349  10.214  71.407  1.00  0.00    -0.134 C  
HETATM    9  O   UNL     1     -12.468   8.123  71.360  1.00  0.00    -0.306 OA 
HETATM   10  C   UNL     1      -9.149   8.906  70.363  1.00  0.00    -0.190 A  
HETATM   11  C   UNL     1     -10.139  10.764  71.234  1.00  0.00     3.823 C  
HETATM   12  N   UNL     1      -9.022  10.137  70.752  1.00  0.00     0.474 NA 
ENDROOT
BRANCH   8  13
HETATM   13  C   UNL     1     -12.483  10.930  71.893  1.00  0.00     0.017 A  
HETATM   14  N   UNL     1     -14.263  11.531  72.744  1.00  0.00     0.649 NA 
HETATM   15  N   UNL     1     -13.575  10.407  72.484  1.00  0.00     0.084 NA 
HETATM   16  H   UNL     1     -15.189  11.511  73.171  1.00  0.00     0.000 HD 
HETATM   17  N   UNL     1     -13.663  12.677  72.412  1.00  0.00    -0.432 NA 
HETATM   18  N   UNL     1     -12.513  12.304  71.869  1.00  0.00     0.116 NA 
ENDBRANCH   8  13
TORSDOF 1
ENDMDL
MODEL      159
REMARK 921   NORMALIZED FREE ENERGY PREDICTED BY IDOCK:   22.11 KCAL/MOL
REMARK 922        TOTAL FREE ENERGY PREDICTED BY IDOCK:   23.26 KCAL/MOL
REMARK 923 INTER-LIGAND FREE ENERGY PREDICTED BY IDOCK:   23.44 KCAL/MOL
REMARK 924 INTRA-LIGAND FREE ENERGY PREDICTED BY IDOCK:   -0.17 KCAL/MOL
REMARK 927      BINDING AFFINITY PREDICTED BY RF-SCORE:    0.00 PKD
ROOT
HETATM    1  C   UNL     1     -12.241  13.376  62.691  1.00  0.00     1.423 C  
HETATM    2  C   UNL     1     -12.344  12.134  63.519  1.00  0.00    -0.682 A  
HETATM    3  C   UNL     1     -13.505  11.503  63.755  1.00  0.00     1.012 A  
HETATM    4  C   UNL     1     -13.546  10.274  64.497  1.00  0.00    10.833 A  
HETATM    5  C   UNL     1     -12.410   9.731  64.947  1.00  0.00    10.374 A  
HETATM    6  N   UNL     1     -11.177  10.347  64.764  1.00  0.00     1.056 N  
HETATM    7  C   UNL     1     -10.034   9.699  65.231  1.00  0.00    -0.089 C  
HETATM    8  C   UNL     1      -8.767  10.477  65.159  1.00  0.00    -0.197 C  
HETATM    9  O   UNL     1     -10.045   8.539  65.649  1.00  0.00     0.254 OA 
HETATM   10  C   UNL     1     -11.074  11.561  64.089  1.00  0.00    -0.344 A  
HETATM   11  C   UNL     1      -8.835  11.645  64.503  1.00  0.00     0.517 C  
HETATM   12  N   UNL     1      -9.952  12.193  63.934  1.00  0.00    -0.327 NA 
ENDROOT
BRANCH   8  13
HETATM   13  C   UNL     1      -7.574   9.970  65.753  1.00  0.00    -0.120 A  
HETATM   14  N   UNL     1      -5.690   9.235  66.159  1.00  0.00    -0.048 NA 
HETATM   15  N   UNL     1      -6.460   9.567  65.110  1.00  0.00    -0.075 NA 
HETATM   16  H   UNL     1      -4.757   8.842  66.041  1.00  0.00     0.000 HD 
HETATM   17  N   UNL     1      -6.218   9.449  67.366  1.00  0.00    -0.060 NA 
HETATM   18  N   UNL     1      -7.429   9.927  67.119  1.00  0.00    -0.091 NA 
ENDBRANCH   8  13
TORSDOF 1
ENDMDL
MODEL      160
REMARK 921   NORMALIZED FREE ENERGY PREDICTED BY IDOCK:   23.53 KCAL/MOL
REMARK 922        TOTAL FREE ENERGY PREDICTED BY IDOCK:   24.77 KCAL/MOL
REMARK 923 INTER-LIGAND FREE ENERGY PREDICTED BY IDOCK:   24.49 KCAL/MOL
REMARK 924 INTRA-LIGAND FREE ENERGY PREDICTED BY IDOCK:    0.28 KCAL/MOL
REMARK 927      BINDING AFFINITY PREDICTED BY RF-SCORE:    0.00 PKD
ROOT
HETATM    1  C   UNL     1      -6.845  16.964  67.395  1.00  0.00    -0.181 C  
HETATM    2  C   UNL     1      -6.377  15.635  66.891  1.00  0.00     0.459 A  
HETATM    3  C   UNL     1      -5.622  15.491  65.790  1.00  0.00     6.055 A  
HETATM    4  C   UNL     1      -5.137  14.201  65.385  1.00  0.00    11.112 A  
HETATM    5  C   UNL     1      -5.421  13.122  66.122  1.00  0.00     3.938 A  
HETATM    6  N   UNL     1      -6.222  13.196  67.255  1.00  0.00    -0.021 N  
HETATM    7  C   UNL     1      -6.442  12.032  67.991  1.00  0.00    -0.061 C  
HETATM    8  C   UNL     1      -7.438  12.134  69.093  1.00  0.00     0.121 C  
HETATM    9  O   UNL     1      -5.832  10.981  67.781  1.00  0.00    -0.046 OA 
HETATM   10  C   UNL     1      -6.757  14.410  67.679  1.00  0.00    -0.169 A  
HETATM   11  C   UNL     1      -7.887  13.369  69.361  1.00  0.00     0.604 C  
HETATM   12  N   UNL     1      -7.546  14.518  68.704  1.00  0.00    -0.124 NA 
ENDROOT
BRANCH   8  13
HETATM   13  C   UNL     1      -7.851  10.968  69.803  1.00  0.00     0.375 A  
HETATM   14  N   UNL     1      -8.029   9.109  70.678  1.00  0.00    -0.140 NA 
HETATM   15  N   UNL     1      -7.202   9.789  69.866  1.00  0.00    -0.098 NA 
HETATM   16  H   UNL     1      -7.863   8.133  70.923  1.00  0.00     0.000 HD 
HETATM   17  N   UNL     1      -9.080   9.786  71.147  1.00  0.00     0.106 NA 
HETATM   18  N   UNL     1      -8.974  10.986  70.596  1.00  0.00     2.558 NA 
ENDBRANCH   8  13
TORSDOF 1
ENDMDL
