MODEL        1
REMARK 921   NORMALIZED FREE ENERGY PREDICTED BY IDOCK:   -7.15 KCAL/MOL
REMARK 922        TOTAL FREE ENERGY PREDICTED BY IDOCK:  -10.69 KCAL/MOL
REMARK 923 INTER-LIGAND FREE ENERGY PREDICTED BY IDOCK:   -9.66 KCAL/MOL
REMARK 924 INTRA-LIGAND FREE ENERGY PREDICTED BY IDOCK:   -1.03 KCAL/MOL
REMARK 927      BINDING AFFINITY PREDICTED BY RF-SCORE:    0.00 PKD
ROOT
HETATM    1  C   UNL     1      -8.409  18.200  66.476  1.00  0.00    -0.288 C  
HETATM    2  C   UNL     1      -9.943  18.315  66.440  1.00  0.00    -0.380 C  
HETATM    3  C   UNL     1     -10.306  19.771  66.087  1.00  0.00    -0.627 C  
HETATM    4  C   UNL     1     -10.526  17.998  67.828  1.00  0.00    -0.421 C  
HETATM    5  N   UNL     1     -10.556  17.465  65.403  1.00  0.00    -0.631 NA 
HETATM    6  H   UNL     1     -10.292  17.799  64.476  1.00  0.00     0.000 HD 
ENDROOT
BRANCH   5   7
HETATM    7  C   UNL     1     -10.279  16.033  65.515  1.00  0.00    -0.360 C  
BRANCH   7   8
HETATM    8  C   UNL     1     -11.251  15.134  64.725  1.00  0.00    -0.388 C  
HETATM    9  O   UNL     1     -11.963  15.991  63.809  1.00  0.00    -1.339 OA 
HETATM   10  H   UNL     1     -12.561  15.437  63.323  1.00  0.00     0.000 HD 
BRANCH   8  11
HETATM   11  C   UNL     1     -12.281  14.405  65.597  1.00  0.00    -0.344 C  
BRANCH  11  12
HETATM   12  O   UNL     1     -12.043  14.523  67.004  1.00  0.00    -0.398 OA 
BRANCH  12  13
HETATM   13  C   UNL     1     -11.800  13.335  67.663  1.00  0.00    -0.357 A  
HETATM   14  C   UNL     1     -11.444  12.150  66.991  1.00  0.00    -0.415 A  
HETATM   15  C   UNL     1     -11.269  10.953  67.679  1.00  0.00    -0.379 A  
HETATM   16  C   UNL     1     -11.434  10.923  69.052  1.00  0.00    -0.371 A  
HETATM   17  C   UNL     1     -11.760  12.094  69.738  1.00  0.00    -0.381 A  
HETATM   18  C   UNL     1     -11.938  13.326  69.070  1.00  0.00    -0.336 A  
BRANCH  18  19
HETATM   19  C   UNL     1     -12.338  14.572  69.846  1.00  0.00    -0.347 C  
HETATM   20  C   UNL     1     -13.277  14.378  71.051  1.00  0.00    -0.395 C  
HETATM   21  C   UNL     1     -13.205  15.715  71.766  1.00  0.00    -0.548 C  
HETATM   22  C   UNL     1     -11.720  16.043  71.726  1.00  0.00    -0.593 C  
HETATM   23  C   UNL     1     -11.171  15.372  70.458  1.00  0.00    -0.358 C  
ENDBRANCH  18  19
ENDBRANCH  12  13
ENDBRANCH  11  12
ENDBRANCH   8  11
ENDBRANCH   7   8
ENDBRANCH   5   7
TORSDOF 6
ENDMDL
MODEL        2
REMARK 921   NORMALIZED FREE ENERGY PREDICTED BY IDOCK:   -6.60 KCAL/MOL
REMARK 922        TOTAL FREE ENERGY PREDICTED BY IDOCK:   -9.95 KCAL/MOL
REMARK 923 INTER-LIGAND FREE ENERGY PREDICTED BY IDOCK:   -8.67 KCAL/MOL
REMARK 924 INTRA-LIGAND FREE ENERGY PREDICTED BY IDOCK:   -1.28 KCAL/MOL
REMARK 927      BINDING AFFINITY PREDICTED BY RF-SCORE:    0.00 PKD
ROOT
HETATM    1  C   UNL     1     -10.173   6.510  70.152  1.00  0.00    -0.226 C  
HETATM    2  C   UNL     1     -10.513   7.994  69.932  1.00  0.00    -0.233 C  
HETATM    3  C   UNL     1     -10.329   8.311  68.435  1.00  0.00    -0.237 C  
HETATM    4  C   UNL     1      -9.541   8.879  70.732  1.00  0.00    -0.283 C  
HETATM    5  N   UNL     1     -11.913   8.316  70.261  1.00  0.00    -0.405 NA 
HETATM    6  H   UNL     1     -12.542   7.850  69.606  1.00  0.00     0.000 HD 
ENDROOT
BRANCH   5   7
HETATM    7  C   UNL     1     -12.321   8.026  71.636  1.00  0.00    -0.314 C  
BRANCH   7   8
HETATM    8  C   UNL     1     -12.907   9.235  72.392  1.00  0.00    -0.346 C  
HETATM    9  O   UNL     1     -14.163   8.806  72.957  1.00  0.00    -1.075 OA 
HETATM   10  H   UNL     1     -14.524   9.551  73.423  1.00  0.00     0.000 HD 
BRANCH   8  11
HETATM   11  C   UNL     1     -13.173  10.459  71.509  1.00  0.00    -0.386 C  
BRANCH  11  12
HETATM   12  O   UNL     1     -12.043  11.326  71.355  1.00  0.00    -0.165 OA 
BRANCH  12  13
HETATM   13  C   UNL     1     -12.031  12.081  70.199  1.00  0.00    -0.321 A  
HETATM   14  C   UNL     1     -11.833  11.518  68.924  1.00  0.00    -0.406 A  
HETATM   15  C   UNL     1     -11.761  12.314  67.785  1.00  0.00    -0.403 A  
HETATM   16  C   UNL     1     -11.898  13.686  67.900  1.00  0.00    -0.402 A  
HETATM   17  C   UNL     1     -12.122  14.259  69.154  1.00  0.00    -0.337 A  
HETATM   18  C   UNL     1     -12.206  13.477  70.327  1.00  0.00    -0.417 A  
BRANCH  18  19
HETATM   19  C   UNL     1     -12.405  14.141  71.682  1.00  0.00    -0.349 C  
HETATM   20  C   UNL     1     -11.573  15.403  71.975  1.00  0.00    -0.544 C  
HETATM   21  C   UNL     1     -12.233  15.974  73.216  1.00  0.00    -0.632 C  
HETATM   22  C   UNL     1     -13.716  15.830  72.910  1.00  0.00    -0.631 C  
HETATM   23  C   UNL     1     -13.842  14.613  71.982  1.00  0.00    -0.557 C  
ENDBRANCH  18  19
ENDBRANCH  12  13
ENDBRANCH  11  12
ENDBRANCH   8  11
ENDBRANCH   7   8
ENDBRANCH   5   7
TORSDOF 6
ENDMDL
MODEL        3
REMARK 921   NORMALIZED FREE ENERGY PREDICTED BY IDOCK:   -6.40 KCAL/MOL
REMARK 922        TOTAL FREE ENERGY PREDICTED BY IDOCK:   -9.67 KCAL/MOL
REMARK 923 INTER-LIGAND FREE ENERGY PREDICTED BY IDOCK:   -9.23 KCAL/MOL
REMARK 924 INTRA-LIGAND FREE ENERGY PREDICTED BY IDOCK:   -0.44 KCAL/MOL
REMARK 927      BINDING AFFINITY PREDICTED BY RF-SCORE:    0.00 PKD
ROOT
HETATM    1  C   UNL     1     -10.346   7.296  72.891  1.00  0.00    -0.307 C  
HETATM    2  C   UNL     1     -11.189   6.152  72.303  1.00  0.00    -0.289 C  
HETATM    3  C   UNL     1     -11.050   4.928  73.230  1.00  0.00    -0.410 C  
HETATM    4  C   UNL     1     -10.653   5.764  70.913  1.00  0.00    -0.329 C  
HETATM    5  N   UNL     1     -12.627   6.473  72.242  1.00  0.00    -0.554 NA 
HETATM    6  H   UNL     1     -13.006   6.558  73.186  1.00  0.00     0.000 HD 
ENDROOT
BRANCH   5   7
HETATM    7  C   UNL     1     -12.977   7.655  71.455  1.00  0.00    -0.311 C  
BRANCH   7   8
HETATM    8  C   UNL     1     -13.035   8.964  72.266  1.00  0.00    -0.419 C  
HETATM    9  O   UNL     1     -14.048   8.786  73.277  1.00  0.00    -1.180 OA 
HETATM   10  H   UNL     1     -14.083   9.593  73.776  1.00  0.00     0.000 HD 
BRANCH   8  11
HETATM   11  C   UNL     1     -13.397  10.202  71.437  1.00  0.00    -0.325 C  
BRANCH  11  12
HETATM   12  O   UNL     1     -12.412  11.241  71.475  1.00  0.00    -0.312 OA 
BRANCH  12  13
HETATM   13  C   UNL     1     -12.204  11.901  70.281  1.00  0.00    -0.271 A  
HETATM   14  C   UNL     1     -12.036  11.227  69.056  1.00  0.00    -0.393 A  
HETATM   15  C   UNL     1     -11.763  11.919  67.880  1.00  0.00    -0.368 A  
HETATM   16  C   UNL     1     -11.667  13.299  67.907  1.00  0.00    -0.395 A  
HETATM   17  C   UNL     1     -11.857  13.986  69.107  1.00  0.00    -0.391 A  
HETATM   18  C   UNL     1     -12.142  13.313  70.315  1.00  0.00    -0.405 A  
BRANCH  18  19
HETATM   19  C   UNL     1     -12.299  14.093  71.613  1.00  0.00    -0.349 C  
HETATM   20  C   UNL     1     -11.453  15.369  71.771  1.00  0.00    -0.497 C  
HETATM   21  C   UNL     1     -12.074  16.050  72.976  1.00  0.00    -0.628 C  
HETATM   22  C   UNL     1     -13.566  15.890  72.727  1.00  0.00    -0.589 C  
HETATM   23  C   UNL     1     -13.724  14.597  71.912  1.00  0.00    -0.510 C  
ENDBRANCH  18  19
ENDBRANCH  12  13
ENDBRANCH  11  12
ENDBRANCH   8  11
ENDBRANCH   7   8
ENDBRANCH   5   7
TORSDOF 6
ENDMDL
MODEL        4
REMARK 921   NORMALIZED FREE ENERGY PREDICTED BY IDOCK:   -6.38 KCAL/MOL
REMARK 922        TOTAL FREE ENERGY PREDICTED BY IDOCK:   -9.65 KCAL/MOL
REMARK 923 INTER-LIGAND FREE ENERGY PREDICTED BY IDOCK:   -8.79 KCAL/MOL
REMARK 924 INTRA-LIGAND FREE ENERGY PREDICTED BY IDOCK:   -0.86 KCAL/MOL
REMARK 927      BINDING AFFINITY PREDICTED BY RF-SCORE:    0.00 PKD
ROOT
HETATM    1  C   UNL     1     -12.061  12.459  63.455  1.00  0.00    -0.651 C  
HETATM    2  C   UNL     1     -10.726  12.262  64.194  1.00  0.00    -0.372 C  
HETATM    3  C   UNL     1      -9.697  11.714  63.187  1.00  0.00    -0.385 C  
HETATM    4  C   UNL     1     -10.896  11.225  65.319  1.00  0.00    -0.261 C  
HETATM    5  N   UNL     1     -10.171  13.523  64.719  1.00  0.00    -0.574 NA 
HETATM    6  H   UNL     1      -9.904  14.135  63.948  1.00  0.00     0.000 HD 
ENDROOT
BRANCH   5   7
HETATM    7  C   UNL     1     -11.029  14.248  65.657  1.00  0.00    -0.309 C  
BRANCH   7   8
HETATM    8  C   UNL     1     -10.263  15.024  66.748  1.00  0.00    -0.260 C  
HETATM    9  O   UNL     1      -8.886  15.089  66.326  1.00  0.00    -0.434 OA 
HETATM   10  H   UNL     1      -8.414  15.566  66.999  1.00  0.00     0.000 HD 
BRANCH   8  11
HETATM   11  C   UNL     1     -10.310  14.369  68.133  1.00  0.00    -0.231 C  
BRANCH  11  12
HETATM   12  O   UNL     1     -11.634  14.183  68.648  1.00  0.00    -0.278 OA 
BRANCH  12  13
HETATM   13  C   UNL     1     -11.825  13.031  69.384  1.00  0.00    -0.322 A  
HETATM   14  C   UNL     1     -11.527  11.749  68.883  1.00  0.00    -0.357 A  
HETATM   15  C   UNL     1     -11.792  10.602  69.626  1.00  0.00    -0.358 A  
HETATM   16  C   UNL     1     -12.347  10.719  70.888  1.00  0.00    -0.497 A  
HETATM   17  C   UNL     1     -12.624  11.983  71.411  1.00  0.00    -0.330 A  
HETATM   18  C   UNL     1     -12.360  13.166  70.684  1.00  0.00    -0.405 A  
BRANCH  18  19
HETATM   19  C   UNL     1     -12.717  14.524  71.270  1.00  0.00    -0.413 C  
HETATM   20  C   UNL     1     -13.754  14.548  72.408  1.00  0.00    -0.583 C  
HETATM   21  C   UNL     1     -13.630  15.956  72.960  1.00  0.00    -0.616 C  
HETATM   22  C   UNL     1     -12.126  16.175  73.004  1.00  0.00    -0.636 C  
HETATM   23  C   UNL     1     -11.539  15.313  71.875  1.00  0.00    -0.515 C  
ENDBRANCH  18  19
ENDBRANCH  12  13
ENDBRANCH  11  12
ENDBRANCH   8  11
ENDBRANCH   7   8
ENDBRANCH   5   7
TORSDOF 6
ENDMDL
MODEL        5
REMARK 921   NORMALIZED FREE ENERGY PREDICTED BY IDOCK:   -6.28 KCAL/MOL
REMARK 922        TOTAL FREE ENERGY PREDICTED BY IDOCK:   -9.51 KCAL/MOL
REMARK 923 INTER-LIGAND FREE ENERGY PREDICTED BY IDOCK:   -8.59 KCAL/MOL
REMARK 924 INTRA-LIGAND FREE ENERGY PREDICTED BY IDOCK:   -0.92 KCAL/MOL
REMARK 927      BINDING AFFINITY PREDICTED BY RF-SCORE:    0.00 PKD
ROOT
HETATM    1  C   UNL     1     -10.120  19.990  66.248  1.00  0.00    -0.603 C  
HETATM    2  C   UNL     1      -9.803  19.047  67.421  1.00  0.00    -0.324 C  
HETATM    3  C   UNL     1     -10.135  19.786  68.732  1.00  0.00    -0.523 C  
HETATM    4  C   UNL     1      -8.303  18.705  67.429  1.00  0.00    -0.272 C  
HETATM    5  N   UNL     1     -10.624  17.822  67.408  1.00  0.00    -0.361 NA 
HETATM    6  H   UNL     1     -11.602  18.056  67.576  1.00  0.00     0.000 HD 
ENDROOT
BRANCH   5   7
HETATM    7  C   UNL     1     -10.506  16.997  66.207  1.00  0.00    -0.258 C  
BRANCH   7   8
HETATM    8  C   UNL     1     -10.405  15.483  66.484  1.00  0.00    -0.288 C  
HETATM    9  O   UNL     1     -11.554  14.867  65.866  1.00  0.00    -0.324 OA 
HETATM   10  H   UNL     1     -11.491  13.935  66.037  1.00  0.00     0.000 HD 
BRANCH   8  11
HETATM   11  C   UNL     1     -10.407  15.116  67.972  1.00  0.00    -0.240 C  
BRANCH  11  12
HETATM   12  O   UNL     1     -11.696  14.759  68.485  1.00  0.00    -0.306 OA 
BRANCH  12  13
HETATM   13  C   UNL     1     -11.775  13.508  69.064  1.00  0.00    -0.327 A  
HETATM   14  C   UNL     1     -11.398  12.331  68.389  1.00  0.00    -0.340 A  
HETATM   15  C   UNL     1     -11.551  11.080  68.977  1.00  0.00    -0.392 A  
HETATM   16  C   UNL     1     -12.073  10.984  70.255  1.00  0.00    -0.448 A  
HETATM   17  C   UNL     1     -12.427  12.142  70.949  1.00  0.00    -0.374 A  
HETATM   18  C   UNL     1     -12.278  13.427  70.382  1.00  0.00    -0.415 A  
BRANCH  18  19
HETATM   19  C   UNL     1     -12.718  14.664  71.152  1.00  0.00    -0.409 C  
HETATM   20  C   UNL     1     -13.683  14.449  72.332  1.00  0.00    -0.590 C  
HETATM   21  C   UNL     1     -13.652  15.785  73.053  1.00  0.00    -0.638 C  
HETATM   22  C   UNL     1     -12.172  16.138  73.051  1.00  0.00    -0.641 C  
HETATM   23  C   UNL     1     -11.580  15.481  71.796  1.00  0.00    -0.515 C  
ENDBRANCH  18  19
ENDBRANCH  12  13
ENDBRANCH  11  12
ENDBRANCH   8  11
ENDBRANCH   7   8
ENDBRANCH   5   7
TORSDOF 6
ENDMDL
MODEL        6
REMARK 921   NORMALIZED FREE ENERGY PREDICTED BY IDOCK:   -6.24 KCAL/MOL
REMARK 922        TOTAL FREE ENERGY PREDICTED BY IDOCK:   -9.45 KCAL/MOL
REMARK 923 INTER-LIGAND FREE ENERGY PREDICTED BY IDOCK:   -9.22 KCAL/MOL
REMARK 924 INTRA-LIGAND FREE ENERGY PREDICTED BY IDOCK:   -0.24 KCAL/MOL
REMARK 927      BINDING AFFINITY PREDICTED BY RF-SCORE:    0.00 PKD
ROOT
HETATM    1  C   UNL     1      -8.504  17.828  66.493  1.00  0.00    -0.288 C  
HETATM    2  C   UNL     1     -10.008  18.149  66.457  1.00  0.00    -0.374 C  
HETATM    3  C   UNL     1     -10.171  19.631  66.063  1.00  0.00    -0.587 C  
HETATM    4  C   UNL     1     -10.620  17.954  67.855  1.00  0.00    -0.387 C  
HETATM    5  N   UNL     1     -10.737  17.362  65.447  1.00  0.00    -0.576 NA 
HETATM    6  H   UNL     1     -10.435  17.630  64.510  1.00  0.00     0.000 HD 
ENDROOT
BRANCH   5   7
HETATM    7  C   UNL     1     -10.656  15.909  65.600  1.00  0.00    -0.378 C  
BRANCH   7   8
HETATM    8  C   UNL     1     -11.598  15.119  64.669  1.00  0.00    -0.357 C  
HETATM    9  O   UNL     1     -12.133  16.062  63.717  1.00  0.00    -1.318 OA 
HETATM   10  H   UNL     1     -12.713  15.575  63.144  1.00  0.00     0.000 HD 
BRANCH   8  11
HETATM   11  C   UNL     1     -12.772  14.445  65.388  1.00  0.00    -0.285 C  
BRANCH  11  12
HETATM   12  O   UNL     1     -12.973  13.075  65.022  1.00  0.00    -0.723 OA 
BRANCH  12  13
HETATM   13  C   UNL     1     -11.820  12.340  64.830  1.00  0.00    -0.364 A  
HETATM   14  C   UNL     1     -11.230  12.165  63.564  1.00  0.00    -0.536 A  
HETATM   15  C   UNL     1     -10.105  11.365  63.394  1.00  0.00    -0.444 A  
HETATM   16  C   UNL     1      -9.542  10.735  64.490  1.00  0.00    -0.322 A  
HETATM   17  C   UNL     1     -10.098  10.920  65.758  1.00  0.00    -0.308 A  
HETATM   18  C   UNL     1     -11.236  11.731  65.963  1.00  0.00    -0.352 A  
BRANCH  18  19
HETATM   19  C   UNL     1     -11.840  11.871  67.353  1.00  0.00    -0.239 C  
HETATM   20  C   UNL     1     -11.524  10.761  68.371  1.00  0.00    -0.358 C  
HETATM   21  C   UNL     1     -11.984  11.357  69.689  1.00  0.00    -0.416 C  
HETATM   22  C   UNL     1     -11.473  12.788  69.612  1.00  0.00    -0.255 C  
HETATM   23  C   UNL     1     -11.446  13.150  68.119  1.00  0.00    -0.349 C  
ENDBRANCH  18  19
ENDBRANCH  12  13
ENDBRANCH  11  12
ENDBRANCH   8  11
ENDBRANCH   7   8
ENDBRANCH   5   7
TORSDOF 6
ENDMDL
MODEL        7
REMARK 921   NORMALIZED FREE ENERGY PREDICTED BY IDOCK:   -6.23 KCAL/MOL
REMARK 922        TOTAL FREE ENERGY PREDICTED BY IDOCK:   -9.44 KCAL/MOL
REMARK 923 INTER-LIGAND FREE ENERGY PREDICTED BY IDOCK:   -8.23 KCAL/MOL
REMARK 924 INTRA-LIGAND FREE ENERGY PREDICTED BY IDOCK:   -1.21 KCAL/MOL
REMARK 927      BINDING AFFINITY PREDICTED BY RF-SCORE:    0.00 PKD
ROOT
HETATM    1  C   UNL     1      -9.852   6.799  70.438  1.00  0.00    -0.186 C  
HETATM    2  C   UNL     1     -10.450   8.165  70.061  1.00  0.00    -0.231 C  
HETATM    3  C   UNL     1     -10.281   8.358  68.541  1.00  0.00    -0.228 C  
HETATM    4  C   UNL     1      -9.681   9.290  70.775  1.00  0.00    -0.348 C  
HETATM    5  N   UNL     1     -11.895   8.253  70.339  1.00  0.00    -0.474 NA 
HETATM    6  H   UNL     1     -12.407   7.616  69.730  1.00  0.00     0.000 HD 
ENDROOT
BRANCH   5   7
HETATM    7  C   UNL     1     -12.284   8.033  71.732  1.00  0.00    -0.316 C  
BRANCH   7   8
HETATM    8  C   UNL     1     -12.992   9.234  72.391  1.00  0.00    -0.377 C  
HETATM    9  O   UNL     1     -14.190   8.724  73.012  1.00  0.00    -1.075 OA 
HETATM   10  H   UNL     1     -14.627   9.463  73.417  1.00  0.00     0.000 HD 
BRANCH   8  11
HETATM   11  C   UNL     1     -13.396  10.340  71.409  1.00  0.00    -0.304 C  
BRANCH  11  12
HETATM   12  O   UNL     1     -12.343  11.262  71.103  1.00  0.00    -0.361 OA 
BRANCH  12  13
HETATM   13  C   UNL     1     -12.674  12.597  71.222  1.00  0.00    -0.257 A  
HETATM   14  C   UNL     1     -13.547  13.080  72.216  1.00  0.00    -0.643 A  
HETATM   15  C   UNL     1     -13.912  14.421  72.269  1.00  0.00    -0.610 A  
HETATM   16  C   UNL     1     -13.400  15.306  71.336  1.00  0.00    -0.573 A  
HETATM   17  C   UNL     1     -12.513  14.850  70.360  1.00  0.00    -0.403 A  
HETATM   18  C   UNL     1     -12.118  13.496  70.284  1.00  0.00    -0.425 A  
BRANCH  18  19
HETATM   19  C   UNL     1     -11.184  13.028  69.177  1.00  0.00    -0.297 C  
HETATM   20  C   UNL     1     -11.834  12.422  67.920  1.00  0.00    -0.370 C  
HETATM   21  C   UNL     1     -10.687  12.373  66.927  1.00  0.00    -0.269 C  
HETATM   22  C   UNL     1     -10.007  13.720  67.125  1.00  0.00    -0.243 C  
HETATM   23  C   UNL     1     -10.261  14.113  68.587  1.00  0.00    -0.238 C  
ENDBRANCH  18  19
ENDBRANCH  12  13
ENDBRANCH  11  12
ENDBRANCH   8  11
ENDBRANCH   7   8
ENDBRANCH   5   7
TORSDOF 6
ENDMDL
MODEL        8
REMARK 921   NORMALIZED FREE ENERGY PREDICTED BY IDOCK:   -6.15 KCAL/MOL
REMARK 922        TOTAL FREE ENERGY PREDICTED BY IDOCK:   -9.33 KCAL/MOL
REMARK 923 INTER-LIGAND FREE ENERGY PREDICTED BY IDOCK:   -7.82 KCAL/MOL
REMARK 924 INTRA-LIGAND FREE ENERGY PREDICTED BY IDOCK:   -1.51 KCAL/MOL
REMARK 927      BINDING AFFINITY PREDICTED BY RF-SCORE:    0.00 PKD
ROOT
HETATM    1  C   UNL     1     -10.008  10.214  65.965  1.00  0.00    -0.322 C  
HETATM    2  C   UNL     1     -10.682  11.215  66.919  1.00  0.00    -0.274 C  
HETATM    3  C   UNL     1     -11.593  12.135  66.083  1.00  0.00    -0.418 C  
HETATM    4  C   UNL     1      -9.615  12.088  67.602  1.00  0.00    -0.188 C  
HETATM    5  N   UNL     1     -11.546  10.560  67.918  1.00  0.00    -0.701 NA 
HETATM    6  H   UNL     1     -12.347  10.128  67.456  1.00  0.00     0.000 HD 
ENDROOT
BRANCH   5   7
HETATM    7  C   UNL     1     -10.884   9.586  68.785  1.00  0.00    -0.142 C  
BRANCH   7   8
HETATM    8  C   UNL     1     -11.320   9.651  70.262  1.00  0.00    -0.257 C  
HETATM    9  O   UNL     1     -11.996   8.411  70.554  1.00  0.00    -0.488 OA 
HETATM   10  H   UNL     1     -12.265   8.452  71.464  1.00  0.00     0.000 HD 
BRANCH   8  11
HETATM   11  C   UNL     1     -12.276  10.806  70.584  1.00  0.00    -0.379 C  
BRANCH  11  12
HETATM   12  O   UNL     1     -11.728  12.105  70.334  1.00  0.00    -0.255 OA 
BRANCH  12  13
HETATM   13  C   UNL     1     -12.415  13.156  70.908  1.00  0.00    -0.323 A  
HETATM   14  C   UNL     1     -13.381  12.974  71.916  1.00  0.00    -0.539 A  
HETATM   15  C   UNL     1     -14.103  14.048  72.428  1.00  0.00    -0.576 A  
HETATM   16  C   UNL     1     -13.862  15.324  71.950  1.00  0.00    -0.624 A  
HETATM   17  C   UNL     1     -12.889  15.526  70.970  1.00  0.00    -0.543 A  
HETATM   18  C   UNL     1     -12.135  14.458  70.435  1.00  0.00    -0.399 A  
BRANCH  18  19
HETATM   19  C   UNL     1     -11.115  14.711  69.335  1.00  0.00    -0.293 C  
HETATM   20  C   UNL     1     -11.647  15.244  67.992  1.00  0.00    -0.325 C  
HETATM   21  C   UNL     1     -10.387  15.683  67.269  1.00  0.00    -0.277 C  
HETATM   22  C   UNL     1      -9.599  16.394  68.359  1.00  0.00    -0.219 C  
HETATM   23  C   UNL     1     -10.008  15.727  69.681  1.00  0.00    -0.284 C  
ENDBRANCH  18  19
ENDBRANCH  12  13
ENDBRANCH  11  12
ENDBRANCH   8  11
ENDBRANCH   7   8
ENDBRANCH   5   7
TORSDOF 6
ENDMDL
MODEL        9
REMARK 921   NORMALIZED FREE ENERGY PREDICTED BY IDOCK:   -6.14 KCAL/MOL
REMARK 922        TOTAL FREE ENERGY PREDICTED BY IDOCK:   -9.33 KCAL/MOL
REMARK 923 INTER-LIGAND FREE ENERGY PREDICTED BY IDOCK:   -8.15 KCAL/MOL
REMARK 924 INTRA-LIGAND FREE ENERGY PREDICTED BY IDOCK:   -1.18 KCAL/MOL
REMARK 927      BINDING AFFINITY PREDICTED BY RF-SCORE:    0.00 PKD
ROOT
HETATM    1  C   UNL     1     -12.261  12.053  63.616  1.00  0.00    -0.642 C  
HETATM    2  C   UNL     1     -11.723  12.980  64.719  1.00  0.00    -0.345 C  
HETATM    3  C   UNL     1     -12.526  14.295  64.672  1.00  0.00    -0.371 C  
HETATM    4  C   UNL     1     -10.244  13.310  64.452  1.00  0.00    -0.300 C  
HETATM    5  N   UNL     1     -11.904  12.424  66.072  1.00  0.00    -0.531 NA 
HETATM    6  H   UNL     1     -12.898  12.372  66.298  1.00  0.00     0.000 HD 
ENDROOT
BRANCH   5   7
HETATM    7  C   UNL     1     -11.269  11.129  66.312  1.00  0.00    -0.015 C  
BRANCH   7   8
HETATM    8  C   UNL     1     -10.913  10.860  67.789  1.00  0.00    -0.283 C  
HETATM    9  O   UNL     1     -12.146  10.539  68.464  1.00  0.00    -0.793 OA 
HETATM   10  H   UNL     1     -11.927  10.374  69.374  1.00  0.00     0.000 HD 
BRANCH   8  11
HETATM   11  C   UNL     1     -10.269  12.052  68.506  1.00  0.00    -0.212 C  
BRANCH  11  12
HETATM   12  O   UNL     1     -11.211  12.973  69.070  1.00  0.00    -0.254 OA 
BRANCH  12  13
HETATM   13  C   UNL     1     -10.930  14.308  68.858  1.00  0.00    -0.257 A  
HETATM   14  C   UNL     1     -10.223  14.768  67.731  1.00  0.00    -0.232 A  
HETATM   15  C   UNL     1      -9.900  16.113  67.579  1.00  0.00    -0.237 A  
HETATM   16  C   UNL     1     -10.288  17.023  68.546  1.00  0.00    -0.359 A  
HETATM   17  C   UNL     1     -11.013  16.588  69.658  1.00  0.00    -0.287 A  
HETATM   18  C   UNL     1     -11.362  15.231  69.837  1.00  0.00    -0.308 A  
BRANCH  18  19
HETATM   19  C   UNL     1     -12.114  14.788  71.084  1.00  0.00    -0.391 C  
HETATM   20  C   UNL     1     -11.651  15.378  72.429  1.00  0.00    -0.545 C  
HETATM   21  C   UNL     1     -12.777  15.005  73.376  1.00  0.00    -0.654 C  
HETATM   22  C   UNL     1     -14.024  15.298  72.557  1.00  0.00    -0.609 C  
HETATM   23  C   UNL     1     -13.625  15.092  71.088  1.00  0.00    -0.525 C  
ENDBRANCH  18  19
ENDBRANCH  12  13
ENDBRANCH  11  12
ENDBRANCH   8  11
ENDBRANCH   7   8
ENDBRANCH   5   7
TORSDOF 6
ENDMDL
MODEL       10
REMARK 921   NORMALIZED FREE ENERGY PREDICTED BY IDOCK:   -6.13 KCAL/MOL
REMARK 922        TOTAL FREE ENERGY PREDICTED BY IDOCK:   -9.31 KCAL/MOL
REMARK 923 INTER-LIGAND FREE ENERGY PREDICTED BY IDOCK:   -8.74 KCAL/MOL
REMARK 924 INTRA-LIGAND FREE ENERGY PREDICTED BY IDOCK:   -0.57 KCAL/MOL
REMARK 927      BINDING AFFINITY PREDICTED BY RF-SCORE:    0.00 PKD
ROOT
HETATM    1  C   UNL     1     -10.386   7.185  73.128  1.00  0.00    -0.336 C  
HETATM    2  C   UNL     1     -11.297   6.194  72.383  1.00  0.00    -0.296 C  
HETATM    3  C   UNL     1     -11.387   4.903  73.221  1.00  0.00    -0.408 C  
HETATM    4  C   UNL     1     -10.682   5.839  71.018  1.00  0.00    -0.326 C  
HETATM    5  N   UNL     1     -12.676   6.692  72.227  1.00  0.00    -0.551 NA 
HETATM    6  H   UNL     1     -13.129   6.759  73.139  1.00  0.00     0.000 HD 
ENDROOT
BRANCH   5   7
HETATM    7  C   UNL     1     -12.813   7.958  71.507  1.00  0.00    -0.317 C  
BRANCH   7   8
HETATM    8  C   UNL     1     -13.062   9.180  72.414  1.00  0.00    -0.423 C  
HETATM    9  O   UNL     1     -14.101   8.807  73.342  1.00  0.00    -1.167 OA 
HETATM   10  H   UNL     1     -14.255   9.560  73.900  1.00  0.00     0.000 HD 
BRANCH   8  11
HETATM   11  C   UNL     1     -13.519  10.436  71.663  1.00  0.00    -0.240 C  
BRANCH  11  12
HETATM   12  O   UNL     1     -12.448  11.298  71.261  1.00  0.00    -0.368 OA 
BRANCH  12  13
HETATM   13  C   UNL     1     -12.741  12.647  71.272  1.00  0.00    -0.257 A  
HETATM   14  C   UNL     1     -13.602  13.232  72.220  1.00  0.00    -0.703 A  
HETATM   15  C   UNL     1     -13.928  14.584  72.165  1.00  0.00    -0.597 A  
HETATM   16  C   UNL     1     -13.389  15.377  71.167  1.00  0.00    -0.580 A  
HETATM   17  C   UNL     1     -12.513  14.819  70.234  1.00  0.00    -0.393 A  
HETATM   18  C   UNL     1     -12.157  13.452  70.268  1.00  0.00    -0.419 A  
BRANCH  18  19
HETATM   19  C   UNL     1     -11.234  12.871  69.207  1.00  0.00    -0.251 C  
HETATM   20  C   UNL     1     -11.898  12.182  68.000  1.00  0.00    -0.351 C  
HETATM   21  C   UNL     1     -10.751  12.023  67.019  1.00  0.00    -0.280 C  
HETATM   22  C   UNL     1     -10.036  13.362  67.109  1.00  0.00    -0.240 C  
HETATM   23  C   UNL     1     -10.283  13.880  68.533  1.00  0.00    -0.240 C  
ENDBRANCH  18  19
ENDBRANCH  12  13
ENDBRANCH  11  12
ENDBRANCH   8  11
ENDBRANCH   7   8
ENDBRANCH   5   7
TORSDOF 6
ENDMDL
MODEL       11
REMARK 921   NORMALIZED FREE ENERGY PREDICTED BY IDOCK:   -6.12 KCAL/MOL
REMARK 922        TOTAL FREE ENERGY PREDICTED BY IDOCK:   -9.30 KCAL/MOL
REMARK 923 INTER-LIGAND FREE ENERGY PREDICTED BY IDOCK:   -7.83 KCAL/MOL
REMARK 924 INTRA-LIGAND FREE ENERGY PREDICTED BY IDOCK:   -1.47 KCAL/MOL
REMARK 927      BINDING AFFINITY PREDICTED BY RF-SCORE:    0.00 PKD
ROOT
HETATM    1  C   UNL     1      -9.643   7.665  68.903  1.00  0.00    -0.150 C  
HETATM    2  C   UNL     1     -10.242   9.079  68.796  1.00  0.00    -0.208 C  
HETATM    3  C   UNL     1     -10.592   9.340  67.318  1.00  0.00    -0.303 C  
HETATM    4  C   UNL     1      -9.201  10.124  69.234  1.00  0.00    -0.220 C  
HETATM    5  N   UNL     1     -11.494   9.229  69.559  1.00  0.00    -0.427 NA 
HETATM    6  H   UNL     1     -12.227   8.651  69.145  1.00  0.00     0.000 HD 
ENDROOT
BRANCH   5   7
HETATM    7  C   UNL     1     -11.397   8.959  70.993  1.00  0.00    -0.291 C  
BRANCH   7   8
HETATM    8  C   UNL     1     -12.716   9.151  71.767  1.00  0.00    -0.373 C  
HETATM    9  O   UNL     1     -13.736   8.434  71.041  1.00  0.00    -0.555 OA 
HETATM   10  H   UNL     1     -14.548   8.553  71.518  1.00  0.00     0.000 HD 
BRANCH   8  11
HETATM   11  C   UNL     1     -13.160  10.613  71.898  1.00  0.00    -0.458 C  
BRANCH  11  12
HETATM   12  O   UNL     1     -12.522  11.502  70.974  1.00  0.00    -0.380 OA 
BRANCH  12  13
HETATM   13  C   UNL     1     -12.776  12.844  71.176  1.00  0.00    -0.276 A  
HETATM   14  C   UNL     1     -13.593  13.316  72.221  1.00  0.00    -0.703 A  
HETATM   15  C   UNL     1     -13.881  14.670  72.359  1.00  0.00    -0.580 A  
HETATM   16  C   UNL     1     -13.347  15.578  71.461  1.00  0.00    -0.593 A  
HETATM   17  C   UNL     1     -12.513  15.130  70.435  1.00  0.00    -0.416 A  
HETATM   18  C   UNL     1     -12.196  13.763  70.273  1.00  0.00    -0.429 A  
BRANCH  18  19
HETATM   19  C   UNL     1     -11.320  13.309  69.115  1.00  0.00    -0.336 C  
HETATM   20  C   UNL     1     -12.024  12.994  67.782  1.00  0.00    -0.344 C  
HETATM   21  C   UNL     1     -10.874  12.900  66.796  1.00  0.00    -0.288 C  
HETATM   22  C   UNL     1      -9.996  14.080  67.183  1.00  0.00    -0.252 C  
HETATM   23  C   UNL     1     -10.223  14.304  68.686  1.00  0.00    -0.246 C  
ENDBRANCH  18  19
ENDBRANCH  12  13
ENDBRANCH  11  12
ENDBRANCH   8  11
ENDBRANCH   7   8
ENDBRANCH   5   7
TORSDOF 6
ENDMDL
MODEL       12
REMARK 921   NORMALIZED FREE ENERGY PREDICTED BY IDOCK:   -6.12 KCAL/MOL
REMARK 922        TOTAL FREE ENERGY PREDICTED BY IDOCK:   -9.30 KCAL/MOL
REMARK 923 INTER-LIGAND FREE ENERGY PREDICTED BY IDOCK:   -8.10 KCAL/MOL
REMARK 924 INTRA-LIGAND FREE ENERGY PREDICTED BY IDOCK:   -1.20 KCAL/MOL
REMARK 927      BINDING AFFINITY PREDICTED BY RF-SCORE:    0.00 PKD
ROOT
HETATM    1  C   UNL     1     -10.480  11.089  64.717  1.00  0.00    -0.384 C  
HETATM    2  C   UNL     1     -11.359  12.284  65.125  1.00  0.00    -0.329 C  
HETATM    3  C   UNL     1     -12.627  12.268  64.249  1.00  0.00    -0.470 C  
HETATM    4  C   UNL     1     -10.609  13.601  64.860  1.00  0.00    -0.421 C  
HETATM    5  N   UNL     1     -11.813  12.208  66.526  1.00  0.00    -0.615 NA 
HETATM    6  H   UNL     1     -12.451  11.420  66.644  1.00  0.00     0.000 HD 
ENDROOT
BRANCH   5   7
HETATM    7  C   UNL     1     -10.753  12.147  67.531  1.00  0.00    -0.232 C  
BRANCH   7   8
HETATM    8  C   UNL     1     -11.006  11.129  68.661  1.00  0.00    -0.220 C  
HETATM    9  O   UNL     1     -11.765  10.046  68.086  1.00  0.00    -0.660 OA 
HETATM   10  H   UNL     1     -11.922   9.419  68.782  1.00  0.00     0.000 HD 
BRANCH   8  11
HETATM   11  C   UNL     1     -11.798  11.692  69.847  1.00  0.00    -0.358 C  
BRANCH  11  12
HETATM   12  O   UNL     1     -12.396  12.970  69.597  1.00  0.00    -0.189 OA 
BRANCH  12  13
HETATM   13  C   UNL     1     -12.362  13.854  70.657  1.00  0.00    -0.381 A  
HETATM   14  C   UNL     1     -13.119  13.668  71.829  1.00  0.00    -0.468 A  
HETATM   15  C   UNL     1     -13.113  14.611  72.852  1.00  0.00    -0.609 A  
HETATM   16  C   UNL     1     -12.340  15.751  72.726  1.00  0.00    -0.564 A  
HETATM   17  C   UNL     1     -11.562  15.940  71.582  1.00  0.00    -0.541 A  
HETATM   18  C   UNL     1     -11.542  14.998  70.529  1.00  0.00    -0.343 A  
BRANCH  18  19
HETATM   19  C   UNL     1     -10.717  15.260  69.278  1.00  0.00    -0.252 C  
HETATM   20  C   UNL     1     -11.189  16.394  68.350  1.00  0.00    -0.324 C  
HETATM   21  C   UNL     1     -10.007  16.597  67.420  1.00  0.00    -0.265 C  
HETATM   22  C   UNL     1      -8.816  16.538  68.364  1.00  0.00    -0.218 C  
HETATM   23  C   UNL     1      -9.239  15.625  69.525  1.00  0.00    -0.259 C  
ENDBRANCH  18  19
ENDBRANCH  12  13
ENDBRANCH  11  12
ENDBRANCH   8  11
ENDBRANCH   7   8
ENDBRANCH   5   7
TORSDOF 6
ENDMDL
MODEL       13
REMARK 921   NORMALIZED FREE ENERGY PREDICTED BY IDOCK:   -6.08 KCAL/MOL
REMARK 922        TOTAL FREE ENERGY PREDICTED BY IDOCK:   -9.24 KCAL/MOL
REMARK 923 INTER-LIGAND FREE ENERGY PREDICTED BY IDOCK:   -8.00 KCAL/MOL
REMARK 924 INTRA-LIGAND FREE ENERGY PREDICTED BY IDOCK:   -1.25 KCAL/MOL
REMARK 927      BINDING AFFINITY PREDICTED BY RF-SCORE:    0.00 PKD
ROOT
HETATM    1  C   UNL     1      -9.173  10.568  64.814  1.00  0.00    -0.266 C  
HETATM    2  C   UNL     1      -9.707  11.606  65.816  1.00  0.00    -0.236 C  
HETATM    3  C   UNL     1      -8.577  11.938  66.810  1.00  0.00    -0.181 C  
HETATM    4  C   UNL     1     -10.884  11.013  66.610  1.00  0.00    -0.284 C  
HETATM    5  N   UNL     1     -10.090  12.876  65.174  1.00  0.00    -0.425 NA 
HETATM    6  H   UNL     1      -9.263  13.342  64.799  1.00  0.00     0.000 HD 
ENDROOT
BRANCH   5   7
HETATM    7  C   UNL     1     -11.118  12.775  64.138  1.00  0.00    -0.389 C  
BRANCH   7   8
HETATM    8  C   UNL     1     -12.383  13.612  64.415  1.00  0.00    -0.338 C  
HETATM    9  O   UNL     1     -12.337  14.746  63.525  1.00  0.00    -1.037 OA 
HETATM   10  H   UNL     1     -13.116  15.262  63.696  1.00  0.00     0.000 HD 
BRANCH   8  11
HETATM   11  C   UNL     1     -12.488  14.135  65.852  1.00  0.00    -0.453 C  
BRANCH  11  12
HETATM   12  O   UNL     1     -11.517  15.135  66.183  1.00  0.00    -0.285 OA 
BRANCH  12  13
HETATM   13  C   UNL     1     -11.297  15.320  67.533  1.00  0.00    -0.297 A  
HETATM   14  C   UNL     1     -11.623  14.349  68.499  1.00  0.00    -0.347 A  
HETATM   15  C   UNL     1     -11.449  14.592  69.858  1.00  0.00    -0.320 A  
HETATM   16  C   UNL     1     -10.936  15.807  70.274  1.00  0.00    -0.368 A  
HETATM   17  C   UNL     1     -10.582  16.772  69.329  1.00  0.00    -0.336 A  
HETATM   18  C   UNL     1     -10.740  16.553  67.943  1.00  0.00    -0.337 A  
BRANCH  18  19
HETATM   19  C   UNL     1     -10.386  17.646  66.945  1.00  0.00    -0.329 C  
HETATM   20  C   UNL     1     -10.770  19.089  67.319  1.00  0.00    -0.556 C  
HETATM   21  C   UNL     1     -10.006  19.925  66.308  1.00  0.00    -0.596 C  
HETATM   22  C   UNL     1      -8.642  19.253  66.272  1.00  0.00    -0.335 C  
HETATM   23  C   UNL     1      -8.886  17.775  66.610  1.00  0.00    -0.282 C  
ENDBRANCH  18  19
ENDBRANCH  12  13
ENDBRANCH  11  12
ENDBRANCH   8  11
ENDBRANCH   7   8
ENDBRANCH   5   7
TORSDOF 6
ENDMDL
MODEL       14
REMARK 921   NORMALIZED FREE ENERGY PREDICTED BY IDOCK:   -6.04 KCAL/MOL
REMARK 922        TOTAL FREE ENERGY PREDICTED BY IDOCK:   -9.20 KCAL/MOL
REMARK 923 INTER-LIGAND FREE ENERGY PREDICTED BY IDOCK:   -8.43 KCAL/MOL
REMARK 924 INTRA-LIGAND FREE ENERGY PREDICTED BY IDOCK:   -0.76 KCAL/MOL
REMARK 927      BINDING AFFINITY PREDICTED BY RF-SCORE:    0.00 PKD
ROOT
HETATM    1  C   UNL     1     -13.228   9.031  72.009  1.00  0.00    -0.486 C  
HETATM    2  C   UNL     1     -11.991   8.385  71.363  1.00  0.00    -0.297 C  
HETATM    3  C   UNL     1     -12.347   6.932  70.992  1.00  0.00    -0.401 C  
HETATM    4  C   UNL     1     -10.828   8.352  72.370  1.00  0.00    -0.416 C  
HETATM    5  N   UNL     1     -11.586   9.051  70.111  1.00  0.00    -0.464 NA 
HETATM    6  H   UNL     1     -12.300   8.915  69.396  1.00  0.00     0.000 HD 
ENDROOT
BRANCH   5   7
HETATM    7  C   UNL     1     -11.262  10.473  70.229  1.00  0.00    -0.313 C  
BRANCH   7   8
HETATM    8  C   UNL     1     -12.080  11.390  69.297  1.00  0.00    -0.289 C  
HETATM    9  O   UNL     1     -12.135  10.738  68.012  1.00  0.00    -0.778 OA 
HETATM   10  H   UNL     1     -12.638  11.303  67.438  1.00  0.00     0.000 HD 
BRANCH   8  11
HETATM   11  C   UNL     1     -11.476  12.785  69.102  1.00  0.00    -0.306 C  
BRANCH  11  12
HETATM   12  O   UNL     1     -12.156  13.586  68.128  1.00  0.00    -0.346 OA 
BRANCH  12  13
HETATM   13  C   UNL     1     -11.385  14.554  67.517  1.00  0.00    -0.340 A  
HETATM   14  C   UNL     1     -10.931  15.704  68.190  1.00  0.00    -0.314 A  
HETATM   15  C   UNL     1     -10.210  16.692  67.528  1.00  0.00    -0.289 A  
HETATM   16  C   UNL     1      -9.920  16.542  66.183  1.00  0.00    -0.363 A  
HETATM   17  C   UNL     1     -10.339  15.396  65.506  1.00  0.00    -0.412 A  
HETATM   18  C   UNL     1     -11.067  14.372  66.152  1.00  0.00    -0.330 A  
BRANCH  18  19
HETATM   19  C   UNL     1     -11.545  13.157  65.370  1.00  0.00    -0.362 C  
HETATM   20  C   UNL     1     -12.151  13.413  63.978  1.00  0.00    -0.506 C  
HETATM   21  C   UNL     1     -12.212  12.026  63.365  1.00  0.00    -0.627 C  
HETATM   22  C   UNL     1     -10.869  11.424  63.752  1.00  0.00    -0.468 C  
HETATM   23  C   UNL     1     -10.469  12.094  65.075  1.00  0.00    -0.326 C  
ENDBRANCH  18  19
ENDBRANCH  12  13
ENDBRANCH  11  12
ENDBRANCH   8  11
ENDBRANCH   7   8
ENDBRANCH   5   7
TORSDOF 6
ENDMDL
MODEL       15
REMARK 921   NORMALIZED FREE ENERGY PREDICTED BY IDOCK:   -6.02 KCAL/MOL
REMARK 922        TOTAL FREE ENERGY PREDICTED BY IDOCK:   -9.16 KCAL/MOL
REMARK 923 INTER-LIGAND FREE ENERGY PREDICTED BY IDOCK:   -8.20 KCAL/MOL
REMARK 924 INTRA-LIGAND FREE ENERGY PREDICTED BY IDOCK:   -0.96 KCAL/MOL
REMARK 927      BINDING AFFINITY PREDICTED BY RF-SCORE:    0.00 PKD
ROOT
HETATM    1  C   UNL     1      -8.370  19.209  66.345  1.00  0.00    -0.326 C  
HETATM    2  C   UNL     1      -9.806  18.981  66.846  1.00  0.00    -0.331 C  
HETATM    3  C   UNL     1     -10.778  19.509  65.773  1.00  0.00    -0.490 C  
HETATM    4  C   UNL     1     -10.043  19.778  68.142  1.00  0.00    -0.574 C  
HETATM    5  N   UNL     1     -10.126  17.555  67.038  1.00  0.00    -0.312 NA 
HETATM    6  H   UNL     1     -10.132  17.074  66.139  1.00  0.00     0.000 HD 
ENDROOT
BRANCH   5   7
HETATM    7  C   UNL     1      -9.269  16.837  67.982  1.00  0.00    -0.228 C  
BRANCH   7   8
HETATM    8  C   UNL     1      -9.978  16.405  69.281  1.00  0.00    -0.259 C  
HETATM    9  O   UNL     1      -9.213  15.312  69.831  1.00  0.00    -0.435 OA 
HETATM   10  H   UNL     1      -9.651  15.046  70.631  1.00  0.00     0.000 HD 
BRANCH   8  11
HETATM   11  C   UNL     1     -11.420  15.927  69.079  1.00  0.00    -0.380 C  
BRANCH  11  12
HETATM   12  O   UNL     1     -11.580  14.983  68.014  1.00  0.00    -0.328 OA 
BRANCH  12  13
HETATM   13  C   UNL     1     -11.732  13.668  68.407  1.00  0.00    -0.358 A  
HETATM   14  C   UNL     1     -12.028  13.299  69.733  1.00  0.00    -0.391 A  
HETATM   15  C   UNL     1     -12.111  11.963  70.111  1.00  0.00    -0.382 A  
HETATM   16  C   UNL     1     -11.910  10.972  69.167  1.00  0.00    -0.407 A  
HETATM   17  C   UNL     1     -11.642  11.320  67.841  1.00  0.00    -0.330 A  
HETATM   18  C   UNL     1     -11.558  12.667  67.425  1.00  0.00    -0.421 A  
BRANCH  18  19
HETATM   19  C   UNL     1     -11.219  13.007  65.981  1.00  0.00    -0.320 C  
HETATM   20  C   UNL     1     -10.437  11.952  65.177  1.00  0.00    -0.330 C  
HETATM   21  C   UNL     1     -10.556  12.449  63.748  1.00  0.00    -0.486 C  
HETATM   22  C   UNL     1     -12.015  12.868  63.652  1.00  0.00    -0.613 C  
HETATM   23  C   UNL     1     -12.428  13.295  65.068  1.00  0.00    -0.498 C  
ENDBRANCH  18  19
ENDBRANCH  12  13
ENDBRANCH  11  12
ENDBRANCH   8  11
ENDBRANCH   7   8
ENDBRANCH   5   7
TORSDOF 6
ENDMDL
MODEL       16
REMARK 921   NORMALIZED FREE ENERGY PREDICTED BY IDOCK:   -6.00 KCAL/MOL
REMARK 922        TOTAL FREE ENERGY PREDICTED BY IDOCK:   -9.13 KCAL/MOL
REMARK 923 INTER-LIGAND FREE ENERGY PREDICTED BY IDOCK:   -8.31 KCAL/MOL
REMARK 924 INTRA-LIGAND FREE ENERGY PREDICTED BY IDOCK:   -0.83 KCAL/MOL
REMARK 927      BINDING AFFINITY PREDICTED BY RF-SCORE:    0.00 PKD
ROOT
HETATM    1  C   UNL     1      -9.668  20.670  67.154  1.00  0.00    -0.530 C  
HETATM    2  C   UNL     1      -9.668  19.338  67.925  1.00  0.00    -0.338 C  
HETATM    3  C   UNL     1     -10.149  19.618  69.363  1.00  0.00    -0.214 C  
HETATM    4  C   UNL     1      -8.239  18.773  67.998  1.00  0.00    -0.317 C  
HETATM    5  N   UNL     1     -10.599  18.348  67.355  1.00  0.00    -0.420 NA 
HETATM    6  H   UNL     1     -11.562  18.666  67.471  1.00  0.00     0.000 HD 
ENDROOT
BRANCH   5   7
HETATM    7  C   UNL     1     -10.358  17.985  65.959  1.00  0.00    -0.331 C  
BRANCH   7   8
HETATM    8  C   UNL     1     -10.015  16.498  65.739  1.00  0.00    -0.274 C  
HETATM    9  O   UNL     1     -10.859  16.027  64.669  1.00  0.00    -0.761 OA 
HETATM   10  H   UNL     1     -10.648  15.111  64.534  1.00  0.00     0.000 HD 
BRANCH   8  11
HETATM   11  C   UNL     1     -10.257  15.610  66.966  1.00  0.00    -0.274 C  
BRANCH  11  12
HETATM   12  O   UNL     1     -11.598  15.120  67.078  1.00  0.00    -0.295 OA 
BRANCH  12  13
HETATM   13  C   UNL     1     -11.737  13.935  67.772  1.00  0.00    -0.366 A  
HETATM   14  C   UNL     1     -11.948  13.888  69.163  1.00  0.00    -0.404 A  
HETATM   15  C   UNL     1     -12.020  12.676  69.844  1.00  0.00    -0.365 A  
HETATM   16  C   UNL     1     -11.893  11.490  69.142  1.00  0.00    -0.406 A  
HETATM   17  C   UNL     1     -11.710  11.518  67.759  1.00  0.00    -0.299 A  
HETATM   18  C   UNL     1     -11.640  12.731  67.039  1.00  0.00    -0.422 A  
BRANCH  18  19
HETATM   19  C   UNL     1     -11.395  12.722  65.537  1.00  0.00    -0.347 C  
HETATM   20  C   UNL     1     -10.585  11.544  64.965  1.00  0.00    -0.354 C  
HETATM   21  C   UNL     1     -10.806  11.666  63.469  1.00  0.00    -0.497 C  
HETATM   22  C   UNL     1     -12.292  11.972  63.367  1.00  0.00    -0.635 C  
HETATM   23  C   UNL     1     -12.663  12.712  64.660  1.00  0.00    -0.458 C  
ENDBRANCH  18  19
ENDBRANCH  12  13
ENDBRANCH  11  12
ENDBRANCH   8  11
ENDBRANCH   7   8
ENDBRANCH   5   7
TORSDOF 6
ENDMDL
MODEL       17
REMARK 921   NORMALIZED FREE ENERGY PREDICTED BY IDOCK:   -5.90 KCAL/MOL
REMARK 922        TOTAL FREE ENERGY PREDICTED BY IDOCK:   -9.00 KCAL/MOL
REMARK 923 INTER-LIGAND FREE ENERGY PREDICTED BY IDOCK:   -7.83 KCAL/MOL
REMARK 924 INTRA-LIGAND FREE ENERGY PREDICTED BY IDOCK:   -1.17 KCAL/MOL
REMARK 927      BINDING AFFINITY PREDICTED BY RF-SCORE:    0.00 PKD
ROOT
HETATM    1  C   UNL     1      -8.740   7.393  68.060  1.00  0.00    -0.124 C  
HETATM    2  C   UNL     1     -10.153   7.786  67.596  1.00  0.00    -0.196 C  
HETATM    3  C   UNL     1     -10.806   6.549  66.949  1.00  0.00    -0.427 C  
HETATM    4  C   UNL     1     -10.067   8.895  66.533  1.00  0.00    -0.356 C  
HETATM    5  N   UNL     1     -11.029   8.190  68.711  1.00  0.00    -0.419 NA 
HETATM    6  H   UNL     1     -11.214   7.390  69.317  1.00  0.00     0.000 HD 
ENDROOT
BRANCH   5   7
HETATM    7  C   UNL     1     -10.555   9.321  69.508  1.00  0.00    -0.224 C  
BRANCH   7   8
HETATM    8  C   UNL     1     -11.592   9.872  70.508  1.00  0.00    -0.309 C  
HETATM    9  O   UNL     1     -12.407   8.756  70.922  1.00  0.00    -0.466 OA 
HETATM   10  H   UNL     1     -13.045   9.096  71.538  1.00  0.00     0.000 HD 
BRANCH   8  11
HETATM   11  C   UNL     1     -12.514  10.950  69.927  1.00  0.00    -0.224 C  
BRANCH  11  12
HETATM   12  O   UNL     1     -12.130  11.408  68.625  1.00  0.00    -0.518 OA 
BRANCH  12  13
HETATM   13  C   UNL     1     -11.905  12.766  68.520  1.00  0.00    -0.306 A  
HETATM   14  C   UNL     1     -11.962  13.635  69.626  1.00  0.00    -0.402 A  
HETATM   15  C   UNL     1     -11.794  15.008  69.476  1.00  0.00    -0.360 A  
HETATM   16  C   UNL     1     -11.555  15.535  68.219  1.00  0.00    -0.344 A  
HETATM   17  C   UNL     1     -11.468  14.684  67.115  1.00  0.00    -0.380 A  
HETATM   18  C   UNL     1     -11.627  13.286  67.236  1.00  0.00    -0.404 A  
BRANCH  18  19
HETATM   19  C   UNL     1     -11.571  12.396  66.003  1.00  0.00    -0.455 C  
HETATM   20  C   UNL     1     -12.520  12.745  64.841  1.00  0.00    -0.563 C  
HETATM   21  C   UNL     1     -11.991  11.902  63.696  1.00  0.00    -0.578 C  
HETATM   22  C   UNL     1     -10.484  12.074  63.813  1.00  0.00    -0.469 C  
HETATM   23  C   UNL     1     -10.200  12.322  65.302  1.00  0.00    -0.305 C  
ENDBRANCH  18  19
ENDBRANCH  12  13
ENDBRANCH  11  12
ENDBRANCH   8  11
ENDBRANCH   7   8
ENDBRANCH   5   7
TORSDOF 6
ENDMDL
MODEL       18
REMARK 921   NORMALIZED FREE ENERGY PREDICTED BY IDOCK:   -5.90 KCAL/MOL
REMARK 922        TOTAL FREE ENERGY PREDICTED BY IDOCK:   -9.00 KCAL/MOL
REMARK 923 INTER-LIGAND FREE ENERGY PREDICTED BY IDOCK:   -7.48 KCAL/MOL
REMARK 924 INTRA-LIGAND FREE ENERGY PREDICTED BY IDOCK:   -1.52 KCAL/MOL
REMARK 927      BINDING AFFINITY PREDICTED BY RF-SCORE:    0.00 PKD
ROOT
HETATM    1  C   UNL     1      -9.847  10.111  65.259  1.00  0.00    -0.388 C  
HETATM    2  C   UNL     1      -9.893  11.478  65.962  1.00  0.00    -0.225 C  
HETATM    3  C   UNL     1      -8.553  11.685  66.695  1.00  0.00    -0.179 C  
HETATM    4  C   UNL     1     -11.020  11.492  67.009  1.00  0.00    -0.347 C  
HETATM    5  N   UNL     1     -10.034  12.602  65.019  1.00  0.00    -0.453 NA 
HETATM    6  H   UNL     1      -9.196  12.683  64.443  1.00  0.00     0.000 HD 
ENDROOT
BRANCH   5   7
HETATM    7  C   UNL     1     -11.223  12.566  64.168  1.00  0.00    -0.382 C  
BRANCH   7   8
HETATM    8  C   UNL     1     -12.160  13.780  64.332  1.00  0.00    -0.436 C  
HETATM    9  O   UNL     1     -12.525  14.210  63.005  1.00  0.00    -1.077 OA 
HETATM   10  H   UNL     1     -13.101  14.958  63.107  1.00  0.00     0.000 HD 
BRANCH   8  11
HETATM   11  C   UNL     1     -11.524  14.968  65.063  1.00  0.00    -0.364 C  
BRANCH  11  12
HETATM   12  O   UNL     1     -11.546  14.856  66.491  1.00  0.00    -0.339 OA 
BRANCH  12  13
HETATM   13  C   UNL     1     -10.426  15.340  67.138  1.00  0.00    -0.280 A  
HETATM   14  C   UNL     1      -9.253  15.715  66.455  1.00  0.00    -0.325 A  
HETATM   15  C   UNL     1      -8.119  16.138  67.142  1.00  0.00    -0.223 A  
HETATM   16  C   UNL     1      -8.143  16.204  68.524  1.00  0.00    -0.181 A  
HETATM   17  C   UNL     1      -9.306  15.862  69.216  1.00  0.00    -0.259 A  
HETATM   18  C   UNL     1     -10.475  15.436  68.547  1.00  0.00    -0.234 A  
BRANCH  18  19
HETATM   19  C   UNL     1     -11.709  15.028  69.339  1.00  0.00    -0.351 C  
HETATM   20  C   UNL     1     -11.751  13.587  69.879  1.00  0.00    -0.341 C  
HETATM   21  C   UNL     1     -12.910  13.618  70.859  1.00  0.00    -0.321 C  
HETATM   22  C   UNL     1     -12.699  14.933  71.595  1.00  0.00    -0.401 C  
HETATM   23  C   UNL     1     -11.991  15.867  70.602  1.00  0.00    -0.379 C  
ENDBRANCH  18  19
ENDBRANCH  12  13
ENDBRANCH  11  12
ENDBRANCH   8  11
ENDBRANCH   7   8
ENDBRANCH   5   7
TORSDOF 6
ENDMDL
MODEL       19
REMARK 921   NORMALIZED FREE ENERGY PREDICTED BY IDOCK:   -5.90 KCAL/MOL
REMARK 922        TOTAL FREE ENERGY PREDICTED BY IDOCK:   -9.00 KCAL/MOL
REMARK 923 INTER-LIGAND FREE ENERGY PREDICTED BY IDOCK:   -7.48 KCAL/MOL
REMARK 924 INTRA-LIGAND FREE ENERGY PREDICTED BY IDOCK:   -1.52 KCAL/MOL
REMARK 927      BINDING AFFINITY PREDICTED BY RF-SCORE:    0.00 PKD
ROOT
HETATM    1  C   UNL     1      -9.202  12.360  67.431  1.00  0.00    -0.184 C  
HETATM    2  C   UNL     1     -10.198  11.189  67.431  1.00  0.00    -0.190 C  
HETATM    3  C   UNL     1     -10.473  10.794  68.896  1.00  0.00    -0.228 C  
HETATM    4  C   UNL     1      -9.582   9.974  66.715  1.00  0.00    -0.228 C  
HETATM    5  N   UNL     1     -11.501  11.545  66.840  1.00  0.00    -0.483 NA 
HETATM    6  H   UNL     1     -11.974  12.232  67.426  1.00  0.00     0.000 HD 
ENDROOT
BRANCH   5   7
HETATM    7  C   UNL     1     -11.458  12.015  65.455  1.00  0.00    -0.313 C  
BRANCH   7   8
HETATM    8  C   UNL     1     -12.590  12.993  65.082  1.00  0.00    -0.469 C  
HETATM    9  O   UNL     1     -12.457  13.267  63.672  1.00  0.00    -0.699 OA 
HETATM   10  H   UNL     1     -13.154  13.870  63.442  1.00  0.00     0.000 HD 
BRANCH   8  11
HETATM   11  C   UNL     1     -12.540  14.327  65.836  1.00  0.00    -0.352 C  
BRANCH  11  12
HETATM   12  O   UNL     1     -12.418  14.192  67.256  1.00  0.00    -0.253 OA 
BRANCH  12  13
HETATM   13  C   UNL     1     -11.559  15.086  67.862  1.00  0.00    -0.333 A  
HETATM   14  C   UNL     1     -10.574  15.798  67.151  1.00  0.00    -0.313 A  
HETATM   15  C   UNL     1      -9.681  16.644  67.802  1.00  0.00    -0.240 A  
HETATM   16  C   UNL     1      -9.765  16.802  69.174  1.00  0.00    -0.204 A  
HETATM   17  C   UNL     1     -10.753  16.124  69.892  1.00  0.00    -0.328 A  
HETATM   18  C   UNL     1     -11.678  15.264  69.259  1.00  0.00    -0.359 A  
BRANCH  18  19
HETATM   19  C   UNL     1     -12.711  14.508  70.081  1.00  0.00    -0.264 C  
HETATM   20  C   UNL     1     -12.204  13.333  70.937  1.00  0.00    -0.346 C  
HETATM   21  C   UNL     1     -13.384  13.030  71.843  1.00  0.00    -0.539 C  
HETATM   22  C   UNL     1     -13.855  14.414  72.263  1.00  0.00    -0.589 C  
HETATM   23  C   UNL     1     -13.491  15.356  71.106  1.00  0.00    -0.565 C  
ENDBRANCH  18  19
ENDBRANCH  12  13
ENDBRANCH  11  12
ENDBRANCH   8  11
ENDBRANCH   7   8
ENDBRANCH   5   7
TORSDOF 6
ENDMDL
MODEL       20
REMARK 921   NORMALIZED FREE ENERGY PREDICTED BY IDOCK:   -5.90 KCAL/MOL
REMARK 922        TOTAL FREE ENERGY PREDICTED BY IDOCK:   -9.00 KCAL/MOL
REMARK 923 INTER-LIGAND FREE ENERGY PREDICTED BY IDOCK:   -8.42 KCAL/MOL
REMARK 924 INTRA-LIGAND FREE ENERGY PREDICTED BY IDOCK:   -0.57 KCAL/MOL
REMARK 927      BINDING AFFINITY PREDICTED BY RF-SCORE:    0.00 PKD
ROOT
HETATM    1  C   UNL     1      -9.594  18.479  68.219  1.00  0.00    -0.370 C  
HETATM    2  C   UNL     1      -9.460  18.662  66.697  1.00  0.00    -0.319 C  
HETATM    3  C   UNL     1      -8.138  19.405  66.419  1.00  0.00    -0.329 C  
HETATM    4  C   UNL     1     -10.617  19.526  66.168  1.00  0.00    -0.585 C  
HETATM    5  N   UNL     1      -9.383  17.381  65.972  1.00  0.00    -0.508 NA 
HETATM    6  H   UNL     1      -8.517  16.896  66.209  1.00  0.00     0.000 HD 
ENDROOT
BRANCH   5   7
HETATM    7  C   UNL     1     -10.523  16.483  66.153  1.00  0.00    -0.294 C  
BRANCH   7   8
HETATM    8  C   UNL     1     -10.885  15.656  64.903  1.00  0.00    -0.418 C  
HETATM    9  O   UNL     1     -11.475  16.568  63.954  1.00  0.00    -1.608 OA 
HETATM   10  H   UNL     1     -11.699  16.059  63.185  1.00  0.00     0.000 HD 
BRANCH   8  11
HETATM   11  C   UNL     1     -11.886  14.525  65.167  1.00  0.00    -0.374 C  
BRANCH  11  12
HETATM   12  O   UNL     1     -11.368  13.462  65.974  1.00  0.00    -0.301 OA 
BRANCH  12  13
HETATM   13  C   UNL     1     -10.704  12.467  65.284  1.00  0.00    -0.286 A  
HETATM   14  C   UNL     1     -10.575  12.468  63.882  1.00  0.00    -0.472 A  
HETATM   15  C   UNL     1      -9.956  11.418  63.212  1.00  0.00    -0.431 A  
HETATM   16  C   UNL     1      -9.444  10.354  63.933  1.00  0.00    -0.354 A  
HETATM   17  C   UNL     1      -9.539  10.349  65.326  1.00  0.00    -0.316 A  
HETATM   18  C   UNL     1     -10.155  11.404  66.036  1.00  0.00    -0.275 A  
BRANCH  18  19
HETATM   19  C   UNL     1     -10.280  11.342  67.551  1.00  0.00    -0.217 C  
HETATM   20  C   UNL     1     -11.538  10.666  68.125  1.00  0.00    -0.217 C  
HETATM   21  C   UNL     1     -11.196  10.486  69.593  1.00  0.00    -0.342 C  
HETATM   22  C   UNL     1      -9.757   9.996  69.549  1.00  0.00    -0.253 C  
HETATM   23  C   UNL     1      -9.141  10.599  68.278  1.00  0.00    -0.153 C  
ENDBRANCH  18  19
ENDBRANCH  12  13
ENDBRANCH  11  12
ENDBRANCH   8  11
ENDBRANCH   7   8
ENDBRANCH   5   7
TORSDOF 6
ENDMDL
MODEL       21
REMARK 921   NORMALIZED FREE ENERGY PREDICTED BY IDOCK:   -5.87 KCAL/MOL
REMARK 922        TOTAL FREE ENERGY PREDICTED BY IDOCK:   -8.95 KCAL/MOL
REMARK 923 INTER-LIGAND FREE ENERGY PREDICTED BY IDOCK:   -7.88 KCAL/MOL
REMARK 924 INTRA-LIGAND FREE ENERGY PREDICTED BY IDOCK:   -1.08 KCAL/MOL
REMARK 927      BINDING AFFINITY PREDICTED BY RF-SCORE:    0.00 PKD
ROOT
HETATM    1  C   UNL     1     -10.739  17.414  65.522  1.00  0.00    -0.081 C  
HETATM    2  C   UNL     1     -10.217  16.732  66.798  1.00  0.00    -0.304 C  
HETATM    3  C   UNL     1     -10.380  17.720  67.970  1.00  0.00    -0.395 C  
HETATM    4  C   UNL     1      -8.720  16.410  66.647  1.00  0.00    -0.291 C  
HETATM    5  N   UNL     1     -10.984  15.525  67.156  1.00  0.00    -0.317 NA 
HETATM    6  H   UNL     1     -11.936  15.781  67.420  1.00  0.00     0.000 HD 
ENDROOT
BRANCH   5   7
HETATM    7  C   UNL     1     -11.014  14.472  66.140  1.00  0.00    -0.322 C  
BRANCH   7   8
HETATM    8  C   UNL     1     -10.935  13.041  66.707  1.00  0.00    -0.276 C  
HETATM    9  O   UNL     1     -12.242  12.453  66.544  1.00  0.00    -0.586 OA 
HETATM   10  H   UNL     1     -12.193  11.572  66.894  1.00  0.00     0.000 HD 
BRANCH   8  11
HETATM   11  C   UNL     1     -10.561  12.973  68.193  1.00  0.00    -0.245 C  
BRANCH  11  12
HETATM   12  O   UNL     1     -11.622  13.346  69.080  1.00  0.00    -0.268 OA 
BRANCH  12  13
HETATM   13  C   UNL     1     -12.011  12.370  69.977  1.00  0.00    -0.299 A  
HETATM   14  C   UNL     1     -11.859  10.995  69.720  1.00  0.00    -0.421 A  
HETATM   15  C   UNL     1     -12.320  10.036  70.616  1.00  0.00    -0.342 A  
HETATM   16  C   UNL     1     -12.931  10.436  71.791  1.00  0.00    -0.580 A  
HETATM   17  C   UNL     1     -13.067  11.796  72.074  1.00  0.00    -0.436 A  
HETATM   18  C   UNL     1     -12.603  12.794  71.188  1.00  0.00    -0.365 A  
BRANCH  18  19
HETATM   19  C   UNL     1     -12.809  14.266  71.511  1.00  0.00    -0.419 C  
HETATM   20  C   UNL     1     -14.080  14.642  72.293  1.00  0.00    -0.588 C  
HETATM   21  C   UNL     1     -13.815  16.075  72.718  1.00  0.00    -0.385 C  
HETATM   22  C   UNL     1     -12.364  16.033  73.172  1.00  0.00    -0.637 C  
HETATM   23  C   UNL     1     -11.694  14.922  72.351  1.00  0.00    -0.320 C  
ENDBRANCH  18  19
ENDBRANCH  12  13
ENDBRANCH  11  12
ENDBRANCH   8  11
ENDBRANCH   7   8
ENDBRANCH   5   7
TORSDOF 6
ENDMDL
MODEL       22
REMARK 921   NORMALIZED FREE ENERGY PREDICTED BY IDOCK:   -5.84 KCAL/MOL
REMARK 922        TOTAL FREE ENERGY PREDICTED BY IDOCK:   -8.92 KCAL/MOL
REMARK 923 INTER-LIGAND FREE ENERGY PREDICTED BY IDOCK:   -7.42 KCAL/MOL
REMARK 924 INTRA-LIGAND FREE ENERGY PREDICTED BY IDOCK:   -1.50 KCAL/MOL
REMARK 927      BINDING AFFINITY PREDICTED BY RF-SCORE:    0.00 PKD
ROOT
HETATM    1  C   UNL     1     -10.042  13.487  66.560  1.00  0.00    -0.282 C  
HETATM    2  C   UNL     1     -11.410  14.096  66.210  1.00  0.00    -0.338 C  
HETATM    3  C   UNL     1     -12.259  13.007  65.525  1.00  0.00    -0.521 C  
HETATM    4  C   UNL     1     -11.229  15.258  65.218  1.00  0.00    -0.338 C  
HETATM    5  N   UNL     1     -12.164  14.531  67.401  1.00  0.00    -0.597 NA 
HETATM    6  H   UNL     1     -12.424  13.721  67.964  1.00  0.00     0.000 HD 
ENDROOT
BRANCH   5   7
HETATM    7  C   UNL     1     -11.499  15.529  68.239  1.00  0.00    -0.353 C  
BRANCH   7   8
HETATM    8  C   UNL     1     -11.618  15.266  69.753  1.00  0.00    -0.314 C  
HETATM    9  O   UNL     1     -10.274  15.168  70.268  1.00  0.00    -0.493 OA 
HETATM   10  H   UNL     1     -10.347  15.006  71.200  1.00  0.00     0.000 HD 
BRANCH   8  11
HETATM   11  C   UNL     1     -12.362  13.974  70.110  1.00  0.00    -0.345 C  
BRANCH  11  12
HETATM   12  O   UNL     1     -11.748  12.785  69.600  1.00  0.00    -0.304 OA 
BRANCH  12  13
HETATM   13  C   UNL     1     -11.984  11.638  70.332  1.00  0.00    -0.358 A  
HETATM   14  C   UNL     1     -12.906  11.589  71.395  1.00  0.00    -0.489 A  
HETATM   15  C   UNL     1     -13.074  10.436  72.155  1.00  0.00    -0.427 A  
HETATM   16  C   UNL     1     -12.331   9.307  71.856  1.00  0.00    -0.454 A  
HETATM   17  C   UNL     1     -11.432   9.329  70.788  1.00  0.00    -0.351 A  
HETATM   18  C   UNL     1     -11.244  10.482  69.994  1.00  0.00    -0.386 A  
BRANCH  18  19
HETATM   19  C   UNL     1     -10.223  10.483  68.867  1.00  0.00    -0.223 C  
HETATM   20  C   UNL     1      -8.975   9.599  69.050  1.00  0.00    -0.148 C  
HETATM   21  C   UNL     1      -8.360   9.575  67.663  1.00  0.00    -0.125 C  
HETATM   22  C   UNL     1      -9.568   9.386  66.758  1.00  0.00    -0.234 C  
HETATM   23  C   UNL     1     -10.754  10.028  67.493  1.00  0.00    -0.339 C  
ENDBRANCH  18  19
ENDBRANCH  12  13
ENDBRANCH  11  12
ENDBRANCH   8  11
ENDBRANCH   7   8
ENDBRANCH   5   7
TORSDOF 6
ENDMDL
MODEL       23
REMARK 921   NORMALIZED FREE ENERGY PREDICTED BY IDOCK:   -5.84 KCAL/MOL
REMARK 922        TOTAL FREE ENERGY PREDICTED BY IDOCK:   -8.92 KCAL/MOL
REMARK 923 INTER-LIGAND FREE ENERGY PREDICTED BY IDOCK:   -7.53 KCAL/MOL
REMARK 924 INTRA-LIGAND FREE ENERGY PREDICTED BY IDOCK:   -1.39 KCAL/MOL
REMARK 927      BINDING AFFINITY PREDICTED BY RF-SCORE:    0.00 PKD
ROOT
HETATM    1  C   UNL     1     -10.340   5.394  70.282  1.00  0.00    -0.357 C  
HETATM    2  C   UNL     1     -10.479   6.681  69.451  1.00  0.00    -0.219 C  
HETATM    3  C   UNL     1     -11.036   6.299  68.065  1.00  0.00    -0.418 C  
HETATM    4  C   UNL     1      -9.097   7.327  69.250  1.00  0.00    -0.138 C  
HETATM    5  N   UNL     1     -11.431   7.641  70.037  1.00  0.00    -0.476 NA 
HETATM    6  H   UNL     1     -12.376   7.259  70.005  1.00  0.00     0.000 HD 
ENDROOT
BRANCH   5   7
HETATM    7  C   UNL     1     -11.120   8.089  71.394  1.00  0.00    -0.241 C  
BRANCH   7   8
HETATM    8  C   UNL     1     -12.344   8.185  72.328  1.00  0.00    -0.323 C  
HETATM    9  O   UNL     1     -13.079   6.953  72.180  1.00  0.00    -0.539 OA 
HETATM   10  H   UNL     1     -13.833   7.012  72.755  1.00  0.00     0.000 HD 
BRANCH   8  11
HETATM   11  C   UNL     1     -13.288   9.349  72.007  1.00  0.00    -0.450 C  
BRANCH  11  12
HETATM   12  O   UNL     1     -12.955  10.059  70.809  1.00  0.00    -0.330 OA 
BRANCH  12  13
HETATM   13  C   UNL     1     -12.776  11.420  70.960  1.00  0.00    -0.349 A  
HETATM   14  C   UNL     1     -13.314  12.143  72.041  1.00  0.00    -0.470 A  
HETATM   15  C   UNL     1     -13.171  13.525  72.130  1.00  0.00    -0.551 A  
HETATM   16  C   UNL     1     -12.478  14.205  71.145  1.00  0.00    -0.445 A  
HETATM   17  C   UNL     1     -11.915  13.500  70.080  1.00  0.00    -0.410 A  
HETATM   18  C   UNL     1     -12.036  12.098  69.964  1.00  0.00    -0.352 A  
BRANCH  18  19
HETATM   19  C   UNL     1     -11.448  11.370  68.765  1.00  0.00    -0.354 C  
HETATM   20  C   UNL     1     -11.469  12.110  67.415  1.00  0.00    -0.415 C  
HETATM   21  C   UNL     1     -10.545  11.276  66.547  1.00  0.00    -0.315 C  
HETATM   22  C   UNL     1      -9.381  10.974  67.480  1.00  0.00    -0.167 C  
HETATM   23  C   UNL     1      -9.967  10.963  68.900  1.00  0.00    -0.208 C  
ENDBRANCH  18  19
ENDBRANCH  12  13
ENDBRANCH  11  12
ENDBRANCH   8  11
ENDBRANCH   7   8
ENDBRANCH   5   7
TORSDOF 6
ENDMDL
MODEL       24
REMARK 921   NORMALIZED FREE ENERGY PREDICTED BY IDOCK:   -5.83 KCAL/MOL
REMARK 922        TOTAL FREE ENERGY PREDICTED BY IDOCK:   -8.91 KCAL/MOL
REMARK 923 INTER-LIGAND FREE ENERGY PREDICTED BY IDOCK:   -7.69 KCAL/MOL
REMARK 924 INTRA-LIGAND FREE ENERGY PREDICTED BY IDOCK:   -1.22 KCAL/MOL
REMARK 927      BINDING AFFINITY PREDICTED BY RF-SCORE:    0.00 PKD
ROOT
HETATM    1  C   UNL     1      -8.808   9.764  63.725  1.00  0.00    -0.259 C  
HETATM    2  C   UNL     1      -9.154  10.613  64.960  1.00  0.00    -0.202 C  
HETATM    3  C   UNL     1      -7.878  10.765  65.810  1.00  0.00    -0.106 C  
HETATM    4  C   UNL     1     -10.215   9.894  65.811  1.00  0.00    -0.251 C  
HETATM    5  N   UNL     1      -9.593  11.977  64.611  1.00  0.00    -0.448 NA 
HETATM    6  H   UNL     1      -8.819  12.498  64.200  1.00  0.00     0.000 HD 
ENDROOT
BRANCH   5   7
HETATM    7  C   UNL     1     -10.768  12.060  63.744  1.00  0.00    -0.423 C  
BRANCH   7   8
HETATM    8  C   UNL     1     -11.930  12.888  64.327  1.00  0.00    -0.399 C  
HETATM    9  O   UNL     1     -12.379  13.773  63.281  1.00  0.00    -1.069 OA 
HETATM   10  H   UNL     1     -13.095  14.283  63.640  1.00  0.00     0.000 HD 
BRANCH   8  11
HETATM   11  C   UNL     1     -11.547  13.739  65.543  1.00  0.00    -0.326 C  
BRANCH  11  12
HETATM   12  O   UNL     1     -11.640  13.047  66.794  1.00  0.00    -0.330 OA 
BRANCH  12  13
HETATM   13  C   UNL     1     -11.701  13.855  67.912  1.00  0.00    -0.361 A  
HETATM   14  C   UNL     1     -11.660  15.260  67.839  1.00  0.00    -0.301 A  
HETATM   15  C   UNL     1     -11.658  16.044  68.989  1.00  0.00    -0.350 A  
HETATM   16  C   UNL     1     -11.711  15.436  70.231  1.00  0.00    -0.355 A  
HETATM   17  C   UNL     1     -11.779  14.045  70.320  1.00  0.00    -0.308 A  
HETATM   18  C   UNL     1     -11.789  13.222  69.172  1.00  0.00    -0.378 A  
BRANCH  18  19
HETATM   19  C   UNL     1     -11.819  11.707  69.311  1.00  0.00    -0.396 C  
HETATM   20  C   UNL     1     -10.480  10.962  69.164  1.00  0.00    -0.248 C  
HETATM   21  C   UNL     1     -10.801   9.568  69.670  1.00  0.00    -0.255 C  
HETATM   22  C   UNL     1     -11.638   9.839  70.911  1.00  0.00    -0.441 C  
HETATM   23  C   UNL     1     -12.350  11.177  70.658  1.00  0.00    -0.482 C  
ENDBRANCH  18  19
ENDBRANCH  12  13
ENDBRANCH  11  12
ENDBRANCH   8  11
ENDBRANCH   7   8
ENDBRANCH   5   7
TORSDOF 6
ENDMDL
MODEL       25
REMARK 921   NORMALIZED FREE ENERGY PREDICTED BY IDOCK:   -5.83 KCAL/MOL
REMARK 922        TOTAL FREE ENERGY PREDICTED BY IDOCK:   -8.91 KCAL/MOL
REMARK 923 INTER-LIGAND FREE ENERGY PREDICTED BY IDOCK:   -7.95 KCAL/MOL
REMARK 924 INTRA-LIGAND FREE ENERGY PREDICTED BY IDOCK:   -0.96 KCAL/MOL
REMARK 927      BINDING AFFINITY PREDICTED BY RF-SCORE:    0.00 PKD
ROOT
HETATM    1  C   UNL     1     -12.279  12.512  63.331  1.00  0.00    -0.613 C  
HETATM    2  C   UNL     1     -10.925  12.382  64.049  1.00  0.00    -0.391 C  
HETATM    3  C   UNL     1     -10.040  11.420  63.232  1.00  0.00    -0.424 C  
HETATM    4  C   UNL     1     -11.129  11.776  65.448  1.00  0.00    -0.336 C  
HETATM    5  N   UNL     1     -10.195  13.660  64.129  1.00  0.00    -0.728 NA 
HETATM    6  H   UNL     1      -9.917  13.963  63.195  1.00  0.00     0.000 HD 
ENDROOT
BRANCH   5   7
HETATM    7  C   UNL     1     -10.895  14.745  64.817  1.00  0.00    -0.376 C  
BRANCH   7   8
HETATM    8  C   UNL     1     -10.078  15.415  65.940  1.00  0.00    -0.345 C  
HETATM    9  O   UNL     1      -8.907  14.599  66.151  1.00  0.00    -0.476 OA 
HETATM   10  H   UNL     1      -8.405  15.012  66.843  1.00  0.00     0.000 HD 
BRANCH   8  11
HETATM   11  C   UNL     1     -10.825  15.534  67.274  1.00  0.00    -0.313 C  
BRANCH  11  12
HETATM   12  O   UNL     1     -11.223  14.278  67.835  1.00  0.00    -0.265 OA 
BRANCH  12  13
HETATM   13  C   UNL     1     -11.764  14.343  69.104  1.00  0.00    -0.317 A  
HETATM   14  C   UNL     1     -12.115  15.559  69.720  1.00  0.00    -0.372 A  
HETATM   15  C   UNL     1     -12.598  15.596  71.025  1.00  0.00    -0.515 A  
HETATM   16  C   UNL     1     -12.749  14.416  71.732  1.00  0.00    -0.427 A  
HETATM   17  C   UNL     1     -12.430  13.199  71.126  1.00  0.00    -0.378 A  
HETATM   18  C   UNL     1     -11.945  13.128  69.802  1.00  0.00    -0.382 A  
BRANCH  18  19
HETATM   19  C   UNL     1     -11.566  11.786  69.192  1.00  0.00    -0.372 C  
HETATM   20  C   UNL     1     -10.073  11.539  68.912  1.00  0.00    -0.144 C  
HETATM   21  C   UNL     1     -10.015  10.048  68.632  1.00  0.00    -0.176 C  
HETATM   22  C   UNL     1     -10.918   9.464  69.707  1.00  0.00    -0.234 C  
HETATM   23  C   UNL     1     -11.960  10.547  70.021  1.00  0.00    -0.367 C  
ENDBRANCH  18  19
ENDBRANCH  12  13
ENDBRANCH  11  12
ENDBRANCH   8  11
ENDBRANCH   7   8
ENDBRANCH   5   7
TORSDOF 6
ENDMDL
MODEL       26
REMARK 921   NORMALIZED FREE ENERGY PREDICTED BY IDOCK:   -5.80 KCAL/MOL
REMARK 922        TOTAL FREE ENERGY PREDICTED BY IDOCK:   -8.86 KCAL/MOL
REMARK 923 INTER-LIGAND FREE ENERGY PREDICTED BY IDOCK:   -7.99 KCAL/MOL
REMARK 924 INTRA-LIGAND FREE ENERGY PREDICTED BY IDOCK:   -0.87 KCAL/MOL
REMARK 927      BINDING AFFINITY PREDICTED BY RF-SCORE:    0.00 PKD
ROOT
HETATM    1  C   UNL     1     -10.814   8.051  72.357  1.00  0.00    -0.392 C  
HETATM    2  C   UNL     1     -11.504   7.189  71.287  1.00  0.00    -0.282 C  
HETATM    3  C   UNL     1     -12.932   6.874  71.773  1.00  0.00    -0.326 C  
HETATM    4  C   UNL     1     -10.750   5.858  71.118  1.00  0.00    -0.328 C  
HETATM    5  N   UNL     1     -11.643   7.885  69.994  1.00  0.00    -0.467 NA 
HETATM    6  H   UNL     1     -12.287   8.670  70.088  1.00  0.00     0.000 HD 
ENDROOT
BRANCH   5   7
HETATM    7  C   UNL     1     -10.394   8.334  69.382  1.00  0.00    -0.222 C  
BRANCH   7   8
HETATM    8  C   UNL     1     -10.322   9.853  69.125  1.00  0.00    -0.209 C  
HETATM    9  O   UNL     1      -9.281  10.373  69.977  1.00  0.00    -0.383 OA 
HETATM   10  H   UNL     1      -9.237  11.308  69.819  1.00  0.00     0.000 HD 
BRANCH   8  11
HETATM   11  C   UNL     1     -11.620  10.605  69.442  1.00  0.00    -0.280 C  
BRANCH  11  12
HETATM   12  O   UNL     1     -12.130  11.377  68.350  1.00  0.00    -0.575 OA 
BRANCH  12  13
HETATM   13  C   UNL     1     -11.832  12.725  68.390  1.00  0.00    -0.310 A  
HETATM   14  C   UNL     1     -11.715  13.443  69.594  1.00  0.00    -0.375 A  
HETATM   15  C   UNL     1     -11.478  14.814  69.599  1.00  0.00    -0.327 A  
HETATM   16  C   UNL     1     -11.342  15.489  68.398  1.00  0.00    -0.357 A  
HETATM   17  C   UNL     1     -11.429  14.787  67.194  1.00  0.00    -0.375 A  
HETATM   18  C   UNL     1     -11.662  13.395  67.157  1.00  0.00    -0.424 A  
BRANCH  18  19
HETATM   19  C   UNL     1     -11.796  12.672  65.824  1.00  0.00    -0.497 C  
HETATM   20  C   UNL     1     -12.283  13.501  64.622  1.00  0.00    -0.450 C  
HETATM   21  C   UNL     1     -11.993  12.598  63.437  1.00  0.00    -0.613 C  
HETATM   22  C   UNL     1     -10.608  12.055  63.754  1.00  0.00    -0.478 C  
HETATM   23  C   UNL     1     -10.500  12.033  65.286  1.00  0.00    -0.323 C  
ENDBRANCH  18  19
ENDBRANCH  12  13
ENDBRANCH  11  12
ENDBRANCH   8  11
ENDBRANCH   7   8
ENDBRANCH   5   7
TORSDOF 6
ENDMDL
MODEL       27
REMARK 921   NORMALIZED FREE ENERGY PREDICTED BY IDOCK:   -5.80 KCAL/MOL
REMARK 922        TOTAL FREE ENERGY PREDICTED BY IDOCK:   -8.86 KCAL/MOL
REMARK 923 INTER-LIGAND FREE ENERGY PREDICTED BY IDOCK:   -7.60 KCAL/MOL
REMARK 924 INTRA-LIGAND FREE ENERGY PREDICTED BY IDOCK:   -1.26 KCAL/MOL
REMARK 927      BINDING AFFINITY PREDICTED BY RF-SCORE:    0.00 PKD
ROOT
HETATM    1  C   UNL     1      -7.846  10.157  64.286  1.00  0.00    -0.140 C  
HETATM    2  C   UNL     1      -8.816  10.690  65.354  1.00  0.00    -0.189 C  
HETATM    3  C   UNL     1      -7.993  11.072  66.601  1.00  0.00    -0.156 C  
HETATM    4  C   UNL     1      -9.812   9.589  65.756  1.00  0.00    -0.363 C  
HETATM    5  N   UNL     1      -9.523  11.911  64.926  1.00  0.00    -0.438 NA 
HETATM    6  H   UNL     1      -8.861  12.682  64.829  1.00  0.00     0.000 HD 
ENDROOT
BRANCH   5   7
HETATM    7  C   UNL     1     -10.322  11.783  63.708  1.00  0.00    -0.410 C  
BRANCH   7   8
HETATM    8  C   UNL     1     -11.828  12.047  63.906  1.00  0.00    -0.448 C  
HETATM    9  O   UNL     1     -12.508  11.467  62.774  1.00  0.00    -0.929 OA 
HETATM   10  H   UNL     1     -13.435  11.630  62.896  1.00  0.00     0.000 HD 
BRANCH   8  11
HETATM   11  C   UNL     1     -12.201  13.533  63.978  1.00  0.00    -0.402 C  
BRANCH  11  12
HETATM   12  O   UNL     1     -12.502  13.996  65.300  1.00  0.00    -0.441 OA 
BRANCH  12  13
HETATM   13  C   UNL     1     -11.546  14.812  65.872  1.00  0.00    -0.286 A  
HETATM   14  C   UNL     1     -10.863  15.808  65.149  1.00  0.00    -0.444 A  
HETATM   15  C   UNL     1      -9.859  16.569  65.738  1.00  0.00    -0.275 A  
HETATM   16  C   UNL     1      -9.528  16.356  67.065  1.00  0.00    -0.240 A  
HETATM   17  C   UNL     1     -10.214  15.391  67.804  1.00  0.00    -0.241 A  
HETATM   18  C   UNL     1     -11.243  14.606  67.237  1.00  0.00    -0.344 A  
BRANCH  18  19
HETATM   19  C   UNL     1     -11.936  13.533  68.062  1.00  0.00    -0.372 C  
HETATM   20  C   UNL     1     -11.279  12.141  68.098  1.00  0.00    -0.320 C  
HETATM   21  C   UNL     1     -12.011  11.441  69.228  1.00  0.00    -0.400 C  
HETATM   22  C   UNL     1     -12.087  12.515  70.303  1.00  0.00    -0.373 C  
HETATM   23  C   UNL     1     -12.110  13.859  69.559  1.00  0.00    -0.393 C  
ENDBRANCH  18  19
ENDBRANCH  12  13
ENDBRANCH  11  12
ENDBRANCH   8  11
ENDBRANCH   7   8
ENDBRANCH   5   7
TORSDOF 6
ENDMDL
MODEL       28
REMARK 921   NORMALIZED FREE ENERGY PREDICTED BY IDOCK:   -5.79 KCAL/MOL
REMARK 922        TOTAL FREE ENERGY PREDICTED BY IDOCK:   -8.85 KCAL/MOL
REMARK 923 INTER-LIGAND FREE ENERGY PREDICTED BY IDOCK:   -8.12 KCAL/MOL
REMARK 924 INTRA-LIGAND FREE ENERGY PREDICTED BY IDOCK:   -0.74 KCAL/MOL
REMARK 927      BINDING AFFINITY PREDICTED BY RF-SCORE:    0.00 PKD
ROOT
HETATM    1  C   UNL     1     -12.626   8.572  72.099  1.00  0.00    -0.431 C  
HETATM    2  C   UNL     1     -11.523   8.033  71.172  1.00  0.00    -0.276 C  
HETATM    3  C   UNL     1     -11.975   6.661  70.636  1.00  0.00    -0.404 C  
HETATM    4  C   UNL     1     -10.221   7.832  71.968  1.00  0.00    -0.253 C  
HETATM    5  N   UNL     1     -11.295   8.891  69.995  1.00  0.00    -0.431 NA 
HETATM    6  H   UNL     1     -12.115   8.876  69.388  1.00  0.00     0.000 HD 
ENDROOT
BRANCH   5   7
HETATM    7  C   UNL     1     -10.914  10.273  70.286  1.00  0.00    -0.309 C  
BRANCH   7   8
HETATM    8  C   UNL     1     -11.924  11.328  69.788  1.00  0.00    -0.360 C  
HETATM    9  O   UNL     1     -12.960  10.615  69.083  1.00  0.00    -0.488 OA 
HETATM   10  H   UNL     1     -13.581  11.265  68.776  1.00  0.00     0.000 HD 
BRANCH   8  11
HETATM   11  C   UNL     1     -11.325  12.369  68.836  1.00  0.00    -0.294 C  
BRANCH  11  12
HETATM   12  O   UNL     1     -12.151  13.522  68.636  1.00  0.00    -0.352 OA 
BRANCH  12  13
HETATM   13  C   UNL     1     -11.482  14.730  68.609  1.00  0.00    -0.302 A  
HETATM   14  C   UNL     1     -10.801  15.198  67.469  1.00  0.00    -0.301 A  
HETATM   15  C   UNL     1     -10.082  16.389  67.494  1.00  0.00    -0.261 A  
HETATM   16  C   UNL     1     -10.042  17.139  68.656  1.00  0.00    -0.329 A  
HETATM   17  C   UNL     1     -10.735  16.703  69.788  1.00  0.00    -0.254 A  
HETATM   18  C   UNL     1     -11.478  15.503  69.792  1.00  0.00    -0.339 A  
BRANCH  18  19
HETATM   19  C   UNL     1     -12.183  15.038  71.058  1.00  0.00    -0.386 C  
HETATM   20  C   UNL     1     -11.557  15.454  72.402  1.00  0.00    -0.545 C  
HETATM   21  C   UNL     1     -12.646  15.125  73.408  1.00  0.00    -0.655 C  
HETATM   22  C   UNL     1     -13.907  15.624  72.720  1.00  0.00    -0.628 C  
HETATM   23  C   UNL     1     -13.644  15.505  71.211  1.00  0.00    -0.520 C  
ENDBRANCH  18  19
ENDBRANCH  12  13
ENDBRANCH  11  12
ENDBRANCH   8  11
ENDBRANCH   7   8
ENDBRANCH   5   7
TORSDOF 6
ENDMDL
MODEL       29
REMARK 921   NORMALIZED FREE ENERGY PREDICTED BY IDOCK:   -5.77 KCAL/MOL
REMARK 922        TOTAL FREE ENERGY PREDICTED BY IDOCK:   -8.83 KCAL/MOL
REMARK 923 INTER-LIGAND FREE ENERGY PREDICTED BY IDOCK:   -8.16 KCAL/MOL
REMARK 924 INTRA-LIGAND FREE ENERGY PREDICTED BY IDOCK:   -0.67 KCAL/MOL
REMARK 927      BINDING AFFINITY PREDICTED BY RF-SCORE:    0.00 PKD
ROOT
HETATM    1  C   UNL     1     -13.449   9.182  72.291  1.00  0.00    -0.546 C  
HETATM    2  C   UNL     1     -12.346   8.331  71.640  1.00  0.00    -0.315 C  
HETATM    3  C   UNL     1     -12.910   6.917  71.399  1.00  0.00    -0.365 C  
HETATM    4  C   UNL     1     -11.143   8.211  72.592  1.00  0.00    -0.450 C  
HETATM    5  N   UNL     1     -11.927   8.846  70.323  1.00  0.00    -0.455 NA 
HETATM    6  H   UNL     1     -12.692   8.758  69.654  1.00  0.00     0.000 HD 
ENDROOT
BRANCH   5   7
HETATM    7  C   UNL     1     -11.413  10.216  70.316  1.00  0.00    -0.306 C  
BRANCH   7   8
HETATM    8  C   UNL     1     -12.101  11.147  69.298  1.00  0.00    -0.308 C  
HETATM    9  O   UNL     1     -12.001  10.506  68.010  1.00  0.00    -0.758 OA 
HETATM   10  H   UNL     1     -12.424  11.080  67.383  1.00  0.00     0.000 HD 
BRANCH   8  11
HETATM   11  C   UNL     1     -11.467  12.539  69.192  1.00  0.00    -0.305 C  
BRANCH  11  12
HETATM   12  O   UNL     1     -12.405  13.617  69.282  1.00  0.00    -0.288 OA 
BRANCH  12  13
HETATM   13  C   UNL     1     -12.392  14.312  70.476  1.00  0.00    -0.360 A  
HETATM   14  C   UNL     1     -13.172  13.934  71.585  1.00  0.00    -0.446 A  
HETATM   15  C   UNL     1     -13.186  14.692  72.752  1.00  0.00    -0.591 A  
HETATM   16  C   UNL     1     -12.410  15.835  72.834  1.00  0.00    -0.570 A  
HETATM   17  C   UNL     1     -11.610  16.209  71.753  1.00  0.00    -0.503 A  
HETATM   18  C   UNL     1     -11.569  15.457  70.558  1.00  0.00    -0.355 A  
BRANCH  18  19
HETATM   19  C   UNL     1     -10.718  15.922  69.385  1.00  0.00    -0.272 C  
HETATM   20  C   UNL     1     -10.551  17.441  69.197  1.00  0.00    -0.161 C  
HETATM   21  C   UNL     1      -9.424  17.544  68.186  1.00  0.00    -0.291 C  
HETATM   22  C   UNL     1      -8.429  16.504  68.678  1.00  0.00    -0.243 C  
HETATM   23  C   UNL     1      -9.259  15.424  69.387  1.00  0.00    -0.268 C  
ENDBRANCH  18  19
ENDBRANCH  12  13
ENDBRANCH  11  12
ENDBRANCH   8  11
ENDBRANCH   7   8
ENDBRANCH   5   7
TORSDOF 6
ENDMDL
MODEL       30
REMARK 921   NORMALIZED FREE ENERGY PREDICTED BY IDOCK:   -5.72 KCAL/MOL
REMARK 922        TOTAL FREE ENERGY PREDICTED BY IDOCK:   -8.76 KCAL/MOL
REMARK 923 INTER-LIGAND FREE ENERGY PREDICTED BY IDOCK:   -7.84 KCAL/MOL
REMARK 924 INTRA-LIGAND FREE ENERGY PREDICTED BY IDOCK:   -0.93 KCAL/MOL
REMARK 927      BINDING AFFINITY PREDICTED BY RF-SCORE:    0.00 PKD
ROOT
HETATM    1  C   UNL     1      -9.986  18.455  68.481  1.00  0.00    -0.415 C  
HETATM    2  C   UNL     1      -9.140  18.839  67.255  1.00  0.00    -0.277 C  
HETATM    3  C   UNL     1      -7.664  18.904  67.693  1.00  0.00    -0.259 C  
HETATM    4  C   UNL     1      -9.552  20.232  66.748  1.00  0.00    -0.548 C  
HETATM    5  N   UNL     1      -9.215  17.840  66.173  1.00  0.00    -0.495 NA 
HETATM    6  H   UNL     1      -8.779  16.968  66.472  1.00  0.00     0.000 HD 
ENDROOT
BRANCH   5   7
HETATM    7  C   UNL     1     -10.555  17.575  65.650  1.00  0.00    -0.140 C  
BRANCH   7   8
HETATM    8  C   UNL     1     -10.707  16.205  64.959  1.00  0.00    -0.337 C  
HETATM    9  O   UNL     1     -11.615  16.392  63.855  1.00  0.00    -1.564 OA 
HETATM   10  H   UNL     1     -11.709  15.548  63.430  1.00  0.00     0.000 HD 
BRANCH   8  11
HETATM   11  C   UNL     1     -11.274  15.105  65.865  1.00  0.00    -0.280 C  
BRANCH  11  12
HETATM   12  O   UNL     1     -10.473  14.828  67.020  1.00  0.00    -0.264 OA 
BRANCH  12  13
HETATM   13  C   UNL     1     -11.176  14.623  68.190  1.00  0.00    -0.289 A  
HETATM   14  C   UNL     1     -11.856  15.657  68.862  1.00  0.00    -0.368 A  
HETATM   15  C   UNL     1     -12.501  15.431  70.074  1.00  0.00    -0.316 A  
HETATM   16  C   UNL     1     -12.488  14.163  70.629  1.00  0.00    -0.432 A  
HETATM   17  C   UNL     1     -11.841  13.120  69.963  1.00  0.00    -0.360 A  
HETATM   18  C   UNL     1     -11.184  13.317  68.729  1.00  0.00    -0.317 A  
BRANCH  18  19
HETATM   19  C   UNL     1     -10.451  12.165  68.055  1.00  0.00    -0.227 C  
HETATM   20  C   UNL     1     -10.069  10.964  68.939  1.00  0.00    -0.211 C  
HETATM   21  C   UNL     1      -9.672   9.903  67.929  1.00  0.00    -0.162 C  
HETATM   22  C   UNL     1     -10.748  10.029  66.861  1.00  0.00    -0.211 C  
HETATM   23  C   UNL     1     -11.204  11.495  66.888  1.00  0.00    -0.363 C  
ENDBRANCH  18  19
ENDBRANCH  12  13
ENDBRANCH  11  12
ENDBRANCH   8  11
ENDBRANCH   7   8
ENDBRANCH   5   7
TORSDOF 6
ENDMDL
MODEL       31
REMARK 921   NORMALIZED FREE ENERGY PREDICTED BY IDOCK:   -5.69 KCAL/MOL
REMARK 922        TOTAL FREE ENERGY PREDICTED BY IDOCK:   -8.72 KCAL/MOL
REMARK 923 INTER-LIGAND FREE ENERGY PREDICTED BY IDOCK:   -7.66 KCAL/MOL
REMARK 924 INTRA-LIGAND FREE ENERGY PREDICTED BY IDOCK:   -1.06 KCAL/MOL
REMARK 927      BINDING AFFINITY PREDICTED BY RF-SCORE:    0.00 PKD
ROOT
HETATM    1  C   UNL     1      -9.613  12.174  67.437  1.00  0.00    -0.177 C  
HETATM    2  C   UNL     1     -10.903  11.373  67.190  1.00  0.00    -0.268 C  
HETATM    3  C   UNL     1     -11.535  11.050  68.558  1.00  0.00    -0.379 C  
HETATM    4  C   UNL     1     -10.569  10.044  66.490  1.00  0.00    -0.165 C  
HETATM    5  N   UNL     1     -11.911  12.132  66.428  1.00  0.00    -0.621 NA 
HETATM    6  H   UNL     1     -12.248  12.919  66.983  1.00  0.00     0.000 HD 
ENDROOT
BRANCH   5   7
HETATM    7  C   UNL     1     -11.487  12.597  65.108  1.00  0.00    -0.326 C  
BRANCH   7   8
HETATM    8  C   UNL     1     -12.100  13.946  64.682  1.00  0.00    -0.431 C  
HETATM    9  O   UNL     1     -12.302  13.882  63.256  1.00  0.00    -1.115 OA 
HETATM   10  H   UNL     1     -12.680  14.713  62.994  1.00  0.00     0.000 HD 
BRANCH   8  11
HETATM   11  C   UNL     1     -11.217  15.161  64.988  1.00  0.00    -0.409 C  
BRANCH  11  12
HETATM   12  O   UNL     1     -10.806  15.256  66.356  1.00  0.00    -0.315 OA 
BRANCH  12  13
HETATM   13  C   UNL     1     -10.633  16.541  66.833  1.00  0.00    -0.238 A  
HETATM   14  C   UNL     1     -10.398  17.642  65.987  1.00  0.00    -0.305 A  
HETATM   15  C   UNL     1     -10.163  18.912  66.503  1.00  0.00    -0.470 A  
HETATM   16  C   UNL     1     -10.171  19.107  67.872  1.00  0.00    -0.494 A  
HETATM   17  C   UNL     1     -10.429  18.031  68.725  1.00  0.00    -0.182 A  
HETATM   18  C   UNL     1     -10.678  16.731  68.232  1.00  0.00    -0.364 A  
BRANCH  18  19
HETATM   19  C   UNL     1     -10.910  15.575  69.194  1.00  0.00    -0.251 C  
HETATM   20  C   UNL     1     -11.037  15.921  70.689  1.00  0.00    -0.368 C  
HETATM   21  C   UNL     1     -11.574  14.638  71.297  1.00  0.00    -0.252 C  
HETATM   22  C   UNL     1     -12.638  14.207  70.299  1.00  0.00    -0.367 C  
HETATM   23  C   UNL     1     -12.183  14.745  68.935  1.00  0.00    -0.157 C  
ENDBRANCH  18  19
ENDBRANCH  12  13
ENDBRANCH  11  12
ENDBRANCH   8  11
ENDBRANCH   7   8
ENDBRANCH   5   7
TORSDOF 6
ENDMDL
MODEL       32
REMARK 921   NORMALIZED FREE ENERGY PREDICTED BY IDOCK:   -5.67 KCAL/MOL
REMARK 922        TOTAL FREE ENERGY PREDICTED BY IDOCK:   -8.68 KCAL/MOL
REMARK 923 INTER-LIGAND FREE ENERGY PREDICTED BY IDOCK:   -7.38 KCAL/MOL
REMARK 924 INTRA-LIGAND FREE ENERGY PREDICTED BY IDOCK:   -1.30 KCAL/MOL
REMARK 927      BINDING AFFINITY PREDICTED BY RF-SCORE:    0.00 PKD
ROOT
HETATM    1  C   UNL     1     -11.540  13.905  67.985  1.00  0.00    -0.368 C  
HETATM    2  C   UNL     1     -11.098  12.585  67.332  1.00  0.00    -0.272 C  
HETATM    3  C   UNL     1     -11.862  11.433  68.014  1.00  0.00    -0.273 C  
HETATM    4  C   UNL     1      -9.592  12.364  67.560  1.00  0.00    -0.185 C  
HETATM    5  N   UNL     1     -11.429  12.518  65.897  1.00  0.00    -0.353 NA 
HETATM    6  H   UNL     1     -12.441  12.493  65.773  1.00  0.00     0.000 HD 
ENDROOT
BRANCH   5   7
HETATM    7  C   UNL     1     -10.850  13.573  65.065  1.00  0.00    -0.340 C  
BRANCH   7   8
HETATM    8  C   UNL     1     -11.842  14.686  64.670  1.00  0.00    -0.452 C  
HETATM    9  O   UNL     1     -12.369  14.336  63.374  1.00  0.00    -1.113 OA 
HETATM   10  H   UNL     1     -12.980  15.022  63.131  1.00  0.00     0.000 HD 
BRANCH   8  11
HETATM   11  C   UNL     1     -11.213  16.081  64.571  1.00  0.00    -0.297 C  
BRANCH  11  12
HETATM   12  O   UNL     1     -10.030  16.246  65.361  1.00  0.00    -0.514 OA 
BRANCH  12  13
HETATM   13  C   UNL     1     -10.069  17.282  66.273  1.00  0.00    -0.316 A  
HETATM   14  C   UNL     1     -10.758  18.486  66.029  1.00  0.00    -0.252 A  
HETATM   15  C   UNL     1     -10.724  19.536  66.941  1.00  0.00    -0.576 A  
HETATM   16  C   UNL     1     -10.010  19.396  68.118  1.00  0.00    -0.510 A  
HETATM   17  C   UNL     1      -9.344  18.200  68.388  1.00  0.00    -0.319 A  
HETATM   18  C   UNL     1      -9.364  17.113  67.486  1.00  0.00    -0.238 A  
BRANCH  18  19
HETATM   19  C   UNL     1      -8.588  15.842  67.795  1.00  0.00    -0.164 C  
HETATM   20  C   UNL     1      -7.136  15.765  67.289  1.00  0.00    -0.245 C  
HETATM   21  C   UNL     1      -6.575  14.562  68.025  1.00  0.00    -0.156 C  
HETATM   22  C   UNL     1      -7.111  14.747  69.437  1.00  0.00    -0.170 C  
HETATM   23  C   UNL     1      -8.438  15.505  69.292  1.00  0.00    -0.265 C  
ENDBRANCH  18  19
ENDBRANCH  12  13
ENDBRANCH  11  12
ENDBRANCH   8  11
ENDBRANCH   7   8
ENDBRANCH   5   7
TORSDOF 6
ENDMDL
MODEL       33
REMARK 921   NORMALIZED FREE ENERGY PREDICTED BY IDOCK:   -5.65 KCAL/MOL
REMARK 922        TOTAL FREE ENERGY PREDICTED BY IDOCK:   -8.67 KCAL/MOL
REMARK 923 INTER-LIGAND FREE ENERGY PREDICTED BY IDOCK:   -8.14 KCAL/MOL
REMARK 924 INTRA-LIGAND FREE ENERGY PREDICTED BY IDOCK:   -0.52 KCAL/MOL
REMARK 927      BINDING AFFINITY PREDICTED BY RF-SCORE:    0.00 PKD
ROOT
HETATM    1  C   UNL     1     -11.734  15.369  64.157  1.00  0.00    -0.109 C  
HETATM    2  C   UNL     1     -11.693  13.891  64.583  1.00  0.00    -0.397 C  
HETATM    3  C   UNL     1     -12.054  13.028  63.358  1.00  0.00    -0.591 C  
HETATM    4  C   UNL     1     -12.741  13.631  65.679  1.00  0.00    -0.505 C  
HETATM    5  N   UNL     1     -10.353  13.460  65.022  1.00  0.00    -0.397 NA 
HETATM    6  H   UNL     1      -9.705  13.477  64.234  1.00  0.00     0.000 HD 
ENDROOT
BRANCH   5   7
HETATM    7  C   UNL     1      -9.788  14.203  66.148  1.00  0.00    -0.308 C  
BRANCH   7   8
HETATM    8  C   UNL     1      -9.672  13.389  67.452  1.00  0.00    -0.221 C  
HETATM    9  O   UNL     1     -10.122  12.052  67.152  1.00  0.00    -0.200 OA 
HETATM   10  H   UNL     1     -10.051  11.551  67.956  1.00  0.00     0.000 HD 
BRANCH   8  11
HETATM   11  C   UNL     1     -10.521  13.932  68.608  1.00  0.00    -0.246 C  
BRANCH  11  12
HETATM   12  O   UNL     1     -11.547  13.037  69.051  1.00  0.00    -0.278 OA 
BRANCH  12  13
HETATM   13  C   UNL     1     -12.247  13.448  70.168  1.00  0.00    -0.315 A  
HETATM   14  C   UNL     1     -12.425  14.804  70.499  1.00  0.00    -0.411 A  
HETATM   15  C   UNL     1     -13.080  15.184  71.667  1.00  0.00    -0.471 A  
HETATM   16  C   UNL     1     -13.579  14.214  72.517  1.00  0.00    -0.644 A  
HETATM   17  C   UNL     1     -13.436  12.864  72.190  1.00  0.00    -0.619 A  
HETATM   18  C   UNL     1     -12.782  12.447  71.010  1.00  0.00    -0.315 A  
BRANCH  18  19
HETATM   19  C   UNL     1     -12.606  10.965  70.711  1.00  0.00    -0.470 C  
HETATM   20  C   UNL     1     -11.165  10.451  70.539  1.00  0.00    -0.395 C  
HETATM   21  C   UNL     1     -11.328   8.942  70.583  1.00  0.00    -0.299 C  
HETATM   22  C   UNL     1     -12.309   8.739  71.727  1.00  0.00    -0.412 C  
HETATM   23  C   UNL     1     -13.179  10.004  71.770  1.00  0.00    -0.540 C  
ENDBRANCH  18  19
ENDBRANCH  12  13
ENDBRANCH  11  12
ENDBRANCH   8  11
ENDBRANCH   7   8
ENDBRANCH   5   7
TORSDOF 6
ENDMDL
MODEL       34
REMARK 921   NORMALIZED FREE ENERGY PREDICTED BY IDOCK:   -5.63 KCAL/MOL
REMARK 922        TOTAL FREE ENERGY PREDICTED BY IDOCK:   -8.64 KCAL/MOL
REMARK 923 INTER-LIGAND FREE ENERGY PREDICTED BY IDOCK:   -7.73 KCAL/MOL
REMARK 924 INTRA-LIGAND FREE ENERGY PREDICTED BY IDOCK:   -0.91 KCAL/MOL
REMARK 927      BINDING AFFINITY PREDICTED BY RF-SCORE:    0.00 PKD
ROOT
HETATM    1  C   UNL     1     -10.109   7.902  70.993  1.00  0.00    -0.212 C  
HETATM    2  C   UNL     1     -11.070   6.787  70.547  1.00  0.00    -0.298 C  
HETATM    3  C   UNL     1     -12.325   6.849  71.440  1.00  0.00    -0.421 C  
HETATM    4  C   UNL     1     -10.408   5.412  70.745  1.00  0.00    -0.322 C  
HETATM    5  N   UNL     1     -11.534   6.954  69.157  1.00  0.00    -0.560 NA 
HETATM    6  H   UNL     1     -12.118   7.787  69.082  1.00  0.00     0.000 HD 
ENDROOT
BRANCH   5   7
HETATM    7  C   UNL     1     -10.483   6.987  68.141  1.00  0.00    -0.201 C  
BRANCH   7   8
HETATM    8  C   UNL     1     -10.649   8.105  67.092  1.00  0.00    -0.285 C  
HETATM    9  O   UNL     1      -9.656   7.874  66.072  1.00  0.00    -0.412 OA 
HETATM   10  H   UNL     1      -9.759   8.563  65.427  1.00  0.00     0.000 HD 
BRANCH   8  11
HETATM   11  C   UNL     1     -10.446   9.521  67.646  1.00  0.00    -0.263 C  
BRANCH  11  12
HETATM   12  O   UNL     1     -11.522  10.421  67.359  1.00  0.00    -0.354 OA 
BRANCH  12  13
HETATM   13  C   UNL     1     -11.732  11.409  68.300  1.00  0.00    -0.288 A  
HETATM   14  C   UNL     1     -11.972  11.130  69.658  1.00  0.00    -0.429 A  
HETATM   15  C   UNL     1     -12.244  12.145  70.569  1.00  0.00    -0.392 A  
HETATM   16  C   UNL     1     -12.268  13.460  70.140  1.00  0.00    -0.385 A  
HETATM   17  C   UNL     1     -12.005  13.758  68.801  1.00  0.00    -0.400 A  
HETATM   18  C   UNL     1     -11.719  12.751  67.854  1.00  0.00    -0.408 A  
BRANCH  18  19
HETATM   19  C   UNL     1     -11.482  13.111  66.395  1.00  0.00    -0.374 C  
HETATM   20  C   UNL     1     -12.685  13.652  65.601  1.00  0.00    -0.505 C  
HETATM   21  C   UNL     1     -12.048  14.201  64.338  1.00  0.00    -0.486 C  
HETATM   22  C   UNL     1     -10.818  14.925  64.863  1.00  0.00    -0.431 C  
HETATM   23  C   UNL     1     -10.406  14.187  66.145  1.00  0.00    -0.304 C  
ENDBRANCH  18  19
ENDBRANCH  12  13
ENDBRANCH  11  12
ENDBRANCH   8  11
ENDBRANCH   7   8
ENDBRANCH   5   7
TORSDOF 6
ENDMDL
MODEL       35
REMARK 921   NORMALIZED FREE ENERGY PREDICTED BY IDOCK:   -5.63 KCAL/MOL
REMARK 922        TOTAL FREE ENERGY PREDICTED BY IDOCK:   -8.63 KCAL/MOL
REMARK 923 INTER-LIGAND FREE ENERGY PREDICTED BY IDOCK:   -7.52 KCAL/MOL
REMARK 924 INTRA-LIGAND FREE ENERGY PREDICTED BY IDOCK:   -1.12 KCAL/MOL
REMARK 927      BINDING AFFINITY PREDICTED BY RF-SCORE:    0.00 PKD
ROOT
HETATM    1  C   UNL     1      -8.990  10.126  65.154  1.00  0.00    -0.225 C  
HETATM    2  C   UNL     1      -9.302  10.664  66.562  1.00  0.00    -0.167 C  
HETATM    3  C   UNL     1      -8.038  10.498  67.429  1.00  0.00    -0.111 C  
HETATM    4  C   UNL     1     -10.433   9.838  67.200  1.00  0.00    -0.316 C  
HETATM    5  N   UNL     1      -9.630  12.101  66.566  1.00  0.00    -0.222 NA 
HETATM    6  H   UNL     1      -8.810  12.647  66.302  1.00  0.00     0.000 HD 
ENDROOT
BRANCH   5   7
HETATM    7  C   UNL     1     -10.774  12.489  65.742  1.00  0.00    -0.269 C  
BRANCH   7   8
HETATM    8  C   UNL     1     -12.028  12.891  66.546  1.00  0.00    -0.377 C  
HETATM    9  O   UNL     1     -12.817  13.744  65.691  1.00  0.00    -0.521 OA 
HETATM   10  H   UNL     1     -13.589  13.991  66.187  1.00  0.00     0.000 HD 
BRANCH   8  11
HETATM   11  C   UNL     1     -11.725  13.656  67.839  1.00  0.00    -0.360 C  
BRANCH  11  12
HETATM   12  O   UNL     1     -11.591  12.821  68.995  1.00  0.00    -0.276 OA 
BRANCH  12  13
HETATM   13  C   UNL     1     -12.257  13.261  70.121  1.00  0.00    -0.306 A  
HETATM   14  C   UNL     1     -12.413  14.626  70.430  1.00  0.00    -0.410 A  
HETATM   15  C   UNL     1     -13.033  15.035  71.606  1.00  0.00    -0.432 A  
HETATM   16  C   UNL     1     -13.519  14.087  72.489  1.00  0.00    -0.661 A  
HETATM   17  C   UNL     1     -13.397  12.730  72.186  1.00  0.00    -0.593 A  
HETATM   18  C   UNL     1     -12.779  12.282  70.997  1.00  0.00    -0.319 A  
BRANCH  18  19
HETATM   19  C   UNL     1     -12.624  10.794  70.724  1.00  0.00    -0.476 C  
HETATM   20  C   UNL     1     -11.229  10.180  70.946  1.00  0.00    -0.383 C  
HETATM   21  C   UNL     1     -11.497   8.687  70.907  1.00  0.00    -0.315 C  
HETATM   22  C   UNL     1     -12.770   8.547  71.729  1.00  0.00    -0.385 C  
HETATM   23  C   UNL     1     -13.532   9.869  71.559  1.00  0.00    -0.393 C  
ENDBRANCH  18  19
ENDBRANCH  12  13
ENDBRANCH  11  12
ENDBRANCH   8  11
ENDBRANCH   7   8
ENDBRANCH   5   7
TORSDOF 6
ENDMDL
MODEL       36
REMARK 921   NORMALIZED FREE ENERGY PREDICTED BY IDOCK:   -5.59 KCAL/MOL
REMARK 922        TOTAL FREE ENERGY PREDICTED BY IDOCK:   -8.58 KCAL/MOL
REMARK 923 INTER-LIGAND FREE ENERGY PREDICTED BY IDOCK:   -7.79 KCAL/MOL
REMARK 924 INTRA-LIGAND FREE ENERGY PREDICTED BY IDOCK:   -0.80 KCAL/MOL
REMARK 927      BINDING AFFINITY PREDICTED BY RF-SCORE:    0.00 PKD
ROOT
HETATM    1  C   UNL     1     -12.099   6.581  71.684  1.00  0.00    -0.381 C  
HETATM    2  C   UNL     1     -11.018   7.033  70.688  1.00  0.00    -0.260 C  
HETATM    3  C   UNL     1     -11.018   6.048  69.502  1.00  0.00    -0.467 C  
HETATM    4  C   UNL     1      -9.633   6.978  71.356  1.00  0.00    -0.162 C  
HETATM    5  N   UNL     1     -11.280   8.370  70.125  1.00  0.00    -0.413 NA 
HETATM    6  H   UNL     1     -12.116   8.345  69.541  1.00  0.00     0.000 HD 
ENDROOT
BRANCH   5   7
HETATM    7  C   UNL     1     -11.385   9.455  71.100  1.00  0.00    -0.351 C  
BRANCH   7   8
HETATM    8  C   UNL     1     -12.767  10.137  71.145  1.00  0.00    -0.396 C  
HETATM    9  O   UNL     1     -13.130  10.438  69.782  1.00  0.00    -0.577 OA 
HETATM   10  H   UNL     1     -13.981  10.859  69.810  1.00  0.00     0.000 HD 
BRANCH   8  11
HETATM   11  C   UNL     1     -12.796  11.443  71.948  1.00  0.00    -0.275 C  
BRANCH  11  12
HETATM   12  O   UNL     1     -13.363  12.552  71.240  1.00  0.00    -0.121 OA 
BRANCH  12  13
HETATM   13  C   UNL     1     -12.889  13.794  71.613  1.00  0.00    -0.352 A  
HETATM   14  C   UNL     1     -13.048  14.312  72.913  1.00  0.00    -0.589 A  
HETATM   15  C   UNL     1     -12.617  15.593  73.240  1.00  0.00    -0.619 A  
HETATM   16  C   UNL     1     -12.008  16.376  72.275  1.00  0.00    -0.521 A  
HETATM   17  C   UNL     1     -11.818  15.869  70.988  1.00  0.00    -0.468 A  
HETATM   18  C   UNL     1     -12.238  14.570  70.627  1.00  0.00    -0.401 A  
BRANCH  18  19
HETATM   19  C   UNL     1     -12.055  14.069  69.202  1.00  0.00    -0.375 C  
HETATM   20  C   UNL     1     -11.911  15.132  68.098  1.00  0.00    -0.252 C  
HETATM   21  C   UNL     1     -11.429  14.328  66.904  1.00  0.00    -0.377 C  
HETATM   22  C   UNL     1     -10.386  13.404  67.514  1.00  0.00    -0.226 C  
HETATM   23  C   UNL     1     -10.820  13.176  68.969  1.00  0.00    -0.202 C  
ENDBRANCH  18  19
ENDBRANCH  12  13
ENDBRANCH  11  12
ENDBRANCH   8  11
ENDBRANCH   7   8
ENDBRANCH   5   7
TORSDOF 6
ENDMDL
MODEL       37
REMARK 921   NORMALIZED FREE ENERGY PREDICTED BY IDOCK:   -5.59 KCAL/MOL
REMARK 922        TOTAL FREE ENERGY PREDICTED BY IDOCK:   -8.58 KCAL/MOL
REMARK 923 INTER-LIGAND FREE ENERGY PREDICTED BY IDOCK:   -8.41 KCAL/MOL
REMARK 924 INTRA-LIGAND FREE ENERGY PREDICTED BY IDOCK:   -0.16 KCAL/MOL
REMARK 927      BINDING AFFINITY PREDICTED BY RF-SCORE:    0.00 PKD
ROOT
HETATM    1  C   UNL     1     -11.299   6.266  72.292  1.00  0.00    -0.337 C  
HETATM    2  C   UNL     1     -10.809   6.941  70.999  1.00  0.00    -0.241 C  
HETATM    3  C   UNL     1     -10.964   5.932  69.844  1.00  0.00    -0.444 C  
HETATM    4  C   UNL     1      -9.318   7.299  71.126  1.00  0.00    -0.156 C  
HETATM    5  N   UNL     1     -11.606   8.126  70.633  1.00  0.00    -0.413 NA 
HETATM    6  H   UNL     1     -12.555   7.844  70.385  1.00  0.00     0.000 HD 
ENDROOT
BRANCH   5   7
HETATM    7  C   UNL     1     -11.647   9.192  71.634  1.00  0.00    -0.379 C  
BRANCH   7   8
HETATM    8  C   UNL     1     -12.501  10.410  71.228  1.00  0.00    -0.415 C  
HETATM    9  O   UNL     1     -13.647   9.900  70.516  1.00  0.00    -0.570 OA 
HETATM   10  H   UNL     1     -14.172  10.651  70.266  1.00  0.00     0.000 HD 
BRANCH   8  11
HETATM   11  C   UNL     1     -11.777  11.409  70.319  1.00  0.00    -0.306 C  
BRANCH  11  12
HETATM   12  O   UNL     1     -12.297  12.742  70.383  1.00  0.00    -0.318 OA 
BRANCH  12  13
HETATM   13  C   UNL     1     -11.902  13.580  69.359  1.00  0.00    -0.335 A  
HETATM   14  C   UNL     1     -11.426  13.101  68.123  1.00  0.00    -0.349 A  
HETATM   15  C   UNL     1     -10.974  13.971  67.136  1.00  0.00    -0.303 A  
HETATM   16  C   UNL     1     -11.001  15.335  67.362  1.00  0.00    -0.321 A  
HETATM   17  C   UNL     1     -11.495  15.829  68.571  1.00  0.00    -0.381 A  
HETATM   18  C   UNL     1     -11.967  14.973  69.590  1.00  0.00    -0.356 A  
BRANCH  18  19
HETATM   19  C   UNL     1     -12.456  15.546  70.912  1.00  0.00    -0.494 C  
HETATM   20  C   UNL     1     -13.886  15.181  71.350  1.00  0.00    -0.587 C  
HETATM   21  C   UNL     1     -13.927  15.622  72.802  1.00  0.00    -0.563 C  
HETATM   22  C   UNL     1     -12.588  15.145  73.341  1.00  0.00    -0.655 C  
HETATM   23  C   UNL     1     -11.619  15.161  72.149  1.00  0.00    -0.490 C  
ENDBRANCH  18  19
ENDBRANCH  12  13
ENDBRANCH  11  12
ENDBRANCH   8  11
ENDBRANCH   7   8
ENDBRANCH   5   7
TORSDOF 6
ENDMDL
MODEL       38
REMARK 921   NORMALIZED FREE ENERGY PREDICTED BY IDOCK:   -5.58 KCAL/MOL
REMARK 922        TOTAL FREE ENERGY PREDICTED BY IDOCK:   -8.57 KCAL/MOL
REMARK 923 INTER-LIGAND FREE ENERGY PREDICTED BY IDOCK:   -7.90 KCAL/MOL
REMARK 924 INTRA-LIGAND FREE ENERGY PREDICTED BY IDOCK:   -0.66 KCAL/MOL
REMARK 927      BINDING AFFINITY PREDICTED BY RF-SCORE:    0.00 PKD
ROOT
HETATM    1  C   UNL     1      -9.983   7.221  73.109  1.00  0.00    -0.295 C  
HETATM    2  C   UNL     1      -9.931   7.606  71.621  1.00  0.00    -0.176 C  
HETATM    3  C   UNL     1      -9.607   6.336  70.809  1.00  0.00    -0.193 C  
HETATM    4  C   UNL     1      -8.806   8.628  71.382  1.00  0.00    -0.276 C  
HETATM    5  N   UNL     1     -11.220   8.112  71.116  1.00  0.00    -0.252 NA 
HETATM    6  H   UNL     1     -11.915   7.365  71.122  1.00  0.00     0.000 HD 
ENDROOT
BRANCH   5   7
HETATM    7  C   UNL     1     -11.748   9.291  71.801  1.00  0.00    -0.386 C  
BRANCH   7   8
HETATM    8  C   UNL     1     -12.297  10.381  70.858  1.00  0.00    -0.381 C  
HETATM    9  O   UNL     1     -13.550   9.891  70.337  1.00  0.00    -0.547 OA 
HETATM   10  H   UNL     1     -13.887  10.562  69.757  1.00  0.00     0.000 HD 
BRANCH   8  11
HETATM   11  C   UNL     1     -11.380  10.706  69.674  1.00  0.00    -0.294 C  
BRANCH  11  12
HETATM   12  O   UNL     1     -12.046  11.338  68.575  1.00  0.00    -0.573 OA 
BRANCH  12  13
HETATM   13  C   UNL     1     -11.875  12.705  68.488  1.00  0.00    -0.300 A  
HETATM   14  C   UNL     1     -11.912  13.551  69.613  1.00  0.00    -0.397 A  
HETATM   15  C   UNL     1     -11.801  14.932  69.485  1.00  0.00    -0.360 A  
HETATM   16  C   UNL     1     -11.638  15.490  68.229  1.00  0.00    -0.344 A  
HETATM   17  C   UNL     1     -11.572  14.665  67.105  1.00  0.00    -0.394 A  
HETATM   18  C   UNL     1     -11.675  13.260  67.203  1.00  0.00    -0.425 A  
BRANCH  18  19
HETATM   19  C   UNL     1     -11.644  12.397  65.951  1.00  0.00    -0.449 C  
HETATM   20  C   UNL     1     -12.735  12.653  64.895  1.00  0.00    -0.450 C  
HETATM   21  C   UNL     1     -12.232  11.887  63.684  1.00  0.00    -0.586 C  
HETATM   22  C   UNL     1     -10.749  12.224  63.660  1.00  0.00    -0.513 C  
HETATM   23  C   UNL     1     -10.348  12.483  65.120  1.00  0.00    -0.312 C  
ENDBRANCH  18  19
ENDBRANCH  12  13
ENDBRANCH  11  12
ENDBRANCH   8  11
ENDBRANCH   7   8
ENDBRANCH   5   7
TORSDOF 6
ENDMDL
MODEL       39
REMARK 921   NORMALIZED FREE ENERGY PREDICTED BY IDOCK:   -5.54 KCAL/MOL
REMARK 922        TOTAL FREE ENERGY PREDICTED BY IDOCK:   -8.51 KCAL/MOL
REMARK 923 INTER-LIGAND FREE ENERGY PREDICTED BY IDOCK:   -7.26 KCAL/MOL
REMARK 924 INTRA-LIGAND FREE ENERGY PREDICTED BY IDOCK:   -1.25 KCAL/MOL
REMARK 927      BINDING AFFINITY PREDICTED BY RF-SCORE:    0.00 PKD
ROOT
HETATM    1  C   UNL     1      -9.315  11.796  68.362  1.00  0.00    -0.185 C  
HETATM    2  C   UNL     1      -9.930  10.497  68.909  1.00  0.00    -0.204 C  
HETATM    3  C   UNL     1      -8.785   9.610  69.437  1.00  0.00    -0.173 C  
HETATM    4  C   UNL     1     -10.642   9.736  67.777  1.00  0.00    -0.320 C  
HETATM    5  N   UNL     1     -10.841  10.729  70.044  1.00  0.00    -0.457 NA 
HETATM    6  H   UNL     1     -10.317  11.076  70.847  1.00  0.00     0.000 HD 
ENDROOT
BRANCH   5   7
HETATM    7  C   UNL     1     -11.977  11.608  69.772  1.00  0.00    -0.332 C  
BRANCH   7   8
HETATM    8  C   UNL     1     -11.941  12.947  70.536  1.00  0.00    -0.198 C  
HETATM    9  O   UNL     1     -12.947  12.868  71.567  1.00  0.00    -0.369 OA 
HETATM   10  H   UNL     1     -12.925  13.693  72.037  1.00  0.00     0.000 HD 
BRANCH   8  11
HETATM   11  C   UNL     1     -12.241  14.174  69.667  1.00  0.00    -0.326 C  
BRANCH  11  12
HETATM   12  O   UNL     1     -12.066  13.953  68.263  1.00  0.00    -0.366 OA 
BRANCH  12  13
HETATM   13  C   UNL     1     -11.366  14.937  67.593  1.00  0.00    -0.337 A  
HETATM   14  C   UNL     1     -10.993  16.152  68.198  1.00  0.00    -0.341 A  
HETATM   15  C   UNL     1     -10.344  17.150  67.477  1.00  0.00    -0.341 A  
HETATM   16  C   UNL     1     -10.046  16.944  66.142  1.00  0.00    -0.347 A  
HETATM   17  C   UNL     1     -10.385  15.734  65.533  1.00  0.00    -0.430 A  
HETATM   18  C   UNL     1     -11.037  14.700  66.239  1.00  0.00    -0.336 A  
BRANCH  18  19
HETATM   19  C   UNL     1     -11.430  13.412  65.530  1.00  0.00    -0.324 C  
HETATM   20  C   UNL     1     -12.400  13.534  64.341  1.00  0.00    -0.391 C  
HETATM   21  C   UNL     1     -12.319  12.168  63.686  1.00  0.00    -0.673 C  
HETATM   22  C   UNL     1     -10.828  11.868  63.705  1.00  0.00    -0.510 C  
HETATM   23  C   UNL     1     -10.262  12.606  64.927  1.00  0.00    -0.295 C  
ENDBRANCH  18  19
ENDBRANCH  12  13
ENDBRANCH  11  12
ENDBRANCH   8  11
ENDBRANCH   7   8
ENDBRANCH   5   7
TORSDOF 6
ENDMDL
MODEL       40
REMARK 921   NORMALIZED FREE ENERGY PREDICTED BY IDOCK:   -5.50 KCAL/MOL
REMARK 922        TOTAL FREE ENERGY PREDICTED BY IDOCK:   -8.47 KCAL/MOL
REMARK 923 INTER-LIGAND FREE ENERGY PREDICTED BY IDOCK:   -7.64 KCAL/MOL
REMARK 924 INTRA-LIGAND FREE ENERGY PREDICTED BY IDOCK:   -0.83 KCAL/MOL
REMARK 927      BINDING AFFINITY PREDICTED BY RF-SCORE:    0.00 PKD
ROOT
HETATM    1  C   UNL     1     -10.730   7.645  72.132  1.00  0.00    -0.289 C  
HETATM    2  C   UNL     1     -11.747   7.510  70.986  1.00  0.00    -0.292 C  
HETATM    3  C   UNL     1     -13.131   7.228  71.603  1.00  0.00    -0.417 C  
HETATM    4  C   UNL     1     -11.370   6.318  70.088  1.00  0.00    -0.476 C  
HETATM    5  N   UNL     1     -11.883   8.745  70.193  1.00  0.00    -0.439 NA 
HETATM    6  H   UNL     1     -12.297   9.483  70.764  1.00  0.00     0.000 HD 
ENDROOT
BRANCH   5   7
HETATM    7  C   UNL     1     -10.655   9.231  69.564  1.00  0.00    -0.224 C  
BRANCH   7   8
HETATM    8  C   UNL     1     -10.841  10.492  68.697  1.00  0.00    -0.237 C  
HETATM    9  O   UNL     1     -12.260  10.656  68.495  1.00  0.00    -0.822 OA 
HETATM   10  H   UNL     1     -12.374  11.432  67.961  1.00  0.00     0.000 HD 
BRANCH   8  11
HETATM   11  C   UNL     1     -10.167  10.413  67.322  1.00  0.00    -0.211 C  
BRANCH  11  12
HETATM   12  O   UNL     1      -9.791  11.685  66.782  1.00  0.00    -0.196 OA 
BRANCH  12  13
HETATM   13  C   UNL     1     -10.612  12.168  65.783  1.00  0.00    -0.260 A  
HETATM   14  C   UNL     1     -10.886  11.446  64.606  1.00  0.00    -0.359 A  
HETATM   15  C   UNL     1     -11.666  11.988  63.589  1.00  0.00    -0.587 A  
HETATM   16  C   UNL     1     -12.195  13.258  63.736  1.00  0.00    -0.508 A  
HETATM   17  C   UNL     1     -11.955  13.978  64.908  1.00  0.00    -0.416 A  
HETATM   18  C   UNL     1     -11.173  13.453  65.961  1.00  0.00    -0.310 A  
BRANCH  18  19
HETATM   19  C   UNL     1     -10.897  14.286  67.203  1.00  0.00    -0.296 C  
HETATM   20  C   UNL     1     -10.834  15.814  67.025  1.00  0.00    -0.273 C  
HETATM   21  C   UNL     1     -10.875  16.332  68.451  1.00  0.00    -0.334 C  
HETATM   22  C   UNL     1     -11.946  15.466  69.097  1.00  0.00    -0.324 C  
HETATM   23  C   UNL     1     -11.917  14.126  68.348  1.00  0.00    -0.366 C  
ENDBRANCH  18  19
ENDBRANCH  12  13
ENDBRANCH  11  12
ENDBRANCH   8  11
ENDBRANCH   7   8
ENDBRANCH   5   7
TORSDOF 6
ENDMDL
MODEL       41
REMARK 921   NORMALIZED FREE ENERGY PREDICTED BY IDOCK:   -5.50 KCAL/MOL
REMARK 922        TOTAL FREE ENERGY PREDICTED BY IDOCK:   -8.45 KCAL/MOL
REMARK 923 INTER-LIGAND FREE ENERGY PREDICTED BY IDOCK:   -7.74 KCAL/MOL
REMARK 924 INTRA-LIGAND FREE ENERGY PREDICTED BY IDOCK:   -0.71 KCAL/MOL
REMARK 927      BINDING AFFINITY PREDICTED BY RF-SCORE:    0.00 PKD
ROOT
HETATM    1  C   UNL     1      -6.233  18.493  65.570  1.00  0.00    -0.306 C  
HETATM    2  C   UNL     1      -6.563  19.994  65.490  1.00  0.00    -0.267 C  
HETATM    3  C   UNL     1      -6.125  20.507  64.104  1.00  0.00    -0.339 C  
HETATM    4  C   UNL     1      -5.769  20.764  66.559  1.00  0.00    -0.244 C  
HETATM    5  N   UNL     1      -8.007  20.269  65.604  1.00  0.00    -0.495 NA 
HETATM    6  H   UNL     1      -8.499  19.895  64.792  1.00  0.00     0.000 HD 
ENDROOT
BRANCH   5   7
HETATM    7  C   UNL     1      -8.643  19.799  66.834  1.00  0.00    -0.329 C  
BRANCH   7   8
HETATM    8  C   UNL     1      -9.826  18.836  66.609  1.00  0.00    -0.356 C  
HETATM    9  O   UNL     1     -10.948  19.372  67.340  1.00  0.00    -0.490 OA 
HETATM   10  H   UNL     1     -11.676  18.778  67.202  1.00  0.00     0.000 HD 
BRANCH   8  11
HETATM   11  C   UNL     1      -9.573  17.406  67.100  1.00  0.00    -0.265 C  
BRANCH  11  12
HETATM   12  O   UNL     1     -10.452  16.428  66.533  1.00  0.00    -0.302 OA 
BRANCH  12  13
HETATM   13  C   UNL     1     -11.042  15.569  67.439  1.00  0.00    -0.285 A  
HETATM   14  C   UNL     1     -11.317  15.937  68.770  1.00  0.00    -0.378 A  
HETATM   15  C   UNL     1     -11.853  15.027  69.676  1.00  0.00    -0.358 A  
HETATM   16  C   UNL     1     -12.135  13.737  69.263  1.00  0.00    -0.374 A  
HETATM   17  C   UNL     1     -11.894  13.363  67.940  1.00  0.00    -0.392 A  
HETATM   18  C   UNL     1     -11.357  14.265  66.995  1.00  0.00    -0.354 A  
BRANCH  18  19
HETATM   19  C   UNL     1     -11.066  13.807  65.573  1.00  0.00    -0.300 C  
HETATM   20  C   UNL     1     -11.018  12.290  65.320  1.00  0.00    -0.347 C  
HETATM   21  C   UNL     1     -11.040  12.190  63.806  1.00  0.00    -0.505 C  
HETATM   22  C   UNL     1     -12.093  13.214  63.412  1.00  0.00    -0.558 C  
HETATM   23  C   UNL     1     -12.067  14.292  64.505  1.00  0.00    -0.499 C  
ENDBRANCH  18  19
ENDBRANCH  12  13
ENDBRANCH  11  12
ENDBRANCH   8  11
ENDBRANCH   7   8
ENDBRANCH   5   7
TORSDOF 6
ENDMDL
MODEL       42
REMARK 921   NORMALIZED FREE ENERGY PREDICTED BY IDOCK:   -5.48 KCAL/MOL
REMARK 922        TOTAL FREE ENERGY PREDICTED BY IDOCK:   -8.43 KCAL/MOL
REMARK 923 INTER-LIGAND FREE ENERGY PREDICTED BY IDOCK:   -7.68 KCAL/MOL
REMARK 924 INTRA-LIGAND FREE ENERGY PREDICTED BY IDOCK:   -0.75 KCAL/MOL
REMARK 927      BINDING AFFINITY PREDICTED BY RF-SCORE:    0.00 PKD
ROOT
HETATM    1  C   UNL     1      -9.165  15.038  68.069  1.00  0.00    -0.183 C  
HETATM    2  C   UNL     1      -9.894  15.919  67.040  1.00  0.00    -0.232 C  
HETATM    3  C   UNL     1      -8.832  16.638  66.186  1.00  0.00    -0.323 C  
HETATM    4  C   UNL     1     -10.732  16.988  67.764  1.00  0.00    -0.318 C  
HETATM    5  N   UNL     1     -10.727  15.138  66.107  1.00  0.00    -0.318 NA 
HETATM    6  H   UNL     1     -10.135  14.556  65.514  1.00  0.00     0.000 HD 
ENDROOT
BRANCH   5   7
HETATM    7  C   UNL     1     -11.771  14.321  66.725  1.00  0.00    -0.405 C  
BRANCH   7   8
HETATM    8  C   UNL     1     -11.511  12.802  66.659  1.00  0.00    -0.350 C  
HETATM    9  O   UNL     1     -12.195  12.312  65.488  1.00  0.00    -0.577 OA 
HETATM   10  H   UNL     1     -12.035  11.376  65.447  1.00  0.00     0.000 HD 
BRANCH   8  11
HETATM   11  C   UNL     1     -12.025  12.024  67.875  1.00  0.00    -0.134 C  
BRANCH  11  12
HETATM   12  O   UNL     1     -11.290  12.270  69.080  1.00  0.00    -0.244 OA 
BRANCH  12  13
HETATM   13  C   UNL     1     -12.043  12.701  70.154  1.00  0.00    -0.294 A  
HETATM   14  C   UNL     1     -12.241  14.063  70.448  1.00  0.00    -0.433 A  
HETATM   15  C   UNL     1     -12.951  14.465  71.575  1.00  0.00    -0.406 A  
HETATM   16  C   UNL     1     -13.487  13.510  72.420  1.00  0.00    -0.685 A  
HETATM   17  C   UNL     1     -13.324  12.154  72.129  1.00  0.00    -0.438 A  
HETATM   18  C   UNL     1     -12.614  11.715  70.990  1.00  0.00    -0.431 A  
BRANCH  18  19
HETATM   19  C   UNL     1     -12.419  10.229  70.731  1.00  0.00    -0.439 C  
HETATM   20  C   UNL     1     -11.080   9.609  71.170  1.00  0.00    -0.444 C  
HETATM   21  C   UNL     1     -11.339   8.117  71.074  1.00  0.00    -0.293 C  
HETATM   22  C   UNL     1     -12.728   7.973  71.678  1.00  0.00    -0.347 C  
HETATM   23  C   UNL     1     -13.452   9.299  71.399  1.00  0.00    -0.384 C  
ENDBRANCH  18  19
ENDBRANCH  12  13
ENDBRANCH  11  12
ENDBRANCH   8  11
ENDBRANCH   7   8
ENDBRANCH   5   7
TORSDOF 6
ENDMDL
MODEL       43
REMARK 921   NORMALIZED FREE ENERGY PREDICTED BY IDOCK:   -5.48 KCAL/MOL
REMARK 922        TOTAL FREE ENERGY PREDICTED BY IDOCK:   -8.43 KCAL/MOL
REMARK 923 INTER-LIGAND FREE ENERGY PREDICTED BY IDOCK:   -7.22 KCAL/MOL
REMARK 924 INTRA-LIGAND FREE ENERGY PREDICTED BY IDOCK:   -1.21 KCAL/MOL
REMARK 927      BINDING AFFINITY PREDICTED BY RF-SCORE:    0.00 PKD
ROOT
HETATM    1  C   UNL     1      -8.266  12.607  68.101  1.00  0.00    -0.170 C  
HETATM    2  C   UNL     1      -7.627  11.352  68.721  1.00  0.00    -0.132 C  
HETATM    3  C   UNL     1      -6.432  11.800  69.585  1.00  0.00    -0.113 C  
HETATM    4  C   UNL     1      -7.096  10.430  67.609  1.00  0.00    -0.085 C  
HETATM    5  N   UNL     1      -8.545  10.625  69.616  1.00  0.00    -0.383 NA 
HETATM    6  H   UNL     1      -8.752  11.192  70.439  1.00  0.00     0.000 HD 
ENDROOT
BRANCH   5   7
HETATM    7  C   UNL     1      -9.790  10.162  69.003  1.00  0.00    -0.205 C  
BRANCH   7   8
HETATM    8  C   UNL     1     -10.947   9.946  70.000  1.00  0.00    -0.291 C  
HETATM    9  O   UNL     1     -11.418   8.597  69.807  1.00  0.00    -0.450 OA 
HETATM   10  H   UNL     1     -12.131   8.465  70.421  1.00  0.00     0.000 HD 
BRANCH   8  11
HETATM   11  C   UNL     1     -12.130  10.900  69.803  1.00  0.00    -0.338 C  
BRANCH  11  12
HETATM   12  O   UNL     1     -12.228  11.447  68.483  1.00  0.00    -0.557 OA 
BRANCH  12  13
HETATM   13  C   UNL     1     -11.962  12.798  68.382  1.00  0.00    -0.231 A  
HETATM   14  C   UNL     1     -11.930  13.654  69.500  1.00  0.00    -0.397 A  
HETATM   15  C   UNL     1     -11.723  15.022  69.359  1.00  0.00    -0.351 A  
HETATM   16  C   UNL     1     -11.532  15.558  68.097  1.00  0.00    -0.332 A  
HETATM   17  C   UNL     1     -11.534  14.720  66.980  1.00  0.00    -0.362 A  
HETATM   18  C   UNL     1     -11.734  13.327  67.092  1.00  0.00    -0.425 A  
BRANCH  18  19
HETATM   19  C   UNL     1     -11.774  12.453  65.847  1.00  0.00    -0.476 C  
HETATM   20  C   UNL     1     -12.717  12.890  64.712  1.00  0.00    -0.442 C  
HETATM   21  C   UNL     1     -12.280  12.025  63.544  1.00  0.00    -0.653 C  
HETATM   22  C   UNL     1     -10.762  12.079  63.630  1.00  0.00    -0.506 C  
HETATM   23  C   UNL     1     -10.428  12.282  65.115  1.00  0.00    -0.320 C  
ENDBRANCH  18  19
ENDBRANCH  12  13
ENDBRANCH  11  12
ENDBRANCH   8  11
ENDBRANCH   7   8
ENDBRANCH   5   7
TORSDOF 6
ENDMDL
MODEL       44
REMARK 921   NORMALIZED FREE ENERGY PREDICTED BY IDOCK:   -5.47 KCAL/MOL
REMARK 922        TOTAL FREE ENERGY PREDICTED BY IDOCK:   -8.42 KCAL/MOL
REMARK 923 INTER-LIGAND FREE ENERGY PREDICTED BY IDOCK:   -7.62 KCAL/MOL
REMARK 924 INTRA-LIGAND FREE ENERGY PREDICTED BY IDOCK:   -0.80 KCAL/MOL
REMARK 927      BINDING AFFINITY PREDICTED BY RF-SCORE:    0.00 PKD
ROOT
HETATM    1  C   UNL     1     -11.340   7.406  72.626  1.00  0.00    -0.360 C  
HETATM    2  C   UNL     1     -12.150   7.566  71.328  1.00  0.00    -0.323 C  
HETATM    3  C   UNL     1     -13.625   7.243  71.641  1.00  0.00    -0.435 C  
HETATM    4  C   UNL     1     -11.653   6.563  70.272  1.00  0.00    -0.473 C  
HETATM    5  N   UNL     1     -12.123   8.943  70.802  1.00  0.00    -0.476 NA 
HETATM    6  H   UNL     1     -12.611   9.570  71.442  1.00  0.00     0.000 HD 
ENDROOT
BRANCH   5   7
HETATM    7  C   UNL     1     -10.795   9.476  70.497  1.00  0.00    -0.292 C  
BRANCH   7   8
HETATM    8  C   UNL     1     -10.713  10.250  69.166  1.00  0.00    -0.228 C  
HETATM    9  O   UNL     1      -9.499  11.027  69.209  1.00  0.00    -0.397 OA 
HETATM   10  H   UNL     1      -9.448  11.505  68.389  1.00  0.00     0.000 HD 
BRANCH   8  11
HETATM   11  C   UNL     1     -11.886  11.207  68.923  1.00  0.00    -0.337 C  
BRANCH  11  12
HETATM   12  O   UNL     1     -12.066  11.574  67.551  1.00  0.00    -0.614 OA 
BRANCH  12  13
HETATM   13  C   UNL     1     -11.595  12.826  67.208  1.00  0.00    -0.360 A  
HETATM   14  C   UNL     1     -11.834  13.971  67.991  1.00  0.00    -0.403 A  
HETATM   15  C   UNL     1     -11.401  15.229  67.584  1.00  0.00    -0.315 A  
HETATM   16  C   UNL     1     -10.710  15.362  66.393  1.00  0.00    -0.311 A  
HETATM   17  C   UNL     1     -10.441  14.233  65.617  1.00  0.00    -0.336 A  
HETATM   18  C   UNL     1     -10.861  12.942  66.005  1.00  0.00    -0.300 A  
BRANCH  18  19
HETATM   19  C   UNL     1     -10.588  11.742  65.111  1.00  0.00    -0.332 C  
HETATM   20  C   UNL     1     -10.316  12.024  63.622  1.00  0.00    -0.482 C  
HETATM   21  C   UNL     1      -9.777  10.701  63.111  1.00  0.00    -0.375 C  
HETATM   22  C   UNL     1      -8.822  10.273  64.216  1.00  0.00    -0.234 C  
HETATM   23  C   UNL     1      -9.376  10.879  65.514  1.00  0.00    -0.237 C  
ENDBRANCH  18  19
ENDBRANCH  12  13
ENDBRANCH  11  12
ENDBRANCH   8  11
ENDBRANCH   7   8
ENDBRANCH   5   7
TORSDOF 6
ENDMDL
MODEL       45
REMARK 921   NORMALIZED FREE ENERGY PREDICTED BY IDOCK:   -5.45 KCAL/MOL
REMARK 922        TOTAL FREE ENERGY PREDICTED BY IDOCK:   -8.40 KCAL/MOL
REMARK 923 INTER-LIGAND FREE ENERGY PREDICTED BY IDOCK:   -7.73 KCAL/MOL
REMARK 924 INTRA-LIGAND FREE ENERGY PREDICTED BY IDOCK:   -0.66 KCAL/MOL
REMARK 927      BINDING AFFINITY PREDICTED BY RF-SCORE:    0.00 PKD
ROOT
HETATM    1  C   UNL     1      -9.252   7.105  72.016  1.00  0.00    -0.146 C  
HETATM    2  C   UNL     1     -10.197   6.631  73.134  1.00  0.00    -0.219 C  
HETATM    3  C   UNL     1      -9.366   6.451  74.419  1.00  0.00    -0.220 C  
HETATM    4  C   UNL     1     -10.808   5.268  72.762  1.00  0.00    -0.313 C  
HETATM    5  N   UNL     1     -11.251   7.614  73.447  1.00  0.00    -0.582 NA 
HETATM    6  H   UNL     1     -10.836   8.452  73.855  1.00  0.00     0.000 HD 
ENDROOT
BRANCH   5   7
HETATM    7  C   UNL     1     -12.124   7.980  72.333  1.00  0.00    -0.321 C  
BRANCH   7   8
HETATM    8  C   UNL     1     -12.930   9.275  72.557  1.00  0.00    -0.313 C  
HETATM    9  O   UNL     1     -14.107   8.911  73.308  1.00  0.00    -1.211 OA 
HETATM   10  H   UNL     1     -14.603   9.709  73.445  1.00  0.00     0.000 HD 
BRANCH   8  11
HETATM   11  C   UNL     1     -13.381   9.965  71.264  1.00  0.00    -0.342 C  
BRANCH  11  12
HETATM   12  O   UNL     1     -12.316  10.570  70.522  1.00  0.00    -0.300 OA 
BRANCH  12  13
HETATM   13  C   UNL     1     -12.341  11.949  70.472  1.00  0.00    -0.284 A  
HETATM   14  C   UNL     1     -12.795  12.743  71.542  1.00  0.00    -0.369 A  
HETATM   15  C   UNL     1     -12.868  14.128  71.437  1.00  0.00    -0.428 A  
HETATM   16  C   UNL     1     -12.476  14.745  70.262  1.00  0.00    -0.393 A  
HETATM   17  C   UNL     1     -11.998  13.976  69.199  1.00  0.00    -0.400 A  
HETATM   18  C   UNL     1     -11.906  12.569  69.278  1.00  0.00    -0.360 A  
BRANCH  18  19
HETATM   19  C   UNL     1     -11.422  11.761  68.083  1.00  0.00    -0.382 C  
HETATM   20  C   UNL     1     -11.734  12.322  66.684  1.00  0.00    -0.417 C  
HETATM   21  C   UNL     1     -10.859  11.483  65.771  1.00  0.00    -0.319 C  
HETATM   22  C   UNL     1      -9.540  11.420  66.527  1.00  0.00    -0.220 C  
HETATM   23  C   UNL     1      -9.899  11.526  68.016  1.00  0.00    -0.192 C  
ENDBRANCH  18  19
ENDBRANCH  12  13
ENDBRANCH  11  12
ENDBRANCH   8  11
ENDBRANCH   7   8
ENDBRANCH   5   7
TORSDOF 6
ENDMDL
MODEL       46
REMARK 921   NORMALIZED FREE ENERGY PREDICTED BY IDOCK:   -5.42 KCAL/MOL
REMARK 922        TOTAL FREE ENERGY PREDICTED BY IDOCK:   -8.35 KCAL/MOL
REMARK 923 INTER-LIGAND FREE ENERGY PREDICTED BY IDOCK:   -7.80 KCAL/MOL
REMARK 924 INTRA-LIGAND FREE ENERGY PREDICTED BY IDOCK:   -0.55 KCAL/MOL
REMARK 927      BINDING AFFINITY PREDICTED BY RF-SCORE:    0.00 PKD
ROOT
HETATM    1  C   UNL     1     -11.064   7.593  72.601  1.00  0.00    -0.412 C  
HETATM    2  C   UNL     1     -11.823   7.147  71.339  1.00  0.00    -0.308 C  
HETATM    3  C   UNL     1     -13.281   6.845  71.739  1.00  0.00    -0.281 C  
HETATM    4  C   UNL     1     -11.201   5.855  70.781  1.00  0.00    -0.281 C  
HETATM    5  N   UNL     1     -11.879   8.196  70.305  1.00  0.00    -0.458 NA 
HETATM    6  H   UNL     1     -12.444   8.980  70.633  1.00  0.00     0.000 HD 
ENDROOT
BRANCH   5   7
HETATM    7  C   UNL     1     -10.584   8.680  69.826  1.00  0.00    -0.224 C  
BRANCH   7   8
HETATM    8  C   UNL     1     -10.561  10.178  69.462  1.00  0.00    -0.245 C  
HETATM    9  O   UNL     1      -9.224  10.651  69.719  1.00  0.00    -0.406 OA 
HETATM   10  H   UNL     1      -9.210  11.573  69.495  1.00  0.00     0.000 HD 
BRANCH   8  11
HETATM   11  C   UNL     1     -11.538  11.036  70.274  1.00  0.00    -0.322 C  
BRANCH  11  12
HETATM   12  O   UNL     1     -11.762  12.341  69.728  1.00  0.00    -0.308 OA 
BRANCH  12  13
HETATM   13  C   UNL     1     -12.335  13.252  70.594  1.00  0.00    -0.339 A  
HETATM   14  C   UNL     1     -13.204  12.872  71.635  1.00  0.00    -0.416 A  
HETATM   15  C   UNL     1     -13.816  13.819  72.449  1.00  0.00    -0.681 A  
HETATM   16  C   UNL     1     -13.561  15.164  72.244  1.00  0.00    -0.566 A  
HETATM   17  C   UNL     1     -12.682  15.557  71.233  1.00  0.00    -0.526 A  
HETATM   18  C   UNL     1     -12.040  14.620  70.395  1.00  0.00    -0.383 A  
BRANCH  18  19
HETATM   19  C   UNL     1     -11.123  15.089  69.275  1.00  0.00    -0.280 C  
HETATM   20  C   UNL     1     -11.625  14.903  67.832  1.00  0.00    -0.364 C  
HETATM   21  C   UNL     1     -10.660  15.745  67.017  1.00  0.00    -0.316 C  
HETATM   22  C   UNL     1     -10.525  17.010  67.850  1.00  0.00    -0.354 C  
HETATM   23  C   UNL     1     -10.751  16.585  69.309  1.00  0.00    -0.331 C  
ENDBRANCH  18  19
ENDBRANCH  12  13
ENDBRANCH  11  12
ENDBRANCH   8  11
ENDBRANCH   7   8
ENDBRANCH   5   7
TORSDOF 6
ENDMDL
MODEL       47
REMARK 921   NORMALIZED FREE ENERGY PREDICTED BY IDOCK:   -5.41 KCAL/MOL
REMARK 922        TOTAL FREE ENERGY PREDICTED BY IDOCK:   -8.34 KCAL/MOL
REMARK 923 INTER-LIGAND FREE ENERGY PREDICTED BY IDOCK:   -6.70 KCAL/MOL
REMARK 924 INTRA-LIGAND FREE ENERGY PREDICTED BY IDOCK:   -1.64 KCAL/MOL
REMARK 927      BINDING AFFINITY PREDICTED BY RF-SCORE:    0.00 PKD
ROOT
HETATM    1  C   UNL     1      -9.827  17.309  68.142  1.00  0.00    -0.290 C  
HETATM    2  C   UNL     1      -9.989  15.781  68.227  1.00  0.00    -0.221 C  
HETATM    3  C   UNL     1      -8.583  15.155  68.321  1.00  0.00    -0.164 C  
HETATM    4  C   UNL     1     -10.665  15.253  66.950  1.00  0.00    -0.313 C  
HETATM    5  N   UNL     1     -10.723  15.350  69.431  1.00  0.00    -0.242 NA 
HETATM    6  H   UNL     1     -10.175  15.557  70.266  1.00  0.00     0.000 HD 
ENDROOT
BRANCH   5   7
HETATM    7  C   UNL     1     -12.075  15.890  69.573  1.00  0.00    -0.185 C  
BRANCH   7   8
HETATM    8  C   UNL     1     -12.799  15.456  70.863  1.00  0.00    -0.476 C  
HETATM    9  O   UNL     1     -12.242  16.238  71.939  1.00  0.00    -0.566 OA 
HETATM   10  H   UNL     1     -12.689  15.970  72.733  1.00  0.00     0.000 HD 
BRANCH   8  11
HETATM   11  C   UNL     1     -12.628  13.973  71.210  1.00  0.00    -0.367 C  
BRANCH  11  12
HETATM   12  O   UNL     1     -12.407  13.128  70.075  1.00  0.00    -0.262 OA 
BRANCH  12  13
HETATM   13  C   UNL     1     -12.181  11.797  70.364  1.00  0.00    -0.330 A  
HETATM   14  C   UNL     1     -12.788  11.140  71.451  1.00  0.00    -0.544 A  
HETATM   15  C   UNL     1     -12.489   9.815  71.755  1.00  0.00    -0.485 A  
HETATM   16  C   UNL     1     -11.587   9.121  70.969  1.00  0.00    -0.370 A  
HETATM   17  C   UNL     1     -10.995   9.749  69.871  1.00  0.00    -0.299 A  
HETATM   18  C   UNL     1     -11.283  11.090  69.533  1.00  0.00    -0.343 A  
BRANCH  18  19
HETATM   19  C   UNL     1     -10.584  11.754  68.356  1.00  0.00    -0.239 C  
HETATM   20  C   UNL     1      -9.123  11.350  68.088  1.00  0.00    -0.174 C  
HETATM   21  C   UNL     1      -8.853  11.920  66.707  1.00  0.00    -0.193 C  
HETATM   22  C   UNL     1     -10.121  11.572  65.941  1.00  0.00    -0.271 C  
HETATM   23  C   UNL     1     -11.249  11.533  66.982  1.00  0.00    -0.365 C  
ENDBRANCH  18  19
ENDBRANCH  12  13
ENDBRANCH  11  12
ENDBRANCH   8  11
ENDBRANCH   7   8
ENDBRANCH   5   7
TORSDOF 6
ENDMDL
MODEL       48
REMARK 921   NORMALIZED FREE ENERGY PREDICTED BY IDOCK:   -5.40 KCAL/MOL
REMARK 922        TOTAL FREE ENERGY PREDICTED BY IDOCK:   -8.32 KCAL/MOL
REMARK 923 INTER-LIGAND FREE ENERGY PREDICTED BY IDOCK:   -7.94 KCAL/MOL
REMARK 924 INTRA-LIGAND FREE ENERGY PREDICTED BY IDOCK:   -0.38 KCAL/MOL
REMARK 927      BINDING AFFINITY PREDICTED BY RF-SCORE:    0.00 PKD
ROOT
HETATM    1  C   UNL     1     -12.687  13.797  65.702  1.00  0.00    -0.523 C  
HETATM    2  C   UNL     1     -11.589  14.069  64.660  1.00  0.00    -0.392 C  
HETATM    3  C   UNL     1     -11.712  15.537  64.206  1.00  0.00    -0.194 C  
HETATM    4  C   UNL     1     -11.796  13.168  63.430  1.00  0.00    -0.490 C  
HETATM    5  N   UNL     1     -10.229  13.910  65.208  1.00  0.00    -0.423 NA 
HETATM    6  H   UNL     1     -10.048  14.630  65.907  1.00  0.00     0.000 HD 
ENDROOT
BRANCH   5   7
HETATM    7  C   UNL     1      -9.921  12.590  65.758  1.00  0.00    -0.259 C  
BRANCH   7   8
HETATM    8  C   UNL     1      -9.784  12.559  67.294  1.00  0.00    -0.202 C  
HETATM    9  O   UNL     1      -8.571  11.839  67.592  1.00  0.00    -0.142 OA 
HETATM   10  H   UNL     1      -8.487  11.820  68.537  1.00  0.00     0.000 HD 
BRANCH   8  11
HETATM   11  C   UNL     1     -10.944  11.862  68.013  1.00  0.00    -0.224 C  
BRANCH  11  12
HETATM   12  O   UNL     1     -11.263  12.425  69.292  1.00  0.00    -0.242 OA 
BRANCH  12  13
HETATM   13  C   UNL     1     -11.790  11.540  70.211  1.00  0.00    -0.342 A  
HETATM   14  C   UNL     1     -11.465  10.171  70.224  1.00  0.00    -0.381 A  
HETATM   15  C   UNL     1     -12.063   9.293  71.123  1.00  0.00    -0.389 A  
HETATM   16  C   UNL     1     -12.989   9.772  72.032  1.00  0.00    -0.515 A  
HETATM   17  C   UNL     1     -13.304  11.133  72.051  1.00  0.00    -0.384 A  
HETATM   18  C   UNL     1     -12.709  12.049  71.157  1.00  0.00    -0.365 A  
BRANCH  18  19
HETATM   19  C   UNL     1     -13.111  13.517  71.178  1.00  0.00    -0.285 C  
HETATM   20  C   UNL     1     -14.160  13.942  72.221  1.00  0.00    -0.632 C  
HETATM   21  C   UNL     1     -14.084  15.458  72.191  1.00  0.00    -0.651 C  
HETATM   22  C   UNL     1     -12.587  15.723  72.146  1.00  0.00    -0.528 C  
HETATM   23  C   UNL     1     -11.963  14.514  71.433  1.00  0.00    -0.382 C  
ENDBRANCH  18  19
ENDBRANCH  12  13
ENDBRANCH  11  12
ENDBRANCH   8  11
ENDBRANCH   7   8
ENDBRANCH   5   7
TORSDOF 6
ENDMDL
MODEL       49
REMARK 921   NORMALIZED FREE ENERGY PREDICTED BY IDOCK:   -5.37 KCAL/MOL
REMARK 922        TOTAL FREE ENERGY PREDICTED BY IDOCK:   -8.29 KCAL/MOL
REMARK 923 INTER-LIGAND FREE ENERGY PREDICTED BY IDOCK:   -7.16 KCAL/MOL
REMARK 924 INTRA-LIGAND FREE ENERGY PREDICTED BY IDOCK:   -1.13 KCAL/MOL
REMARK 927      BINDING AFFINITY PREDICTED BY RF-SCORE:    0.00 PKD
ROOT
HETATM    1  C   UNL     1      -9.951   8.654  71.503  1.00  0.00    -0.344 C  
HETATM    2  C   UNL     1     -11.293   8.571  70.757  1.00  0.00    -0.266 C  
HETATM    3  C   UNL     1     -12.318   9.437  71.516  1.00  0.00    -0.452 C  
HETATM    4  C   UNL     1     -11.802   7.118  70.754  1.00  0.00    -0.367 C  
HETATM    5  N   UNL     1     -11.221   9.108  69.386  1.00  0.00    -0.441 NA 
HETATM    6  H   UNL     1     -11.050  10.113  69.413  1.00  0.00     0.000 HD 
ENDROOT
BRANCH   5   7
HETATM    7  C   UNL     1     -10.249   8.460  68.505  1.00  0.00    -0.201 C  
BRANCH   7   8
HETATM    8  C   UNL     1     -10.521   8.662  67.001  1.00  0.00    -0.284 C  
HETATM    9  O   UNL     1      -9.927   7.542  66.314  1.00  0.00    -0.445 OA 
HETATM   10  H   UNL     1     -10.095   7.667  65.388  1.00  0.00     0.000 HD 
BRANCH   8  11
HETATM   11  C   UNL     1      -9.925   9.951  66.423  1.00  0.00    -0.244 C  
BRANCH  11  12
HETATM   12  O   UNL     1     -10.328  11.141  67.109  1.00  0.00    -0.197 OA 
BRANCH  12  13
HETATM   13  C   UNL     1     -11.108  12.011  66.374  1.00  0.00    -0.318 A  
HETATM   14  C   UNL     1     -11.366  11.829  65.002  1.00  0.00    -0.288 A  
HETATM   15  C   UNL     1     -12.103  12.758  64.274  1.00  0.00    -0.497 A  
HETATM   16  C   UNL     1     -12.605  13.881  64.909  1.00  0.00    -0.380 A  
HETATM   17  C   UNL     1     -12.382  14.064  66.275  1.00  0.00    -0.482 A  
HETATM   18  C   UNL     1     -11.644  13.135  67.042  1.00  0.00    -0.408 A  
BRANCH  18  19
HETATM   19  C   UNL     1     -11.383  13.392  68.519  1.00  0.00    -0.324 C  
HETATM   20  C   UNL     1     -11.547  14.839  69.020  1.00  0.00    -0.324 C  
HETATM   21  C   UNL     1     -11.542  14.686  70.530  1.00  0.00    -0.319 C  
HETATM   22  C   UNL     1     -12.426  13.468  70.752  1.00  0.00    -0.428 C  
HETATM   23  C   UNL     1     -12.274  12.598  69.495  1.00  0.00    -0.149 C  
ENDBRANCH  18  19
ENDBRANCH  12  13
ENDBRANCH  11  12
ENDBRANCH   8  11
ENDBRANCH   7   8
ENDBRANCH   5   7
TORSDOF 6
ENDMDL
MODEL       50
REMARK 921   NORMALIZED FREE ENERGY PREDICTED BY IDOCK:   -5.33 KCAL/MOL
REMARK 922        TOTAL FREE ENERGY PREDICTED BY IDOCK:   -8.23 KCAL/MOL
REMARK 923 INTER-LIGAND FREE ENERGY PREDICTED BY IDOCK:   -7.58 KCAL/MOL
REMARK 924 INTRA-LIGAND FREE ENERGY PREDICTED BY IDOCK:   -0.65 KCAL/MOL
REMARK 927      BINDING AFFINITY PREDICTED BY RF-SCORE:    0.00 PKD
ROOT
HETATM    1  C   UNL     1     -10.382  12.452  64.138  1.00  0.00    -0.409 C  
HETATM    2  C   UNL     1     -11.851  12.778  64.457  1.00  0.00    -0.379 C  
HETATM    3  C   UNL     1     -12.741  11.990  63.477  1.00  0.00    -0.567 C  
HETATM    4  C   UNL     1     -12.113  14.279  64.243  1.00  0.00    -0.467 C  
HETATM    5  N   UNL     1     -12.247  12.362  65.815  1.00  0.00    -0.638 NA 
HETATM    6  H   UNL     1     -12.231  11.345  65.887  1.00  0.00     0.000 HD 
ENDROOT
BRANCH   5   7
HETATM    7  C   UNL     1     -11.474  12.952  66.907  1.00  0.00    -0.341 C  
BRANCH   7   8
HETATM    8  C   UNL     1     -11.778  12.354  68.296  1.00  0.00    -0.345 C  
HETATM    9  O   UNL     1     -10.921  13.030  69.239  1.00  0.00    -0.400 OA 
HETATM   10  H   UNL     1     -11.108  12.661  70.094  1.00  0.00     0.000 HD 
BRANCH   8  11
HETATM   11  C   UNL     1     -11.513  10.848  68.402  1.00  0.00    -0.304 C  
BRANCH  11  12
HETATM   12  O   UNL     1     -10.929  10.443  69.645  1.00  0.00    -0.239 OA 
BRANCH  12  13
HETATM   13  C   UNL     1     -11.810   9.910  70.565  1.00  0.00    -0.270 A  
HETATM   14  C   UNL     1     -12.784  10.684  71.224  1.00  0.00    -0.537 A  
HETATM   15  C   UNL     1     -13.614  10.130  72.194  1.00  0.00    -0.295 A  
HETATM   16  C   UNL     1     -13.493   8.789  72.512  1.00  0.00    -0.406 A  
HETATM   17  C   UNL     1     -12.551   8.000  71.849  1.00  0.00    -0.359 A  
HETATM   18  C   UNL     1     -11.699   8.531  70.856  1.00  0.00    -0.274 A  
BRANCH  18  19
HETATM   19  C   UNL     1     -10.653   7.651  70.187  1.00  0.00    -0.239 C  
HETATM   20  C   UNL     1      -9.423   7.260  71.026  1.00  0.00    -0.158 C  
HETATM   21  C   UNL     1      -8.780   6.156  70.206  1.00  0.00    -0.145 C  
HETATM   22  C   UNL     1      -9.972   5.318  69.769  1.00  0.00    -0.306 C  
HETATM   23  C   UNL     1     -11.163   6.284  69.685  1.00  0.00    -0.506 C  
ENDBRANCH  18  19
ENDBRANCH  12  13
ENDBRANCH  11  12
ENDBRANCH   8  11
ENDBRANCH   7   8
ENDBRANCH   5   7
TORSDOF 6
ENDMDL
MODEL       51
REMARK 921   NORMALIZED FREE ENERGY PREDICTED BY IDOCK:   -5.33 KCAL/MOL
REMARK 922        TOTAL FREE ENERGY PREDICTED BY IDOCK:   -8.22 KCAL/MOL
REMARK 923 INTER-LIGAND FREE ENERGY PREDICTED BY IDOCK:   -7.43 KCAL/MOL
REMARK 924 INTRA-LIGAND FREE ENERGY PREDICTED BY IDOCK:   -0.79 KCAL/MOL
REMARK 927      BINDING AFFINITY PREDICTED BY RF-SCORE:    0.00 PKD
ROOT
HETATM    1  C   UNL     1      -6.246  17.240  69.508  1.00  0.00    -0.251 C  
HETATM    2  C   UNL     1      -7.084  16.051  69.007  1.00  0.00    -0.171 C  
HETATM    3  C   UNL     1      -6.697  14.810  69.834  1.00  0.00    -0.172 C  
HETATM    4  C   UNL     1      -6.759  15.765  67.530  1.00  0.00    -0.220 C  
HETATM    5  N   UNL     1      -8.532  16.251  69.199  1.00  0.00    -0.245 NA 
HETATM    6  H   UNL     1      -8.753  16.268  70.195  1.00  0.00     0.000 HD 
ENDROOT
BRANCH   5   7
HETATM    7  C   UNL     1      -9.100  17.429  68.542  1.00  0.00    -0.273 C  
BRANCH   7   8
HETATM    8  C   UNL     1     -10.331  17.133  67.662  1.00  0.00    -0.344 C  
HETATM    9  O   UNL     1     -10.991  18.394  67.429  1.00  0.00    -0.351 OA 
HETATM   10  H   UNL     1     -11.750  18.211  66.887  1.00  0.00     0.000 HD 
BRANCH   8  11
HETATM   11  C   UNL     1     -11.342  16.173  68.300  1.00  0.00    -0.316 C  
BRANCH  11  12
HETATM   12  O   UNL     1     -11.712  15.072  67.462  1.00  0.00    -0.343 OA 
BRANCH  12  13
HETATM   13  C   UNL     1     -11.790  13.848  68.097  1.00  0.00    -0.372 A  
HETATM   14  C   UNL     1     -11.986  13.721  69.485  1.00  0.00    -0.399 A  
HETATM   15  C   UNL     1     -11.995  12.474  70.103  1.00  0.00    -0.377 A  
HETATM   16  C   UNL     1     -11.821  11.332  69.342  1.00  0.00    -0.424 A  
HETATM   17  C   UNL     1     -11.652  11.439  67.960  1.00  0.00    -0.357 A  
HETATM   18  C   UNL     1     -11.645  12.688  67.302  1.00  0.00    -0.428 A  
BRANCH  18  19
HETATM   19  C   UNL     1     -11.413  12.766  65.801  1.00  0.00    -0.388 C  
HETATM   20  C   UNL     1     -10.731  11.559  65.132  1.00  0.00    -0.348 C  
HETATM   21  C   UNL     1     -10.949  11.814  63.652  1.00  0.00    -0.513 C  
HETATM   22  C   UNL     1     -12.398  12.274  63.595  1.00  0.00    -0.664 C  
HETATM   23  C   UNL     1     -12.682  12.949  64.944  1.00  0.00    -0.474 C  
ENDBRANCH  18  19
ENDBRANCH  12  13
ENDBRANCH  11  12
ENDBRANCH   8  11
ENDBRANCH   7   8
ENDBRANCH   5   7
TORSDOF 6
ENDMDL
MODEL       52
REMARK 921   NORMALIZED FREE ENERGY PREDICTED BY IDOCK:   -5.33 KCAL/MOL
REMARK 922        TOTAL FREE ENERGY PREDICTED BY IDOCK:   -8.22 KCAL/MOL
REMARK 923 INTER-LIGAND FREE ENERGY PREDICTED BY IDOCK:   -7.39 KCAL/MOL
REMARK 924 INTRA-LIGAND FREE ENERGY PREDICTED BY IDOCK:   -0.83 KCAL/MOL
REMARK 927      BINDING AFFINITY PREDICTED BY RF-SCORE:    0.00 PKD
ROOT
HETATM    1  C   UNL     1      -8.887  17.860  66.635  1.00  0.00    -0.285 C  
HETATM    2  C   UNL     1      -9.576  18.776  67.662  1.00  0.00    -0.307 C  
HETATM    3  C   UNL     1     -10.077  20.032  66.923  1.00  0.00    -0.601 C  
HETATM    4  C   UNL     1      -8.562  19.220  68.731  1.00  0.00    -0.375 C  
HETATM    5  N   UNL     1     -10.759  18.152  68.282  1.00  0.00    -0.294 NA 
HETATM    6  H   UNL     1     -11.490  18.021  67.584  1.00  0.00     0.000 HD 
ENDROOT
BRANCH   5   7
HETATM    7  C   UNL     1     -10.512  16.896  68.990  1.00  0.00    -0.341 C  
BRANCH   7   8
HETATM    8  C   UNL     1     -11.520  15.775  68.664  1.00  0.00    -0.386 C  
HETATM    9  O   UNL     1     -11.269  14.703  69.596  1.00  0.00    -0.260 OA 
HETATM   10  H   UNL     1     -11.890  14.013  69.395  1.00  0.00     0.000 HD 
BRANCH   8  11
HETATM   11  C   UNL     1     -11.397  15.214  67.243  1.00  0.00    -0.303 C  
BRANCH  11  12
HETATM   12  O   UNL     1     -12.278  14.119  66.969  1.00  0.00    -0.432 OA 
BRANCH  12  13
HETATM   13  C   UNL     1     -11.976  13.387  65.838  1.00  0.00    -0.409 A  
HETATM   14  C   UNL     1     -12.304  13.820  64.539  1.00  0.00    -0.399 A  
HETATM   15  C   UNL     1     -12.044  13.030  63.424  1.00  0.00    -0.591 A  
HETATM   16  C   UNL     1     -11.439  11.796  63.588  1.00  0.00    -0.524 A  
HETATM   17  C   UNL     1     -11.081  11.362  64.866  1.00  0.00    -0.235 A  
HETATM   18  C   UNL     1     -11.327  12.144  66.016  1.00  0.00    -0.410 A  
BRANCH  18  19
HETATM   19  C   UNL     1     -10.964  11.618  67.397  1.00  0.00    -0.313 C  
HETATM   20  C   UNL     1     -11.007  10.092  67.600  1.00  0.00    -0.331 C  
HETATM   21  C   UNL     1     -10.298   9.899  68.928  1.00  0.00    -0.221 C  
HETATM   22  C   UNL     1      -9.106  10.837  68.818  1.00  0.00    -0.180 C  
HETATM   23  C   UNL     1      -9.550  11.981  67.893  1.00  0.00    -0.196 C  
ENDBRANCH  18  19
ENDBRANCH  12  13
ENDBRANCH  11  12
ENDBRANCH   8  11
ENDBRANCH   7   8
ENDBRANCH   5   7
TORSDOF 6
ENDMDL
MODEL       53
REMARK 921   NORMALIZED FREE ENERGY PREDICTED BY IDOCK:   -5.32 KCAL/MOL
REMARK 922        TOTAL FREE ENERGY PREDICTED BY IDOCK:   -8.22 KCAL/MOL
REMARK 923 INTER-LIGAND FREE ENERGY PREDICTED BY IDOCK:   -6.63 KCAL/MOL
REMARK 924 INTRA-LIGAND FREE ENERGY PREDICTED BY IDOCK:   -1.59 KCAL/MOL
REMARK 927      BINDING AFFINITY PREDICTED BY RF-SCORE:    0.00 PKD
ROOT
HETATM    1  C   UNL     1      -7.743   9.034  63.846  1.00  0.00    -0.125 C  
HETATM    2  C   UNL     1      -8.852   9.771  64.618  1.00  0.00    -0.212 C  
HETATM    3  C   UNL     1      -9.715  10.539  63.598  1.00  0.00    -0.375 C  
HETATM    4  C   UNL     1      -8.228  10.792  65.585  1.00  0.00    -0.127 C  
HETATM    5  N   UNL     1      -9.759   8.853  65.331  1.00  0.00    -0.420 NA 
HETATM    6  H   UNL     1     -10.293   8.299  64.661  1.00  0.00     0.000 HD 
ENDROOT
BRANCH   5   7
HETATM    7  C   UNL     1      -9.124   7.975  66.313  1.00  0.00    -0.186 C  
BRANCH   7   8
HETATM    8  C   UNL     1      -9.896   7.843  67.641  1.00  0.00    -0.165 C  
HETATM    9  O   UNL     1     -11.225   7.389  67.309  1.00  0.00    -0.554 OA 
HETATM   10  H   UNL     1     -11.700   7.308  68.127  1.00  0.00     0.000 HD 
BRANCH   8  11
HETATM   11  C   UNL     1     -10.020   9.153  68.427  1.00  0.00    -0.181 C  
BRANCH  11  12
HETATM   12  O   UNL     1     -10.974  10.073  67.885  1.00  0.00    -0.274 OA 
BRANCH  12  13
HETATM   13  C   UNL     1     -11.430  11.037  68.762  1.00  0.00    -0.305 A  
HETATM   14  C   UNL     1     -11.873  10.734  70.064  1.00  0.00    -0.424 A  
HETATM   15  C   UNL     1     -12.388  11.719  70.901  1.00  0.00    -0.420 A  
HETATM   16  C   UNL     1     -12.456  13.027  70.455  1.00  0.00    -0.306 A  
HETATM   17  C   UNL     1     -11.996  13.350  69.177  1.00  0.00    -0.363 A  
HETATM   18  C   UNL     1     -11.463  12.374  68.307  1.00  0.00    -0.360 A  
BRANCH  18  19
HETATM   19  C   UNL     1     -11.013  12.757  66.905  1.00  0.00    -0.291 C  
HETATM   20  C   UNL     1     -12.106  12.890  65.829  1.00  0.00    -0.513 C  
HETATM   21  C   UNL     1     -11.385  13.579  64.685  1.00  0.00    -0.375 C  
HETATM   22  C   UNL     1     -10.572  14.653  65.391  1.00  0.00    -0.390 C  
HETATM   23  C   UNL     1     -10.269  14.103  66.793  1.00  0.00    -0.262 C  
ENDBRANCH  18  19
ENDBRANCH  12  13
ENDBRANCH  11  12
ENDBRANCH   8  11
ENDBRANCH   7   8
ENDBRANCH   5   7
TORSDOF 6
ENDMDL
MODEL       54
REMARK 921   NORMALIZED FREE ENERGY PREDICTED BY IDOCK:   -5.32 KCAL/MOL
REMARK 922        TOTAL FREE ENERGY PREDICTED BY IDOCK:   -8.22 KCAL/MOL
REMARK 923 INTER-LIGAND FREE ENERGY PREDICTED BY IDOCK:   -7.11 KCAL/MOL
REMARK 924 INTRA-LIGAND FREE ENERGY PREDICTED BY IDOCK:   -1.11 KCAL/MOL
REMARK 927      BINDING AFFINITY PREDICTED BY RF-SCORE:    0.00 PKD
ROOT
HETATM    1  C   UNL     1      -9.214   7.309  70.279  1.00  0.00    -0.155 C  
HETATM    2  C   UNL     1     -10.533   7.560  69.529  1.00  0.00    -0.226 C  
HETATM    3  C   UNL     1     -11.342   6.248  69.532  1.00  0.00    -0.475 C  
HETATM    4  C   UNL     1     -10.241   7.940  68.067  1.00  0.00    -0.256 C  
HETATM    5  N   UNL     1     -11.377   8.577  70.181  1.00  0.00    -0.438 NA 
HETATM    6  H   UNL     1     -11.703   8.233  71.084  1.00  0.00     0.000 HD 
ENDROOT
BRANCH   5   7
HETATM    7  C   UNL     1     -10.767   9.897  70.340  1.00  0.00    -0.318 C  
BRANCH   7   8
HETATM    8  C   UNL     1     -11.658  11.068  69.882  1.00  0.00    -0.337 C  
HETATM    9  O   UNL     1     -12.947  10.510  69.553  1.00  0.00    -0.602 OA 
HETATM   10  H   UNL     1     -13.496  11.232  69.271  1.00  0.00     0.000 HD 
BRANCH   8  11
HETATM   11  C   UNL     1     -11.131  11.815  68.652  1.00  0.00    -0.238 C  
BRANCH  11  12
HETATM   12  O   UNL     1     -11.598  11.288  67.404  1.00  0.00    -0.519 OA 
BRANCH  12  13
HETATM   13  C   UNL     1     -11.654  12.196  66.365  1.00  0.00    -0.364 A  
HETATM   14  C   UNL     1     -12.458  13.351  66.405  1.00  0.00    -0.297 A  
HETATM   15  C   UNL     1     -12.543  14.211  65.315  1.00  0.00    -0.460 A  
HETATM   16  C   UNL     1     -11.816  13.938  64.170  1.00  0.00    -0.417 A  
HETATM   17  C   UNL     1     -10.993  12.812  64.123  1.00  0.00    -0.435 A  
HETATM   18  C   UNL     1     -10.880  11.923  65.214  1.00  0.00    -0.347 A  
BRANCH  18  19
HETATM   19  C   UNL     1     -10.007  10.681  65.109  1.00  0.00    -0.366 C  
HETATM   20  C   UNL     1      -9.577  10.243  63.697  1.00  0.00    -0.334 C  
HETATM   21  C   UNL     1      -8.491   9.218  63.967  1.00  0.00    -0.202 C  
HETATM   22  C   UNL     1      -7.681   9.865  65.080  1.00  0.00    -0.131 C  
HETATM   23  C   UNL     1      -8.663  10.751  65.861  1.00  0.00    -0.189 C  
ENDBRANCH  18  19
ENDBRANCH  12  13
ENDBRANCH  11  12
ENDBRANCH   8  11
ENDBRANCH   7   8
ENDBRANCH   5   7
TORSDOF 6
ENDMDL
MODEL       55
REMARK 921   NORMALIZED FREE ENERGY PREDICTED BY IDOCK:   -5.32 KCAL/MOL
REMARK 922        TOTAL FREE ENERGY PREDICTED BY IDOCK:   -8.21 KCAL/MOL
REMARK 923 INTER-LIGAND FREE ENERGY PREDICTED BY IDOCK:   -6.57 KCAL/MOL
REMARK 924 INTRA-LIGAND FREE ENERGY PREDICTED BY IDOCK:   -1.65 KCAL/MOL
REMARK 927      BINDING AFFINITY PREDICTED BY RF-SCORE:    0.00 PKD
ROOT
HETATM    1  C   UNL     1      -8.761   9.131  65.194  1.00  0.00    -0.228 C  
HETATM    2  C   UNL     1      -9.649  10.028  66.073  1.00  0.00    -0.222 C  
HETATM    3  C   UNL     1     -10.658  10.748  65.157  1.00  0.00    -0.239 C  
HETATM    4  C   UNL     1      -8.788  11.095  66.772  1.00  0.00    -0.162 C  
HETATM    5  N   UNL     1     -10.441   9.264  67.054  1.00  0.00    -0.250 NA 
HETATM    6  H   UNL     1     -11.128   8.684  66.571  1.00  0.00     0.000 HD 
ENDROOT
BRANCH   5   7
HETATM    7  C   UNL     1      -9.669   8.448  67.990  1.00  0.00    -0.158 C  
BRANCH   7   8
HETATM    8  C   UNL     1     -10.129   8.560  69.458  1.00  0.00    -0.200 C  
HETATM    9  O   UNL     1     -11.400   7.886  69.551  1.00  0.00    -0.442 OA 
HETATM   10  H   UNL     1     -11.683   7.955  70.455  1.00  0.00     0.000 HD 
BRANCH   8  11
HETATM   11  C   UNL     1     -10.313  10.000  69.950  1.00  0.00    -0.272 C  
BRANCH  11  12
HETATM   12  O   UNL     1     -11.446  10.670  69.386  1.00  0.00    -0.250 OA 
BRANCH  12  13
HETATM   13  C   UNL     1     -12.000  11.659  70.175  1.00  0.00    -0.359 A  
HETATM   14  C   UNL     1     -12.692  11.382  71.370  1.00  0.00    -0.489 A  
HETATM   15  C   UNL     1     -13.294  12.395  72.108  1.00  0.00    -0.508 A  
HETATM   16  C   UNL     1     -13.205  13.705  71.672  1.00  0.00    -0.447 A  
HETATM   17  C   UNL     1     -12.499  14.001  70.504  1.00  0.00    -0.429 A  
HETATM   18  C   UNL     1     -11.872  12.996  69.736  1.00  0.00    -0.381 A  
BRANCH  18  19
HETATM   19  C   UNL     1     -11.150  13.352  68.444  1.00  0.00    -0.301 C  
HETATM   20  C   UNL     1     -12.024  13.728  67.233  1.00  0.00    -0.436 C  
HETATM   21  C   UNL     1     -11.025  14.323  66.257  1.00  0.00    -0.317 C  
HETATM   22  C   UNL     1     -10.159  15.200  67.149  1.00  0.00    -0.239 C  
HETATM   23  C   UNL     1     -10.177  14.544  68.537  1.00  0.00    -0.240 C  
ENDBRANCH  18  19
ENDBRANCH  12  13
ENDBRANCH  11  12
ENDBRANCH   8  11
ENDBRANCH   7   8
ENDBRANCH   5   7
TORSDOF 6
ENDMDL
MODEL       56
REMARK 921   NORMALIZED FREE ENERGY PREDICTED BY IDOCK:   -5.30 KCAL/MOL
REMARK 922        TOTAL FREE ENERGY PREDICTED BY IDOCK:   -8.19 KCAL/MOL
REMARK 923 INTER-LIGAND FREE ENERGY PREDICTED BY IDOCK:   -7.10 KCAL/MOL
REMARK 924 INTRA-LIGAND FREE ENERGY PREDICTED BY IDOCK:   -1.09 KCAL/MOL
REMARK 927      BINDING AFFINITY PREDICTED BY RF-SCORE:    0.00 PKD
ROOT
HETATM    1  C   UNL     1     -10.359   7.288  66.991  1.00  0.00    -0.376 C  
HETATM    2  C   UNL     1      -9.028   7.754  66.377  1.00  0.00    -0.163 C  
HETATM    3  C   UNL     1      -8.436   6.581  65.571  1.00  0.00    -0.139 C  
HETATM    4  C   UNL     1      -8.034   8.120  67.493  1.00  0.00    -0.122 C  
HETATM    5  N   UNL     1      -9.196   8.872  65.431  1.00  0.00    -0.393 NA 
HETATM    6  H   UNL     1      -9.716   8.561  64.611  1.00  0.00     0.000 HD 
ENDROOT
BRANCH   5   7
HETATM    7  C   UNL     1      -9.809  10.079  65.984  1.00  0.00    -0.257 C  
BRANCH   7   8
HETATM    8  C   UNL     1     -10.505  10.974  64.938  1.00  0.00    -0.303 C  
HETATM    9  O   UNL     1      -9.485  11.411  64.017  1.00  0.00    -0.330 OA 
HETATM   10  H   UNL     1      -9.913  11.963  63.373  1.00  0.00     0.000 HD 
BRANCH   8  11
HETATM   11  C   UNL     1     -11.183  12.216  65.527  1.00  0.00    -0.334 C  
BRANCH  11  12
HETATM   12  O   UNL     1     -11.918  11.966  66.730  1.00  0.00    -0.613 OA 
BRANCH  12  13
HETATM   13  C   UNL     1     -11.866  12.973  67.673  1.00  0.00    -0.351 A  
HETATM   14  C   UNL     1     -11.830  14.338  67.329  1.00  0.00    -0.444 A  
HETATM   15  C   UNL     1     -11.713  15.327  68.302  1.00  0.00    -0.320 A  
HETATM   16  C   UNL     1     -11.641  14.968  69.636  1.00  0.00    -0.333 A  
HETATM   17  C   UNL     1     -11.702  13.620  69.997  1.00  0.00    -0.319 A  
HETATM   18  C   UNL     1     -11.828  12.595  69.034  1.00  0.00    -0.341 A  
BRANCH  18  19
HETATM   19  C   UNL     1     -11.846  11.135  69.463  1.00  0.00    -0.423 C  
HETATM   20  C   UNL     1     -10.489  10.414  69.559  1.00  0.00    -0.274 C  
HETATM   21  C   UNL     1     -10.826   9.135  70.303  1.00  0.00    -0.282 C  
HETATM   22  C   UNL     1     -11.757   9.617  71.405  1.00  0.00    -0.478 C  
HETATM   23  C   UNL     1     -12.468  10.860  70.847  1.00  0.00    -0.507 C  
ENDBRANCH  18  19
ENDBRANCH  12  13
ENDBRANCH  11  12
ENDBRANCH   8  11
ENDBRANCH   7   8
ENDBRANCH   5   7
TORSDOF 6
ENDMDL
MODEL       57
REMARK 921   NORMALIZED FREE ENERGY PREDICTED BY IDOCK:   -5.28 KCAL/MOL
REMARK 922        TOTAL FREE ENERGY PREDICTED BY IDOCK:   -8.16 KCAL/MOL
REMARK 923 INTER-LIGAND FREE ENERGY PREDICTED BY IDOCK:   -7.02 KCAL/MOL
REMARK 924 INTRA-LIGAND FREE ENERGY PREDICTED BY IDOCK:   -1.15 KCAL/MOL
REMARK 927      BINDING AFFINITY PREDICTED BY RF-SCORE:    0.00 PKD
ROOT
HETATM    1  C   UNL     1     -10.125  18.420  68.296  1.00  0.00    -0.410 C  
HETATM    2  C   UNL     1      -9.372  18.878  67.035  1.00  0.00    -0.303 C  
HETATM    3  C   UNL     1      -7.878  19.012  67.391  1.00  0.00    -0.263 C  
HETATM    4  C   UNL     1      -9.885  20.258  66.589  1.00  0.00    -0.562 C  
HETATM    5  N   UNL     1      -9.456  17.902  65.933  1.00  0.00    -0.520 NA 
HETATM    6  H   UNL     1      -8.959  17.048  66.184  1.00  0.00     0.000 HD 
ENDROOT
BRANCH   5   7
HETATM    7  C   UNL     1     -10.808  17.578  65.478  1.00  0.00     0.028 C  
BRANCH   7   8
HETATM    8  C   UNL     1     -10.973  16.138  64.953  1.00  0.00    -0.349 C  
HETATM    9  O   UNL     1     -11.737  16.222  63.733  1.00  0.00    -1.511 OA 
HETATM   10  H   UNL     1     -11.839  15.335  63.410  1.00  0.00     0.000 HD 
BRANCH   8  11
HETATM   11  C   UNL     1     -11.709  15.199  65.916  1.00  0.00    -0.007 C  
BRANCH  11  12
HETATM   12  O   UNL     1     -10.899  14.136  66.431  1.00  0.00    -0.299 OA 
BRANCH  12  13
HETATM   13  C   UNL     1      -9.856  14.531  67.245  1.00  0.00    -0.236 A  
HETATM   14  C   UNL     1      -8.531  14.651  66.783  1.00  0.00    -0.145 A  
HETATM   15  C   UNL     1      -7.492  14.988  67.645  1.00  0.00    -0.202 A  
HETATM   16  C   UNL     1      -7.761  15.223  68.981  1.00  0.00    -0.183 A  
HETATM   17  C   UNL     1      -9.073  15.136  69.451  1.00  0.00    -0.180 A  
HETATM   18  C   UNL     1     -10.150  14.802  68.601  1.00  0.00    -0.238 A  
BRANCH  18  19
HETATM   19  C   UNL     1     -11.559  14.672  69.159  1.00  0.00    -0.331 C  
HETATM   20  C   UNL     1     -11.826  13.505  70.127  1.00  0.00    -0.348 C  
HETATM   21  C   UNL     1     -13.176  13.853  70.727  1.00  0.00    -0.130 C  
HETATM   22  C   UNL     1     -13.053  15.344  71.003  1.00  0.00    -0.565 C  
HETATM   23  C   UNL     1     -12.070  15.889  69.956  1.00  0.00    -0.264 C  
ENDBRANCH  18  19
ENDBRANCH  12  13
ENDBRANCH  11  12
ENDBRANCH   8  11
ENDBRANCH   7   8
ENDBRANCH   5   7
TORSDOF 6
ENDMDL
MODEL       58
REMARK 921   NORMALIZED FREE ENERGY PREDICTED BY IDOCK:   -5.28 KCAL/MOL
REMARK 922        TOTAL FREE ENERGY PREDICTED BY IDOCK:   -8.16 KCAL/MOL
REMARK 923 INTER-LIGAND FREE ENERGY PREDICTED BY IDOCK:   -7.33 KCAL/MOL
REMARK 924 INTRA-LIGAND FREE ENERGY PREDICTED BY IDOCK:   -0.83 KCAL/MOL
REMARK 927      BINDING AFFINITY PREDICTED BY RF-SCORE:    0.00 PKD
ROOT
HETATM    1  C   UNL     1     -10.576  13.635  64.855  1.00  0.00    -0.421 C  
HETATM    2  C   UNL     1     -11.708  13.494  65.887  1.00  0.00    -0.352 C  
HETATM    3  C   UNL     1     -13.029  13.910  65.209  1.00  0.00    -0.341 C  
HETATM    4  C   UNL     1     -11.458  14.441  67.073  1.00  0.00    -0.376 C  
HETATM    5  N   UNL     1     -11.892  12.106  66.349  1.00  0.00    -0.607 NA 
HETATM    6  H   UNL     1     -12.225  11.523  65.581  1.00  0.00     0.000 HD 
ENDROOT
BRANCH   5   7
HETATM    7  C   UNL     1     -10.722  11.489  66.973  1.00  0.00    -0.259 C  
BRANCH   7   8
HETATM    8  C   UNL     1     -11.057  10.430  68.043  1.00  0.00    -0.298 C  
HETATM    9  O   UNL     1     -12.373  10.743  68.543  1.00  0.00    -0.825 OA 
HETATM   10  H   UNL     1     -12.580  10.091  69.202  1.00  0.00     0.000 HD 
BRANCH   8  11
HETATM   11  C   UNL     1     -10.087  10.408  69.230  1.00  0.00    -0.230 C  
BRANCH  11  12
HETATM   12  O   UNL     1      -9.707   9.092  69.649  1.00  0.00    -0.166 OA 
BRANCH  12  13
HETATM   13  C   UNL     1     -10.660   8.406  70.375  1.00  0.00    -0.223 A  
HETATM   14  C   UNL     1     -11.332   8.971  71.475  1.00  0.00    -0.416 A  
HETATM   15  C   UNL     1     -12.241   8.231  72.226  1.00  0.00    -0.428 A  
HETATM   16  C   UNL     1     -12.501   6.916  71.882  1.00  0.00    -0.350 A  
HETATM   17  C   UNL     1     -11.863   6.348  70.777  1.00  0.00    -0.319 A  
HETATM   18  C   UNL     1     -10.942   7.075  69.992  1.00  0.00    -0.303 A  
BRANCH  18  19
HETATM   19  C   UNL     1     -10.233   6.408  68.823  1.00  0.00    -0.206 C  
HETATM   20  C   UNL     1      -9.948   4.900  68.943  1.00  0.00    -0.220 C  
HETATM   21  C   UNL     1      -9.553   4.508  67.530  1.00  0.00    -0.211 C  
HETATM   22  C   UNL     1     -10.572   5.246  66.675  1.00  0.00    -0.334 C  
HETATM   23  C   UNL     1     -10.960   6.503  67.466  1.00  0.00    -0.444 C  
ENDBRANCH  18  19
ENDBRANCH  12  13
ENDBRANCH  11  12
ENDBRANCH   8  11
ENDBRANCH   7   8
ENDBRANCH   5   7
TORSDOF 6
ENDMDL
MODEL       59
REMARK 921   NORMALIZED FREE ENERGY PREDICTED BY IDOCK:   -5.26 KCAL/MOL
REMARK 922        TOTAL FREE ENERGY PREDICTED BY IDOCK:   -8.14 KCAL/MOL
REMARK 923 INTER-LIGAND FREE ENERGY PREDICTED BY IDOCK:   -7.49 KCAL/MOL
REMARK 924 INTRA-LIGAND FREE ENERGY PREDICTED BY IDOCK:   -0.65 KCAL/MOL
REMARK 927      BINDING AFFINITY PREDICTED BY RF-SCORE:    0.00 PKD
ROOT
HETATM    1  C   UNL     1      -8.723  19.190  68.869  1.00  0.00    -0.319 C  
HETATM    2  C   UNL     1      -9.452  18.403  67.766  1.00  0.00    -0.280 C  
HETATM    3  C   UNL     1      -8.504  18.284  66.556  1.00  0.00    -0.287 C  
HETATM    4  C   UNL     1     -10.708  19.170  67.317  1.00  0.00    -0.585 C  
HETATM    5  N   UNL     1      -9.790  17.027  68.173  1.00  0.00    -0.262 NA 
HETATM    6  H   UNL     1      -8.937  16.482  68.302  1.00  0.00     0.000 HD 
ENDROOT
BRANCH   5   7
HETATM    7  C   UNL     1     -10.641  16.911  69.357  1.00  0.00    -0.292 C  
BRANCH   7   8
HETATM    8  C   UNL     1     -11.732  15.826  69.251  1.00  0.00    -0.374 C  
HETATM    9  O   UNL     1     -12.681  16.082  70.306  1.00  0.00    -0.562 OA 
HETATM   10  H   UNL     1     -13.352  15.413  70.240  1.00  0.00     0.000 HD 
BRANCH   8  11
HETATM   11  C   UNL     1     -11.210  14.393  69.412  1.00  0.00    -0.281 C  
BRANCH  11  12
HETATM   12  O   UNL     1     -12.144  13.383  69.014  1.00  0.00    -0.325 OA 
BRANCH  12  13
HETATM   13  C   UNL     1     -11.648  12.429  68.148  1.00  0.00    -0.341 A  
HETATM   14  C   UNL     1     -11.443  12.678  66.777  1.00  0.00    -0.410 A  
HETATM   15  C   UNL     1     -11.003  11.676  65.918  1.00  0.00    -0.334 A  
HETATM   16  C   UNL     1     -10.750  10.411  66.416  1.00  0.00    -0.134 A  
HETATM   17  C   UNL     1     -10.922  10.153  67.777  1.00  0.00    -0.338 A  
HETATM   18  C   UNL     1     -11.361  11.150  68.676  1.00  0.00    -0.342 A  
BRANCH  18  19
HETATM   19  C   UNL     1     -11.581  10.820  70.145  1.00  0.00    -0.424 C  
HETATM   20  C   UNL     1     -13.009  10.435  70.572  1.00  0.00    -0.280 C  
HETATM   21  C   UNL     1     -12.814   9.868  71.966  1.00  0.00    -0.488 C  
HETATM   22  C   UNL     1     -11.573   9.002  71.811  1.00  0.00    -0.444 C  
HETATM   23  C   UNL     1     -10.742   9.647  70.692  1.00  0.00    -0.388 C  
ENDBRANCH  18  19
ENDBRANCH  12  13
ENDBRANCH  11  12
ENDBRANCH   8  11
ENDBRANCH   7   8
ENDBRANCH   5   7
TORSDOF 6
ENDMDL
MODEL       60
REMARK 921   NORMALIZED FREE ENERGY PREDICTED BY IDOCK:   -5.26 KCAL/MOL
REMARK 922        TOTAL FREE ENERGY PREDICTED BY IDOCK:   -8.13 KCAL/MOL
REMARK 923 INTER-LIGAND FREE ENERGY PREDICTED BY IDOCK:   -7.56 KCAL/MOL
REMARK 924 INTRA-LIGAND FREE ENERGY PREDICTED BY IDOCK:   -0.58 KCAL/MOL
REMARK 927      BINDING AFFINITY PREDICTED BY RF-SCORE:    0.00 PKD
ROOT
HETATM    1  C   UNL     1     -13.606   9.373  72.136  1.00  0.00    -0.528 C  
HETATM    2  C   UNL     1     -12.549   8.426  71.542  1.00  0.00    -0.308 C  
HETATM    3  C   UNL     1     -13.257   7.123  71.120  1.00  0.00    -0.265 C  
HETATM    4  C   UNL     1     -11.498   8.076  72.611  1.00  0.00    -0.465 C  
HETATM    5  N   UNL     1     -11.910   8.969  70.331  1.00  0.00    -0.468 NA 
HETATM    6  H   UNL     1     -12.592   9.034  69.575  1.00  0.00     0.000 HD 
ENDROOT
BRANCH   5   7
HETATM    7  C   UNL     1     -11.228  10.252  70.498  1.00  0.00    -0.330 C  
BRANCH   7   8
HETATM    8  C   UNL     1     -10.806  10.925  69.176  1.00  0.00    -0.235 C  
HETATM    9  O   UNL     1      -9.408  11.257  69.303  1.00  0.00    -0.405 OA 
HETATM   10  H   UNL     1      -9.149  11.671  68.488  1.00  0.00     0.000 HD 
BRANCH   8  11
HETATM   11  C   UNL     1     -11.577  12.210  68.853  1.00  0.00    -0.324 C  
BRANCH  11  12
HETATM   12  O   UNL     1     -10.818  13.178  68.119  1.00  0.00    -0.236 OA 
BRANCH  12  13
HETATM   13  C   UNL     1     -11.244  13.404  66.825  1.00  0.00    -0.310 A  
HETATM   14  C   UNL     1     -11.903  12.425  66.058  1.00  0.00    -0.459 A  
HETATM   15  C   UNL     1     -12.262  12.663  64.735  1.00  0.00    -0.528 A  
HETATM   16  C   UNL     1     -11.979  13.889  64.160  1.00  0.00    -0.464 A  
HETATM   17  C   UNL     1     -11.351  14.881  64.915  1.00  0.00    -0.415 A  
HETATM   18  C   UNL     1     -10.980  14.673  66.261  1.00  0.00    -0.327 A  
BRANCH  18  19
HETATM   19  C   UNL     1     -10.255  15.763  67.038  1.00  0.00    -0.280 C  
HETATM   20  C   UNL     1      -9.602  16.891  66.220  1.00  0.00    -0.300 C  
HETATM   21  C   UNL     1      -9.273  17.936  67.270  1.00  0.00    -0.254 C  
HETATM   22  C   UNL     1     -10.524  17.954  68.136  1.00  0.00    -0.380 C  
HETATM   23  C   UNL     1     -11.121  16.541  68.048  1.00  0.00    -0.275 C  
ENDBRANCH  18  19
ENDBRANCH  12  13
ENDBRANCH  11  12
ENDBRANCH   8  11
ENDBRANCH   7   8
ENDBRANCH   5   7
TORSDOF 6
ENDMDL
MODEL       61
REMARK 921   NORMALIZED FREE ENERGY PREDICTED BY IDOCK:   -5.21 KCAL/MOL
REMARK 922        TOTAL FREE ENERGY PREDICTED BY IDOCK:   -8.07 KCAL/MOL
REMARK 923 INTER-LIGAND FREE ENERGY PREDICTED BY IDOCK:   -7.34 KCAL/MOL
REMARK 924 INTRA-LIGAND FREE ENERGY PREDICTED BY IDOCK:   -0.73 KCAL/MOL
REMARK 927      BINDING AFFINITY PREDICTED BY RF-SCORE:    0.00 PKD
ROOT
HETATM    1  C   UNL     1     -11.417   6.242  69.924  1.00  0.00    -0.459 C  
HETATM    2  C   UNL     1     -11.638   6.799  71.340  1.00  0.00    -0.305 C  
HETATM    3  C   UNL     1     -11.238   5.707  72.352  1.00  0.00    -0.336 C  
HETATM    4  C   UNL     1     -13.127   7.125  71.550  1.00  0.00    -0.427 C  
HETATM    5  N   UNL     1     -10.795   7.973  71.632  1.00  0.00    -0.230 NA 
HETATM    6  H   UNL     1      -9.812   7.699  71.657  1.00  0.00     0.000 HD 
ENDROOT
BRANCH   5   7
HETATM    7  C   UNL     1     -10.972   9.115  70.736  1.00  0.00    -0.270 C  
BRANCH   7   8
HETATM    8  C   UNL     1      -9.679   9.579  70.034  1.00  0.00    -0.236 C  
HETATM    9  O   UNL     1      -8.701   9.806  71.068  1.00  0.00    -0.336 OA 
HETATM   10  H   UNL     1      -7.905  10.092  70.636  1.00  0.00     0.000 HD 
BRANCH   8  11
HETATM   11  C   UNL     1      -9.833  10.872  69.226  1.00  0.00    -0.090 C  
BRANCH  11  12
HETATM   12  O   UNL     1     -11.067  11.563  69.458  1.00  0.00    -0.244 OA 
BRANCH  12  13
HETATM   13  C   UNL     1     -11.479  12.393  68.434  1.00  0.00    -0.310 A  
HETATM   14  C   UNL     1     -11.533  11.977  67.090  1.00  0.00    -0.401 A  
HETATM   15  C   UNL     1     -11.891  12.857  66.074  1.00  0.00    -0.485 A  
HETATM   16  C   UNL     1     -12.213  14.166  66.385  1.00  0.00    -0.473 A  
HETATM   17  C   UNL     1     -12.191  14.589  67.716  1.00  0.00    -0.148 A  
HETATM   18  C   UNL     1     -11.838  13.718  68.770  1.00  0.00    -0.398 A  
BRANCH  18  19
HETATM   19  C   UNL     1     -11.782  14.227  70.203  1.00  0.00    -0.357 C  
HETATM   20  C   UNL     1     -11.315  15.679  70.414  1.00  0.00    -0.373 C  
HETATM   21  C   UNL     1     -11.682  15.955  71.861  1.00  0.00    -0.590 C  
HETATM   22  C   UNL     1     -13.071  15.347  71.982  1.00  0.00    -0.501 C  
HETATM   23  C   UNL     1     -13.119  14.192  70.971  1.00  0.00    -0.370 C  
ENDBRANCH  18  19
ENDBRANCH  12  13
ENDBRANCH  11  12
ENDBRANCH   8  11
ENDBRANCH   7   8
ENDBRANCH   5   7
TORSDOF 6
ENDMDL
MODEL       62
REMARK 921   NORMALIZED FREE ENERGY PREDICTED BY IDOCK:   -5.20 KCAL/MOL
REMARK 922        TOTAL FREE ENERGY PREDICTED BY IDOCK:   -8.05 KCAL/MOL
REMARK 923 INTER-LIGAND FREE ENERGY PREDICTED BY IDOCK:   -6.98 KCAL/MOL
REMARK 924 INTRA-LIGAND FREE ENERGY PREDICTED BY IDOCK:   -1.07 KCAL/MOL
REMARK 927      BINDING AFFINITY PREDICTED BY RF-SCORE:    0.00 PKD
ROOT
HETATM    1  C   UNL     1     -10.356  12.843  64.493  1.00  0.00    -0.380 C  
HETATM    2  C   UNL     1     -11.874  13.069  64.590  1.00  0.00    -0.372 C  
HETATM    3  C   UNL     1     -12.575  11.986  63.746  1.00  0.00    -0.567 C  
HETATM    4  C   UNL     1     -12.239  14.444  64.005  1.00  0.00    -0.300 C  
HETATM    5  N   UNL     1     -12.387  12.928  65.966  1.00  0.00    -0.534 NA 
HETATM    6  H   UNL     1     -12.291  11.961  66.276  1.00  0.00     0.000 HD 
ENDROOT
BRANCH   5   7
HETATM    7  C   UNL     1     -11.798  13.831  66.954  1.00  0.00    -0.413 C  
BRANCH   7   8
HETATM    8  C   UNL     1     -12.036  13.412  68.419  1.00  0.00    -0.324 C  
HETATM    9  O   UNL     1     -11.634  14.524  69.243  1.00  0.00    -0.267 OA 
HETATM   10  H   UNL     1     -11.780  14.265  70.145  1.00  0.00     0.000 HD 
BRANCH   8  11
HETATM   11  C   UNL     1     -11.237  12.178  68.856  1.00  0.00    -0.269 C  
BRANCH  11  12
HETATM   12  O   UNL     1     -11.787  10.935  68.404  1.00  0.00    -0.498 OA 
BRANCH  12  13
HETATM   13  C   UNL     1     -10.866  10.013  67.948  1.00  0.00    -0.271 A  
HETATM   14  C   UNL     1     -10.463   9.941  66.601  1.00  0.00    -0.239 A  
HETATM   15  C   UNL     1      -9.581   8.959  66.161  1.00  0.00    -0.335 A  
HETATM   16  C   UNL     1      -9.078   8.038  67.063  1.00  0.00    -0.170 A  
HETATM   17  C   UNL     1      -9.446   8.111  68.408  1.00  0.00    -0.146 A  
HETATM   18  C   UNL     1     -10.333   9.101  68.886  1.00  0.00    -0.232 A  
BRANCH  18  19
HETATM   19  C   UNL     1     -10.746   9.120  70.351  1.00  0.00    -0.282 C  
HETATM   20  C   UNL     1     -11.755   8.052  70.810  1.00  0.00    -0.215 C  
HETATM   21  C   UNL     1     -11.692   8.144  72.324  1.00  0.00    -0.439 C  
HETATM   22  C   UNL     1     -10.200   8.262  72.597  1.00  0.00    -0.368 C  
HETATM   23  C   UNL     1      -9.597   8.953  71.364  1.00  0.00    -0.359 C  
ENDBRANCH  18  19
ENDBRANCH  12  13
ENDBRANCH  11  12
ENDBRANCH   8  11
ENDBRANCH   7   8
ENDBRANCH   5   7
TORSDOF 6
ENDMDL
MODEL       63
REMARK 921   NORMALIZED FREE ENERGY PREDICTED BY IDOCK:   -5.18 KCAL/MOL
REMARK 922        TOTAL FREE ENERGY PREDICTED BY IDOCK:   -8.03 KCAL/MOL
REMARK 923 INTER-LIGAND FREE ENERGY PREDICTED BY IDOCK:   -6.57 KCAL/MOL
REMARK 924 INTRA-LIGAND FREE ENERGY PREDICTED BY IDOCK:   -1.46 KCAL/MOL
REMARK 927      BINDING AFFINITY PREDICTED BY RF-SCORE:    0.00 PKD
ROOT
HETATM    1  C   UNL     1      -7.912  16.681  68.628  1.00  0.00    -0.236 C  
HETATM    2  C   UNL     1      -7.449  16.049  67.303  1.00  0.00    -0.201 C  
HETATM    3  C   UNL     1      -6.549  17.067  66.576  1.00  0.00    -0.254 C  
HETATM    4  C   UNL     1      -8.666  15.758  66.407  1.00  0.00    -0.372 C  
HETATM    5  N   UNL     1      -6.637  14.835  67.501  1.00  0.00    -0.275 NA 
HETATM    6  H   UNL     1      -5.751  15.076  67.948  1.00  0.00     0.000 HD 
ENDROOT
BRANCH   5   7
HETATM    7  C   UNL     1      -7.289  13.753  68.238  1.00  0.00    -0.118 C  
BRANCH   7   8
HETATM    8  C   UNL     1      -7.067  12.351  67.636  1.00  0.00    -0.133 C  
HETATM    9  O   UNL     1      -6.056  12.488  66.616  1.00  0.00    -0.463 OA 
HETATM   10  H   UNL     1      -5.920  11.625  66.245  1.00  0.00     0.000 HD 
BRANCH   8  11
HETATM   11  C   UNL     1      -8.317  11.740  66.992  1.00  0.00    -0.172 C  
BRANCH  11  12
HETATM   12  O   UNL     1      -9.544  12.106  67.633  1.00  0.00    -0.182 OA 
BRANCH  12  13
HETATM   13  C   UNL     1     -10.543  12.547  66.788  1.00  0.00    -0.233 A  
HETATM   14  C   UNL     1     -10.701  12.061  65.476  1.00  0.00    -0.318 A  
HETATM   15  C   UNL     1     -11.678  12.572  64.628  1.00  0.00    -0.416 A  
HETATM   16  C   UNL     1     -12.522  13.570  65.081  1.00  0.00    -0.495 A  
HETATM   17  C   UNL     1     -12.398  14.045  66.388  1.00  0.00    -0.468 A  
HETATM   18  C   UNL     1     -11.421  13.542  67.275  1.00  0.00    -0.369 A  
BRANCH  18  19
HETATM   19  C   UNL     1     -11.286  14.116  68.678  1.00  0.00    -0.306 C  
HETATM   20  C   UNL     1     -11.733  15.575  68.885  1.00  0.00    -0.385 C  
HETATM   21  C   UNL     1     -11.777  15.713  70.396  1.00  0.00    -0.379 C  
HETATM   22  C   UNL     1     -12.437  14.415  70.838  1.00  0.00    -0.424 C  
HETATM   23  C   UNL     1     -12.068  13.368  69.777  1.00  0.00    -0.374 C  
ENDBRANCH  18  19
ENDBRANCH  12  13
ENDBRANCH  11  12
ENDBRANCH   8  11
ENDBRANCH   7   8
ENDBRANCH   5   7
TORSDOF 6
ENDMDL
MODEL       64
REMARK 921   NORMALIZED FREE ENERGY PREDICTED BY IDOCK:   -5.18 KCAL/MOL
REMARK 922        TOTAL FREE ENERGY PREDICTED BY IDOCK:   -8.02 KCAL/MOL
REMARK 923 INTER-LIGAND FREE ENERGY PREDICTED BY IDOCK:   -7.23 KCAL/MOL
REMARK 924 INTRA-LIGAND FREE ENERGY PREDICTED BY IDOCK:   -0.79 KCAL/MOL
REMARK 927      BINDING AFFINITY PREDICTED BY RF-SCORE:    0.00 PKD
ROOT
HETATM    1  C   UNL     1     -10.382  17.882  66.601  1.00  0.00    -0.362 C  
HETATM    2  C   UNL     1      -9.705  18.443  67.863  1.00  0.00    -0.308 C  
HETATM    3  C   UNL     1      -9.972  19.960  67.915  1.00  0.00    -0.552 C  
HETATM    4  C   UNL     1      -8.183  18.226  67.783  1.00  0.00    -0.253 C  
HETATM    5  N   UNL     1     -10.255  17.875  69.107  1.00  0.00    -0.373 NA 
HETATM    6  H   UNL     1     -11.223  18.174  69.229  1.00  0.00     0.000 HD 
ENDROOT
BRANCH   5   7
HETATM    7  C   UNL     1     -10.161  16.421  69.233  1.00  0.00    -0.278 C  
BRANCH   7   8
HETATM    8  C   UNL     1     -11.417  15.753  69.828  1.00  0.00    -0.349 C  
HETATM    9  O   UNL     1     -10.959  14.792  70.801  1.00  0.00    -0.505 OA 
HETATM   10  H   UNL     1     -11.732  14.380  71.167  1.00  0.00     0.000 HD 
BRANCH   8  11
HETATM   11  C   UNL     1     -12.284  15.018  68.799  1.00  0.00    -0.082 C  
BRANCH  11  12
HETATM   12  O   UNL     1     -12.319  13.596  68.973  1.00  0.00    -0.280 OA 
BRANCH  12  13
HETATM   13  C   UNL     1     -11.808  12.861  67.922  1.00  0.00    -0.339 A  
HETATM   14  C   UNL     1     -11.843  13.312  66.589  1.00  0.00    -0.447 A  
HETATM   15  C   UNL     1     -11.378  12.518  65.544  1.00  0.00    -0.368 A  
HETATM   16  C   UNL     1     -10.860  11.265  65.817  1.00  0.00    -0.257 A  
HETATM   17  C   UNL     1     -10.794  10.812  67.136  1.00  0.00    -0.335 A  
HETATM   18  C   UNL     1     -11.250  11.596  68.218  1.00  0.00    -0.320 A  
BRANCH  18  19
HETATM   19  C   UNL     1     -11.203  11.051  69.638  1.00  0.00    -0.345 C  
HETATM   20  C   UNL     1     -12.513  10.486  70.217  1.00  0.00    -0.345 C  
HETATM   21  C   UNL     1     -12.054   9.754  71.465  1.00  0.00    -0.493 C  
HETATM   22  C   UNL     1     -10.801   9.032  70.994  1.00  0.00    -0.345 C  
HETATM   23  C   UNL     1     -10.210   9.894  69.869  1.00  0.00    -0.298 C  
ENDBRANCH  18  19
ENDBRANCH  12  13
ENDBRANCH  11  12
ENDBRANCH   8  11
ENDBRANCH   7   8
ENDBRANCH   5   7
TORSDOF 6
ENDMDL
MODEL       65
REMARK 921   NORMALIZED FREE ENERGY PREDICTED BY IDOCK:   -5.16 KCAL/MOL
REMARK 922        TOTAL FREE ENERGY PREDICTED BY IDOCK:   -8.00 KCAL/MOL
REMARK 923 INTER-LIGAND FREE ENERGY PREDICTED BY IDOCK:   -7.10 KCAL/MOL
REMARK 924 INTRA-LIGAND FREE ENERGY PREDICTED BY IDOCK:   -0.90 KCAL/MOL
REMARK 927      BINDING AFFINITY PREDICTED BY RF-SCORE:    0.00 PKD
ROOT
HETATM    1  C   UNL     1     -11.884  12.651  70.106  1.00  0.00    -0.326 C  
HETATM    2  C   UNL     1     -11.897  11.153  69.753  1.00  0.00    -0.349 C  
HETATM    3  C   UNL     1     -13.004  10.475  70.584  1.00  0.00    -0.362 C  
HETATM    4  C   UNL     1     -10.551  10.513  70.134  1.00  0.00    -0.163 C  
HETATM    5  N   UNL     1     -12.219  10.902  68.337  1.00  0.00    -0.810 NA 
HETATM    6  H   UNL     1     -13.182  11.179  68.143  1.00  0.00     0.000 HD 
ENDROOT
BRANCH   5   7
HETATM    7  C   UNL     1     -11.317  11.520  67.365  1.00  0.00    -0.298 C  
BRANCH   7   8
HETATM    8  C   UNL     1     -11.890  12.776  66.677  1.00  0.00    -0.393 C  
HETATM    9  O   UNL     1     -12.428  12.350  65.409  1.00  0.00    -0.637 OA 
HETATM   10  H   UNL     1     -12.780  13.123  64.985  1.00  0.00     0.000 HD 
BRANCH   8  11
HETATM   11  C   UNL     1     -10.853  13.874  66.412  1.00  0.00    -0.291 C  
BRANCH  11  12
HETATM   12  O   UNL     1     -10.821  14.901  67.410  1.00  0.00    -0.289 OA 
BRANCH  12  13
HETATM   13  C   UNL     1      -9.606  15.071  68.043  1.00  0.00    -0.208 A  
HETATM   14  C   UNL     1      -8.806  13.990  68.460  1.00  0.00    -0.160 A  
HETATM   15  C   UNL     1      -7.617  14.195  69.154  1.00  0.00    -0.003 A  
HETATM   16  C   UNL     1      -7.202  15.485  69.432  1.00  0.00    -0.204 A  
HETATM   17  C   UNL     1      -7.970  16.569  69.003  1.00  0.00    -0.225 A  
HETATM   18  C   UNL     1      -9.177  16.395  68.291  1.00  0.00    -0.207 A  
BRANCH  18  19
HETATM   19  C   UNL     1     -10.009  17.600  67.880  1.00  0.00    -0.323 C  
HETATM   20  C   UNL     1      -9.754  18.919  68.632  1.00  0.00    -0.454 C  
HETATM   21  C   UNL     1     -10.478  19.948  67.783  1.00  0.00    -0.511 C  
HETATM   22  C   UNL     1     -10.106  19.543  66.365  1.00  0.00    -0.551 C  
HETATM   23  C   UNL     1      -9.872  18.025  66.404  1.00  0.00    -0.340 C  
ENDBRANCH  18  19
ENDBRANCH  12  13
ENDBRANCH  11  12
ENDBRANCH   8  11
ENDBRANCH   7   8
ENDBRANCH   5   7
TORSDOF 6
ENDMDL
MODEL       66
REMARK 921   NORMALIZED FREE ENERGY PREDICTED BY IDOCK:   -5.13 KCAL/MOL
REMARK 922        TOTAL FREE ENERGY PREDICTED BY IDOCK:   -7.95 KCAL/MOL
REMARK 923 INTER-LIGAND FREE ENERGY PREDICTED BY IDOCK:   -7.25 KCAL/MOL
REMARK 924 INTRA-LIGAND FREE ENERGY PREDICTED BY IDOCK:   -0.70 KCAL/MOL
REMARK 927      BINDING AFFINITY PREDICTED BY RF-SCORE:    0.00 PKD
ROOT
HETATM    1  C   UNL     1     -10.348  12.703  64.209  1.00  0.00    -0.399 C  
HETATM    2  C   UNL     1     -11.842  12.912  64.508  1.00  0.00    -0.375 C  
HETATM    3  C   UNL     1     -12.650  11.969  63.596  1.00  0.00    -0.605 C  
HETATM    4  C   UNL     1     -12.246  14.360  64.179  1.00  0.00    -0.393 C  
HETATM    5  N   UNL     1     -12.202  12.567  65.896  1.00  0.00    -0.624 NA 
HETATM    6  H   UNL     1     -12.089  11.565  66.047  1.00  0.00     0.000 HD 
ENDROOT
BRANCH   5   7
HETATM    7  C   UNL     1     -11.492  13.312  66.936  1.00  0.00    -0.338 C  
BRANCH   7   8
HETATM    8  C   UNL     1     -11.902  12.940  68.375  1.00  0.00    -0.318 C  
HETATM    9  O   UNL     1     -10.977  13.605  69.259  1.00  0.00    -0.358 OA 
HETATM   10  H   UNL     1     -11.229  13.376  70.145  1.00  0.00     0.000 HD 
BRANCH   8  11
HETATM   11  C   UNL     1     -11.854  11.437  68.673  1.00  0.00    -0.310 C  
BRANCH  11  12
HETATM   12  O   UNL     1     -11.025  11.088  69.788  1.00  0.00    -0.250 OA 
BRANCH  12  13
HETATM   13  C   UNL     1     -11.571  10.173  70.666  1.00  0.00    -0.343 A  
HETATM   14  C   UNL     1     -12.925  10.199  71.049  1.00  0.00    -0.473 A  
HETATM   15  C   UNL     1     -13.430   9.303  71.986  1.00  0.00    -0.519 A  
HETATM   16  C   UNL     1     -12.591   8.357  72.547  1.00  0.00    -0.311 A  
HETATM   17  C   UNL     1     -11.251   8.299  72.159  1.00  0.00    -0.413 A  
HETATM   18  C   UNL     1     -10.711   9.190  71.206  1.00  0.00    -0.401 A  
BRANCH  18  19
HETATM   19  C   UNL     1      -9.235   9.126  70.841  1.00  0.00    -0.326 C  
HETATM   20  C   UNL     1      -8.284   8.495  71.874  1.00  0.00    -0.201 C  
HETATM   21  C   UNL     1      -7.001   8.294  71.088  1.00  0.00    -0.057 C  
HETATM   22  C   UNL     1      -7.499   7.751  69.757  1.00  0.00    -0.089 C  
HETATM   23  C   UNL     1      -8.904   8.337  69.558  1.00  0.00    -0.149 C  
ENDBRANCH  18  19
ENDBRANCH  12  13
ENDBRANCH  11  12
ENDBRANCH   8  11
ENDBRANCH   7   8
ENDBRANCH   5   7
TORSDOF 6
ENDMDL
MODEL       67
REMARK 921   NORMALIZED FREE ENERGY PREDICTED BY IDOCK:   -5.12 KCAL/MOL
REMARK 922        TOTAL FREE ENERGY PREDICTED BY IDOCK:   -7.95 KCAL/MOL
REMARK 923 INTER-LIGAND FREE ENERGY PREDICTED BY IDOCK:   -6.54 KCAL/MOL
REMARK 924 INTRA-LIGAND FREE ENERGY PREDICTED BY IDOCK:   -1.41 KCAL/MOL
REMARK 927      BINDING AFFINITY PREDICTED BY RF-SCORE:    0.00 PKD
ROOT
HETATM    1  C   UNL     1     -10.102   9.717  65.969  1.00  0.00    -0.322 C  
HETATM    2  C   UNL     1      -9.197  10.539  65.036  1.00  0.00    -0.206 C  
HETATM    3  C   UNL     1     -10.017  10.922  63.788  1.00  0.00    -0.408 C  
HETATM    4  C   UNL     1      -8.000   9.686  64.580  1.00  0.00    -0.135 C  
HETATM    5  N   UNL     1      -8.744  11.803  65.645  1.00  0.00    -0.397 NA 
HETATM    6  H   UNL     1      -9.538  12.428  65.784  1.00  0.00     0.000 HD 
ENDROOT
BRANCH   5   7
HETATM    7  C   UNL     1      -7.991  11.668  66.892  1.00  0.00    -0.161 C  
BRANCH   7   8
HETATM    8  C   UNL     1      -8.382  12.685  67.983  1.00  0.00    -0.175 C  
HETATM    9  O   UNL     1      -7.566  12.396  69.136  1.00  0.00    -0.326 OA 
HETATM   10  H   UNL     1      -7.806  13.023  69.808  1.00  0.00     0.000 HD 
BRANCH   8  11
HETATM   11  C   UNL     1      -9.853  12.617  68.407  1.00  0.00    -0.200 C  
BRANCH  11  12
HETATM   12  O   UNL     1     -10.574  13.840  68.216  1.00  0.00    -0.241 OA 
BRANCH  12  13
HETATM   13  C   UNL     1     -11.167  13.987  66.978  1.00  0.00    -0.313 A  
HETATM   14  C   UNL     1     -12.024  13.018  66.423  1.00  0.00    -0.466 A  
HETATM   15  C   UNL     1     -12.554  13.167  65.145  1.00  0.00    -0.525 A  
HETATM   16  C   UNL     1     -12.246  14.294  64.405  1.00  0.00    -0.471 A  
HETATM   17  C   UNL     1     -11.420  15.279  64.950  1.00  0.00    -0.343 A  
HETATM   18  C   UNL     1     -10.872  15.160  66.246  1.00  0.00    -0.333 A  
BRANCH  18  19
HETATM   19  C   UNL     1      -9.938  16.232  66.789  1.00  0.00    -0.268 C  
HETATM   20  C   UNL     1      -8.499  16.250  66.244  1.00  0.00    -0.369 C  
HETATM   21  C   UNL     1      -7.964  17.588  66.722  1.00  0.00    -0.273 C  
HETATM   22  C   UNL     1      -9.124  18.535  66.451  1.00  0.00    -0.276 C  
HETATM   23  C   UNL     1     -10.399  17.686  66.562  1.00  0.00    -0.337 C  
ENDBRANCH  18  19
ENDBRANCH  12  13
ENDBRANCH  11  12
ENDBRANCH   8  11
ENDBRANCH   7   8
ENDBRANCH   5   7
TORSDOF 6
ENDMDL
MODEL       68
REMARK 921   NORMALIZED FREE ENERGY PREDICTED BY IDOCK:   -5.12 KCAL/MOL
REMARK 922        TOTAL FREE ENERGY PREDICTED BY IDOCK:   -7.95 KCAL/MOL
REMARK 923 INTER-LIGAND FREE ENERGY PREDICTED BY IDOCK:   -7.10 KCAL/MOL
REMARK 924 INTRA-LIGAND FREE ENERGY PREDICTED BY IDOCK:   -0.85 KCAL/MOL
REMARK 927      BINDING AFFINITY PREDICTED BY RF-SCORE:    0.00 PKD
ROOT
HETATM    1  C   UNL     1      -9.067  15.479  67.459  1.00  0.00    -0.198 C  
HETATM    2  C   UNL     1      -9.394  16.746  66.649  1.00  0.00    -0.254 C  
HETATM    3  C   UNL     1      -8.065  17.428  66.270  1.00  0.00    -0.298 C  
HETATM    4  C   UNL     1     -10.207  17.726  67.513  1.00  0.00    -0.356 C  
HETATM    5  N   UNL     1     -10.093  16.452  65.385  1.00  0.00    -0.563 NA 
HETATM    6  H   UNL     1      -9.472  15.945  64.753  1.00  0.00     0.000 HD 
ENDROOT
BRANCH   5   7
HETATM    7  C   UNL     1     -11.363  15.740  65.516  1.00  0.00     0.021 C  
BRANCH   7   8
HETATM    8  C   UNL     1     -11.487  14.492  64.618  1.00  0.00    -0.387 C  
HETATM    9  O   UNL     1     -12.456  14.806  63.597  1.00  0.00    -1.064 OA 
HETATM   10  H   UNL     1     -12.532  14.037  63.044  1.00  0.00     0.000 HD 
BRANCH   8  11
HETATM   11  C   UNL     1     -11.958  13.233  65.355  1.00  0.00    -0.395 C  
BRANCH  11  12
HETATM   12  O   UNL     1     -10.939  12.597  66.136  1.00  0.00    -0.271 OA 
BRANCH  12  13
HETATM   13  C   UNL     1     -11.299  12.283  67.431  1.00  0.00    -0.325 A  
HETATM   14  C   UNL     1     -11.767  13.245  68.347  1.00  0.00    -0.389 A  
HETATM   15  C   UNL     1     -12.059  12.908  69.665  1.00  0.00    -0.290 A  
HETATM   16  C   UNL     1     -11.901  11.599  70.087  1.00  0.00    -0.428 A  
HETATM   17  C   UNL     1     -11.463  10.627  69.185  1.00  0.00    -0.349 A  
HETATM   18  C   UNL     1     -11.165  10.937  67.840  1.00  0.00    -0.387 A  
BRANCH  18  19
HETATM   19  C   UNL     1     -10.648   9.859  66.899  1.00  0.00    -0.248 C  
HETATM   20  C   UNL     1      -9.178   9.963  66.452  1.00  0.00    -0.195 C  
HETATM   21  C   UNL     1      -8.911   8.609  65.820  1.00  0.00    -0.231 C  
HETATM   22  C   UNL     1      -9.572   7.643  66.791  1.00  0.00    -0.269 C  
HETATM   23  C   UNL     1     -10.732   8.416  67.436  1.00  0.00    -0.225 C  
ENDBRANCH  18  19
ENDBRANCH  12  13
ENDBRANCH  11  12
ENDBRANCH   8  11
ENDBRANCH   7   8
ENDBRANCH   5   7
TORSDOF 6
ENDMDL
MODEL       69
REMARK 921   NORMALIZED FREE ENERGY PREDICTED BY IDOCK:   -5.12 KCAL/MOL
REMARK 922        TOTAL FREE ENERGY PREDICTED BY IDOCK:   -7.95 KCAL/MOL
REMARK 923 INTER-LIGAND FREE ENERGY PREDICTED BY IDOCK:   -6.68 KCAL/MOL
REMARK 924 INTRA-LIGAND FREE ENERGY PREDICTED BY IDOCK:   -1.26 KCAL/MOL
REMARK 927      BINDING AFFINITY PREDICTED BY RF-SCORE:    0.00 PKD
ROOT
HETATM    1  C   UNL     1     -12.579  13.810  65.914  1.00  0.00    -0.494 C  
HETATM    2  C   UNL     1     -11.537  14.539  65.048  1.00  0.00    -0.382 C  
HETATM    3  C   UNL     1     -10.833  15.590  65.929  1.00  0.00    -0.317 C  
HETATM    4  C   UNL     1     -12.237  15.274  63.892  1.00  0.00     0.134 C  
HETATM    5  N   UNL     1     -10.484  13.640  64.542  1.00  0.00    -0.527 NA 
HETATM    6  H   UNL     1      -9.918  13.294  65.318  1.00  0.00     0.000 HD 
ENDROOT
BRANCH   5   7
HETATM    7  C   UNL     1     -10.949  12.520  63.725  1.00  0.00    -0.447 C  
BRANCH   7   8
HETATM    8  C   UNL     1      -9.925  11.377  63.573  1.00  0.00    -0.388 C  
HETATM    9  O   UNL     1     -10.251  10.684  62.351  1.00  0.00    -0.743 OA 
HETATM   10  H   UNL     1      -9.620   9.979  62.258  1.00  0.00     0.000 HD 
BRANCH   8  11
HETATM   11  C   UNL     1      -9.945  10.360  64.720  1.00  0.00    -0.339 C  
BRANCH  11  12
HETATM   12  O   UNL     1     -10.600  10.828  65.905  1.00  0.00    -0.225 OA 
BRANCH  12  13
HETATM   13  C   UNL     1     -10.416  10.047  67.029  1.00  0.00    -0.238 A  
HETATM   14  C   UNL     1      -9.957   8.718  66.966  1.00  0.00    -0.307 A  
HETATM   15  C   UNL     1      -9.844   7.936  68.111  1.00  0.00    -0.193 A  
HETATM   16  C   UNL     1     -10.178   8.474  69.341  1.00  0.00    -0.211 A  
HETATM   17  C   UNL     1     -10.609   9.799  69.426  1.00  0.00    -0.248 A  
HETATM   18  C   UNL     1     -10.728  10.620  68.282  1.00  0.00    -0.260 A  
BRANCH  18  19
HETATM   19  C   UNL     1     -11.245  12.045  68.409  1.00  0.00    -0.313 C  
HETATM   20  C   UNL     1     -12.034  12.396  69.683  1.00  0.00    -0.341 C  
HETATM   21  C   UNL     1     -12.107  13.911  69.641  1.00  0.00    -0.404 C  
HETATM   22  C   UNL     1     -10.700  14.308  69.221  1.00  0.00    -0.194 C  
HETATM   23  C   UNL     1     -10.167  13.146  68.370  1.00  0.00    -0.247 C  
ENDBRANCH  18  19
ENDBRANCH  12  13
ENDBRANCH  11  12
ENDBRANCH   8  11
ENDBRANCH   7   8
ENDBRANCH   5   7
TORSDOF 6
ENDMDL
MODEL       70
REMARK 921   NORMALIZED FREE ENERGY PREDICTED BY IDOCK:   -5.09 KCAL/MOL
REMARK 922        TOTAL FREE ENERGY PREDICTED BY IDOCK:   -7.91 KCAL/MOL
REMARK 923 INTER-LIGAND FREE ENERGY PREDICTED BY IDOCK:   -7.23 KCAL/MOL
REMARK 924 INTRA-LIGAND FREE ENERGY PREDICTED BY IDOCK:   -0.68 KCAL/MOL
REMARK 927      BINDING AFFINITY PREDICTED BY RF-SCORE:    0.00 PKD
ROOT
HETATM    1  C   UNL     1     -10.740  16.455  68.080  1.00  0.00    -0.334 C  
HETATM    2  C   UNL     1     -10.948  14.930  68.081  1.00  0.00    -0.272 C  
HETATM    3  C   UNL     1     -11.766  14.560  69.334  1.00  0.00    -0.361 C  
HETATM    4  C   UNL     1      -9.589  14.215  68.167  1.00  0.00    -0.218 C  
HETATM    5  N   UNL     1     -11.721  14.458  66.918  1.00  0.00    -0.389 NA 
HETATM    6  H   UNL     1     -12.678  14.808  66.969  1.00  0.00     0.000 HD 
ENDROOT
BRANCH   5   7
HETATM    7  C   UNL     1     -11.146  14.768  65.610  1.00  0.00    -0.342 C  
BRANCH   7   8
HETATM    8  C   UNL     1     -11.542  13.782  64.492  1.00  0.00    -0.392 C  
HETATM    9  O   UNL     1     -12.289  14.535  63.515  1.00  0.00    -1.081 OA 
HETATM   10  H   UNL     1     -12.533  13.927  62.827  1.00  0.00     0.000 HD 
BRANCH   8  11
HETATM   11  C   UNL     1     -12.414  12.613  64.966  1.00  0.00    -0.487 C  
BRANCH  11  12
HETATM   12  O   UNL     1     -11.764  11.738  65.895  1.00  0.00    -0.397 OA 
BRANCH  12  13
HETATM   13  C   UNL     1     -10.729  10.987  65.373  1.00  0.00    -0.152 A  
HETATM   14  C   UNL     1     -10.287  11.119  64.043  1.00  0.00    -0.437 A  
HETATM   15  C   UNL     1      -9.286  10.302  63.529  1.00  0.00    -0.321 A  
HETATM   16  C   UNL     1      -8.700   9.346  64.340  1.00  0.00    -0.227 A  
HETATM   17  C   UNL     1      -9.107   9.219  65.669  1.00  0.00    -0.268 A  
HETATM   18  C   UNL     1     -10.116  10.038  66.222  1.00  0.00    -0.310 A  
BRANCH  18  19
HETATM   19  C   UNL     1     -10.565   9.840  67.663  1.00  0.00    -0.333 C  
HETATM   20  C   UNL     1     -10.349   8.446  68.280  1.00  0.00    -0.244 C  
HETATM   21  C   UNL     1     -10.587   8.681  69.760  1.00  0.00    -0.224 C  
HETATM   22  C   UNL     1      -9.855   9.989  70.019  1.00  0.00    -0.247 C  
HETATM   23  C   UNL     1      -9.898  10.769  68.697  1.00  0.00    -0.187 C  
ENDBRANCH  18  19
ENDBRANCH  12  13
ENDBRANCH  11  12
ENDBRANCH   8  11
ENDBRANCH   7   8
ENDBRANCH   5   7
TORSDOF 6
ENDMDL
MODEL       71
REMARK 921   NORMALIZED FREE ENERGY PREDICTED BY IDOCK:   -5.09 KCAL/MOL
REMARK 922        TOTAL FREE ENERGY PREDICTED BY IDOCK:   -7.91 KCAL/MOL
REMARK 923 INTER-LIGAND FREE ENERGY PREDICTED BY IDOCK:   -7.08 KCAL/MOL
REMARK 924 INTRA-LIGAND FREE ENERGY PREDICTED BY IDOCK:   -0.83 KCAL/MOL
REMARK 927      BINDING AFFINITY PREDICTED BY RF-SCORE:    0.00 PKD
ROOT
HETATM    1  C   UNL     1      -8.000  13.600  67.789  1.00  0.00    -0.172 C  
HETATM    2  C   UNL     1      -7.702  12.155  68.222  1.00  0.00    -0.135 C  
HETATM    3  C   UNL     1      -6.526  12.186  69.219  1.00  0.00    -0.111 C  
HETATM    4  C   UNL     1      -7.274  11.319  67.002  1.00  0.00    -0.129 C  
HETATM    5  N   UNL     1      -8.833  11.523  68.924  1.00  0.00    -0.377 NA 
HETATM    6  H   UNL     1      -8.993  11.988  69.818  1.00  0.00     0.000 HD 
ENDROOT
BRANCH   5   7
HETATM    7  C   UNL     1     -10.083  11.449  68.169  1.00  0.00    -0.189 C  
BRANCH   7   8
HETATM    8  C   UNL     1     -11.344  11.779  68.993  1.00  0.00    -0.278 C  
HETATM    9  O   UNL     1     -12.292  10.719  68.752  1.00  0.00    -0.812 OA 
HETATM   10  H   UNL     1     -13.068  10.923  69.259  1.00  0.00     0.000 HD 
BRANCH   8  11
HETATM   11  C   UNL     1     -12.008  13.110  68.620  1.00  0.00    -0.284 C  
BRANCH  11  12
HETATM   12  O   UNL     1     -11.800  13.505  67.259  1.00  0.00    -0.355 OA 
BRANCH  12  13
HETATM   13  C   UNL     1     -11.296  14.779  67.085  1.00  0.00    -0.356 A  
HETATM   14  C   UNL     1     -11.195  15.709  68.138  1.00  0.00    -0.345 A  
HETATM   15  C   UNL     1     -10.743  17.006  67.916  1.00  0.00    -0.348 A  
HETATM   16  C   UNL     1     -10.374  17.393  66.640  1.00  0.00    -0.306 A  
HETATM   17  C   UNL     1     -10.443  16.476  65.590  1.00  0.00    -0.341 A  
HETATM   18  C   UNL     1     -10.890  15.151  65.783  1.00  0.00    -0.358 A  
BRANCH  18  19
HETATM   19  C   UNL     1     -10.995  14.193  64.605  1.00  0.00    -0.393 C  
HETATM   20  C   UNL     1     -10.220  12.867  64.708  1.00  0.00    -0.307 C  
HETATM   21  C   UNL     1     -10.787  12.045  63.565  1.00  0.00    -0.509 C  
HETATM   22  C   UNL     1     -12.281  12.315  63.659  1.00  0.00    -0.665 C  
HETATM   23  C   UNL     1     -12.421  13.721  64.261  1.00  0.00    -0.308 C  
ENDBRANCH  18  19
ENDBRANCH  12  13
ENDBRANCH  11  12
ENDBRANCH   8  11
ENDBRANCH   7   8
ENDBRANCH   5   7
TORSDOF 6
ENDMDL
MODEL       72
REMARK 921   NORMALIZED FREE ENERGY PREDICTED BY IDOCK:   -5.07 KCAL/MOL
REMARK 922        TOTAL FREE ENERGY PREDICTED BY IDOCK:   -7.88 KCAL/MOL
REMARK 923 INTER-LIGAND FREE ENERGY PREDICTED BY IDOCK:   -6.65 KCAL/MOL
REMARK 924 INTRA-LIGAND FREE ENERGY PREDICTED BY IDOCK:   -1.23 KCAL/MOL
REMARK 927      BINDING AFFINITY PREDICTED BY RF-SCORE:    0.00 PKD
ROOT
HETATM    1  C   UNL     1      -9.551  11.816  68.170  1.00  0.00    -0.193 C  
HETATM    2  C   UNL     1     -10.882  11.057  68.040  1.00  0.00    -0.229 C  
HETATM    3  C   UNL     1     -11.530  10.982  69.436  1.00  0.00    -0.364 C  
HETATM    4  C   UNL     1     -10.622   9.620  67.554  1.00  0.00    -0.339 C  
HETATM    5  N   UNL     1     -11.849  11.744  67.163  1.00  0.00    -0.620 NA 
HETATM    6  H   UNL     1     -12.141  12.623  67.588  1.00  0.00     0.000 HD 
ENDROOT
BRANCH   5   7
HETATM    7  C   UNL     1     -11.401  11.977  65.791  1.00  0.00    -0.331 C  
BRANCH   7   8
HETATM    8  C   UNL     1     -12.255  12.996  65.009  1.00  0.00    -0.453 C  
HETATM    9  O   UNL     1     -11.952  12.810  63.611  1.00  0.00    -0.460 OA 
HETATM   10  H   UNL     1     -12.478  13.438  63.130  1.00  0.00     0.000 HD 
BRANCH   8  11
HETATM   11  C   UNL     1     -11.973  14.459  65.370  1.00  0.00    -0.369 C  
BRANCH  11  12
HETATM   12  O   UNL     1     -10.722  14.666  66.037  1.00  0.00    -0.296 OA 
BRANCH  12  13
HETATM   13  C   UNL     1     -10.814  15.136  67.332  1.00  0.00    -0.302 A  
HETATM   14  C   UNL     1     -11.942  14.913  68.145  1.00  0.00    -0.234 A  
HETATM   15  C   UNL     1     -12.031  15.455  69.423  1.00  0.00    -0.351 A  
HETATM   16  C   UNL     1     -10.989  16.220  69.915  1.00  0.00    -0.365 A  
HETATM   17  C   UNL     1      -9.851  16.430  69.132  1.00  0.00    -0.272 A  
HETATM   18  C   UNL     1      -9.728  15.887  67.834  1.00  0.00    -0.216 A  
BRANCH  18  19
HETATM   19  C   UNL     1      -8.492  16.175  66.994  1.00  0.00    -0.238 C  
HETATM   20  C   UNL     1      -8.275  17.630  66.541  1.00  0.00    -0.307 C  
HETATM   21  C   UNL     1      -6.844  17.625  66.033  1.00  0.00    -0.308 C  
HETATM   22  C   UNL     1      -6.111  16.809  67.087  1.00  0.00    -0.209 C  
HETATM   23  C   UNL     1      -7.145  15.827  67.659  1.00  0.00    -0.192 C  
ENDBRANCH  18  19
ENDBRANCH  12  13
ENDBRANCH  11  12
ENDBRANCH   8  11
ENDBRANCH   7   8
ENDBRANCH   5   7
TORSDOF 6
ENDMDL
MODEL       73
REMARK 921   NORMALIZED FREE ENERGY PREDICTED BY IDOCK:   -5.07 KCAL/MOL
REMARK 922        TOTAL FREE ENERGY PREDICTED BY IDOCK:   -7.87 KCAL/MOL
REMARK 923 INTER-LIGAND FREE ENERGY PREDICTED BY IDOCK:   -7.20 KCAL/MOL
REMARK 924 INTRA-LIGAND FREE ENERGY PREDICTED BY IDOCK:   -0.67 KCAL/MOL
REMARK 927      BINDING AFFINITY PREDICTED BY RF-SCORE:    0.00 PKD
ROOT
HETATM    1  C   UNL     1     -12.146   6.677  71.143  1.00  0.00    -0.391 C  
HETATM    2  C   UNL     1     -10.755   6.900  71.760  1.00  0.00    -0.221 C  
HETATM    3  C   UNL     1      -9.962   5.583  71.643  1.00  0.00    -0.233 C  
HETATM    4  C   UNL     1     -10.892   7.246  73.253  1.00  0.00    -0.404 C  
HETATM    5  N   UNL     1      -9.972   7.927  71.050  1.00  0.00    -0.181 NA 
HETATM    6  H   UNL     1      -9.743   7.604  70.110  1.00  0.00     0.000 HD 
ENDROOT
BRANCH   5   7
HETATM    7  C   UNL     1     -10.583   9.255  70.987  1.00  0.00    -0.316 C  
BRANCH   7   8
HETATM    8  C   UNL     1     -10.631   9.864  69.571  1.00  0.00    -0.242 C  
HETATM    9  O   UNL     1      -9.488  10.736  69.452  1.00  0.00    -0.384 OA 
HETATM   10  H   UNL     1      -9.518  11.112  68.580  1.00  0.00     0.000 HD 
BRANCH   8  11
HETATM   11  C   UNL     1     -11.893  10.687  69.285  1.00  0.00    -0.237 C  
BRANCH  11  12
HETATM   12  O   UNL     1     -11.663  11.848  68.479  1.00  0.00    -0.293 OA 
BRANCH  12  13
HETATM   13  C   UNL     1     -11.867  13.057  69.115  1.00  0.00    -0.310 A  
HETATM   14  C   UNL     1     -12.201  13.153  70.479  1.00  0.00    -0.405 A  
HETATM   15  C   UNL     1     -12.463  14.383  71.075  1.00  0.00    -0.425 A  
HETATM   16  C   UNL     1     -12.383  15.539  70.319  1.00  0.00    -0.431 A  
HETATM   17  C   UNL     1     -12.027  15.465  68.971  1.00  0.00    -0.313 A  
HETATM   18  C   UNL     1     -11.749  14.233  68.339  1.00  0.00    -0.373 A  
BRANCH  18  19
HETATM   19  C   UNL     1     -11.408  14.187  66.857  1.00  0.00    -0.343 C  
HETATM   20  C   UNL     1     -12.585  14.108  65.868  1.00  0.00    -0.447 C  
HETATM   21  C   UNL     1     -11.934  14.405  64.530  1.00  0.00    -0.487 C  
HETATM   22  C   UNL     1     -11.004  15.565  64.852  1.00  0.00    -0.452 C  
HETATM   23  C   UNL     1     -10.606  15.392  66.326  1.00  0.00    -0.311 C  
ENDBRANCH  18  19
ENDBRANCH  12  13
ENDBRANCH  11  12
ENDBRANCH   8  11
ENDBRANCH   7   8
ENDBRANCH   5   7
TORSDOF 6
ENDMDL
MODEL       74
REMARK 921   NORMALIZED FREE ENERGY PREDICTED BY IDOCK:   -5.06 KCAL/MOL
REMARK 922        TOTAL FREE ENERGY PREDICTED BY IDOCK:   -7.86 KCAL/MOL
REMARK 923 INTER-LIGAND FREE ENERGY PREDICTED BY IDOCK:   -6.67 KCAL/MOL
REMARK 924 INTRA-LIGAND FREE ENERGY PREDICTED BY IDOCK:   -1.19 KCAL/MOL
REMARK 927      BINDING AFFINITY PREDICTED BY RF-SCORE:    0.00 PKD
ROOT
HETATM    1  C   UNL     1     -11.978  13.726  66.308  1.00  0.00    -0.462 C  
HETATM    2  C   UNL     1     -11.226  14.482  65.199  1.00  0.00    -0.367 C  
HETATM    3  C   UNL     1     -10.377  15.584  65.862  1.00  0.00    -0.365 C  
HETATM    4  C   UNL     1     -12.231  15.158  64.249  1.00  0.00    -0.257 C  
HETATM    5  N   UNL     1     -10.291  13.621  64.452  1.00  0.00    -0.659 NA 
HETATM    6  H   UNL     1      -9.531  13.320  65.063  1.00  0.00     0.000 HD 
ENDROOT
BRANCH   5   7
HETATM    7  C   UNL     1     -10.891  12.463  63.791  1.00  0.00    -0.454 C  
BRANCH   7   8
HETATM    8  C   UNL     1      -9.919  11.286  63.567  1.00  0.00    -0.376 C  
HETATM    9  O   UNL     1     -10.310  10.649  62.334  1.00  0.00    -0.716 OA 
HETATM   10  H   UNL     1      -9.712   9.924  62.197  1.00  0.00     0.000 HD 
BRANCH   8  11
HETATM   11  C   UNL     1      -9.944  10.232  64.681  1.00  0.00    -0.307 C  
BRANCH  11  12
HETATM   12  O   UNL     1     -10.411  10.725  65.942  1.00  0.00    -0.252 OA 
BRANCH  12  13
HETATM   13  C   UNL     1      -9.461  10.783  66.941  1.00  0.00    -0.168 A  
HETATM   14  C   UNL     1      -8.526  11.830  67.043  1.00  0.00    -0.175 A  
HETATM   15  C   UNL     1      -7.539  11.826  68.024  1.00  0.00    -0.116 A  
HETATM   16  C   UNL     1      -7.478  10.781  68.928  1.00  0.00    -0.116 A  
HETATM   17  C   UNL     1      -8.414   9.747  68.859  1.00  0.00    -0.129 A  
HETATM   18  C   UNL     1      -9.431   9.726  67.879  1.00  0.00    -0.146 A  
BRANCH  18  19
HETATM   19  C   UNL     1     -10.406   8.559  67.807  1.00  0.00    -0.298 C  
HETATM   20  C   UNL     1     -10.012   7.370  66.913  1.00  0.00    -0.307 C  
HETATM   21  C   UNL     1     -11.000   6.290  67.316  1.00  0.00    -0.455 C  
HETATM   22  C   UNL     1     -11.031   6.406  68.832  1.00  0.00    -0.412 C  
HETATM   23  C   UNL     1     -10.720   7.876  69.153  1.00  0.00    -0.130 C  
ENDBRANCH  18  19
ENDBRANCH  12  13
ENDBRANCH  11  12
ENDBRANCH   8  11
ENDBRANCH   7   8
ENDBRANCH   5   7
TORSDOF 6
ENDMDL
MODEL       75
REMARK 921   NORMALIZED FREE ENERGY PREDICTED BY IDOCK:   -5.03 KCAL/MOL
REMARK 922        TOTAL FREE ENERGY PREDICTED BY IDOCK:   -7.83 KCAL/MOL
REMARK 923 INTER-LIGAND FREE ENERGY PREDICTED BY IDOCK:   -7.04 KCAL/MOL
REMARK 924 INTRA-LIGAND FREE ENERGY PREDICTED BY IDOCK:   -0.79 KCAL/MOL
REMARK 927      BINDING AFFINITY PREDICTED BY RF-SCORE:    0.00 PKD
ROOT
HETATM    1  C   UNL     1     -13.542   9.274  72.342  1.00  0.00    -0.527 C  
HETATM    2  C   UNL     1     -12.536   8.388  71.587  1.00  0.00    -0.328 C  
HETATM    3  C   UNL     1     -13.216   7.037  71.291  1.00  0.00    -0.304 C  
HETATM    4  C   UNL     1     -11.304   8.123  72.470  1.00  0.00    -0.469 C  
HETATM    5  N   UNL     1     -12.140   8.955  70.285  1.00  0.00    -0.391 NA 
HETATM    6  H   UNL     1     -12.939   8.964  69.651  1.00  0.00     0.000 HD 
ENDROOT
BRANCH   5   7
HETATM    7  C   UNL     1     -11.525  10.281  70.334  1.00  0.00    -0.335 C  
BRANCH   7   8
HETATM    8  C   UNL     1     -10.718  10.654  69.074  1.00  0.00    -0.221 C  
HETATM    9  O   UNL     1      -9.327  10.661  69.455  1.00  0.00    -0.388 OA 
HETATM   10  H   UNL     1      -8.830  10.891  68.679  1.00  0.00     0.000 HD 
BRANCH   8  11
HETATM   11  C   UNL     1     -11.062  12.030  68.492  1.00  0.00    -0.244 C  
BRANCH  11  12
HETATM   12  O   UNL     1     -10.251  12.412  67.376  1.00  0.00    -0.206 OA 
BRANCH  12  13
HETATM   13  C   UNL     1     -10.901  12.446  66.158  1.00  0.00    -0.273 A  
HETATM   14  C   UNL     1     -11.927  13.364  65.868  1.00  0.00    -0.452 A  
HETATM   15  C   UNL     1     -12.607  13.330  64.654  1.00  0.00    -0.354 A  
HETATM   16  C   UNL     1     -12.263  12.384  63.705  1.00  0.00    -0.653 A  
HETATM   17  C   UNL     1     -11.229  11.483  63.965  1.00  0.00    -0.414 A  
HETATM   18  C   UNL     1     -10.516  11.496  65.184  1.00  0.00    -0.340 A  
BRANCH  18  19
HETATM   19  C   UNL     1      -9.426  10.469  65.450  1.00  0.00    -0.273 C  
HETATM   20  C   UNL     1      -9.868   9.106  66.015  1.00  0.00    -0.342 C  
HETATM   21  C   UNL     1      -8.629   8.245  65.851  1.00  0.00    -0.170 C  
HETATM   22  C   UNL     1      -8.139   8.614  64.459  1.00  0.00    -0.162 C  
HETATM   23  C   UNL     1      -8.585  10.065  64.222  1.00  0.00    -0.197 C  
ENDBRANCH  18  19
ENDBRANCH  12  13
ENDBRANCH  11  12
ENDBRANCH   8  11
ENDBRANCH   7   8
ENDBRANCH   5   7
TORSDOF 6
ENDMDL
MODEL       76
REMARK 921   NORMALIZED FREE ENERGY PREDICTED BY IDOCK:   -5.00 KCAL/MOL
REMARK 922        TOTAL FREE ENERGY PREDICTED BY IDOCK:   -7.78 KCAL/MOL
REMARK 923 INTER-LIGAND FREE ENERGY PREDICTED BY IDOCK:   -6.72 KCAL/MOL
REMARK 924 INTRA-LIGAND FREE ENERGY PREDICTED BY IDOCK:   -1.06 KCAL/MOL
REMARK 927      BINDING AFFINITY PREDICTED BY RF-SCORE:    0.00 PKD
ROOT
HETATM    1  C   UNL     1     -11.239  14.795  64.815  1.00  0.00    -0.392 C  
HETATM    2  C   UNL     1     -11.312  13.401  65.462  1.00  0.00    -0.293 C  
HETATM    3  C   UNL     1     -10.115  12.574  64.956  1.00  0.00    -0.258 C  
HETATM    4  C   UNL     1     -12.605  12.688  65.029  1.00  0.00    -0.504 C  
HETATM    5  N   UNL     1     -11.202  13.446  66.932  1.00  0.00    -0.300 NA 
HETATM    6  H   UNL     1     -10.270  13.762  67.202  1.00  0.00     0.000 HD 
ENDROOT
BRANCH   5   7
HETATM    7  C   UNL     1     -12.218  14.244  67.617  1.00  0.00    -0.179 C  
BRANCH   7   8
HETATM    8  C   UNL     1     -11.748  14.861  68.950  1.00  0.00    -0.315 C  
HETATM    9  O   UNL     1     -12.894  14.889  69.825  1.00  0.00    -0.591 OA 
HETATM   10  H   UNL     1     -12.605  15.270  70.645  1.00  0.00     0.000 HD 
BRANCH   8  11
HETATM   11  C   UNL     1     -11.207  16.290  68.824  1.00  0.00    -0.343 C  
BRANCH  11  12
HETATM   12  O   UNL     1     -10.485  16.537  67.612  1.00  0.00    -0.291 OA 
BRANCH  12  13
HETATM   13  C   UNL     1      -9.953  17.805  67.489  1.00  0.00    -0.324 A  
HETATM   14  C   UNL     1     -10.747  18.945  67.262  1.00  0.00    -0.523 A  
HETATM   15  C   UNL     1     -10.176  20.200  67.078  1.00  0.00    -0.558 A  
HETATM   16  C   UNL     1      -8.800  20.339  67.130  1.00  0.00    -0.446 A  
HETATM   17  C   UNL     1      -7.999  19.224  67.382  1.00  0.00    -0.292 A  
HETATM   18  C   UNL     1      -8.549  17.938  67.579  1.00  0.00    -0.239 A  
BRANCH  18  19
HETATM   19  C   UNL     1      -7.641  16.738  67.805  1.00  0.00    -0.180 C  
HETATM   20  C   UNL     1      -6.285  16.737  67.076  1.00  0.00    -0.221 C  
HETATM   21  C   UNL     1      -5.526  15.612  67.757  1.00  0.00    -0.141 C  
HETATM   22  C   UNL     1      -5.845  15.827  69.228  1.00  0.00    -0.118 C  
HETATM   23  C   UNL     1      -7.232  16.486  69.271  1.00  0.00    -0.213 C  
ENDBRANCH  18  19
ENDBRANCH  12  13
ENDBRANCH  11  12
ENDBRANCH   8  11
ENDBRANCH   7   8
ENDBRANCH   5   7
TORSDOF 6
ENDMDL
MODEL       77
REMARK 921   NORMALIZED FREE ENERGY PREDICTED BY IDOCK:   -4.99 KCAL/MOL
REMARK 922        TOTAL FREE ENERGY PREDICTED BY IDOCK:   -7.77 KCAL/MOL
REMARK 923 INTER-LIGAND FREE ENERGY PREDICTED BY IDOCK:   -6.98 KCAL/MOL
REMARK 924 INTRA-LIGAND FREE ENERGY PREDICTED BY IDOCK:   -0.78 KCAL/MOL
REMARK 927      BINDING AFFINITY PREDICTED BY RF-SCORE:    0.00 PKD
ROOT
HETATM    1  C   UNL     1     -10.543  13.870  64.794  1.00  0.00    -0.444 C  
HETATM    2  C   UNL     1     -11.881  13.112  64.824  1.00  0.00    -0.369 C  
HETATM    3  C   UNL     1     -12.271  12.771  63.373  1.00  0.00    -0.594 C  
HETATM    4  C   UNL     1     -12.980  14.009  65.419  1.00  0.00    -0.346 C  
HETATM    5  N   UNL     1     -11.795  11.830  65.549  1.00  0.00    -0.280 NA 
HETATM    6  H   UNL     1     -11.190  11.183  65.043  1.00  0.00     0.000 HD 
ENDROOT
BRANCH   5   7
HETATM    7  C   UNL     1     -11.372  11.922  66.946  1.00  0.00    -0.330 C  
BRANCH   7   8
HETATM    8  C   UNL     1     -10.097  11.121  67.277  1.00  0.00    -0.188 C  
HETATM    9  O   UNL     1      -9.533  10.694  66.020  1.00  0.00    -0.179 OA 
HETATM   10  H   UNL     1      -8.748  10.200  66.224  1.00  0.00     0.000 HD 
BRANCH   8  11
HETATM   11  C   UNL     1     -10.344   9.877  68.138  1.00  0.00    -0.195 C  
BRANCH  11  12
HETATM   12  O   UNL     1     -10.031  10.054  69.525  1.00  0.00    -0.203 OA 
BRANCH  12  13
HETATM   13  C   UNL     1     -11.096   9.918  70.392  1.00  0.00    -0.319 A  
HETATM   14  C   UNL     1     -11.994  10.967  70.666  1.00  0.00    -0.464 A  
HETATM   15  C   UNL     1     -13.020  10.818  71.595  1.00  0.00    -0.581 A  
HETATM   16  C   UNL     1     -13.172   9.613  72.257  1.00  0.00    -0.492 A  
HETATM   17  C   UNL     1     -12.307   8.553  71.978  1.00  0.00    -0.423 A  
HETATM   18  C   UNL     1     -11.261   8.671  71.036  1.00  0.00    -0.321 A  
BRANCH  18  19
HETATM   19  C   UNL     1     -10.311   7.508  70.792  1.00  0.00    -0.205 C  
HETATM   20  C   UNL     1      -9.911   6.660  72.013  1.00  0.00    -0.166 C  
HETATM   21  C   UNL     1      -9.255   5.442  71.389  1.00  0.00    -0.171 C  
HETATM   22  C   UNL     1     -10.183   5.111  70.230  1.00  0.00    -0.342 C  
HETATM   23  C   UNL     1     -10.810   6.444  69.795  1.00  0.00    -0.373 C  
ENDBRANCH  18  19
ENDBRANCH  12  13
ENDBRANCH  11  12
ENDBRANCH   8  11
ENDBRANCH   7   8
ENDBRANCH   5   7
TORSDOF 6
ENDMDL
MODEL       78
REMARK 921   NORMALIZED FREE ENERGY PREDICTED BY IDOCK:   -4.98 KCAL/MOL
REMARK 922        TOTAL FREE ENERGY PREDICTED BY IDOCK:   -7.76 KCAL/MOL
REMARK 923 INTER-LIGAND FREE ENERGY PREDICTED BY IDOCK:   -6.74 KCAL/MOL
REMARK 924 INTRA-LIGAND FREE ENERGY PREDICTED BY IDOCK:   -1.02 KCAL/MOL
REMARK 927      BINDING AFFINITY PREDICTED BY RF-SCORE:    0.00 PKD
ROOT
HETATM    1  C   UNL     1      -7.971   8.444  68.689  1.00  0.00    -0.121 C  
HETATM    2  C   UNL     1      -8.168   9.413  69.867  1.00  0.00    -0.149 C  
HETATM    3  C   UNL     1      -6.779   9.901  70.324  1.00  0.00    -0.126 C  
HETATM    4  C   UNL     1      -8.830   8.679  71.046  1.00  0.00    -0.235 C  
HETATM    5  N   UNL     1      -8.936  10.616  69.496  1.00  0.00    -0.405 NA 
HETATM    6  H   UNL     1      -8.401  11.182  68.837  1.00  0.00     0.000 HD 
ENDROOT
BRANCH   5   7
HETATM    7  C   UNL     1     -10.278  10.370  68.969  1.00  0.00    -0.217 C  
BRANCH   7   8
HETATM    8  C   UNL     1     -11.377  11.251  69.597  1.00  0.00    -0.287 C  
HETATM    9  O   UNL     1     -12.628  10.558  69.407  1.00  0.00    -0.701 OA 
HETATM   10  H   UNL     1     -13.304  11.100  69.793  1.00  0.00     0.000 HD 
BRANCH   8  11
HETATM   11  C   UNL     1     -11.501  12.644  68.969  1.00  0.00    -0.303 C  
BRANCH  11  12
HETATM   12  O   UNL     1     -10.574  12.889  67.905  1.00  0.00    -0.214 OA 
BRANCH  12  13
HETATM   13  C   UNL     1     -11.144  13.199  66.685  1.00  0.00    -0.292 A  
HETATM   14  C   UNL     1     -11.864  12.261  65.921  1.00  0.00    -0.420 A  
HETATM   15  C   UNL     1     -12.370  12.586  64.666  1.00  0.00    -0.547 A  
HETATM   16  C   UNL     1     -12.175  13.858  64.160  1.00  0.00    -0.436 A  
HETATM   17  C   UNL     1     -11.487  14.809  64.915  1.00  0.00    -0.412 A  
HETATM   18  C   UNL     1     -10.967  14.512  66.195  1.00  0.00    -0.322 A  
BRANCH  18  19
HETATM   19  C   UNL     1     -10.183  15.561  66.969  1.00  0.00    -0.271 C  
HETATM   20  C   UNL     1      -9.487  16.664  66.151  1.00  0.00    -0.319 C  
HETATM   21  C   UNL     1      -9.098  17.684  67.204  1.00  0.00    -0.247 C  
HETATM   22  C   UNL     1     -10.336  17.754  68.086  1.00  0.00    -0.393 C  
HETATM   23  C   UNL     1     -10.999  16.372  67.996  1.00  0.00    -0.327 C  
ENDBRANCH  18  19
ENDBRANCH  12  13
ENDBRANCH  11  12
ENDBRANCH   8  11
ENDBRANCH   7   8
ENDBRANCH   5   7
TORSDOF 6
ENDMDL
MODEL       79
REMARK 921   NORMALIZED FREE ENERGY PREDICTED BY IDOCK:   -4.98 KCAL/MOL
REMARK 922        TOTAL FREE ENERGY PREDICTED BY IDOCK:   -7.76 KCAL/MOL
REMARK 923 INTER-LIGAND FREE ENERGY PREDICTED BY IDOCK:   -6.37 KCAL/MOL
REMARK 924 INTRA-LIGAND FREE ENERGY PREDICTED BY IDOCK:   -1.39 KCAL/MOL
REMARK 927      BINDING AFFINITY PREDICTED BY RF-SCORE:    0.00 PKD
ROOT
HETATM    1  C   UNL     1     -10.962  15.405  65.274  1.00  0.00    -0.397 C  
HETATM    2  C   UNL     1     -11.236  13.913  65.527  1.00  0.00    -0.307 C  
HETATM    3  C   UNL     1     -10.258  13.093  64.661  1.00  0.00    -0.327 C  
HETATM    4  C   UNL     1     -12.670  13.562  65.094  1.00  0.00    -0.453 C  
HETATM    5  N   UNL     1     -10.994  13.516  66.926  1.00  0.00    -0.286 NA 
HETATM    6  H   UNL     1     -10.000  13.594  67.144  1.00  0.00     0.000 HD 
ENDROOT
BRANCH   5   7
HETATM    7  C   UNL     1     -11.784  14.229  67.930  1.00  0.00    -0.359 C  
BRANCH   7   8
HETATM    8  C   UNL     1     -10.986  14.656  69.178  1.00  0.00    -0.262 C  
HETATM    9  O   UNL     1     -11.294  16.045  69.416  1.00  0.00    -0.326 OA 
HETATM   10  H   UNL     1     -10.803  16.308  70.185  1.00  0.00     0.000 HD 
BRANCH   8  11
HETATM   11  C   UNL     1      -9.467  14.521  69.029  1.00  0.00    -0.085 C  
BRANCH  11  12
HETATM   12  O   UNL     1      -8.884  15.454  68.112  1.00  0.00    -0.166 OA 
BRANCH  12  13
HETATM   13  C   UNL     1      -7.899  16.265  68.641  1.00  0.00    -0.202 A  
HETATM   14  C   UNL     1      -6.847  15.768  69.433  1.00  0.00    -0.190 A  
HETATM   15  C   UNL     1      -5.907  16.620  70.005  1.00  0.00    -0.206 A  
HETATM   16  C   UNL     1      -5.997  17.983  69.784  1.00  0.00    -0.227 A  
HETATM   17  C   UNL     1      -7.018  18.490  68.979  1.00  0.00    -0.286 A  
HETATM   18  C   UNL     1      -7.983  17.651  68.379  1.00  0.00    -0.270 A  
BRANCH  18  19
HETATM   19  C   UNL     1      -9.108  18.245  67.545  1.00  0.00    -0.256 C  
HETATM   20  C   UNL     1     -10.090  19.189  68.262  1.00  0.00    -0.499 C  
HETATM   21  C   UNL     1     -10.848  19.836  67.116  1.00  0.00    -0.467 C  
HETATM   22  C   UNL     1      -9.749  20.148  66.113  1.00  0.00    -0.481 C  
HETATM   23  C   UNL     1      -8.659  19.088  66.334  1.00  0.00    -0.320 C  
ENDBRANCH  18  19
ENDBRANCH  12  13
ENDBRANCH  11  12
ENDBRANCH   8  11
ENDBRANCH   7   8
ENDBRANCH   5   7
TORSDOF 6
ENDMDL
MODEL       80
REMARK 921   NORMALIZED FREE ENERGY PREDICTED BY IDOCK:   -4.97 KCAL/MOL
REMARK 922        TOTAL FREE ENERGY PREDICTED BY IDOCK:   -7.75 KCAL/MOL
REMARK 923 INTER-LIGAND FREE ENERGY PREDICTED BY IDOCK:   -7.41 KCAL/MOL
REMARK 924 INTRA-LIGAND FREE ENERGY PREDICTED BY IDOCK:   -0.34 KCAL/MOL
REMARK 927      BINDING AFFINITY PREDICTED BY RF-SCORE:    0.00 PKD
ROOT
HETATM    1  C   UNL     1     -10.140  14.692  65.481  1.00  0.00    -0.405 C  
HETATM    2  C   UNL     1     -11.172  13.553  65.534  1.00  0.00    -0.292 C  
HETATM    3  C   UNL     1     -11.883  13.486  64.168  1.00  0.00    -0.483 C  
HETATM    4  C   UNL     1     -12.230  13.852  66.611  1.00  0.00    -0.465 C  
HETATM    5  N   UNL     1     -10.556  12.232  65.753  1.00  0.00    -0.247 NA 
HETATM    6  H   UNL     1      -9.989  11.973  64.946  1.00  0.00     0.000 HD 
ENDROOT
BRANCH   5   7
HETATM    7  C   UNL     1      -9.769  12.097  66.979  1.00  0.00    -0.202 C  
BRANCH   7   8
HETATM    8  C   UNL     1     -10.017  10.787  67.753  1.00  0.00    -0.171 C  
HETATM    9  O   UNL     1      -9.915   9.711  66.797  1.00  0.00    -0.198 OA 
HETATM   10  H   UNL     1     -10.068   8.904  67.274  1.00  0.00     0.000 HD 
BRANCH   8  11
HETATM   11  C   UNL     1     -11.394  10.704  68.422  1.00  0.00    -0.283 C  
BRANCH  11  12
HETATM   12  O   UNL     1     -11.347  10.640  69.852  1.00  0.00    -0.266 OA 
BRANCH  12  13
HETATM   13  C   UNL     1     -12.031  11.643  70.510  1.00  0.00    -0.319 A  
HETATM   14  C   UNL     1     -11.890  13.004  70.181  1.00  0.00    -0.324 A  
HETATM   15  C   UNL     1     -12.544  13.995  70.906  1.00  0.00    -0.431 A  
HETATM   16  C   UNL     1     -13.359  13.641  71.966  1.00  0.00    -0.548 A  
HETATM   17  C   UNL     1     -13.532  12.294  72.289  1.00  0.00    -0.365 A  
HETATM   18  C   UNL     1     -12.887  11.265  71.568  1.00  0.00    -0.519 A  
BRANCH  18  19
HETATM   19  C   UNL     1     -13.064   9.810  71.979  1.00  0.00    -0.546 C  
HETATM   20  C   UNL     1     -14.040   8.959  71.147  1.00  0.00    -0.091 C  
HETATM   21  C   UNL     1     -13.736   7.542  71.598  1.00  0.00    -0.465 C  
HETATM   22  C   UNL     1     -12.216   7.519  71.648  1.00  0.00    -0.352 C  
HETATM   23  C   UNL     1     -11.780   8.957  71.962  1.00  0.00    -0.438 C  
ENDBRANCH  18  19
ENDBRANCH  12  13
ENDBRANCH  11  12
ENDBRANCH   8  11
ENDBRANCH   7   8
ENDBRANCH   5   7
TORSDOF 6
ENDMDL
MODEL       81
REMARK 921   NORMALIZED FREE ENERGY PREDICTED BY IDOCK:   -4.96 KCAL/MOL
REMARK 922        TOTAL FREE ENERGY PREDICTED BY IDOCK:   -7.73 KCAL/MOL
REMARK 923 INTER-LIGAND FREE ENERGY PREDICTED BY IDOCK:   -6.56 KCAL/MOL
REMARK 924 INTRA-LIGAND FREE ENERGY PREDICTED BY IDOCK:   -1.17 KCAL/MOL
REMARK 927      BINDING AFFINITY PREDICTED BY RF-SCORE:    0.00 PKD
ROOT
HETATM    1  C   UNL     1     -11.175   7.728  72.439  1.00  0.00    -0.392 C  
HETATM    2  C   UNL     1     -12.153   8.177  71.339  1.00  0.00    -0.297 C  
HETATM    3  C   UNL     1     -12.262   9.714  71.394  1.00  0.00    -0.471 C  
HETATM    4  C   UNL     1     -13.549   7.587  71.605  1.00  0.00    -0.442 C  
HETATM    5  N   UNL     1     -11.685   7.837  69.983  1.00  0.00    -0.456 NA 
HETATM    6  H   UNL     1     -10.846   8.371  69.759  1.00  0.00     0.000 HD 
ENDROOT
BRANCH   5   7
HETATM    7  C   UNL     1     -11.452   6.414  69.735  1.00  0.00    -0.399 C  
BRANCH   7   8
HETATM    8  C   UNL     1     -10.431   6.124  68.617  1.00  0.00    -0.236 C  
HETATM    9  O   UNL     1      -9.133   6.486  69.132  1.00  0.00    -0.136 OA 
HETATM   10  H   UNL     1      -8.504   6.308  68.443  1.00  0.00     0.000 HD 
BRANCH   8  11
HETATM   11  C   UNL     1     -10.672   6.914  67.326  1.00  0.00    -0.351 C  
BRANCH  11  12
HETATM   12  O   UNL     1     -10.582   8.334  67.484  1.00  0.00    -0.257 OA 
BRANCH  12  13
HETATM   13  C   UNL     1      -9.919   9.000  66.473  1.00  0.00    -0.285 A  
HETATM   14  C   UNL     1      -9.039   8.353  65.584  1.00  0.00    -0.155 A  
HETATM   15  C   UNL     1      -8.335   9.064  64.617  1.00  0.00    -0.180 A  
HETATM   16  C   UNL     1      -8.509  10.433  64.513  1.00  0.00    -0.172 A  
HETATM   17  C   UNL     1      -9.398  11.087  65.368  1.00  0.00    -0.244 A  
HETATM   18  C   UNL     1     -10.131  10.392  66.356  1.00  0.00    -0.287 A  
BRANCH  18  19
HETATM   19  C   UNL     1     -11.057  11.146  67.299  1.00  0.00    -0.366 C  
HETATM   20  C   UNL     1     -10.466  11.606  68.644  1.00  0.00    -0.234 C  
HETATM   21  C   UNL     1     -11.511  12.573  69.170  1.00  0.00    -0.361 C  
HETATM   22  C   UNL     1     -11.878  13.382  67.936  1.00  0.00    -0.392 C  
HETATM   23  C   UNL     1     -11.657  12.450  66.735  1.00  0.00    -0.444 C  
ENDBRANCH  18  19
ENDBRANCH  12  13
ENDBRANCH  11  12
ENDBRANCH   8  11
ENDBRANCH   7   8
ENDBRANCH   5   7
TORSDOF 6
ENDMDL
MODEL       82
REMARK 921   NORMALIZED FREE ENERGY PREDICTED BY IDOCK:   -4.94 KCAL/MOL
REMARK 922        TOTAL FREE ENERGY PREDICTED BY IDOCK:   -7.71 KCAL/MOL
REMARK 923 INTER-LIGAND FREE ENERGY PREDICTED BY IDOCK:   -6.97 KCAL/MOL
REMARK 924 INTRA-LIGAND FREE ENERGY PREDICTED BY IDOCK:   -0.74 KCAL/MOL
REMARK 927      BINDING AFFINITY PREDICTED BY RF-SCORE:    0.00 PKD
ROOT
HETATM    1  C   UNL     1     -10.183  13.333  64.439  1.00  0.00    -0.300 C  
HETATM    2  C   UNL     1     -11.185  12.198  64.710  1.00  0.00    -0.323 C  
HETATM    3  C   UNL     1     -10.459  10.855  64.495  1.00  0.00    -0.393 C  
HETATM    4  C   UNL     1     -12.352  12.278  63.711  1.00  0.00    -0.637 C  
HETATM    5  N   UNL     1     -11.679  12.191  66.099  1.00  0.00    -0.522 NA 
HETATM    6  H   UNL     1     -10.918  11.966  66.740  1.00  0.00     0.000 HD 
ENDROOT
BRANCH   5   7
HETATM    7  C   UNL     1     -12.353  13.414  66.535  1.00  0.00    -0.295 C  
BRANCH   7   8
HETATM    8  C   UNL     1     -12.156  13.750  68.028  1.00  0.00    -0.280 C  
HETATM    9  O   UNL     1     -12.391  15.165  68.173  1.00  0.00    -0.499 OA 
HETATM   10  H   UNL     1     -12.269  15.372  69.092  1.00  0.00     0.000 HD 
BRANCH   8  11
HETATM   11  C   UNL     1     -10.753  13.439  68.561  1.00  0.00    -0.262 C  
BRANCH  11  12
HETATM   12  O   UNL     1     -10.478  12.041  68.705  1.00  0.00    -0.223 OA 
BRANCH  12  13
HETATM   13  C   UNL     1     -11.255  11.379  69.635  1.00  0.00    -0.230 A  
HETATM   14  C   UNL     1     -12.163  12.044  70.481  1.00  0.00    -0.414 A  
HETATM   15  C   UNL     1     -12.884  11.357  71.452  1.00  0.00    -0.502 A  
HETATM   16  C   UNL     1     -12.719   9.990  71.586  1.00  0.00    -0.535 A  
HETATM   17  C   UNL     1     -11.843   9.310  70.738  1.00  0.00    -0.303 A  
HETATM   18  C   UNL     1     -11.102   9.978  69.738  1.00  0.00    -0.319 A  
BRANCH  18  19
HETATM   19  C   UNL     1     -10.124   9.209  68.862  1.00  0.00    -0.209 C  
HETATM   20  C   UNL     1      -9.415   7.999  69.497  1.00  0.00    -0.160 C  
HETATM   21  C   UNL     1      -8.795   7.295  68.303  1.00  0.00    -0.127 C  
HETATM   22  C   UNL     1      -9.905   7.344  67.265  1.00  0.00    -0.230 C  
HETATM   23  C   UNL     1     -10.720   8.609  67.574  1.00  0.00    -0.209 C  
ENDBRANCH  18  19
ENDBRANCH  12  13
ENDBRANCH  11  12
ENDBRANCH   8  11
ENDBRANCH   7   8
ENDBRANCH   5   7
TORSDOF 6
ENDMDL
MODEL       83
REMARK 921   NORMALIZED FREE ENERGY PREDICTED BY IDOCK:   -4.92 KCAL/MOL
REMARK 922        TOTAL FREE ENERGY PREDICTED BY IDOCK:   -7.68 KCAL/MOL
REMARK 923 INTER-LIGAND FREE ENERGY PREDICTED BY IDOCK:   -6.87 KCAL/MOL
REMARK 924 INTRA-LIGAND FREE ENERGY PREDICTED BY IDOCK:   -0.80 KCAL/MOL
REMARK 927      BINDING AFFINITY PREDICTED BY RF-SCORE:    0.00 PKD
ROOT
HETATM    1  C   UNL     1      -9.804   8.101  71.008  1.00  0.00    -0.212 C  
HETATM    2  C   UNL     1     -11.165   7.929  71.704  1.00  0.00    -0.251 C  
HETATM    3  C   UNL     1     -10.907   7.455  73.148  1.00  0.00    -0.435 C  
HETATM    4  C   UNL     1     -11.989   6.847  70.984  1.00  0.00    -0.422 C  
HETATM    5  N   UNL     1     -11.921   9.190  71.803  1.00  0.00    -0.358 NA 
HETATM    6  H   UNL     1     -11.439   9.838  72.426  1.00  0.00     0.000 HD 
ENDROOT
BRANCH   5   7
HETATM    7  C   UNL     1     -12.218   9.849  70.531  1.00  0.00    -0.179 C  
BRANCH   7   8
HETATM    8  C   UNL     1     -11.819  11.337  70.478  1.00  0.00    -0.324 C  
HETATM    9  O   UNL     1     -12.847  12.072  71.173  1.00  0.00    -0.337 OA 
HETATM   10  H   UNL     1     -12.601  12.988  71.140  1.00  0.00     0.000 HD 
BRANCH   8  11
HETATM   11  C   UNL     1     -11.700  11.905  69.059  1.00  0.00    -0.331 C  
BRANCH  11  12
HETATM   12  O   UNL     1     -12.051  10.976  68.026  1.00  0.00    -0.615 OA 
BRANCH  12  13
HETATM   13  C   UNL     1     -11.000  10.532  67.249  1.00  0.00    -0.260 A  
HETATM   14  C   UNL     1     -10.093   9.547  67.685  1.00  0.00    -0.254 A  
HETATM   15  C   UNL     1      -9.006   9.168  66.903  1.00  0.00    -0.143 A  
HETATM   16  C   UNL     1      -8.814   9.759  65.667  1.00  0.00    -0.182 A  
HETATM   17  C   UNL     1      -9.718  10.719  65.208  1.00  0.00    -0.308 A  
HETATM   18  C   UNL     1     -10.835  11.120  65.974  1.00  0.00    -0.230 A  
BRANCH  18  19
HETATM   19  C   UNL     1     -11.773  12.201  65.460  1.00  0.00    -0.384 C  
HETATM   20  C   UNL     1     -11.312  13.662  65.612  1.00  0.00    -0.309 C  
HETATM   21  C   UNL     1     -12.285  14.426  64.733  1.00  0.00    -0.458 C  
HETATM   22  C   UNL     1     -12.379  13.555  63.490  1.00  0.00    -0.343 C  
HETATM   23  C   UNL     1     -12.121  12.116  63.960  1.00  0.00    -0.540 C  
ENDBRANCH  18  19
ENDBRANCH  12  13
ENDBRANCH  11  12
ENDBRANCH   8  11
ENDBRANCH   7   8
ENDBRANCH   5   7
TORSDOF 6
ENDMDL
MODEL       84
REMARK 921   NORMALIZED FREE ENERGY PREDICTED BY IDOCK:   -4.91 KCAL/MOL
REMARK 922        TOTAL FREE ENERGY PREDICTED BY IDOCK:   -7.66 KCAL/MOL
REMARK 923 INTER-LIGAND FREE ENERGY PREDICTED BY IDOCK:   -6.80 KCAL/MOL
REMARK 924 INTRA-LIGAND FREE ENERGY PREDICTED BY IDOCK:   -0.86 KCAL/MOL
REMARK 927      BINDING AFFINITY PREDICTED BY RF-SCORE:    0.00 PKD
ROOT
HETATM    1  C   UNL     1     -11.327   7.499  72.546  1.00  0.00    -0.384 C  
HETATM    2  C   UNL     1     -12.085   7.647  71.216  1.00  0.00    -0.314 C  
HETATM    3  C   UNL     1     -13.560   7.276  71.461  1.00  0.00    -0.442 C  
HETATM    4  C   UNL     1     -11.512   6.671  70.173  1.00  0.00    -0.444 C  
HETATM    5  N   UNL     1     -12.078   9.030  70.704  1.00  0.00    -0.477 NA 
HETATM    6  H   UNL     1     -12.613   9.635  71.327  1.00  0.00     0.000 HD 
ENDROOT
BRANCH   5   7
HETATM    7  C   UNL     1     -10.756   9.606  70.462  1.00  0.00    -0.311 C  
BRANCH   7   8
HETATM    8  C   UNL     1     -10.632  10.375  69.131  1.00  0.00    -0.228 C  
HETATM    9  O   UNL     1     -11.516   9.730  68.191  1.00  0.00    -0.520 OA 
HETATM   10  H   UNL     1     -11.440  10.203  67.372  1.00  0.00     0.000 HD 
BRANCH   8  11
HETATM   11  C   UNL     1      -9.220  10.377  68.535  1.00  0.00    -0.145 C  
BRANCH  11  12
HETATM   12  O   UNL     1      -9.025  11.341  67.494  1.00  0.00    -0.139 OA 
BRANCH  12  13
HETATM   13  C   UNL     1      -9.074  10.840  66.209  1.00  0.00    -0.175 A  
HETATM   14  C   UNL     1      -8.431   9.645  65.832  1.00  0.00    -0.136 A  
HETATM   15  C   UNL     1      -8.445   9.201  64.514  1.00  0.00    -0.195 A  
HETATM   16  C   UNL     1      -9.113   9.937  63.551  1.00  0.00    -0.289 A  
HETATM   17  C   UNL     1      -9.779  11.110  63.912  1.00  0.00    -0.325 A  
HETATM   18  C   UNL     1      -9.788  11.584  65.243  1.00  0.00    -0.286 A  
BRANCH  18  19
HETATM   19  C   UNL     1     -10.487  12.890  65.589  1.00  0.00    -0.292 C  
HETATM   20  C   UNL     1     -10.657  13.918  64.456  1.00  0.00    -0.375 C  
HETATM   21  C   UNL     1     -11.644  14.914  65.036  1.00  0.00    -0.357 C  
HETATM   22  C   UNL     1     -12.675  14.020  65.708  1.00  0.00    -0.487 C  
HETATM   23  C   UNL     1     -11.924  12.748  66.130  1.00  0.00    -0.476 C  
ENDBRANCH  18  19
ENDBRANCH  12  13
ENDBRANCH  11  12
ENDBRANCH   8  11
ENDBRANCH   7   8
ENDBRANCH   5   7
TORSDOF 6
ENDMDL
MODEL       85
REMARK 921   NORMALIZED FREE ENERGY PREDICTED BY IDOCK:   -4.90 KCAL/MOL
REMARK 922        TOTAL FREE ENERGY PREDICTED BY IDOCK:   -7.65 KCAL/MOL
REMARK 923 INTER-LIGAND FREE ENERGY PREDICTED BY IDOCK:   -6.40 KCAL/MOL
REMARK 924 INTRA-LIGAND FREE ENERGY PREDICTED BY IDOCK:   -1.25 KCAL/MOL
REMARK 927      BINDING AFFINITY PREDICTED BY RF-SCORE:    0.00 PKD
ROOT
HETATM    1  C   UNL     1     -12.697  14.585  70.408  1.00  0.00    -0.378 C  
HETATM    2  C   UNL     1     -11.511  14.352  69.457  1.00  0.00    -0.288 C  
HETATM    3  C   UNL     1     -10.375  15.312  69.863  1.00  0.00    -0.258 C  
HETATM    4  C   UNL     1     -11.924  14.682  68.012  1.00  0.00    -0.292 C  
HETATM    5  N   UNL     1     -10.961  12.987  69.551  1.00  0.00    -0.459 NA 
HETATM    6  H   UNL     1     -10.536  12.844  70.467  1.00  0.00     0.000 HD 
ENDROOT
BRANCH   5   7
HETATM    7  C   UNL     1     -11.904  11.906  69.264  1.00  0.00    -0.318 C  
BRANCH   7   8
HETATM    8  C   UNL     1     -11.279  10.692  68.548  1.00  0.00    -0.282 C  
HETATM    9  O   UNL     1     -11.572   9.534  69.356  1.00  0.00    -0.441 OA 
HETATM   10  H   UNL     1     -11.186   8.786  68.915  1.00  0.00     0.000 HD 
BRANCH   8  11
HETATM   11  C   UNL     1      -9.759  10.782  68.371  1.00  0.00    -0.174 C  
BRANCH  11  12
HETATM   12  O   UNL     1      -9.348  11.523  67.216  1.00  0.00    -0.164 OA 
BRANCH  12  13
HETATM   13  C   UNL     1      -9.106  10.769  66.086  1.00  0.00    -0.174 A  
HETATM   14  C   UNL     1      -8.137   9.748  66.044  1.00  0.00    -0.114 A  
HETATM   15  C   UNL     1      -7.872   9.049  64.870  1.00  0.00    -0.119 A  
HETATM   16  C   UNL     1      -8.579   9.351  63.721  1.00  0.00    -0.224 A  
HETATM   17  C   UNL     1      -9.562  10.343  63.751  1.00  0.00    -0.366 A  
HETATM   18  C   UNL     1      -9.859  11.064  64.928  1.00  0.00    -0.327 A  
BRANCH  18  19
HETATM   19  C   UNL     1     -10.906  12.169  64.910  1.00  0.00    -0.352 C  
HETATM   20  C   UNL     1     -10.405  13.608  64.692  1.00  0.00    -0.407 C  
HETATM   21  C   UNL     1     -11.680  14.380  64.406  1.00  0.00    -0.390 C  
HETATM   22  C   UNL     1     -12.436  13.454  63.465  1.00  0.00    -0.287 C  
HETATM   23  C   UNL     1     -11.998  12.028  63.830  1.00  0.00    -0.588 C  
ENDBRANCH  18  19
ENDBRANCH  12  13
ENDBRANCH  11  12
ENDBRANCH   8  11
ENDBRANCH   7   8
ENDBRANCH   5   7
TORSDOF 6
ENDMDL
MODEL       86
REMARK 921   NORMALIZED FREE ENERGY PREDICTED BY IDOCK:   -4.87 KCAL/MOL
REMARK 922        TOTAL FREE ENERGY PREDICTED BY IDOCK:   -7.61 KCAL/MOL
REMARK 923 INTER-LIGAND FREE ENERGY PREDICTED BY IDOCK:   -7.41 KCAL/MOL
REMARK 924 INTRA-LIGAND FREE ENERGY PREDICTED BY IDOCK:   -0.20 KCAL/MOL
REMARK 927      BINDING AFFINITY PREDICTED BY RF-SCORE:    0.00 PKD
ROOT
HETATM    1  C   UNL     1      -9.336  18.966  68.835  1.00  0.00    -0.335 C  
HETATM    2  C   UNL     1      -8.889  19.678  67.547  1.00  0.00    -0.311 C  
HETATM    3  C   UNL     1      -7.419  20.107  67.722  1.00  0.00    -0.327 C  
HETATM    4  C   UNL     1      -9.736  20.943  67.325  1.00  0.00    -0.361 C  
HETATM    5  N   UNL     1      -8.933  18.800  66.363  1.00  0.00    -0.364 NA 
HETATM    6  H   UNL     1      -8.238  18.058  66.453  1.00  0.00     0.000 HD 
ENDROOT
BRANCH   5   7
HETATM    7  C   UNL     1     -10.241  18.224  66.053  1.00  0.00    -0.323 C  
BRANCH   7   8
HETATM    8  C   UNL     1     -10.181  16.849  65.357  1.00  0.00    -0.030 C  
HETATM    9  O   UNL     1     -11.354  16.750  64.524  1.00  0.00    -0.959 OA 
HETATM   10  H   UNL     1     -11.317  15.903  64.096  1.00  0.00     0.000 HD 
BRANCH   8  11
HETATM   11  C   UNL     1     -10.174  15.658  66.321  1.00  0.00    -0.299 C  
BRANCH  11  12
HETATM   12  O   UNL     1     -11.296  14.779  66.172  1.00  0.00    -0.341 OA 
BRANCH  12  13
HETATM   13  C   UNL     1     -11.008  13.542  65.631  1.00  0.00    -0.289 A  
HETATM   14  C   UNL     1     -10.916  13.320  64.243  1.00  0.00    -0.418 A  
HETATM   15  C   UNL     1     -10.689  12.048  63.727  1.00  0.00    -0.478 A  
HETATM   16  C   UNL     1     -10.538  10.977  64.590  1.00  0.00    -0.369 A  
HETATM   17  C   UNL     1     -10.599  11.183  65.970  1.00  0.00    -0.298 A  
HETATM   18  C   UNL     1     -10.822  12.463  66.524  1.00  0.00    -0.284 A  
BRANCH  18  19
HETATM   19  C   UNL     1     -10.927  12.641  68.032  1.00  0.00    -0.266 C  
HETATM   20  C   UNL     1     -12.130  13.443  68.562  1.00  0.00    -0.283 C  
HETATM   21  C   UNL     1     -12.111  13.154  70.051  1.00  0.00    -0.375 C  
HETATM   22  C   UNL     1     -11.832  11.659  70.105  1.00  0.00    -0.428 C  
HETATM   23  C   UNL     1     -11.012  11.335  68.847  1.00  0.00    -0.274 C  
ENDBRANCH  18  19
ENDBRANCH  12  13
ENDBRANCH  11  12
ENDBRANCH   8  11
ENDBRANCH   7   8
ENDBRANCH   5   7
TORSDOF 6
ENDMDL
MODEL       87
REMARK 921   NORMALIZED FREE ENERGY PREDICTED BY IDOCK:   -4.84 KCAL/MOL
REMARK 922        TOTAL FREE ENERGY PREDICTED BY IDOCK:   -7.57 KCAL/MOL
REMARK 923 INTER-LIGAND FREE ENERGY PREDICTED BY IDOCK:   -6.80 KCAL/MOL
REMARK 924 INTRA-LIGAND FREE ENERGY PREDICTED BY IDOCK:   -0.77 KCAL/MOL
REMARK 927      BINDING AFFINITY PREDICTED BY RF-SCORE:    0.00 PKD
ROOT
HETATM    1  C   UNL     1     -10.458  14.228  64.989  1.00  0.00    -0.458 C  
HETATM    2  C   UNL     1     -11.392  13.360  65.850  1.00  0.00    -0.309 C  
HETATM    3  C   UNL     1     -12.569  12.902  64.968  1.00  0.00    -0.538 C  
HETATM    4  C   UNL     1     -11.959  14.194  67.013  1.00  0.00    -0.471 C  
HETATM    5  N   UNL     1     -10.738  12.137  66.348  1.00  0.00    -0.248 NA 
HETATM    6  H   UNL     1     -10.521  11.515  65.569  1.00  0.00     0.000 HD 
ENDROOT
BRANCH   5   7
HETATM    7  C   UNL     1      -9.543  12.347  67.166  1.00  0.00    -0.206 C  
BRANCH   7   8
HETATM    8  C   UNL     1      -8.426  11.310  66.937  1.00  0.00    -0.152 C  
HETATM    9  O   UNL     1      -8.297  11.141  65.511  1.00  0.00    -0.343 OA 
HETATM   10  H   UNL     1      -7.609  10.501  65.370  1.00  0.00     0.000 HD 
BRANCH   8  11
HETATM   11  C   UNL     1      -8.708   9.937  67.559  1.00  0.00    -0.121 C  
BRANCH  11  12
HETATM   12  O   UNL     1     -10.080   9.725  67.911  1.00  0.00    -0.157 OA 
BRANCH  12  13
HETATM   13  C   UNL     1     -10.356   8.509  68.504  1.00  0.00    -0.198 A  
HETATM   14  C   UNL     1     -10.071   7.277  67.885  1.00  0.00    -0.217 A  
HETATM   15  C   UNL     1     -10.421   6.070  68.481  1.00  0.00    -0.287 A  
HETATM   16  C   UNL     1     -11.051   6.073  69.713  1.00  0.00    -0.476 A  
HETATM   17  C   UNL     1     -11.318   7.285  70.354  1.00  0.00    -0.299 A  
HETATM   18  C   UNL     1     -10.969   8.526  69.778  1.00  0.00    -0.131 A  
BRANCH  18  19
HETATM   19  C   UNL     1     -11.317   9.827  70.486  1.00  0.00    -0.382 C  
HETATM   20  C   UNL     1     -12.047  10.902  69.660  1.00  0.00    -0.400 C  
HETATM   21  C   UNL     1     -12.517  11.888  70.713  1.00  0.00    -0.384 C  
HETATM   22  C   UNL     1     -13.039  10.983  71.819  1.00  0.00    -0.554 C  
HETATM   23  C   UNL     1     -12.224   9.685  71.724  1.00  0.00    -0.464 C  
ENDBRANCH  18  19
ENDBRANCH  12  13
ENDBRANCH  11  12
ENDBRANCH   8  11
ENDBRANCH   7   8
ENDBRANCH   5   7
TORSDOF 6
ENDMDL
MODEL       88
REMARK 921   NORMALIZED FREE ENERGY PREDICTED BY IDOCK:   -4.83 KCAL/MOL
REMARK 922        TOTAL FREE ENERGY PREDICTED BY IDOCK:   -7.55 KCAL/MOL
REMARK 923 INTER-LIGAND FREE ENERGY PREDICTED BY IDOCK:   -6.72 KCAL/MOL
REMARK 924 INTRA-LIGAND FREE ENERGY PREDICTED BY IDOCK:   -0.84 KCAL/MOL
REMARK 927      BINDING AFFINITY PREDICTED BY RF-SCORE:    0.00 PKD
ROOT
HETATM    1  C   UNL     1     -10.808  19.431  66.367  1.00  0.00    -0.421 C  
HETATM    2  C   UNL     1      -9.586  19.132  67.251  1.00  0.00    -0.314 C  
HETATM    3  C   UNL     1      -9.067  20.467  67.819  1.00  0.00    -0.265 C  
HETATM    4  C   UNL     1      -8.466  18.503  66.404  1.00  0.00    -0.275 C  
HETATM    5  N   UNL     1      -9.913  18.280  68.410  1.00  0.00    -0.363 NA 
HETATM    6  H   UNL     1     -10.527  18.784  69.051  1.00  0.00     0.000 HD 
ENDROOT
BRANCH   5   7
HETATM    7  C   UNL     1     -10.488  16.974  68.090  1.00  0.00    -0.357 C  
BRANCH   7   8
HETATM    8  C   UNL     1      -9.615  15.775  68.513  1.00  0.00    -0.204 C  
HETATM    9  O   UNL     1      -8.532  16.305  69.304  1.00  0.00    -0.238 OA 
HETATM   10  H   UNL     1      -7.994  15.567  69.564  1.00  0.00     0.000 HD 
BRANCH   8  11
HETATM   11  C   UNL     1      -9.014  14.992  67.340  1.00  0.00    -0.186 C  
BRANCH  11  12
HETATM   12  O   UNL     1      -9.548  13.672  67.183  1.00  0.00    -0.226 OA 
BRANCH  12  13
HETATM   13  C   UNL     1     -10.344  13.486  66.071  1.00  0.00    -0.303 A  
HETATM   14  C   UNL     1     -10.854  14.556  65.311  1.00  0.00    -0.377 A  
HETATM   15  C   UNL     1     -11.707  14.337  64.234  1.00  0.00    -0.348 A  
HETATM   16  C   UNL     1     -12.056  13.043  63.891  1.00  0.00    -0.541 A  
HETATM   17  C   UNL     1     -11.538  11.969  64.617  1.00  0.00    -0.364 A  
HETATM   18  C   UNL     1     -10.665  12.158  65.711  1.00  0.00    -0.303 A  
BRANCH  18  19
HETATM   19  C   UNL     1     -10.157  10.964  66.506  1.00  0.00    -0.269 C  
HETATM   20  C   UNL     1     -11.081  10.409  67.605  1.00  0.00    -0.361 C  
HETATM   21  C   UNL     1     -10.442   9.077  67.955  1.00  0.00    -0.270 C  
HETATM   22  C   UNL     1     -10.086   8.501  66.593  1.00  0.00    -0.364 C  
HETATM   23  C   UNL     1      -9.833   9.706  65.675  1.00  0.00    -0.369 C  
ENDBRANCH  18  19
ENDBRANCH  12  13
ENDBRANCH  11  12
ENDBRANCH   8  11
ENDBRANCH   7   8
ENDBRANCH   5   7
TORSDOF 6
ENDMDL
MODEL       89
REMARK 921   NORMALIZED FREE ENERGY PREDICTED BY IDOCK:   -4.79 KCAL/MOL
REMARK 922        TOTAL FREE ENERGY PREDICTED BY IDOCK:   -7.50 KCAL/MOL
REMARK 923 INTER-LIGAND FREE ENERGY PREDICTED BY IDOCK:   -6.61 KCAL/MOL
REMARK 924 INTRA-LIGAND FREE ENERGY PREDICTED BY IDOCK:   -0.89 KCAL/MOL
REMARK 927      BINDING AFFINITY PREDICTED BY RF-SCORE:    0.00 PKD
ROOT
HETATM    1  C   UNL     1     -10.521   8.779  67.932  1.00  0.00    -0.275 C  
HETATM    2  C   UNL     1     -10.397  10.252  67.509  1.00  0.00    -0.229 C  
HETATM    3  C   UNL     1     -10.233  10.298  65.977  1.00  0.00    -0.298 C  
HETATM    4  C   UNL     1      -9.142  10.877  68.144  1.00  0.00    -0.155 C  
HETATM    5  N   UNL     1     -11.599  11.043  67.828  1.00  0.00    -0.564 NA 
HETATM    6  H   UNL     1     -12.388  10.722  67.265  1.00  0.00     0.000 HD 
ENDROOT
BRANCH   5   7
HETATM    7  C   UNL     1     -11.975  11.078  69.241  1.00  0.00    -0.339 C  
BRANCH   7   8
HETATM    8  C   UNL     1     -11.720  12.433  69.932  1.00  0.00    -0.266 C  
HETATM    9  O   UNL     1     -12.550  12.464  71.111  1.00  0.00    -0.364 OA 
HETATM   10  H   UNL     1     -12.394  13.299  71.536  1.00  0.00     0.000 HD 
BRANCH   8  11
HETATM   11  C   UNL     1     -12.067  13.652  69.070  1.00  0.00    -0.309 C  
BRANCH  11  12
HETATM   12  O   UNL     1     -10.972  14.149  68.291  1.00  0.00    -0.239 OA 
BRANCH  12  13
HETATM   13  C   UNL     1     -11.260  14.408  66.966  1.00  0.00    -0.328 A  
HETATM   14  C   UNL     1     -12.048  13.551  66.175  1.00  0.00    -0.482 A  
HETATM   15  C   UNL     1     -12.266  13.807  64.825  1.00  0.00    -0.438 A  
HETATM   16  C   UNL     1     -11.709  14.933  64.245  1.00  0.00    -0.261 A  
HETATM   17  C   UNL     1     -10.947  15.809  65.021  1.00  0.00    -0.431 A  
HETATM   18  C   UNL     1     -10.713  15.580  66.395  1.00  0.00    -0.303 A  
BRANCH  18  19
HETATM   19  C   UNL     1      -9.839  16.533  67.196  1.00  0.00    -0.255 C  
HETATM   20  C   UNL     1      -8.315  16.396  67.030  1.00  0.00    -0.230 C  
HETATM   21  C   UNL     1      -7.781  17.659  67.680  1.00  0.00    -0.211 C  
HETATM   22  C   UNL     1      -8.728  18.734  67.168  1.00  0.00    -0.288 C  
HETATM   23  C   UNL     1     -10.072  18.032  66.922  1.00  0.00    -0.350 C  
ENDBRANCH  18  19
ENDBRANCH  12  13
ENDBRANCH  11  12
ENDBRANCH   8  11
ENDBRANCH   7   8
ENDBRANCH   5   7
TORSDOF 6
ENDMDL
MODEL       90
REMARK 921   NORMALIZED FREE ENERGY PREDICTED BY IDOCK:   -4.79 KCAL/MOL
REMARK 922        TOTAL FREE ENERGY PREDICTED BY IDOCK:   -7.50 KCAL/MOL
REMARK 923 INTER-LIGAND FREE ENERGY PREDICTED BY IDOCK:   -6.65 KCAL/MOL
REMARK 924 INTRA-LIGAND FREE ENERGY PREDICTED BY IDOCK:   -0.85 KCAL/MOL
REMARK 927      BINDING AFFINITY PREDICTED BY RF-SCORE:    0.00 PKD
ROOT
HETATM    1  C   UNL     1      -6.191  15.837  69.749  1.00  0.00    -0.172 C  
HETATM    2  C   UNL     1      -6.983  15.182  68.604  1.00  0.00    -0.113 C  
HETATM    3  C   UNL     1      -6.653  13.677  68.592  1.00  0.00    -0.097 C  
HETATM    4  C   UNL     1      -6.546  15.780  67.255  1.00  0.00    -0.169 C  
HETATM    5  N   UNL     1      -8.442  15.292  68.782  1.00  0.00    -0.168 NA 
HETATM    6  H   UNL     1      -8.737  14.744  69.591  1.00  0.00     0.000 HD 
ENDROOT
BRANCH   5   7
HETATM    7  C   UNL     1      -8.965  16.654  68.884  1.00  0.00    -0.239 C  
BRANCH   7   8
HETATM    8  C   UNL     1     -10.306  16.876  68.156  1.00  0.00    -0.336 C  
HETATM    9  O   UNL     1     -10.455  18.299  67.977  1.00  0.00    -0.381 OA 
HETATM   10  H   UNL     1     -11.282  18.435  67.530  1.00  0.00     0.000 HD 
BRANCH   8  11
HETATM   11  C   UNL     1     -11.529  16.359  68.923  1.00  0.00    -0.216 C  
BRANCH  11  12
HETATM   12  O   UNL     1     -11.429  14.989  69.328  1.00  0.00    -0.272 OA 
BRANCH  12  13
HETATM   13  C   UNL     1     -12.338  14.588  70.287  1.00  0.00    -0.349 A  
HETATM   14  C   UNL     1     -13.187  15.491  70.956  1.00  0.00    -0.539 A  
HETATM   15  C   UNL     1     -14.047  15.064  71.963  1.00  0.00    -0.633 A  
HETATM   16  C   UNL     1     -14.082  13.725  72.310  1.00  0.00    -0.627 A  
HETATM   17  C   UNL     1     -13.268  12.812  71.638  1.00  0.00    -0.410 A  
HETATM   18  C   UNL     1     -12.389  13.213  70.607  1.00  0.00    -0.405 A  
BRANCH  18  19
HETATM   19  C   UNL     1     -11.484  12.195  69.929  1.00  0.00    -0.210 C  
HETATM   20  C   UNL     1     -11.453  10.776  70.524  1.00  0.00    -0.367 C  
HETATM   21  C   UNL     1     -10.742   9.967  69.455  1.00  0.00    -0.265 C  
HETATM   22  C   UNL     1     -11.374  10.473  68.168  1.00  0.00    -0.324 C  
HETATM   23  C   UNL     1     -11.789  11.926  68.441  1.00  0.00    -0.352 C  
ENDBRANCH  18  19
ENDBRANCH  12  13
ENDBRANCH  11  12
ENDBRANCH   8  11
ENDBRANCH   7   8
ENDBRANCH   5   7
TORSDOF 6
ENDMDL
MODEL       91
REMARK 921   NORMALIZED FREE ENERGY PREDICTED BY IDOCK:   -4.77 KCAL/MOL
REMARK 922        TOTAL FREE ENERGY PREDICTED BY IDOCK:   -7.47 KCAL/MOL
REMARK 923 INTER-LIGAND FREE ENERGY PREDICTED BY IDOCK:   -6.83 KCAL/MOL
REMARK 924 INTRA-LIGAND FREE ENERGY PREDICTED BY IDOCK:   -0.64 KCAL/MOL
REMARK 927      BINDING AFFINITY PREDICTED BY RF-SCORE:    0.00 PKD
ROOT
HETATM    1  C   UNL     1      -8.422  18.538  66.447  1.00  0.00    -0.275 C  
HETATM    2  C   UNL     1      -9.853  18.717  66.982  1.00  0.00    -0.327 C  
HETATM    3  C   UNL     1     -10.706  19.352  65.866  1.00  0.00    -0.501 C  
HETATM    4  C   UNL     1      -9.848  19.675  68.186  1.00  0.00    -0.524 C  
HETATM    5  N   UNL     1     -10.499  17.437  67.328  1.00  0.00    -0.337 NA 
HETATM    6  H   UNL     1     -10.650  16.883  66.485  1.00  0.00     0.000 HD 
ENDROOT
BRANCH   5   7
HETATM    7  C   UNL     1      -9.807  16.634  68.336  1.00  0.00    -0.252 C  
BRANCH   7   8
HETATM    8  C   UNL     1     -10.678  16.250  69.549  1.00  0.00    -0.323 C  
HETATM    9  O   UNL     1      -9.860  15.430  70.409  1.00  0.00    -0.369 OA 
HETATM   10  H   UNL     1     -10.397  15.193  71.156  1.00  0.00     0.000 HD 
BRANCH   8  11
HETATM   11  C   UNL     1     -11.940  15.457  69.190  1.00  0.00    -0.299 C  
BRANCH  11  12
HETATM   12  O   UNL     1     -11.696  14.083  68.868  1.00  0.00    -0.295 OA 
BRANCH  12  13
HETATM   13  C   UNL     1     -12.077  13.174  69.835  1.00  0.00    -0.287 A  
HETATM   14  C   UNL     1     -12.901  13.520  70.923  1.00  0.00    -0.298 A  
HETATM   15  C   UNL     1     -13.215  12.596  71.915  1.00  0.00    -0.504 A  
HETATM   16  C   UNL     1     -12.720  11.307  71.830  1.00  0.00    -0.379 A  
HETATM   17  C   UNL     1     -11.923  10.939  70.743  1.00  0.00    -0.449 A  
HETATM   18  C   UNL     1     -11.593  11.852  69.717  1.00  0.00    -0.359 A  
BRANCH  18  19
HETATM   19  C   UNL     1     -10.685  11.427  68.573  1.00  0.00    -0.235 C  
HETATM   20  C   UNL     1      -9.428  10.616  68.937  1.00  0.00    -0.199 C  
HETATM   21  C   UNL     1      -8.950  10.094  67.595  1.00  0.00    -0.134 C  
HETATM   22  C   UNL     1     -10.241   9.648  66.924  1.00  0.00    -0.304 C  
HETATM   23  C   UNL     1     -11.348  10.547  67.494  1.00  0.00    -0.181 C  
ENDBRANCH  18  19
ENDBRANCH  12  13
ENDBRANCH  11  12
ENDBRANCH   8  11
ENDBRANCH   7   8
ENDBRANCH   5   7
TORSDOF 6
ENDMDL
MODEL       92
REMARK 921   NORMALIZED FREE ENERGY PREDICTED BY IDOCK:   -4.74 KCAL/MOL
REMARK 922        TOTAL FREE ENERGY PREDICTED BY IDOCK:   -7.43 KCAL/MOL
REMARK 923 INTER-LIGAND FREE ENERGY PREDICTED BY IDOCK:   -6.32 KCAL/MOL
REMARK 924 INTRA-LIGAND FREE ENERGY PREDICTED BY IDOCK:   -1.11 KCAL/MOL
REMARK 927      BINDING AFFINITY PREDICTED BY RF-SCORE:    0.00 PKD
ROOT
HETATM    1  C   UNL     1     -10.601  14.089  64.582  1.00  0.00    -0.416 C  
HETATM    2  C   UNL     1     -11.670  13.115  65.105  1.00  0.00    -0.336 C  
HETATM    3  C   UNL     1     -12.300  12.399  63.893  1.00  0.00    -0.602 C  
HETATM    4  C   UNL     1     -12.780  13.894  65.831  1.00  0.00    -0.466 C  
HETATM    5  N   UNL     1     -11.110  12.062  65.972  1.00  0.00    -0.308 NA 
HETATM    6  H   UNL     1     -10.505  11.447  65.428  1.00  0.00     0.000 HD 
ENDROOT
BRANCH   5   7
HETATM    7  C   UNL     1     -10.404  12.534  67.162  1.00  0.00    -0.220 C  
BRANCH   7   8
HETATM    8  C   UNL     1      -9.001  11.922  67.353  1.00  0.00    -0.173 C  
HETATM    9  O   UNL     1      -8.499  11.610  66.037  1.00  0.00    -0.360 OA 
HETATM   10  H   UNL     1      -7.635  11.232  66.155  1.00  0.00     0.000 HD 
BRANCH   8  11
HETATM   11  C   UNL     1      -8.986  10.638  68.189  1.00  0.00    -0.141 C  
BRANCH  11  12
HETATM   12  O   UNL     1     -10.282  10.075  68.421  1.00  0.00    -0.159 OA 
BRANCH  12  13
HETATM   13  C   UNL     1     -10.408   8.735  68.113  1.00  0.00    -0.216 A  
HETATM   14  C   UNL     1     -10.204   8.230  66.815  1.00  0.00    -0.375 A  
HETATM   15  C   UNL     1     -10.402   6.884  66.523  1.00  0.00    -0.115 A  
HETATM   16  C   UNL     1     -10.797   6.018  67.528  1.00  0.00    -0.393 A  
HETATM   17  C   UNL     1     -10.978   6.497  68.827  1.00  0.00    -0.371 A  
HETATM   18  C   UNL     1     -10.778   7.856  69.156  1.00  0.00    -0.130 A  
BRANCH  18  19
HETATM   19  C   UNL     1     -11.029   8.349  70.573  1.00  0.00    -0.258 C  
HETATM   20  C   UNL     1     -12.140   7.646  71.375  1.00  0.00    -0.342 C  
HETATM   21  C   UNL     1     -11.907   8.136  72.792  1.00  0.00    -0.296 C  
HETATM   22  C   UNL     1     -10.395   8.055  72.937  1.00  0.00    -0.397 C  
HETATM   23  C   UNL     1      -9.822   8.261  71.528  1.00  0.00    -0.250 C  
ENDBRANCH  18  19
ENDBRANCH  12  13
ENDBRANCH  11  12
ENDBRANCH   8  11
ENDBRANCH   7   8
ENDBRANCH   5   7
TORSDOF 6
ENDMDL
MODEL       93
REMARK 921   NORMALIZED FREE ENERGY PREDICTED BY IDOCK:   -4.72 KCAL/MOL
REMARK 922        TOTAL FREE ENERGY PREDICTED BY IDOCK:   -7.40 KCAL/MOL
REMARK 923 INTER-LIGAND FREE ENERGY PREDICTED BY IDOCK:   -6.50 KCAL/MOL
REMARK 924 INTRA-LIGAND FREE ENERGY PREDICTED BY IDOCK:   -0.90 KCAL/MOL
REMARK 927      BINDING AFFINITY PREDICTED BY RF-SCORE:    0.00 PKD
ROOT
HETATM    1  C   UNL     1      -8.965  20.432  67.207  1.00  0.00    -0.460 C  
HETATM    2  C   UNL     1      -7.848  19.426  67.533  1.00  0.00    -0.258 C  
HETATM    3  C   UNL     1      -6.691  20.194  68.200  1.00  0.00    -0.329 C  
HETATM    4  C   UNL     1      -7.318  18.791  66.235  1.00  0.00    -0.282 C  
HETATM    5  N   UNL     1      -8.274  18.390  68.492  1.00  0.00    -0.317 NA 
HETATM    6  H   UNL     1      -8.458  18.812  69.402  1.00  0.00     0.000 HD 
ENDROOT
BRANCH   5   7
HETATM    7  C   UNL     1      -9.417  17.577  68.077  1.00  0.00    -0.280 C  
BRANCH   7   8
HETATM    8  C   UNL     1      -9.225  16.061  68.280  1.00  0.00    -0.191 C  
HETATM    9  O   UNL     1      -8.486  15.893  69.508  1.00  0.00    -0.234 OA 
HETATM   10  H   UNL     1      -8.368  14.959  69.632  1.00  0.00     0.000 HD 
BRANCH   8  11
HETATM   11  C   UNL     1      -8.446  15.370  67.155  1.00  0.00    -0.214 C  
BRANCH  11  12
HETATM   12  O   UNL     1      -8.964  14.087  66.787  1.00  0.00    -0.240 OA 
BRANCH  12  13
HETATM   13  C   UNL     1     -10.165  14.107  66.106  1.00  0.00    -0.304 A  
HETATM   14  C   UNL     1     -10.324  14.746  64.862  1.00  0.00    -0.365 A  
HETATM   15  C   UNL     1     -11.563  14.805  64.232  1.00  0.00    -0.215 A  
HETATM   16  C   UNL     1     -12.663  14.215  64.830  1.00  0.00    -0.284 A  
HETATM   17  C   UNL     1     -12.518  13.554  66.051  1.00  0.00    -0.456 A  
HETATM   18  C   UNL     1     -11.272  13.472  66.712  1.00  0.00    -0.327 A  
BRANCH  18  19
HETATM   19  C   UNL     1     -11.163  12.782  68.064  1.00  0.00    -0.310 C  
HETATM   20  C   UNL     1     -12.090  13.285  69.186  1.00  0.00    -0.283 C  
HETATM   21  C   UNL     1     -11.964  12.208  70.248  1.00  0.00    -0.389 C  
HETATM   22  C   UNL     1     -12.018  10.922  69.438  1.00  0.00    -0.393 C  
HETATM   23  C   UNL     1     -11.440  11.265  68.057  1.00  0.00    -0.369 C  
ENDBRANCH  18  19
ENDBRANCH  12  13
ENDBRANCH  11  12
ENDBRANCH   8  11
ENDBRANCH   7   8
ENDBRANCH   5   7
TORSDOF 6
ENDMDL
MODEL       94
REMARK 921   NORMALIZED FREE ENERGY PREDICTED BY IDOCK:   -4.72 KCAL/MOL
REMARK 922        TOTAL FREE ENERGY PREDICTED BY IDOCK:   -7.40 KCAL/MOL
REMARK 923 INTER-LIGAND FREE ENERGY PREDICTED BY IDOCK:   -6.44 KCAL/MOL
REMARK 924 INTRA-LIGAND FREE ENERGY PREDICTED BY IDOCK:   -0.96 KCAL/MOL
REMARK 927      BINDING AFFINITY PREDICTED BY RF-SCORE:    0.00 PKD
ROOT
HETATM    1  C   UNL     1     -11.015   7.798  71.540  1.00  0.00    -0.267 C  
HETATM    2  C   UNL     1     -10.370   8.659  70.440  1.00  0.00    -0.200 C  
HETATM    3  C   UNL     1      -9.160   9.391  71.053  1.00  0.00    -0.147 C  
HETATM    4  C   UNL     1     -11.372   9.718  69.947  1.00  0.00    -0.238 C  
HETATM    5  N   UNL     1      -9.852   7.858  69.316  1.00  0.00    -0.174 NA 
HETATM    6  H   UNL     1      -9.070   7.283  69.629  1.00  0.00     0.000 HD 
ENDROOT
BRANCH   5   7
HETATM    7  C   UNL     1     -10.839   7.027  68.627  1.00  0.00    -0.147 C  
BRANCH   7   8
HETATM    8  C   UNL     1     -10.951   7.298  67.113  1.00  0.00    -0.215 C  
HETATM    9  O   UNL     1     -11.023   6.014  66.461  1.00  0.00    -0.631 OA 
HETATM   10  H   UNL     1     -11.091   6.181  65.529  1.00  0.00     0.000 HD 
BRANCH   8  11
HETATM   11  C   UNL     1      -9.763   8.068  66.524  1.00  0.00    -0.227 C  
BRANCH  11  12
HETATM   12  O   UNL     1     -10.026   9.456  66.288  1.00  0.00    -0.261 OA 
BRANCH  12  13
HETATM   13  C   UNL     1      -9.727   9.906  65.017  1.00  0.00    -0.288 A  
HETATM   14  C   UNL     1      -8.856   9.218  64.151  1.00  0.00    -0.178 A  
HETATM   15  C   UNL     1      -8.524   9.730  62.901  1.00  0.00    -0.177 A  
HETATM   16  C   UNL     1      -9.067  10.935  62.490  1.00  0.00    -0.361 A  
HETATM   17  C   UNL     1      -9.954  11.617  63.325  1.00  0.00    -0.442 A  
HETATM   18  C   UNL     1     -10.315  11.120  64.596  1.00  0.00    -0.393 A  
BRANCH  18  19
HETATM   19  C   UNL     1     -11.250  11.915  65.497  1.00  0.00    -0.353 C  
HETATM   20  C   UNL     1     -10.653  13.130  66.230  1.00  0.00    -0.292 C  
HETATM   21  C   UNL     1     -11.879  13.857  66.750  1.00  0.00    -0.452 C  
HETATM   22  C   UNL     1     -12.836  13.801  65.569  1.00  0.00    -0.464 C  
HETATM   23  C   UNL     1     -12.485  12.519  64.799  1.00  0.00    -0.532 C  
ENDBRANCH  18  19
ENDBRANCH  12  13
ENDBRANCH  11  12
ENDBRANCH   8  11
ENDBRANCH   7   8
ENDBRANCH   5   7
TORSDOF 6
ENDMDL
MODEL       95
REMARK 921   NORMALIZED FREE ENERGY PREDICTED BY IDOCK:   -4.69 KCAL/MOL
REMARK 922        TOTAL FREE ENERGY PREDICTED BY IDOCK:   -7.36 KCAL/MOL
REMARK 923 INTER-LIGAND FREE ENERGY PREDICTED BY IDOCK:   -7.03 KCAL/MOL
REMARK 924 INTRA-LIGAND FREE ENERGY PREDICTED BY IDOCK:   -0.33 KCAL/MOL
REMARK 927      BINDING AFFINITY PREDICTED BY RF-SCORE:    0.00 PKD
ROOT
HETATM    1  C   UNL     1      -8.795  16.396  67.934  1.00  0.00    -0.184 C  
HETATM    2  C   UNL     1      -8.775  17.190  66.616  1.00  0.00    -0.252 C  
HETATM    3  C   UNL     1      -7.306  17.356  66.180  1.00  0.00    -0.331 C  
HETATM    4  C   UNL     1      -9.371  18.591  66.838  1.00  0.00    -0.294 C  
HETATM    5  N   UNL     1      -9.464  16.490  65.516  1.00  0.00    -0.427 NA 
HETATM    6  H   UNL     1      -8.953  15.643  65.267  1.00  0.00     0.000 HD 
ENDROOT
BRANCH   5   7
HETATM    7  C   UNL     1     -10.872  16.173  65.755  1.00  0.00    -0.201 C  
BRANCH   7   8
HETATM    8  C   UNL     1     -11.264  14.723  65.407  1.00  0.00    -0.347 C  
HETATM    9  O   UNL     1     -11.790  14.741  64.065  1.00  0.00    -0.702 OA 
HETATM   10  H   UNL     1     -12.031  13.848  63.851  1.00  0.00     0.000 HD 
BRANCH   8  11
HETATM   11  C   UNL     1     -12.330  14.122  66.331  1.00  0.00    -0.400 C  
BRANCH  11  12
HETATM   12  O   UNL     1     -12.304  12.692  66.402  1.00  0.00    -0.521 OA 
BRANCH  12  13
HETATM   13  C   UNL     1     -11.079  12.139  66.720  1.00  0.00    -0.300 A  
HETATM   14  C   UNL     1     -10.057  11.954  65.769  1.00  0.00    -0.272 A  
HETATM   15  C   UNL     1      -8.858  11.334  66.107  1.00  0.00    -0.194 A  
HETATM   16  C   UNL     1      -8.656  10.899  67.405  1.00  0.00    -0.127 A  
HETATM   17  C   UNL     1      -9.648  11.099  68.367  1.00  0.00    -0.192 A  
HETATM   18  C   UNL     1     -10.872  11.730  68.057  1.00  0.00    -0.256 A  
BRANCH  18  19
HETATM   19  C   UNL     1     -11.948  11.889  69.121  1.00  0.00    -0.336 C  
HETATM   20  C   UNL     1     -11.869  10.956  70.344  1.00  0.00    -0.449 C  
HETATM   21  C   UNL     1     -12.848  11.581  71.321  1.00  0.00    -0.463 C  
HETATM   22  C   UNL     1     -12.545  13.067  71.203  1.00  0.00    -0.388 C  
HETATM   23  C   UNL     1     -12.034  13.285  69.771  1.00  0.00    -0.391 C  
ENDBRANCH  18  19
ENDBRANCH  12  13
ENDBRANCH  11  12
ENDBRANCH   8  11
ENDBRANCH   7   8
ENDBRANCH   5   7
TORSDOF 6
ENDMDL
MODEL       96
REMARK 921   NORMALIZED FREE ENERGY PREDICTED BY IDOCK:   -4.68 KCAL/MOL
REMARK 922        TOTAL FREE ENERGY PREDICTED BY IDOCK:   -7.35 KCAL/MOL
REMARK 923 INTER-LIGAND FREE ENERGY PREDICTED BY IDOCK:   -6.60 KCAL/MOL
REMARK 924 INTRA-LIGAND FREE ENERGY PREDICTED BY IDOCK:   -0.75 KCAL/MOL
REMARK 927      BINDING AFFINITY PREDICTED BY RF-SCORE:    0.00 PKD
ROOT
HETATM    1  C   UNL     1      -8.104  19.102  68.630  1.00  0.00    -0.405 C  
HETATM    2  C   UNL     1      -9.220  18.580  67.709  1.00  0.00    -0.281 C  
HETATM    3  C   UNL     1      -8.628  18.394  66.298  1.00  0.00    -0.215 C  
HETATM    4  C   UNL     1     -10.355  19.615  67.621  1.00  0.00    -0.583 C  
HETATM    5  N   UNL     1      -9.736  17.263  68.125  1.00  0.00    -0.273 NA 
HETATM    6  H   UNL     1      -9.012  16.553  68.013  1.00  0.00     0.000 HD 
ENDROOT
BRANCH   5   7
HETATM    7  C   UNL     1     -10.292  17.202  69.477  1.00  0.00    -0.117 C  
BRANCH   7   8
HETATM    8  C   UNL     1     -11.321  16.074  69.690  1.00  0.00    -0.332 C  
HETATM    9  O   UNL     1     -11.557  15.985  71.110  1.00  0.00    -0.401 OA 
HETATM   10  H   UNL     1     -12.191  15.290  71.241  1.00  0.00     0.000 HD 
BRANCH   8  11
HETATM   11  C   UNL     1     -10.856  14.699  69.195  1.00  0.00    -0.259 C  
BRANCH  11  12
HETATM   12  O   UNL     1     -11.925  13.796  68.888  1.00  0.00    -0.337 OA 
BRANCH  12  13
HETATM   13  C   UNL     1     -11.568  12.691  68.141  1.00  0.00    -0.338 A  
HETATM   14  C   UNL     1     -11.348  11.424  68.712  1.00  0.00    -0.334 A  
HETATM   15  C   UNL     1     -10.925  10.345  67.941  1.00  0.00    -0.354 A  
HETATM   16  C   UNL     1     -10.728  10.513  66.582  1.00  0.00    -0.222 A  
HETATM   17  C   UNL     1     -10.967  11.757  65.994  1.00  0.00    -0.355 A  
HETATM   18  C   UNL     1     -11.402  12.868  66.748  1.00  0.00    -0.367 A  
BRANCH  18  19
HETATM   19  C   UNL     1     -11.609  14.219  66.079  1.00  0.00    -0.362 C  
HETATM   20  C   UNL     1     -10.380  14.872  65.421  1.00  0.00    -0.413 C  
HETATM   21  C   UNL     1     -10.983  15.994  64.596  1.00  0.00    -0.297 C  
HETATM   22  C   UNL     1     -12.198  15.335  63.961  1.00  0.00    -0.018 C  
HETATM   23  C   UNL     1     -12.649  14.241  64.941  1.00  0.00    -0.339 C  
ENDBRANCH  18  19
ENDBRANCH  12  13
ENDBRANCH  11  12
ENDBRANCH   8  11
ENDBRANCH   7   8
ENDBRANCH   5   7
TORSDOF 6
ENDMDL
MODEL       97
REMARK 921   NORMALIZED FREE ENERGY PREDICTED BY IDOCK:   -4.67 KCAL/MOL
REMARK 922        TOTAL FREE ENERGY PREDICTED BY IDOCK:   -7.34 KCAL/MOL
REMARK 923 INTER-LIGAND FREE ENERGY PREDICTED BY IDOCK:   -6.87 KCAL/MOL
REMARK 924 INTRA-LIGAND FREE ENERGY PREDICTED BY IDOCK:   -0.47 KCAL/MOL
REMARK 927      BINDING AFFINITY PREDICTED BY RF-SCORE:    0.00 PKD
ROOT
HETATM    1  C   UNL     1     -10.406  12.269  63.974  1.00  0.00    -0.423 C  
HETATM    2  C   UNL     1     -11.768  12.741  64.511  1.00  0.00    -0.366 C  
HETATM    3  C   UNL     1     -12.869  12.157  63.604  1.00  0.00    -0.464 C  
HETATM    4  C   UNL     1     -11.856  14.275  64.445  1.00  0.00    -0.444 C  
HETATM    5  N   UNL     1     -12.045  12.254  65.875  1.00  0.00    -0.620 NA 
HETATM    6  H   UNL     1     -12.153  11.240  65.869  1.00  0.00     0.000 HD 
ENDROOT
BRANCH   5   7
HETATM    7  C   UNL     1     -11.071  12.645  66.894  1.00  0.00    -0.273 C  
BRANCH   7   8
HETATM    8  C   UNL     1     -11.667  12.824  68.306  1.00  0.00    -0.344 C  
HETATM    9  O   UNL     1     -10.672  13.507  69.096  1.00  0.00    -0.389 OA 
HETATM   10  H   UNL     1     -11.039  13.617  69.965  1.00  0.00     0.000 HD 
BRANCH   8  11
HETATM   11  C   UNL     1     -12.017  11.509  69.010  1.00  0.00    -0.311 C  
BRANCH  11  12
HETATM   12  O   UNL     1     -10.882  10.790  69.506  1.00  0.00    -0.225 OA 
BRANCH  12  13
HETATM   13  C   UNL     1     -11.175   9.648  70.225  1.00  0.00    -0.271 A  
HETATM   14  C   UNL     1     -11.880   9.673  71.443  1.00  0.00    -0.484 A  
HETATM   15  C   UNL     1     -12.103   8.511  72.175  1.00  0.00    -0.449 A  
HETATM   16  C   UNL     1     -11.633   7.301  71.696  1.00  0.00    -0.306 A  
HETATM   17  C   UNL     1     -10.955   7.254  70.476  1.00  0.00    -0.282 A  
HETATM   18  C   UNL     1     -10.719   8.414  69.707  1.00  0.00    -0.211 A  
BRANCH  18  19
HETATM   19  C   UNL     1      -9.936   8.329  68.405  1.00  0.00    -0.211 C  
HETATM   20  C   UNL     1     -10.668   8.749  67.117  1.00  0.00    -0.204 C  
HETATM   21  C   UNL     1      -9.546   8.858  66.101  1.00  0.00    -0.335 C  
HETATM   22  C   UNL     1      -8.448   9.568  66.878  1.00  0.00    -0.128 C  
HETATM   23  C   UNL     1      -8.650   9.177  68.350  1.00  0.00    -0.129 C  
ENDBRANCH  18  19
ENDBRANCH  12  13
ENDBRANCH  11  12
ENDBRANCH   8  11
ENDBRANCH   7   8
ENDBRANCH   5   7
TORSDOF 6
ENDMDL
MODEL       98
REMARK 921   NORMALIZED FREE ENERGY PREDICTED BY IDOCK:   -4.67 KCAL/MOL
REMARK 922        TOTAL FREE ENERGY PREDICTED BY IDOCK:   -7.33 KCAL/MOL
REMARK 923 INTER-LIGAND FREE ENERGY PREDICTED BY IDOCK:   -6.70 KCAL/MOL
REMARK 924 INTRA-LIGAND FREE ENERGY PREDICTED BY IDOCK:   -0.64 KCAL/MOL
REMARK 927      BINDING AFFINITY PREDICTED BY RF-SCORE:    0.00 PKD
ROOT
HETATM    1  C   UNL     1     -13.502  14.489  71.804  1.00  0.00    -0.458 C  
HETATM    2  C   UNL     1     -12.296  14.730  70.881  1.00  0.00    -0.319 C  
HETATM    3  C   UNL     1     -11.299  15.642  71.622  1.00  0.00    -0.446 C  
HETATM    4  C   UNL     1     -12.751  15.457  69.602  1.00  0.00     0.047 C  
HETATM    5  N   UNL     1     -11.569  13.490  70.553  1.00  0.00    -0.517 NA 
HETATM    6  H   UNL     1     -11.128  13.112  71.391  1.00  0.00     0.000 HD 
ENDROOT
BRANCH   5   7
HETATM    7  C   UNL     1     -12.359  12.451  69.893  1.00  0.00    -0.048 C  
BRANCH   7   8
HETATM    8  C   UNL     1     -11.761  11.946  68.564  1.00  0.00    -0.330 C  
HETATM    9  O   UNL     1     -12.264  10.610  68.360  1.00  0.00    -0.822 OA 
HETATM   10  H   UNL     1     -11.895  10.299  67.542  1.00  0.00     0.000 HD 
BRANCH   8  11
HETATM   11  C   UNL     1     -10.229  11.889  68.547  1.00  0.00    -0.215 C  
BRANCH  11  12
HETATM   12  O   UNL     1      -9.624  12.710  67.541  1.00  0.00    -0.178 OA 
BRANCH  12  13
HETATM   13  C   UNL     1      -9.980  12.409  66.242  1.00  0.00    -0.246 A  
HETATM   14  C   UNL     1      -9.716  11.159  65.650  1.00  0.00    -0.267 A  
HETATM   15  C   UNL     1     -10.029  10.909  64.317  1.00  0.00    -0.392 A  
HETATM   16  C   UNL     1     -10.622  11.901  63.557  1.00  0.00    -0.507 A  
HETATM   17  C   UNL     1     -10.915  13.138  64.135  1.00  0.00    -0.418 A  
HETATM   18  C   UNL     1     -10.616  13.420  65.486  1.00  0.00    -0.294 A  
BRANCH  18  19
HETATM   19  C   UNL     1     -10.910  14.795  66.068  1.00  0.00    -0.318 C  
HETATM   20  C   UNL     1      -9.810  15.441  66.931  1.00  0.00    -0.251 C  
HETATM   21  C   UNL     1     -10.276  16.879  67.066  1.00  0.00    -0.297 C  
HETATM   22  C   UNL     1     -10.741  17.220  65.658  1.00  0.00    -0.123 C  
HETATM   23  C   UNL     1     -11.216  15.899  65.036  1.00  0.00    -0.296 C  
ENDBRANCH  18  19
ENDBRANCH  12  13
ENDBRANCH  11  12
ENDBRANCH   8  11
ENDBRANCH   7   8
ENDBRANCH   5   7
TORSDOF 6
ENDMDL
MODEL       99
REMARK 921   NORMALIZED FREE ENERGY PREDICTED BY IDOCK:   -4.66 KCAL/MOL
REMARK 922        TOTAL FREE ENERGY PREDICTED BY IDOCK:   -7.33 KCAL/MOL
REMARK 923 INTER-LIGAND FREE ENERGY PREDICTED BY IDOCK:   -6.88 KCAL/MOL
REMARK 924 INTRA-LIGAND FREE ENERGY PREDICTED BY IDOCK:   -0.45 KCAL/MOL
REMARK 927      BINDING AFFINITY PREDICTED BY RF-SCORE:    0.00 PKD
ROOT
HETATM    1  C   UNL     1     -10.162  13.799  68.922  1.00  0.00    -0.111 C  
HETATM    2  C   UNL     1     -11.676  13.569  68.775  1.00  0.00    -0.337 C  
HETATM    3  C   UNL     1     -12.369  14.124  70.035  1.00  0.00    -0.403 C  
HETATM    4  C   UNL     1     -11.972  12.061  68.690  1.00  0.00    -0.290 C  
HETATM    5  N   UNL     1     -12.254  14.286  67.625  1.00  0.00    -0.597 NA 
HETATM    6  H   UNL     1     -12.202  15.293  67.779  1.00  0.00     0.000 HD 
ENDROOT
BRANCH   5   7
HETATM    7  C   UNL     1     -11.685  13.951  66.320  1.00  0.00    -0.383 C  
BRANCH   7   8
HETATM    8  C   UNL     1     -11.410  15.168  65.415  1.00  0.00    -0.298 C  
HETATM    9  O   UNL     1     -11.696  14.758  64.062  1.00  0.00    -0.646 OA 
HETATM   10  H   UNL     1     -11.527  15.508  63.505  1.00  0.00     0.000 HD 
BRANCH   8  11
HETATM   11  C   UNL     1      -9.964  15.675  65.466  1.00  0.00    -0.329 C  
BRANCH  11  12
HETATM   12  O   UNL     1      -9.579  16.218  66.735  1.00  0.00    -0.223 OA 
BRANCH  12  13
HETATM   13  C   UNL     1      -9.607  17.596  66.820  1.00  0.00    -0.294 A  
HETATM   14  C   UNL     1     -10.589  18.379  66.184  1.00  0.00    -0.346 A  
HETATM   15  C   UNL     1     -10.552  19.769  66.236  1.00  0.00    -0.572 A  
HETATM   16  C   UNL     1      -9.538  20.400  66.934  1.00  0.00    -0.546 A  
HETATM   17  C   UNL     1      -8.570  19.638  67.593  1.00  0.00    -0.365 A  
HETATM   18  C   UNL     1      -8.585  18.226  67.565  1.00  0.00    -0.253 A  
BRANCH  18  19
HETATM   19  C   UNL     1      -7.488  17.431  68.258  1.00  0.00    -0.227 C  
HETATM   20  C   UNL     1      -7.928  16.392  69.304  1.00  0.00    -0.136 C  
HETATM   21  C   UNL     1      -6.666  15.583  69.543  1.00  0.00    -0.179 C  
HETATM   22  C   UNL     1      -6.118  15.385  68.137  1.00  0.00    -0.136 C  
HETATM   23  C   UNL     1      -6.582  16.603  67.325  1.00  0.00    -0.213 C  
ENDBRANCH  18  19
ENDBRANCH  12  13
ENDBRANCH  11  12
ENDBRANCH   8  11
ENDBRANCH   7   8
ENDBRANCH   5   7
TORSDOF 6
ENDMDL
MODEL      100
REMARK 921   NORMALIZED FREE ENERGY PREDICTED BY IDOCK:   -4.65 KCAL/MOL
REMARK 922        TOTAL FREE ENERGY PREDICTED BY IDOCK:   -7.32 KCAL/MOL
REMARK 923 INTER-LIGAND FREE ENERGY PREDICTED BY IDOCK:   -6.62 KCAL/MOL
REMARK 924 INTRA-LIGAND FREE ENERGY PREDICTED BY IDOCK:   -0.70 KCAL/MOL
REMARK 927      BINDING AFFINITY PREDICTED BY RF-SCORE:    0.00 PKD
ROOT
HETATM    1  C   UNL     1     -11.097  10.484  68.955  1.00  0.00    -0.300 C  
HETATM    2  C   UNL     1     -10.820  11.784  68.181  1.00  0.00    -0.217 C  
HETATM    3  C   UNL     1     -11.141  11.534  66.694  1.00  0.00    -0.355 C  
HETATM    4  C   UNL     1      -9.331  12.156  68.295  1.00  0.00    -0.198 C  
HETATM    5  N   UNL     1     -11.678  12.902  68.615  1.00  0.00    -0.306 NA 
HETATM    6  H   UNL     1     -12.651  12.709  68.374  1.00  0.00     0.000 HD 
ENDROOT
BRANCH   5   7
HETATM    7  C   UNL     1     -11.576  13.264  70.028  1.00  0.00    -0.142 C  
BRANCH   7   8
HETATM    8  C   UNL     1     -11.574  14.783  70.295  1.00  0.00    -0.282 C  
HETATM    9  O   UNL     1     -12.859  15.284  69.873  1.00  0.00    -0.619 OA 
HETATM   10  H   UNL     1     -12.857  16.220  70.037  1.00  0.00     0.000 HD 
BRANCH   8  11
HETATM   11  C   UNL     1     -10.486  15.552  69.536  1.00  0.00    -0.263 C  
BRANCH  11  12
HETATM   12  O   UNL     1     -10.894  16.021  68.245  1.00  0.00    -0.290 OA 
BRANCH  12  13
HETATM   13  C   UNL     1     -10.468  17.292  67.917  1.00  0.00    -0.382 A  
HETATM   14  C   UNL     1     -10.395  18.338  68.857  1.00  0.00    -0.191 A  
HETATM   15  C   UNL     1     -10.023  19.624  68.481  1.00  0.00    -0.542 A  
HETATM   16  C   UNL     1      -9.706  19.885  67.160  1.00  0.00    -0.523 A  
HETATM   17  C   UNL     1      -9.746  18.854  66.219  1.00  0.00    -0.374 A  
HETATM   18  C   UNL     1     -10.113  17.537  66.571  1.00  0.00    -0.331 A  
BRANCH  18  19
HETATM   19  C   UNL     1     -10.190  16.449  65.509  1.00  0.00    -0.296 C  
HETATM   20  C   UNL     1      -9.762  15.030  65.925  1.00  0.00    -0.376 C  
HETATM   21  C   UNL     1     -10.258  14.168  64.779  1.00  0.00    -0.311 C  
HETATM   22  C   UNL     1     -11.645  14.730  64.506  1.00  0.00    -0.366 C  
HETATM   23  C   UNL     1     -11.589  16.212  64.905  1.00  0.00     0.048 C  
ENDBRANCH  18  19
ENDBRANCH  12  13
ENDBRANCH  11  12
ENDBRANCH   8  11
ENDBRANCH   7   8
ENDBRANCH   5   7
TORSDOF 6
ENDMDL
MODEL      101
REMARK 921   NORMALIZED FREE ENERGY PREDICTED BY IDOCK:   -4.64 KCAL/MOL
REMARK 922        TOTAL FREE ENERGY PREDICTED BY IDOCK:   -7.30 KCAL/MOL
REMARK 923 INTER-LIGAND FREE ENERGY PREDICTED BY IDOCK:   -6.97 KCAL/MOL
REMARK 924 INTRA-LIGAND FREE ENERGY PREDICTED BY IDOCK:   -0.33 KCAL/MOL
REMARK 927      BINDING AFFINITY PREDICTED BY RF-SCORE:    0.00 PKD
ROOT
HETATM    1  C   UNL     1      -9.779  11.972  65.092  1.00  0.00    -0.163 C  
HETATM    2  C   UNL     1      -9.261  11.076  66.230  1.00  0.00    -0.182 C  
HETATM    3  C   UNL     1      -7.756  10.835  66.002  1.00  0.00    -0.139 C  
HETATM    4  C   UNL     1      -9.976   9.714  66.193  1.00  0.00    -0.346 C  
HETATM    5  N   UNL     1      -9.391  11.705  67.557  1.00  0.00    -0.166 NA 
HETATM    6  H   UNL     1      -8.774  12.515  67.621  1.00  0.00     0.000 HD 
ENDROOT
BRANCH   5   7
HETATM    7  C   UNL     1     -10.749  12.079  67.948  1.00  0.00    -0.210 C  
BRANCH   7   8
HETATM    8  C   UNL     1     -11.334  11.234  69.098  1.00  0.00    -0.282 C  
HETATM    9  O   UNL     1     -12.212  10.260  68.498  1.00  0.00    -0.565 OA 
HETATM   10  H   UNL     1     -12.572   9.740  69.206  1.00  0.00     0.000 HD 
BRANCH   8  11
HETATM   11  C   UNL     1     -12.143  12.041  70.121  1.00  0.00    -0.298 C  
BRANCH  11  12
HETATM   12  O   UNL     1     -12.110  13.457  69.907  1.00  0.00    -0.324 OA 
BRANCH  12  13
HETATM   13  C   UNL     1     -12.261  14.229  71.041  1.00  0.00    -0.356 A  
HETATM   14  C   UNL     1     -12.990  13.797  72.165  1.00  0.00    -0.437 A  
HETATM   15  C   UNL     1     -13.178  14.625  73.268  1.00  0.00    -0.411 A  
HETATM   16  C   UNL     1     -12.630  15.895  73.270  1.00  0.00    -0.640 A  
HETATM   17  C   UNL     1     -11.881  16.330  72.175  1.00  0.00    -0.585 A  
HETATM   18  C   UNL     1     -11.667  15.511  71.044  1.00  0.00    -0.423 A  
BRANCH  18  19
HETATM   19  C   UNL     1     -10.883  16.037  69.851  1.00  0.00    -0.351 C  
HETATM   20  C   UNL     1      -9.525  15.374  69.555  1.00  0.00    -0.250 C  
HETATM   21  C   UNL     1      -9.184  15.886  68.167  1.00  0.00    -0.190 C  
HETATM   22  C   UNL     1     -10.509  15.773  67.428  1.00  0.00    -0.297 C  
HETATM   23  C   UNL     1     -11.604  15.940  68.491  1.00  0.00    -0.351 C  
ENDBRANCH  18  19
ENDBRANCH  12  13
ENDBRANCH  11  12
ENDBRANCH   8  11
ENDBRANCH   7   8
ENDBRANCH   5   7
TORSDOF 6
ENDMDL
MODEL      102
REMARK 921   NORMALIZED FREE ENERGY PREDICTED BY IDOCK:   -4.63 KCAL/MOL
REMARK 922        TOTAL FREE ENERGY PREDICTED BY IDOCK:   -7.28 KCAL/MOL
REMARK 923 INTER-LIGAND FREE ENERGY PREDICTED BY IDOCK:   -6.57 KCAL/MOL
REMARK 924 INTRA-LIGAND FREE ENERGY PREDICTED BY IDOCK:   -0.72 KCAL/MOL
REMARK 927      BINDING AFFINITY PREDICTED BY RF-SCORE:    0.00 PKD
ROOT
HETATM    1  C   UNL     1      -9.809   7.648  71.674  1.00  0.00    -0.193 C  
HETATM    2  C   UNL     1     -10.861   7.096  72.651  1.00  0.00    -0.279 C  
HETATM    3  C   UNL     1     -10.150   6.749  73.974  1.00  0.00    -0.389 C  
HETATM    4  C   UNL     1     -11.477   5.804  72.085  1.00  0.00    -0.295 C  
HETATM    5  N   UNL     1     -11.908   8.079  72.981  1.00  0.00    -0.607 NA 
HETATM    6  H   UNL     1     -11.506   8.853  73.510  1.00  0.00     0.000 HD 
ENDROOT
BRANCH   5   7
HETATM    7  C   UNL     1     -12.671   8.594  71.844  1.00  0.00    -0.366 C  
BRANCH   7   8
HETATM    8  C   UNL     1     -12.490  10.104  71.590  1.00  0.00    -0.409 C  
HETATM    9  O   UNL     1     -13.464  10.786  72.406  1.00  0.00    -0.599 OA 
HETATM   10  H   UNL     1     -13.352  11.716  72.249  1.00  0.00     0.000 HD 
BRANCH   8  11
HETATM   11  C   UNL     1     -12.707  10.526  70.132  1.00  0.00    -0.127 C  
BRANCH  11  12
HETATM   12  O   UNL     1     -11.936  11.664  69.731  1.00  0.00    -0.308 OA 
BRANCH  12  13
HETATM   13  C   UNL     1     -11.162  11.485  68.602  1.00  0.00    -0.248 A  
HETATM   14  C   UNL     1     -11.036  10.242  67.954  1.00  0.00    -0.350 A  
HETATM   15  C   UNL     1     -10.196  10.079  66.856  1.00  0.00    -0.299 A  
HETATM   16  C   UNL     1      -9.477  11.161  66.380  1.00  0.00    -0.216 A  
HETATM   17  C   UNL     1      -9.611  12.408  66.994  1.00  0.00    -0.211 A  
HETATM   18  C   UNL     1     -10.459  12.606  68.105  1.00  0.00    -0.239 A  
BRANCH  18  19
HETATM   19  C   UNL     1     -10.544  13.970  68.775  1.00  0.00    -0.260 C  
HETATM   20  C   UNL     1      -9.287  14.857  68.723  1.00  0.00    -0.203 C  
HETATM   21  C   UNL     1      -9.801  16.213  69.170  1.00  0.00    -0.250 C  
HETATM   22  C   UNL     1     -11.120  16.341  68.424  1.00  0.00    -0.362 C  
HETATM   23  C   UNL     1     -11.638  14.909  68.229  1.00  0.00    -0.356 C  
ENDBRANCH  18  19
ENDBRANCH  12  13
ENDBRANCH  11  12
ENDBRANCH   8  11
ENDBRANCH   7   8
ENDBRANCH   5   7
TORSDOF 6
ENDMDL
MODEL      103
REMARK 921   NORMALIZED FREE ENERGY PREDICTED BY IDOCK:   -4.61 KCAL/MOL
REMARK 922        TOTAL FREE ENERGY PREDICTED BY IDOCK:   -7.26 KCAL/MOL
REMARK 923 INTER-LIGAND FREE ENERGY PREDICTED BY IDOCK:   -7.71 KCAL/MOL
REMARK 924 INTRA-LIGAND FREE ENERGY PREDICTED BY IDOCK:    0.45 KCAL/MOL
REMARK 927      BINDING AFFINITY PREDICTED BY RF-SCORE:    0.00 PKD
ROOT
HETATM    1  C   UNL     1      -9.687  11.587  63.361  1.00  0.00    -0.379 C  
HETATM    2  C   UNL     1     -10.615  11.870  64.554  1.00  0.00    -0.311 C  
HETATM    3  C   UNL     1     -10.324  10.824  65.648  1.00  0.00    -0.297 C  
HETATM    4  C   UNL     1     -12.085  11.718  64.124  1.00  0.00    -0.311 C  
HETATM    5  N   UNL     1     -10.378  13.192  65.163  1.00  0.00    -0.313 NA 
HETATM    6  H   UNL     1      -9.454  13.216  65.596  1.00  0.00     0.000 HD 
ENDROOT
BRANCH   5   7
HETATM    7  C   UNL     1     -10.539  14.337  64.267  1.00  0.00     0.228 C  
BRANCH   7   8
HETATM    8  C   UNL     1     -11.261  15.543  64.901  1.00  0.00    -0.389 C  
HETATM    9  O   UNL     1     -11.774  16.342  63.816  1.00  0.00    -1.553 OA 
HETATM   10  H   UNL     1     -12.218  17.085  64.207  1.00  0.00     0.000 HD 
BRANCH   8  11
HETATM   11  C   UNL     1     -10.358  16.431  65.766  1.00  0.00    -0.369 C  
BRANCH  11  12
HETATM   12  O   UNL     1      -9.709  15.738  66.838  1.00  0.00    -0.222 OA 
BRANCH  12  13
HETATM   13  C   UNL     1     -10.512  15.442  67.921  1.00  0.00    -0.256 A  
HETATM   14  C   UNL     1     -11.150  14.197  68.078  1.00  0.00    -0.285 A  
HETATM   15  C   UNL     1     -12.005  13.952  69.148  1.00  0.00    -0.404 A  
HETATM   16  C   UNL     1     -12.227  14.944  70.087  1.00  0.00    -0.387 A  
HETATM   17  C   UNL     1     -11.580  16.176  69.961  1.00  0.00    -0.247 A  
HETATM   18  C   UNL     1     -10.702  16.452  68.890  1.00  0.00    -0.319 A  
BRANCH  18  19
HETATM   19  C   UNL     1     -10.052  17.822  68.763  1.00  0.00    -0.381 C  
HETATM   20  C   UNL     1      -8.569  17.859  68.349  1.00  0.00    -0.296 C  
HETATM   21  C   UNL     1      -8.341  19.319  68.005  1.00  0.00    -0.350 C  
HETATM   22  C   UNL     1      -9.587  19.681  67.211  1.00  0.00    -0.459 C  
HETATM   23  C   UNL     1     -10.707  18.772  67.741  1.00  0.00    -0.406 C  
ENDBRANCH  18  19
ENDBRANCH  12  13
ENDBRANCH  11  12
ENDBRANCH   8  11
ENDBRANCH   7   8
ENDBRANCH   5   7
TORSDOF 6
ENDMDL
MODEL      104
REMARK 921   NORMALIZED FREE ENERGY PREDICTED BY IDOCK:   -4.60 KCAL/MOL
REMARK 922        TOTAL FREE ENERGY PREDICTED BY IDOCK:   -7.25 KCAL/MOL
REMARK 923 INTER-LIGAND FREE ENERGY PREDICTED BY IDOCK:   -6.48 KCAL/MOL
REMARK 924 INTRA-LIGAND FREE ENERGY PREDICTED BY IDOCK:   -0.76 KCAL/MOL
REMARK 927      BINDING AFFINITY PREDICTED BY RF-SCORE:    0.00 PKD
ROOT
HETATM    1  C   UNL     1      -8.991   6.676  69.753  1.00  0.00    -0.143 C  
HETATM    2  C   UNL     1      -9.986   7.459  70.626  1.00  0.00    -0.186 C  
HETATM    3  C   UNL     1      -9.725   7.089  72.099  1.00  0.00    -0.161 C  
HETATM    4  C   UNL     1     -11.427   7.049  70.276  1.00  0.00    -0.333 C  
HETATM    5  N   UNL     1      -9.813   8.920  70.522  1.00  0.00    -0.187 NA 
HETATM    6  H   UNL     1      -8.914   9.194  70.919  1.00  0.00     0.000 HD 
ENDROOT
BRANCH   5   7
HETATM    7  C   UNL     1      -9.956   9.478  69.178  1.00  0.00    -0.183 C  
BRANCH   7   8
HETATM    8  C   UNL     1     -10.970  10.635  69.076  1.00  0.00    -0.248 C  
HETATM    9  O   UNL     1     -11.845  10.329  67.970  1.00  0.00    -0.708 OA 
HETATM   10  H   UNL     1     -12.469  11.042  67.907  1.00  0.00     0.000 HD 
BRANCH   8  11
HETATM   11  C   UNL     1     -10.334  12.006  68.818  1.00  0.00    -0.160 C  
BRANCH  11  12
HETATM   12  O   UNL     1     -11.248  12.992  68.326  1.00  0.00    -0.244 OA 
BRANCH  12  13
HETATM   13  C   UNL     1     -10.667  14.070  67.688  1.00  0.00    -0.257 A  
HETATM   14  C   UNL     1     -10.113  15.160  68.386  1.00  0.00    -0.225 A  
HETATM   15  C   UNL     1      -9.593  16.261  67.713  1.00  0.00    -0.223 A  
HETATM   16  C   UNL     1      -9.608  16.286  66.330  1.00  0.00    -0.336 A  
HETATM   17  C   UNL     1     -10.129  15.202  65.621  1.00  0.00    -0.392 A  
HETATM   18  C   UNL     1     -10.658  14.067  66.275  1.00  0.00    -0.281 A  
BRANCH  18  19
HETATM   19  C   UNL     1     -11.259  12.925  65.469  1.00  0.00    -0.319 C  
HETATM   20  C   UNL     1     -12.086  13.301  64.227  1.00  0.00    -0.475 C  
HETATM   21  C   UNL     1     -12.246  11.977  63.502  1.00  0.00    -0.653 C  
HETATM   22  C   UNL     1     -10.858  11.363  63.604  1.00  0.00    -0.459 C  
HETATM   23  C   UNL     1     -10.245  11.912  64.901  1.00  0.00    -0.310 C  
ENDBRANCH  18  19
ENDBRANCH  12  13
ENDBRANCH  11  12
ENDBRANCH   8  11
ENDBRANCH   7   8
ENDBRANCH   5   7
TORSDOF 6
ENDMDL
MODEL      105
REMARK 921   NORMALIZED FREE ENERGY PREDICTED BY IDOCK:   -4.60 KCAL/MOL
REMARK 922        TOTAL FREE ENERGY PREDICTED BY IDOCK:   -7.24 KCAL/MOL
REMARK 923 INTER-LIGAND FREE ENERGY PREDICTED BY IDOCK:   -6.20 KCAL/MOL
REMARK 924 INTRA-LIGAND FREE ENERGY PREDICTED BY IDOCK:   -1.03 KCAL/MOL
REMARK 927      BINDING AFFINITY PREDICTED BY RF-SCORE:    0.00 PKD
ROOT
HETATM    1  C   UNL     1      -8.429  17.700  67.054  1.00  0.00    -0.252 C  
HETATM    2  C   UNL     1      -9.868  18.213  67.239  1.00  0.00    -0.314 C  
HETATM    3  C   UNL     1     -10.417  18.607  65.854  1.00  0.00    -0.395 C  
HETATM    4  C   UNL     1      -9.867  19.468  68.130  1.00  0.00    -0.506 C  
HETATM    5  N   UNL     1     -10.777  17.185  67.776  1.00  0.00    -0.355 NA 
HETATM    6  H   UNL     1     -10.900  16.436  67.093  1.00  0.00     0.000 HD 
ENDROOT
BRANCH   5   7
HETATM    7  C   UNL     1     -10.399  16.621  69.071  1.00  0.00    -0.317 C  
BRANCH   7   8
HETATM    8  C   UNL     1     -11.267  15.430  69.524  1.00  0.00    -0.285 C  
HETATM    9  O   UNL     1     -10.752  14.998  70.800  1.00  0.00    -0.526 OA 
HETATM   10  H   UNL     1     -11.287  14.264  71.078  1.00  0.00     0.000 HD 
BRANCH   8  11
HETATM   11  C   UNL     1     -11.238  14.233  68.566  1.00  0.00    -0.266 C  
BRANCH  11  12
HETATM   12  O   UNL     1     -10.278  14.353  67.510  1.00  0.00    -0.238 OA 
BRANCH  12  13
HETATM   13  C   UNL     1      -9.503  13.232  67.287  1.00  0.00    -0.233 A  
HETATM   14  C   UNL     1      -8.369  12.923  68.063  1.00  0.00    -0.169 A  
HETATM   15  C   UNL     1      -7.572  11.820  67.772  1.00  0.00    -0.127 A  
HETATM   16  C   UNL     1      -7.901  11.000  66.708  1.00  0.00    -0.149 A  
HETATM   17  C   UNL     1      -9.037  11.276  65.944  1.00  0.00    -0.217 A  
HETATM   18  C   UNL     1      -9.870  12.383  66.218  1.00  0.00    -0.257 A  
BRANCH  18  19
HETATM   19  C   UNL     1     -11.074  12.678  65.336  1.00  0.00    -0.327 C  
HETATM   20  C   UNL     1     -10.889  13.723  64.221  1.00  0.00    -0.241 C  
HETATM   21  C   UNL     1     -12.125  13.535  63.360  1.00  0.00    -0.351 C  
HETATM   22  C   UNL     1     -12.251  12.022  63.271  1.00  0.00    -0.531 C  
HETATM   23  C   UNL     1     -11.643  11.467  64.567  1.00  0.00    -0.149 C  
ENDBRANCH  18  19
ENDBRANCH  12  13
ENDBRANCH  11  12
ENDBRANCH   8  11
ENDBRANCH   7   8
ENDBRANCH   5   7
TORSDOF 6
ENDMDL
MODEL      106
REMARK 921   NORMALIZED FREE ENERGY PREDICTED BY IDOCK:   -4.59 KCAL/MOL
REMARK 922        TOTAL FREE ENERGY PREDICTED BY IDOCK:   -7.23 KCAL/MOL
REMARK 923 INTER-LIGAND FREE ENERGY PREDICTED BY IDOCK:   -6.54 KCAL/MOL
REMARK 924 INTRA-LIGAND FREE ENERGY PREDICTED BY IDOCK:   -0.70 KCAL/MOL
REMARK 927      BINDING AFFINITY PREDICTED BY RF-SCORE:    0.00 PKD
ROOT
HETATM    1  C   UNL     1      -7.500  19.549  68.371  1.00  0.00    -0.359 C  
HETATM    2  C   UNL     1      -8.845  19.150  67.739  1.00  0.00    -0.301 C  
HETATM    3  C   UNL     1      -9.078  20.046  66.506  1.00  0.00    -0.452 C  
HETATM    4  C   UNL     1      -9.989  19.400  68.737  1.00  0.00    -0.522 C  
HETATM    5  N   UNL     1      -8.859  17.757  67.257  1.00  0.00    -0.235 NA 
HETATM    6  H   UNL     1      -8.212  17.652  66.475  1.00  0.00     0.000 HD 
ENDROOT
BRANCH   5   7
HETATM    7  C   UNL     1      -8.591  16.736  68.268  1.00  0.00    -0.226 C  
BRANCH   7   8
HETATM    8  C   UNL     1      -8.678  15.287  67.747  1.00  0.00    -0.165 C  
HETATM    9  O   UNL     1      -7.350  14.912  67.329  1.00  0.00    -0.199 OA 
HETATM   10  H   UNL     1      -7.404  14.020  67.008  1.00  0.00     0.000 HD 
BRANCH   8  11
HETATM   11  C   UNL     1      -9.625  15.105  66.555  1.00  0.00    -0.271 C  
BRANCH  11  12
HETATM   12  O   UNL     1     -10.921  14.609  66.909  1.00  0.00    -0.309 OA 
BRANCH  12  13
HETATM   13  C   UNL     1     -10.939  13.344  67.463  1.00  0.00    -0.267 A  
HETATM   14  C   UNL     1     -10.340  12.232  66.841  1.00  0.00    -0.236 A  
HETATM   15  C   UNL     1     -10.431  10.958  67.393  1.00  0.00    -0.263 A  
HETATM   16  C   UNL     1     -11.112  10.777  68.584  1.00  0.00    -0.312 A  
HETATM   17  C   UNL     1     -11.688  11.873  69.228  1.00  0.00    -0.389 A  
HETATM   18  C   UNL     1     -11.608  13.179  68.696  1.00  0.00    -0.356 A  
BRANCH  18  19
HETATM   19  C   UNL     1     -12.288  14.341  69.405  1.00  0.00    -0.238 C  
HETATM   20  C   UNL     1     -13.216  13.999  70.584  1.00  0.00    -0.077 C  
HETATM   21  C   UNL     1     -13.451  15.346  71.243  1.00  0.00    -0.598 C  
HETATM   22  C   UNL     1     -12.066  15.974  71.239  1.00  0.00    -0.440 C  
HETATM   23  C   UNL     1     -11.337  15.388  70.021  1.00  0.00    -0.322 C  
ENDBRANCH  18  19
ENDBRANCH  12  13
ENDBRANCH  11  12
ENDBRANCH   8  11
ENDBRANCH   7   8
ENDBRANCH   5   7
TORSDOF 6
ENDMDL
MODEL      107
REMARK 921   NORMALIZED FREE ENERGY PREDICTED BY IDOCK:   -4.59 KCAL/MOL
REMARK 922        TOTAL FREE ENERGY PREDICTED BY IDOCK:   -7.23 KCAL/MOL
REMARK 923 INTER-LIGAND FREE ENERGY PREDICTED BY IDOCK:   -5.75 KCAL/MOL
REMARK 924 INTRA-LIGAND FREE ENERGY PREDICTED BY IDOCK:   -1.48 KCAL/MOL
REMARK 927      BINDING AFFINITY PREDICTED BY RF-SCORE:    0.00 PKD
ROOT
HETATM    1  C   UNL     1      -6.145  10.890  66.136  1.00  0.00    -0.135 C  
HETATM    2  C   UNL     1      -7.549  10.803  66.760  1.00  0.00    -0.129 C  
HETATM    3  C   UNL     1      -8.572  10.650  65.617  1.00  0.00    -0.187 C  
HETATM    4  C   UNL     1      -7.868  12.104  67.518  1.00  0.00    -0.162 C  
HETATM    5  N   UNL     1      -7.714   9.628  67.634  1.00  0.00    -0.094 NA 
HETATM    6  H   UNL     1      -7.669   8.772  67.081  1.00  0.00     0.000 HD 
ENDROOT
BRANCH   5   7
HETATM    7  C   UNL     1      -6.785   9.543  68.761  1.00  0.00    -0.052 C  
BRANCH   7   8
HETATM    8  C   UNL     1      -7.238   8.592  69.887  1.00  0.00    -0.051 C  
HETATM    9  O   UNL     1      -7.646   7.361  69.255  1.00  0.00    -0.096 OA 
HETATM   10  H   UNL     1      -7.925   6.775  69.949  1.00  0.00     0.000 HD 
BRANCH   8  11
HETATM   11  C   UNL     1      -8.414   9.117  70.718  1.00  0.00    -0.212 C  
BRANCH  11  12
HETATM   12  O   UNL     1      -9.567   9.466  69.944  1.00  0.00    -0.183 OA 
BRANCH  12  13
HETATM   13  C   UNL     1     -10.745   9.576  70.657  1.00  0.00    -0.309 A  
HETATM   14  C   UNL     1     -11.135   8.641  71.634  1.00  0.00    -0.375 A  
HETATM   15  C   UNL     1     -12.358   8.746  72.289  1.00  0.00    -0.448 A  
HETATM   16  C   UNL     1     -13.207   9.795  71.986  1.00  0.00    -0.557 A  
HETATM   17  C   UNL     1     -12.825  10.747  71.039  1.00  0.00    -0.480 A  
HETATM   18  C   UNL     1     -11.588  10.672  70.362  1.00  0.00    -0.441 A  
BRANCH  18  19
HETATM   19  C   UNL     1     -11.225  11.703  69.303  1.00  0.00    -0.328 C  
HETATM   20  C   UNL     1     -11.642  11.397  67.853  1.00  0.00    -0.337 C  
HETATM   21  C   UNL     1     -11.435  12.723  67.145  1.00  0.00    -0.394 C  
HETATM   22  C   UNL     1     -12.003  13.730  68.134  1.00  0.00    -0.394 C  
HETATM   23  C   UNL     1     -11.808  13.113  69.527  1.00  0.00    -0.383 C  
ENDBRANCH  18  19
ENDBRANCH  12  13
ENDBRANCH  11  12
ENDBRANCH   8  11
ENDBRANCH   7   8
ENDBRANCH   5   7
TORSDOF 6
ENDMDL
MODEL      108
REMARK 921   NORMALIZED FREE ENERGY PREDICTED BY IDOCK:   -4.57 KCAL/MOL
REMARK 922        TOTAL FREE ENERGY PREDICTED BY IDOCK:   -7.21 KCAL/MOL
REMARK 923 INTER-LIGAND FREE ENERGY PREDICTED BY IDOCK:   -5.84 KCAL/MOL
REMARK 924 INTRA-LIGAND FREE ENERGY PREDICTED BY IDOCK:   -1.37 KCAL/MOL
REMARK 927      BINDING AFFINITY PREDICTED BY RF-SCORE:    0.00 PKD
ROOT
HETATM    1  C   UNL     1     -10.383  15.858  65.916  1.00  0.00    -0.383 C  
HETATM    2  C   UNL     1     -10.105  16.329  67.354  1.00  0.00    -0.260 C  
HETATM    3  C   UNL     1     -11.376  16.090  68.191  1.00  0.00    -0.289 C  
HETATM    4  C   UNL     1      -9.802  17.838  67.363  1.00  0.00    -0.311 C  
HETATM    5  N   UNL     1      -9.022  15.570  68.006  1.00  0.00    -0.173 NA 
HETATM    6  H   UNL     1      -9.311  14.601  68.147  1.00  0.00     0.000 HD 
ENDROOT
BRANCH   5   7
HETATM    7  C   UNL     1      -7.726  15.611  67.328  1.00  0.00    -0.206 C  
BRANCH   7   8
HETATM    8  C   UNL     1      -6.690  14.610  67.879  1.00  0.00    -0.162 C  
HETATM    9  O   UNL     1      -5.422  14.949  67.280  1.00  0.00    -0.305 OA 
HETATM   10  H   UNL     1      -4.785  14.332  67.619  1.00  0.00     0.000 HD 
BRANCH   8  11
HETATM   11  C   UNL     1      -6.998  13.144  67.552  1.00  0.00    -0.149 C  
BRANCH  11  12
HETATM   12  O   UNL     1      -8.353  12.906  67.154  1.00  0.00    -0.184 OA 
BRANCH  12  13
HETATM   13  C   UNL     1      -8.802  11.612  67.332  1.00  0.00    -0.160 A  
HETATM   14  C   UNL     1      -8.197  10.713  68.231  1.00  0.00    -0.120 A  
HETATM   15  C   UNL     1      -8.633   9.396  68.339  1.00  0.00    -0.124 A  
HETATM   16  C   UNL     1      -9.689   8.959  67.559  1.00  0.00    -0.216 A  
HETATM   17  C   UNL     1     -10.317   9.844  66.682  1.00  0.00    -0.275 A  
HETATM   18  C   UNL     1      -9.903  11.189  66.554  1.00  0.00    -0.242 A  
BRANCH  18  19
HETATM   19  C   UNL     1     -10.584  12.112  65.554  1.00  0.00    -0.314 C  
HETATM   20  C   UNL     1     -10.910  11.527  64.168  1.00  0.00    -0.435 C  
HETATM   21  C   UNL     1     -11.842  12.562  63.565  1.00  0.00    -0.616 C  
HETATM   22  C   UNL     1     -12.766  12.904  64.724  1.00  0.00    -0.442 C  
HETATM   23  C   UNL     1     -11.943  12.686  66.002  1.00  0.00    -0.478 C  
ENDBRANCH  18  19
ENDBRANCH  12  13
ENDBRANCH  11  12
ENDBRANCH   8  11
ENDBRANCH   7   8
ENDBRANCH   5   7
TORSDOF 6
ENDMDL
MODEL      109
REMARK 921   NORMALIZED FREE ENERGY PREDICTED BY IDOCK:   -4.57 KCAL/MOL
REMARK 922        TOTAL FREE ENERGY PREDICTED BY IDOCK:   -7.21 KCAL/MOL
REMARK 923 INTER-LIGAND FREE ENERGY PREDICTED BY IDOCK:   -6.87 KCAL/MOL
REMARK 924 INTRA-LIGAND FREE ENERGY PREDICTED BY IDOCK:   -0.34 KCAL/MOL
REMARK 927      BINDING AFFINITY PREDICTED BY RF-SCORE:    0.00 PKD
ROOT
HETATM    1  C   UNL     1      -7.805  12.632  68.143  1.00  0.00    -0.145 C  
HETATM    2  C   UNL     1      -7.691  11.225  68.754  1.00  0.00    -0.138 C  
HETATM    3  C   UNL     1      -6.541  11.240  69.779  1.00  0.00    -0.130 C  
HETATM    4  C   UNL     1      -7.344  10.203  67.658  1.00  0.00    -0.089 C  
HETATM    5  N   UNL     1      -8.904  10.820  69.489  1.00  0.00    -0.392 NA 
HETATM    6  H   UNL     1      -9.024  11.407  70.315  1.00  0.00     0.000 HD 
ENDROOT
BRANCH   5   7
HETATM    7  C   UNL     1     -10.140  10.803  68.706  1.00  0.00    -0.191 C  
BRANCH   7   8
HETATM    8  C   UNL     1     -11.424  10.965  69.543  1.00  0.00    -0.301 C  
HETATM    9  O   UNL     1     -12.536  10.739  68.652  1.00  0.00    -0.793 OA 
HETATM   10  H   UNL     1     -13.327  10.840  69.168  1.00  0.00     0.000 HD 
BRANCH   8  11
HETATM   11  C   UNL     1     -11.591  12.352  70.174  1.00  0.00    -0.077 C  
BRANCH  11  12
HETATM   12  O   UNL     1     -12.426  13.241  69.422  1.00  0.00    -0.122 OA 
BRANCH  12  13
HETATM   13  C   UNL     1     -11.763  14.256  68.761  1.00  0.00    -0.343 A  
HETATM   14  C   UNL     1     -11.146  14.074  67.509  1.00  0.00    -0.313 A  
HETATM   15  C   UNL     1     -10.430  15.099  66.899  1.00  0.00    -0.282 A  
HETATM   16  C   UNL     1     -10.330  16.329  67.525  1.00  0.00    -0.288 A  
HETATM   17  C   UNL     1     -10.958  16.535  68.755  1.00  0.00    -0.330 A  
HETATM   18  C   UNL     1     -11.697  15.517  69.396  1.00  0.00    -0.382 A  
BRANCH  18  19
HETATM   19  C   UNL     1     -12.330  15.765  70.757  1.00  0.00    -0.435 C  
HETATM   20  C   UNL     1     -13.737  15.187  70.993  1.00  0.00    -0.450 C  
HETATM   21  C   UNL     1     -13.921  15.324  72.494  1.00  0.00    -0.609 C  
HETATM   22  C   UNL     1     -12.575  14.877  73.044  1.00  0.00    -0.529 C  
HETATM   23  C   UNL     1     -11.539  15.222  71.964  1.00  0.00    -0.529 C  
ENDBRANCH  18  19
ENDBRANCH  12  13
ENDBRANCH  11  12
ENDBRANCH   8  11
ENDBRANCH   7   8
ENDBRANCH   5   7
TORSDOF 6
ENDMDL
MODEL      110
REMARK 921   NORMALIZED FREE ENERGY PREDICTED BY IDOCK:   -4.55 KCAL/MOL
REMARK 922        TOTAL FREE ENERGY PREDICTED BY IDOCK:   -7.18 KCAL/MOL
REMARK 923 INTER-LIGAND FREE ENERGY PREDICTED BY IDOCK:   -6.05 KCAL/MOL
REMARK 924 INTRA-LIGAND FREE ENERGY PREDICTED BY IDOCK:   -1.13 KCAL/MOL
REMARK 927      BINDING AFFINITY PREDICTED BY RF-SCORE:    0.00 PKD
ROOT
HETATM    1  C   UNL     1     -11.305  13.252  69.311  1.00  0.00    -0.311 C  
HETATM    2  C   UNL     1     -11.392  11.765  68.924  1.00  0.00    -0.267 C  
HETATM    3  C   UNL     1     -12.279  11.051  69.962  1.00  0.00    -0.418 C  
HETATM    4  C   UNL     1      -9.991  11.129  68.970  1.00  0.00    -0.155 C  
HETATM    5  N   UNL     1     -12.026  11.552  67.610  1.00  0.00    -0.634 NA 
HETATM    6  H   UNL     1     -13.008  11.824  67.649  1.00  0.00     0.000 HD 
ENDROOT
BRANCH   5   7
HETATM    7  C   UNL     1     -11.370  12.208  66.479  1.00  0.00    -0.350 C  
BRANCH   7   8
HETATM    8  C   UNL     1     -12.175  13.372  65.867  1.00  0.00    -0.450 C  
HETATM    9  O   UNL     1     -12.949  12.821  64.782  1.00  0.00    -0.768 OA 
HETATM   10  H   UNL     1     -13.444  13.539  64.405  1.00  0.00     0.000 HD 
BRANCH   8  11
HETATM   11  C   UNL     1     -11.310  14.508  65.309  1.00  0.00    -0.353 C  
BRANCH  11  12
HETATM   12  O   UNL     1     -10.035  14.641  65.950  1.00  0.00    -0.295 OA 
BRANCH  12  13
HETATM   13  C   UNL     1      -9.875  15.780  66.714  1.00  0.00    -0.245 A  
HETATM   14  C   UNL     1     -10.836  16.807  66.762  1.00  0.00    -0.009 A  
HETATM   15  C   UNL     1     -10.615  17.971  67.491  1.00  0.00    -0.402 A  
HETATM   16  C   UNL     1      -9.435  18.123  68.196  1.00  0.00    -0.301 A  
HETATM   17  C   UNL     1      -8.482  17.102  68.182  1.00  0.00    -0.227 A  
HETATM   18  C   UNL     1      -8.679  15.906  67.457  1.00  0.00    -0.189 A  
BRANCH  18  19
HETATM   19  C   UNL     1      -7.598  14.836  67.430  1.00  0.00    -0.228 C  
HETATM   20  C   UNL     1      -6.144  15.302  67.621  1.00  0.00    -0.139 C  
HETATM   21  C   UNL     1      -5.393  14.005  67.865  1.00  0.00    -0.075 C  
HETATM   22  C   UNL     1      -6.312  13.253  68.815  1.00  0.00    -0.094 C  
HETATM   23  C   UNL     1      -7.737  13.728  68.494  1.00  0.00    -0.138 C  
ENDBRANCH  18  19
ENDBRANCH  12  13
ENDBRANCH  11  12
ENDBRANCH   8  11
ENDBRANCH   7   8
ENDBRANCH   5   7
TORSDOF 6
ENDMDL
MODEL      111
REMARK 921   NORMALIZED FREE ENERGY PREDICTED BY IDOCK:   -4.53 KCAL/MOL
REMARK 922        TOTAL FREE ENERGY PREDICTED BY IDOCK:   -7.15 KCAL/MOL
REMARK 923 INTER-LIGAND FREE ENERGY PREDICTED BY IDOCK:   -6.23 KCAL/MOL
REMARK 924 INTRA-LIGAND FREE ENERGY PREDICTED BY IDOCK:   -0.93 KCAL/MOL
REMARK 927      BINDING AFFINITY PREDICTED BY RF-SCORE:    0.00 PKD
ROOT
HETATM    1  C   UNL     1     -11.350   7.517  72.616  1.00  0.00    -0.395 C  
HETATM    2  C   UNL     1     -12.260   7.982  71.466  1.00  0.00    -0.299 C  
HETATM    3  C   UNL     1     -12.578   9.475  71.680  1.00  0.00    -0.476 C  
HETATM    4  C   UNL     1     -13.585   7.200  71.496  1.00  0.00    -0.408 C  
HETATM    5  N   UNL     1     -11.613   7.874  70.146  1.00  0.00    -0.476 NA 
HETATM    6  H   UNL     1     -10.834   8.530  70.085  1.00  0.00     0.000 HD 
ENDROOT
BRANCH   5   7
HETATM    7  C   UNL     1     -11.169   6.533  69.769  1.00  0.00    -0.395 C  
BRANCH   7   8
HETATM    8  C   UNL     1     -10.662   6.417  68.317  1.00  0.00    -0.285 C  
HETATM    9  O   UNL     1      -9.227   6.284  68.384  1.00  0.00    -0.115 OA 
HETATM   10  H   UNL     1      -8.915   6.213  67.489  1.00  0.00     0.000 HD 
BRANCH   8  11
HETATM   11  C   UNL     1     -10.990   7.630  67.439  1.00  0.00    -0.042 C  
BRANCH  11  12
HETATM   12  O   UNL     1      -9.976   8.641  67.434  1.00  0.00    -0.177 OA 
BRANCH  12  13
HETATM   13  C   UNL     1     -10.434   9.936  67.302  1.00  0.00    -0.258 A  
HETATM   14  C   UNL     1     -11.113  10.614  68.333  1.00  0.00    -0.328 A  
HETATM   15  C   UNL     1     -11.619  11.896  68.145  1.00  0.00    -0.400 A  
HETATM   16  C   UNL     1     -11.445  12.528  66.927  1.00  0.00    -0.416 A  
HETATM   17  C   UNL     1     -10.751  11.882  65.902  1.00  0.00    -0.326 A  
HETATM   18  C   UNL     1     -10.219  10.583  66.064  1.00  0.00    -0.310 A  
BRANCH  18  19
HETATM   19  C   UNL     1      -9.508   9.894  64.909  1.00  0.00    -0.355 C  
HETATM   20  C   UNL     1      -9.804  10.415  63.491  1.00  0.00    -0.268 C  
HETATM   21  C   UNL     1      -8.725   9.759  62.648  1.00  0.00    -0.230 C  
HETATM   22  C   UNL     1      -7.480   9.915  63.508  1.00  0.00    -0.134 C  
HETATM   23  C   UNL     1      -7.968   9.931  64.964  1.00  0.00    -0.137 C  
ENDBRANCH  18  19
ENDBRANCH  12  13
ENDBRANCH  11  12
ENDBRANCH   8  11
ENDBRANCH   7   8
ENDBRANCH   5   7
TORSDOF 6
ENDMDL
MODEL      112
REMARK 921   NORMALIZED FREE ENERGY PREDICTED BY IDOCK:   -4.51 KCAL/MOL
REMARK 922        TOTAL FREE ENERGY PREDICTED BY IDOCK:   -7.12 KCAL/MOL
REMARK 923 INTER-LIGAND FREE ENERGY PREDICTED BY IDOCK:   -6.54 KCAL/MOL
REMARK 924 INTRA-LIGAND FREE ENERGY PREDICTED BY IDOCK:   -0.59 KCAL/MOL
REMARK 927      BINDING AFFINITY PREDICTED BY RF-SCORE:    0.00 PKD
ROOT
HETATM    1  C   UNL     1      -9.797  11.606  63.349  1.00  0.00    -0.424 C  
HETATM    2  C   UNL     1     -10.756  11.850  64.527  1.00  0.00    -0.312 C  
HETATM    3  C   UNL     1     -10.506  10.757  65.584  1.00  0.00    -0.255 C  
HETATM    4  C   UNL     1     -12.214  11.730  64.049  1.00  0.00    -0.351 C  
HETATM    5  N   UNL     1     -10.524  13.143  65.195  1.00  0.00    -0.313 NA 
HETATM    6  H   UNL     1      -9.614  13.140  65.655  1.00  0.00     0.000 HD 
ENDROOT
BRANCH   5   7
HETATM    7  C   UNL     1     -10.650  14.326  64.343  1.00  0.00    -0.021 C  
BRANCH   7   8
HETATM    8  C   UNL     1     -11.536  15.442  64.932  1.00  0.00    -0.248 C  
HETATM    9  O   UNL     1     -12.234  16.049  63.826  1.00  0.00    -1.269 OA 
HETATM   10  H   UNL     1     -12.780  16.737  64.189  1.00  0.00     0.000 HD 
BRANCH   8  11
HETATM   11  C   UNL     1     -10.758  16.538  65.668  1.00  0.00    -0.248 C  
BRANCH  11  12
HETATM   12  O   UNL     1      -9.337  16.360  65.649  1.00  0.00    -0.476 OA 
BRANCH  12  13
HETATM   13  C   UNL     1      -8.770  16.012  66.859  1.00  0.00    -0.229 A  
HETATM   14  C   UNL     1      -8.906  14.730  67.424  1.00  0.00    -0.203 A  
HETATM   15  C   UNL     1      -8.377  14.430  68.675  1.00  0.00    -0.147 A  
HETATM   16  C   UNL     1      -7.691  15.404  69.379  1.00  0.00    -0.227 A  
HETATM   17  C   UNL     1      -7.524  16.674  68.822  1.00  0.00    -0.224 A  
HETATM   18  C   UNL     1      -8.043  17.007  67.552  1.00  0.00    -0.189 A  
BRANCH  18  19
HETATM   19  C   UNL     1      -7.878  18.414  66.998  1.00  0.00    -0.238 C  
HETATM   20  C   UNL     1      -8.053  19.582  67.986  1.00  0.00    -0.347 C  
HETATM   21  C   UNL     1      -7.516  20.773  67.213  1.00  0.00    -0.381 C  
HETATM   22  C   UNL     1      -6.255  20.219  66.567  1.00  0.00    -0.216 C  
HETATM   23  C   UNL     1      -6.508  18.718  66.360  1.00  0.00    -0.223 C  
ENDBRANCH  18  19
ENDBRANCH  12  13
ENDBRANCH  11  12
ENDBRANCH   8  11
ENDBRANCH   7   8
ENDBRANCH   5   7
TORSDOF 6
ENDMDL
MODEL      113
REMARK 921   NORMALIZED FREE ENERGY PREDICTED BY IDOCK:   -4.49 KCAL/MOL
REMARK 922        TOTAL FREE ENERGY PREDICTED BY IDOCK:   -7.10 KCAL/MOL
REMARK 923 INTER-LIGAND FREE ENERGY PREDICTED BY IDOCK:   -5.83 KCAL/MOL
REMARK 924 INTRA-LIGAND FREE ENERGY PREDICTED BY IDOCK:   -1.26 KCAL/MOL
REMARK 927      BINDING AFFINITY PREDICTED BY RF-SCORE:    0.00 PKD
ROOT
HETATM    1  C   UNL     1     -10.112   9.836  66.153  1.00  0.00    -0.315 C  
HETATM    2  C   UNL     1      -9.351  10.260  64.885  1.00  0.00    -0.252 C  
HETATM    3  C   UNL     1     -10.358  10.916  63.919  1.00  0.00    -0.397 C  
HETATM    4  C   UNL     1      -8.757   9.022  64.190  1.00  0.00    -0.126 C  
HETATM    5  N   UNL     1      -8.308  11.267  65.153  1.00  0.00    -0.363 NA 
HETATM    6  H   UNL     1      -8.737  12.143  65.452  1.00  0.00     0.000 HD 
ENDROOT
BRANCH   5   7
HETATM    7  C   UNL     1      -7.274  10.866  66.107  1.00  0.00    -0.101 C  
BRANCH   7   8
HETATM    8  C   UNL     1      -7.023  11.884  67.236  1.00  0.00    -0.145 C  
HETATM    9  O   UNL     1      -5.894  11.401  67.993  1.00  0.00    -0.043 OA 
HETATM   10  H   UNL     1      -5.740  12.028  68.689  1.00  0.00     0.000 HD 
BRANCH   8  11
HETATM   11  C   UNL     1      -8.204  12.060  68.198  1.00  0.00    -0.163 C  
BRANCH  11  12
HETATM   12  O   UNL     1      -8.748  13.385  68.221  1.00  0.00    -0.176 OA 
BRANCH  12  13
HETATM   13  C   UNL     1      -9.806  13.604  67.361  1.00  0.00    -0.234 A  
HETATM   14  C   UNL     1      -9.656  14.237  66.113  1.00  0.00    -0.300 A  
HETATM   15  C   UNL     1     -10.753  14.501  65.299  1.00  0.00    -0.390 A  
HETATM   16  C   UNL     1     -12.018  14.125  65.713  1.00  0.00    -0.410 A  
HETATM   17  C   UNL     1     -12.182  13.472  66.936  1.00  0.00    -0.377 A  
HETATM   18  C   UNL     1     -11.088  13.184  67.782  1.00  0.00    -0.287 A  
BRANCH  18  19
HETATM   19  C   UNL     1     -11.313  12.511  69.128  1.00  0.00    -0.331 C  
HETATM   20  C   UNL     1     -12.260  13.216  70.116  1.00  0.00    -0.360 C  
HETATM   21  C   UNL     1     -12.509  12.156  71.174  1.00  0.00    -0.337 C  
HETATM   22  C   UNL     1     -12.718  10.895  70.349  1.00  0.00    -0.326 C  
HETATM   23  C   UNL     1     -11.896  11.085  69.066  1.00  0.00    -0.399 C  
ENDBRANCH  18  19
ENDBRANCH  12  13
ENDBRANCH  11  12
ENDBRANCH   8  11
ENDBRANCH   7   8
ENDBRANCH   5   7
TORSDOF 6
ENDMDL
MODEL      114
REMARK 921   NORMALIZED FREE ENERGY PREDICTED BY IDOCK:   -4.47 KCAL/MOL
REMARK 922        TOTAL FREE ENERGY PREDICTED BY IDOCK:   -7.07 KCAL/MOL
REMARK 923 INTER-LIGAND FREE ENERGY PREDICTED BY IDOCK:   -5.75 KCAL/MOL
REMARK 924 INTRA-LIGAND FREE ENERGY PREDICTED BY IDOCK:   -1.32 KCAL/MOL
REMARK 927      BINDING AFFINITY PREDICTED BY RF-SCORE:    0.00 PKD
ROOT
HETATM    1  C   UNL     1      -5.582  11.995  69.625  1.00  0.00    -0.086 C  
HETATM    2  C   UNL     1      -6.925  11.728  68.925  1.00  0.00    -0.109 C  
HETATM    3  C   UNL     1      -7.594  10.523  69.615  1.00  0.00    -0.134 C  
HETATM    4  C   UNL     1      -6.685  11.364  67.449  1.00  0.00    -0.094 C  
HETATM    5  N   UNL     1      -7.866  12.857  69.044  1.00  0.00    -0.325 NA 
HETATM    6  H   UNL     1      -8.148  12.975  70.017  1.00  0.00     0.000 HD 
ENDROOT
BRANCH   5   7
HETATM    7  C   UNL     1      -7.395  14.131  68.502  1.00  0.00    -0.120 C  
BRANCH   7   8
HETATM    8  C   UNL     1      -7.973  14.485  67.117  1.00  0.00    -0.138 C  
HETATM    9  O   UNL     1      -7.187  15.579  66.602  1.00  0.00    -0.249 OA 
HETATM   10  H   UNL     1      -7.544  15.797  65.750  1.00  0.00     0.000 HD 
BRANCH   8  11
HETATM   11  C   UNL     1      -9.443  14.922  67.144  1.00  0.00    -0.225 C  
BRANCH  11  12
HETATM   12  O   UNL     1     -10.375  13.835  67.169  1.00  0.00    -0.258 OA 
BRANCH  12  13
HETATM   13  C   UNL     1     -10.974  13.542  65.960  1.00  0.00    -0.275 A  
HETATM   14  C   UNL     1     -11.606  14.519  65.167  1.00  0.00    -0.371 A  
HETATM   15  C   UNL     1     -12.256  14.181  63.984  1.00  0.00    -0.369 A  
HETATM   16  C   UNL     1     -12.276  12.862  63.568  1.00  0.00    -0.595 A  
HETATM   17  C   UNL     1     -11.632  11.884  64.329  1.00  0.00    -0.405 A  
HETATM   18  C   UNL     1     -10.957  12.196  65.530  1.00  0.00    -0.343 A  
BRANCH  18  19
HETATM   19  C   UNL     1     -10.305  11.097  66.355  1.00  0.00    -0.300 C  
HETATM   20  C   UNL     1     -11.158  10.450  67.462  1.00  0.00    -0.336 C  
HETATM   21  C   UNL     1     -10.354   9.222  67.846  1.00  0.00    -0.279 C  
HETATM   22  C   UNL     1      -9.915   8.666  66.499  1.00  0.00    -0.353 C  
HETATM   23  C   UNL     1      -9.813   9.874  65.555  1.00  0.00    -0.381 C  
ENDBRANCH  18  19
ENDBRANCH  12  13
ENDBRANCH  11  12
ENDBRANCH   8  11
ENDBRANCH   7   8
ENDBRANCH   5   7
TORSDOF 6
ENDMDL
MODEL      115
REMARK 921   NORMALIZED FREE ENERGY PREDICTED BY IDOCK:   -4.44 KCAL/MOL
REMARK 922        TOTAL FREE ENERGY PREDICTED BY IDOCK:   -7.03 KCAL/MOL
REMARK 923 INTER-LIGAND FREE ENERGY PREDICTED BY IDOCK:   -6.41 KCAL/MOL
REMARK 924 INTRA-LIGAND FREE ENERGY PREDICTED BY IDOCK:   -0.62 KCAL/MOL
REMARK 927      BINDING AFFINITY PREDICTED BY RF-SCORE:    0.00 PKD
ROOT
HETATM    1  C   UNL     1     -10.620   5.235  66.770  1.00  0.00    -0.309 C  
HETATM    2  C   UNL     1     -10.093   5.882  68.062  1.00  0.00    -0.162 C  
HETATM    3  C   UNL     1      -9.340   4.803  68.866  1.00  0.00    -0.190 C  
HETATM    4  C   UNL     1     -11.270   6.383  68.917  1.00  0.00    -0.385 C  
HETATM    5  N   UNL     1      -9.128   6.967  67.806  1.00  0.00    -0.119 NA 
HETATM    6  H   UNL     1      -8.277   6.586  67.391  1.00  0.00     0.000 HD 
ENDROOT
BRANCH   5   7
HETATM    7  C   UNL     1      -9.626   8.076  66.994  1.00  0.00    -0.196 C  
BRANCH   7   8
HETATM    8  C   UNL     1      -8.648   8.553  65.901  1.00  0.00    -0.163 C  
HETATM    9  O   UNL     1      -7.406   8.870  66.561  1.00  0.00    -0.083 OA 
HETATM   10  H   UNL     1      -6.804   9.164  65.888  1.00  0.00     0.000 HD 
BRANCH   8  11
HETATM   11  C   UNL     1      -9.118   9.797  65.138  1.00  0.00    -0.222 C  
BRANCH  11  12
HETATM   12  O   UNL     1      -9.721  10.798  65.967  1.00  0.00    -0.200 OA 
BRANCH  12  13
HETATM   13  C   UNL     1     -10.711  11.546  65.362  1.00  0.00    -0.278 A  
HETATM   14  C   UNL     1     -10.969  11.493  63.979  1.00  0.00    -0.454 A  
HETATM   15  C   UNL     1     -11.930  12.308  63.390  1.00  0.00    -0.588 A  
HETATM   16  C   UNL     1     -12.660  13.182  64.176  1.00  0.00    -0.261 A  
HETATM   17  C   UNL     1     -12.436  13.229  65.553  1.00  0.00    -0.531 A  
HETATM   18  C   UNL     1     -11.472  12.410  66.182  1.00  0.00    -0.430 A  
BRANCH  18  19
HETATM   19  C   UNL     1     -11.226  12.521  67.679  1.00  0.00    -0.332 C  
HETATM   20  C   UNL     1     -11.988  13.624  68.436  1.00  0.00    -0.391 C  
HETATM   21  C   UNL     1     -11.776  13.255  69.893  1.00  0.00    -0.330 C  
HETATM   22  C   UNL     1     -11.980  11.748  69.895  1.00  0.00    -0.405 C  
HETATM   23  C   UNL     1     -11.561  11.260  68.500  1.00  0.00    -0.384 C  
ENDBRANCH  18  19
ENDBRANCH  12  13
ENDBRANCH  11  12
ENDBRANCH   8  11
ENDBRANCH   7   8
ENDBRANCH   5   7
TORSDOF 6
ENDMDL
MODEL      116
REMARK 921   NORMALIZED FREE ENERGY PREDICTED BY IDOCK:   -4.44 KCAL/MOL
REMARK 922        TOTAL FREE ENERGY PREDICTED BY IDOCK:   -7.03 KCAL/MOL
REMARK 923 INTER-LIGAND FREE ENERGY PREDICTED BY IDOCK:   -6.08 KCAL/MOL
REMARK 924 INTRA-LIGAND FREE ENERGY PREDICTED BY IDOCK:   -0.95 KCAL/MOL
REMARK 927      BINDING AFFINITY PREDICTED BY RF-SCORE:    0.00 PKD
ROOT
HETATM    1  C   UNL     1      -9.801  10.405  69.251  1.00  0.00    -0.243 C  
HETATM    2  C   UNL     1      -9.807  10.465  67.714  1.00  0.00    -0.168 C  
HETATM    3  C   UNL     1      -8.772  11.518  67.271  1.00  0.00    -0.151 C  
HETATM    4  C   UNL     1     -11.191  10.914  67.212  1.00  0.00    -0.307 C  
HETATM    5  N   UNL     1      -9.407   9.191  67.089  1.00  0.00    -0.140 NA 
HETATM    6  H   UNL     1      -8.427   8.995  67.295  1.00  0.00     0.000 HD 
ENDROOT
BRANCH   5   7
HETATM    7  C   UNL     1     -10.231   8.033  67.434  1.00  0.00    -0.261 C  
BRANCH   7   8
HETATM    8  C   UNL     1      -9.562   6.672  67.152  1.00  0.00    -0.138 C  
HETATM    9  O   UNL     1      -9.751   6.395  65.749  1.00  0.00    -0.380 OA 
HETATM   10  H   UNL     1      -9.339   5.557  65.576  1.00  0.00     0.000 HD 
BRANCH   8  11
HETATM   11  C   UNL     1     -10.151   5.506  67.954  1.00  0.00    -0.176 C  
BRANCH  11  12
HETATM   12  O   UNL     1     -11.046   5.907  68.998  1.00  0.00    -0.336 OA 
BRANCH  12  13
HETATM   13  C   UNL     1     -10.684   5.510  70.270  1.00  0.00    -0.263 A  
HETATM   14  C   UNL     1      -9.784   4.454  70.512  1.00  0.00    -0.287 A  
HETATM   15  C   UNL     1      -9.491   4.035  71.806  1.00  0.00    -0.210 A  
HETATM   16  C   UNL     1     -10.083   4.673  72.881  1.00  0.00    -0.205 A  
HETATM   17  C   UNL     1     -10.957   5.739  72.661  1.00  0.00    -0.311 A  
HETATM   18  C   UNL     1     -11.270   6.192  71.360  1.00  0.00    -0.346 A  
BRANCH  18  19
HETATM   19  C   UNL     1     -12.262   7.328  71.159  1.00  0.00    -0.376 C  
HETATM   20  C   UNL     1     -13.744   7.025  71.448  1.00  0.00    -0.307 C  
HETATM   21  C   UNL     1     -14.381   8.402  71.469  1.00  0.00    -0.499 C  
HETATM   22  C   UNL     1     -13.380   9.229  72.261  1.00  0.00    -0.547 C  
HETATM   23  C   UNL     1     -12.007   8.588  72.010  1.00  0.00    -0.427 C  
ENDBRANCH  18  19
ENDBRANCH  12  13
ENDBRANCH  11  12
ENDBRANCH   8  11
ENDBRANCH   7   8
ENDBRANCH   5   7
TORSDOF 6
ENDMDL
MODEL      117
REMARK 921   NORMALIZED FREE ENERGY PREDICTED BY IDOCK:   -4.41 KCAL/MOL
REMARK 922        TOTAL FREE ENERGY PREDICTED BY IDOCK:   -6.99 KCAL/MOL
REMARK 923 INTER-LIGAND FREE ENERGY PREDICTED BY IDOCK:   -5.83 KCAL/MOL
REMARK 924 INTRA-LIGAND FREE ENERGY PREDICTED BY IDOCK:   -1.16 KCAL/MOL
REMARK 927      BINDING AFFINITY PREDICTED BY RF-SCORE:    0.00 PKD
ROOT
HETATM    1  C   UNL     1      -6.016  12.802  70.111  1.00  0.00    -0.135 C  
HETATM    2  C   UNL     1      -6.895  12.879  68.851  1.00  0.00    -0.095 C  
HETATM    3  C   UNL     1      -7.662  11.548  68.720  1.00  0.00    -0.124 C  
HETATM    4  C   UNL     1      -6.011  13.049  67.603  1.00  0.00    -0.145 C  
HETATM    5  N   UNL     1      -7.911  13.945  68.927  1.00  0.00    -0.314 NA 
HETATM    6  H   UNL     1      -8.593  13.726  69.654  1.00  0.00     0.000 HD 
ENDROOT
BRANCH   5   7
HETATM    7  C   UNL     1      -7.392  15.299  69.120  1.00  0.00    -0.172 C  
BRANCH   7   8
HETATM    8  C   UNL     1      -7.597  16.235  67.911  1.00  0.00    -0.137 C  
HETATM    9  O   UNL     1      -6.696  17.347  68.086  1.00  0.00    -0.170 OA 
HETATM   10  H   UNL     1      -6.822  17.923  67.342  1.00  0.00     0.000 HD 
BRANCH   8  11
HETATM   11  C   UNL     1      -9.021  16.787  67.779  1.00  0.00    -0.216 C  
BRANCH  11  12
HETATM   12  O   UNL     1     -10.040  15.894  68.244  1.00  0.00    -0.219 OA 
BRANCH  12  13
HETATM   13  C   UNL     1     -10.701  15.189  67.258  1.00  0.00    -0.305 A  
HETATM   14  C   UNL     1     -10.691  15.579  65.906  1.00  0.00    -0.346 A  
HETATM   15  C   UNL     1     -11.421  14.883  64.947  1.00  0.00    -0.407 A  
HETATM   16  C   UNL     1     -12.163  13.777  65.322  1.00  0.00    -0.461 A  
HETATM   17  C   UNL     1     -12.162  13.360  66.654  1.00  0.00    -0.391 A  
HETATM   18  C   UNL     1     -11.427  14.041  67.649  1.00  0.00    -0.362 A  
BRANCH  18  19
HETATM   19  C   UNL     1     -11.487  13.583  69.099  1.00  0.00    -0.345 C  
HETATM   20  C   UNL     1     -12.531  14.260  70.007  1.00  0.00    -0.355 C  
HETATM   21  C   UNL     1     -12.547  13.373  71.238  1.00  0.00    -0.411 C  
HETATM   22  C   UNL     1     -12.526  11.971  70.648  1.00  0.00    -0.335 C  
HETATM   23  C   UNL     1     -11.785  12.085  69.308  1.00  0.00    -0.389 C  
ENDBRANCH  18  19
ENDBRANCH  12  13
ENDBRANCH  11  12
ENDBRANCH   8  11
ENDBRANCH   7   8
ENDBRANCH   5   7
TORSDOF 6
ENDMDL
MODEL      118
REMARK 921   NORMALIZED FREE ENERGY PREDICTED BY IDOCK:   -4.39 KCAL/MOL
REMARK 922        TOTAL FREE ENERGY PREDICTED BY IDOCK:   -6.96 KCAL/MOL
REMARK 923 INTER-LIGAND FREE ENERGY PREDICTED BY IDOCK:   -6.23 KCAL/MOL
REMARK 924 INTRA-LIGAND FREE ENERGY PREDICTED BY IDOCK:   -0.73 KCAL/MOL
REMARK 927      BINDING AFFINITY PREDICTED BY RF-SCORE:    0.00 PKD
ROOT
HETATM    1  C   UNL     1     -10.420  13.757  65.022  1.00  0.00    -0.418 C  
HETATM    2  C   UNL     1     -11.442  12.759  65.594  1.00  0.00    -0.342 C  
HETATM    3  C   UNL     1     -12.709  12.815  64.718  1.00  0.00    -0.469 C  
HETATM    4  C   UNL     1     -11.830  13.168  67.026  1.00  0.00    -0.435 C  
HETATM    5  N   UNL     1     -10.964  11.365  65.555  1.00  0.00    -0.229 NA 
HETATM    6  H   UNL     1     -10.876  11.054  64.587  1.00  0.00     0.000 HD 
ENDROOT
BRANCH   5   7
HETATM    7  C   UNL     1      -9.721  11.103  66.280  1.00  0.00    -0.211 C  
BRANCH   7   8
HETATM    8  C   UNL     1      -9.439   9.609  66.536  1.00  0.00    -0.181 C  
HETATM    9  O   UNL     1      -9.640   8.923  65.283  1.00  0.00    -0.454 OA 
HETATM   10  H   UNL     1      -9.466   8.003  65.442  1.00  0.00     0.000 HD 
BRANCH   8  11
HETATM   11  C   UNL     1     -10.355   8.968  67.586  1.00  0.00    -0.257 C  
BRANCH  11  12
HETATM   12  O   UNL     1     -10.268   9.569  68.883  1.00  0.00    -0.185 OA 
BRANCH  12  13
HETATM   13  C   UNL     1      -9.601   8.824  69.835  1.00  0.00    -0.177 A  
HETATM   14  C   UNL     1      -8.210   8.608  69.796  1.00  0.00    -0.121 A  
HETATM   15  C   UNL     1      -7.577   7.798  70.734  1.00  0.00    -0.078 A  
HETATM   16  C   UNL     1      -8.322   7.201  71.735  1.00  0.00    -0.105 A  
HETATM   17  C   UNL     1      -9.698   7.426  71.805  1.00  0.00    -0.172 A  
HETATM   18  C   UNL     1     -10.369   8.248  70.872  1.00  0.00    -0.225 A  
BRANCH  18  19
HETATM   19  C   UNL     1     -11.877   8.433  70.954  1.00  0.00    -0.237 C  
HETATM   20  C   UNL     1     -12.697   7.269  71.538  1.00  0.00    -0.422 C  
HETATM   21  C   UNL     1     -14.061   7.889  71.774  1.00  0.00    -0.520 C  
HETATM   22  C   UNL     1     -13.720   9.244  72.377  1.00  0.00    -0.517 C  
HETATM   23  C   UNL     1     -12.351   9.632  71.800  1.00  0.00    -0.474 C  
ENDBRANCH  18  19
ENDBRANCH  12  13
ENDBRANCH  11  12
ENDBRANCH   8  11
ENDBRANCH   7   8
ENDBRANCH   5   7
TORSDOF 6
ENDMDL
MODEL      119
REMARK 921   NORMALIZED FREE ENERGY PREDICTED BY IDOCK:   -4.39 KCAL/MOL
REMARK 922        TOTAL FREE ENERGY PREDICTED BY IDOCK:   -6.96 KCAL/MOL
REMARK 923 INTER-LIGAND FREE ENERGY PREDICTED BY IDOCK:   -6.83 KCAL/MOL
REMARK 924 INTRA-LIGAND FREE ENERGY PREDICTED BY IDOCK:   -0.13 KCAL/MOL
REMARK 927      BINDING AFFINITY PREDICTED BY RF-SCORE:    0.00 PKD
ROOT
HETATM    1  C   UNL     1      -8.400  19.516  65.889  1.00  0.00    -0.147 C  
HETATM    2  C   UNL     1      -9.345  18.878  66.922  1.00  0.00    -0.309 C  
HETATM    3  C   UNL     1     -10.717  19.572  66.809  1.00  0.00    -0.569 C  
HETATM    4  C   UNL     1      -8.804  19.112  68.343  1.00  0.00    -0.386 C  
HETATM    5  N   UNL     1      -9.577  17.443  66.674  1.00  0.00    -0.263 NA 
HETATM    6  H   UNL     1     -10.092  17.318  65.802  1.00  0.00     0.000 HD 
ENDROOT
BRANCH   5   7
HETATM    7  C   UNL     1      -8.381  16.602  66.673  1.00  0.00    -0.261 C  
BRANCH   7   8
HETATM    8  C   UNL     1      -7.745  16.400  68.064  1.00  0.00    -0.153 C  
HETATM    9  O   UNL     1      -6.639  15.491  67.890  1.00  0.00    -0.130 OA 
HETATM   10  H   UNL     1      -6.248  15.367  68.747  1.00  0.00     0.000 HD 
BRANCH   8  11
HETATM   11  C   UNL     1      -8.696  15.803  69.108  1.00  0.00    -0.253 C  
BRANCH  11  12
HETATM   12  O   UNL     1     -10.085  15.957  68.790  1.00  0.00    -0.207 OA 
BRANCH  12  13
HETATM   13  C   UNL     1     -10.955  15.231  69.578  1.00  0.00    -0.277 A  
HETATM   14  C   UNL     1     -11.225  15.562  70.920  1.00  0.00    -0.409 A  
HETATM   15  C   UNL     1     -12.057  14.772  71.707  1.00  0.00    -0.417 A  
HETATM   16  C   UNL     1     -12.643  13.643  71.162  1.00  0.00    -0.452 A  
HETATM   17  C   UNL     1     -12.407  13.314  69.826  1.00  0.00    -0.189 A  
HETATM   18  C   UNL     1     -11.573  14.100  69.000  1.00  0.00    -0.342 A  
BRANCH  18  19
HETATM   19  C   UNL     1     -11.305  13.684  67.561  1.00  0.00    -0.335 C  
HETATM   20  C   UNL     1     -11.527  12.203  67.204  1.00  0.00    -0.413 C  
HETATM   21  C   UNL     1     -11.494  12.203  65.687  1.00  0.00    -0.408 C  
HETATM   22  C   UNL     1     -12.319  13.430  65.328  1.00  0.00    -0.513 C  
HETATM   23  C   UNL     1     -12.145  14.414  66.494  1.00  0.00    -0.395 C  
ENDBRANCH  18  19
ENDBRANCH  12  13
ENDBRANCH  11  12
ENDBRANCH   8  11
ENDBRANCH   7   8
ENDBRANCH   5   7
TORSDOF 6
ENDMDL
MODEL      120
REMARK 921   NORMALIZED FREE ENERGY PREDICTED BY IDOCK:   -4.38 KCAL/MOL
REMARK 922        TOTAL FREE ENERGY PREDICTED BY IDOCK:   -6.95 KCAL/MOL
REMARK 923 INTER-LIGAND FREE ENERGY PREDICTED BY IDOCK:   -6.28 KCAL/MOL
REMARK 924 INTRA-LIGAND FREE ENERGY PREDICTED BY IDOCK:   -0.67 KCAL/MOL
REMARK 927      BINDING AFFINITY PREDICTED BY RF-SCORE:    0.00 PKD
ROOT
HETATM    1  C   UNL     1      -9.096  17.482  66.218  1.00  0.00    -0.221 C  
HETATM    2  C   UNL     1      -9.647  18.116  67.507  1.00  0.00    -0.280 C  
HETATM    3  C   UNL     1     -10.343  19.439  67.131  1.00  0.00    -0.548 C  
HETATM    4  C   UNL     1      -8.490  18.440  68.469  1.00  0.00    -0.346 C  
HETATM    5  N   UNL     1     -10.664  17.278  68.167  1.00  0.00    -0.383 NA 
HETATM    6  H   UNL     1     -11.498  17.216  67.583  1.00  0.00     0.000 HD 
ENDROOT
BRANCH   5   7
HETATM    7  C   UNL     1     -10.224  15.938  68.554  1.00  0.00    -0.226 C  
BRANCH   7   8
HETATM    8  C   UNL     1     -10.891  14.797  67.761  1.00  0.00    -0.278 C  
HETATM    9  O   UNL     1     -12.315  14.939  67.940  1.00  0.00    -0.543 OA 
HETATM   10  H   UNL     1     -12.726  14.236  67.452  1.00  0.00     0.000 HD 
BRANCH   8  11
HETATM   11  C   UNL     1     -10.488  13.392  68.223  1.00  0.00    -0.250 C  
BRANCH  11  12
HETATM   12  O   UNL     1     -11.587  12.483  68.361  1.00  0.00    -0.279 OA 
BRANCH  12  13
HETATM   13  C   UNL     1     -11.336  11.365  69.129  1.00  0.00    -0.288 A  
HETATM   14  C   UNL     1     -10.543  10.292  68.678  1.00  0.00    -0.232 A  
HETATM   15  C   UNL     1     -10.361   9.150  69.451  1.00  0.00    -0.220 A  
HETATM   16  C   UNL     1     -10.960   9.066  70.696  1.00  0.00    -0.308 A  
HETATM   17  C   UNL     1     -11.728  10.131  71.171  1.00  0.00    -0.453 A  
HETATM   18  C   UNL     1     -11.925  11.306  70.412  1.00  0.00    -0.471 A  
BRANCH  18  19
HETATM   19  C   UNL     1     -12.806  12.427  70.945  1.00  0.00    -0.176 C  
HETATM   20  C   UNL     1     -13.719  12.095  72.139  1.00  0.00    -0.145 C  
HETATM   21  C   UNL     1     -14.188  13.460  72.607  1.00  0.00    -0.092 C  
HETATM   22  C   UNL     1     -12.917  14.295  72.550  1.00  0.00    -0.506 C  
HETATM   23  C   UNL     1     -12.055  13.680  71.437  1.00  0.00    -0.038 C  
ENDBRANCH  18  19
ENDBRANCH  12  13
ENDBRANCH  11  12
ENDBRANCH   8  11
ENDBRANCH   7   8
ENDBRANCH   5   7
TORSDOF 6
ENDMDL
MODEL      121
REMARK 921   NORMALIZED FREE ENERGY PREDICTED BY IDOCK:   -4.38 KCAL/MOL
REMARK 922        TOTAL FREE ENERGY PREDICTED BY IDOCK:   -6.95 KCAL/MOL
REMARK 923 INTER-LIGAND FREE ENERGY PREDICTED BY IDOCK:   -6.00 KCAL/MOL
REMARK 924 INTRA-LIGAND FREE ENERGY PREDICTED BY IDOCK:   -0.94 KCAL/MOL
REMARK 927      BINDING AFFINITY PREDICTED BY RF-SCORE:    0.00 PKD
ROOT
HETATM    1  C   UNL     1     -10.766   5.192  66.422  1.00  0.00    -0.275 C  
HETATM    2  C   UNL     1      -9.947   5.808  67.569  1.00  0.00    -0.148 C  
HETATM    3  C   UNL     1      -8.722   4.906  67.821  1.00  0.00    -0.105 C  
HETATM    4  C   UNL     1     -10.789   5.843  68.856  1.00  0.00    -0.373 C  
HETATM    5  N   UNL     1      -9.424   7.147  67.243  1.00  0.00    -0.135 NA 
HETATM    6  H   UNL     1      -8.733   7.080  66.495  1.00  0.00     0.000 HD 
ENDROOT
BRANCH   5   7
HETATM    7  C   UNL     1     -10.430   8.153  66.905  1.00  0.00    -0.309 C  
BRANCH   7   8
HETATM    8  C   UNL     1      -9.906   9.303  66.022  1.00  0.00    -0.293 C  
HETATM    9  O   UNL     1      -8.478   9.134  65.917  1.00  0.00    -0.130 OA 
HETATM   10  H   UNL     1      -8.156   9.843  65.374  1.00  0.00     0.000 HD 
BRANCH   8  11
HETATM   11  C   UNL     1     -10.183  10.702  66.585  1.00  0.00    -0.231 C  
BRANCH  11  12
HETATM   12  O   UNL     1      -9.962  10.819  67.995  1.00  0.00    -0.159 OA 
BRANCH  12  13
HETATM   13  C   UNL     1     -10.776  11.724  68.648  1.00  0.00    -0.220 A  
HETATM   14  C   UNL     1     -10.914  13.062  68.232  1.00  0.00    -0.285 A  
HETATM   15  C   UNL     1     -11.692  13.965  68.949  1.00  0.00    -0.373 A  
HETATM   16  C   UNL     1     -12.355  13.543  70.088  1.00  0.00    -0.345 A  
HETATM   17  C   UNL     1     -12.251  12.213  70.499  1.00  0.00    -0.392 A  
HETATM   18  C   UNL     1     -11.475  11.271  69.789  1.00  0.00    -0.386 A  
BRANCH  18  19
HETATM   19  C   UNL     1     -11.349   9.841  70.294  1.00  0.00    -0.333 C  
HETATM   20  C   UNL     1     -10.019   9.446  70.962  1.00  0.00    -0.334 C  
HETATM   21  C   UNL     1     -10.342   8.117  71.619  1.00  0.00    -0.284 C  
HETATM   22  C   UNL     1     -11.710   8.364  72.235  1.00  0.00    -0.453 C  
HETATM   23  C   UNL     1     -12.391   9.418  71.350  1.00  0.00    -0.439 C  
ENDBRANCH  18  19
ENDBRANCH  12  13
ENDBRANCH  11  12
ENDBRANCH   8  11
ENDBRANCH   7   8
ENDBRANCH   5   7
TORSDOF 6
ENDMDL
MODEL      122
REMARK 921   NORMALIZED FREE ENERGY PREDICTED BY IDOCK:   -4.34 KCAL/MOL
REMARK 922        TOTAL FREE ENERGY PREDICTED BY IDOCK:   -6.89 KCAL/MOL
REMARK 923 INTER-LIGAND FREE ENERGY PREDICTED BY IDOCK:   -6.53 KCAL/MOL
REMARK 924 INTRA-LIGAND FREE ENERGY PREDICTED BY IDOCK:   -0.36 KCAL/MOL
REMARK 927      BINDING AFFINITY PREDICTED BY RF-SCORE:    0.00 PKD
ROOT
HETATM    1  C   UNL     1     -11.909  14.013  66.830  1.00  0.00    -0.450 C  
HETATM    2  C   UNL     1     -11.147  14.173  65.503  1.00  0.00    -0.310 C  
HETATM    3  C   UNL     1     -10.598  15.612  65.436  1.00  0.00    -0.436 C  
HETATM    4  C   UNL     1     -12.108  13.970  64.318  1.00  0.00    -0.476 C  
HETATM    5  N   UNL     1      -9.984  13.273  65.400  1.00  0.00    -0.468 NA 
HETATM    6  H   UNL     1      -9.278  13.535  66.088  1.00  0.00     0.000 HD 
ENDROOT
BRANCH   5   7
HETATM    7  C   UNL     1     -10.279  11.845  65.505  1.00  0.00    -0.254 C  
BRANCH   7   8
HETATM    8  C   UNL     1      -9.625  11.149  66.716  1.00  0.00    -0.191 C  
HETATM    9  O   UNL     1      -8.629  10.247  66.193  1.00  0.00    -0.133 OA 
HETATM   10  H   UNL     1      -8.227   9.818  66.939  1.00  0.00     0.000 HD 
BRANCH   8  11
HETATM   11  C   UNL     1     -10.601  10.339  67.577  1.00  0.00    -0.268 C  
BRANCH  11  12
HETATM   12  O   UNL     1     -10.204  10.210  68.947  1.00  0.00    -0.179 OA 
BRANCH  12  13
HETATM   13  C   UNL     1     -11.176  10.525  69.876  1.00  0.00    -0.307 A  
HETATM   14  C   UNL     1     -11.856  11.758  69.879  1.00  0.00    -0.423 A  
HETATM   15  C   UNL     1     -12.784  12.070  70.868  1.00  0.00    -0.291 A  
HETATM   16  C   UNL     1     -13.058  11.149  71.863  1.00  0.00    -0.513 A  
HETATM   17  C   UNL     1     -12.414   9.910  71.860  1.00  0.00    -0.435 A  
HETATM   18  C   UNL     1     -11.472   9.562  70.867  1.00  0.00    -0.405 A  
BRANCH  18  19
HETATM   19  C   UNL     1     -10.756   8.220  70.922  1.00  0.00    -0.250 C  
HETATM   20  C   UNL     1     -11.050   7.220  69.789  1.00  0.00    -0.203 C  
HETATM   21  C   UNL     1      -9.968   6.171  69.963  1.00  0.00    -0.217 C  
HETATM   22  C   UNL     1      -8.724   7.005  70.233  1.00  0.00    -0.144 C  
HETATM   23  C   UNL     1      -9.216   8.291  70.914  1.00  0.00    -0.182 C  
ENDBRANCH  18  19
ENDBRANCH  12  13
ENDBRANCH  11  12
ENDBRANCH   8  11
ENDBRANCH   7   8
ENDBRANCH   5   7
TORSDOF 6
ENDMDL
MODEL      123
REMARK 921   NORMALIZED FREE ENERGY PREDICTED BY IDOCK:   -4.33 KCAL/MOL
REMARK 922        TOTAL FREE ENERGY PREDICTED BY IDOCK:   -6.87 KCAL/MOL
REMARK 923 INTER-LIGAND FREE ENERGY PREDICTED BY IDOCK:   -6.53 KCAL/MOL
REMARK 924 INTRA-LIGAND FREE ENERGY PREDICTED BY IDOCK:   -0.35 KCAL/MOL
REMARK 927      BINDING AFFINITY PREDICTED BY RF-SCORE:    0.00 PKD
ROOT
HETATM    1  C   UNL     1      -7.188  16.785  68.575  1.00  0.00    -0.194 C  
HETATM    2  C   UNL     1      -6.891  17.984  67.658  1.00  0.00    -0.191 C  
HETATM    3  C   UNL     1      -5.417  17.894  67.215  1.00  0.00    -0.143 C  
HETATM    4  C   UNL     1      -7.079  19.299  68.434  1.00  0.00    -0.328 C  
HETATM    5  N   UNL     1      -7.702  17.977  66.427  1.00  0.00    -0.256 NA 
HETATM    6  H   UNL     1      -7.439  17.184  65.840  1.00  0.00     0.000 HD 
ENDROOT
BRANCH   5   7
HETATM    7  C   UNL     1      -9.151  17.992  66.625  1.00  0.00    -0.280 C  
BRANCH   7   8
HETATM    8  C   UNL     1      -9.856  16.671  66.259  1.00  0.00    -0.310 C  
HETATM    9  O   UNL     1     -10.432  16.853  64.949  1.00  0.00    -0.600 OA 
HETATM   10  H   UNL     1     -10.866  16.039  64.724  1.00  0.00     0.000 HD 
BRANCH   8  11
HETATM   11  C   UNL     1     -10.978  16.270  67.224  1.00  0.00    -0.144 C  
BRANCH  11  12
HETATM   12  O   UNL     1     -11.719  15.116  66.812  1.00  0.00    -0.229 OA 
BRANCH  12  13
HETATM   13  C   UNL     1     -11.821  14.113  67.755  1.00  0.00    -0.379 A  
HETATM   14  C   UNL     1     -11.974  14.373  69.131  1.00  0.00    -0.357 A  
HETATM   15  C   UNL     1     -12.009  13.340  70.063  1.00  0.00    -0.399 A  
HETATM   16  C   UNL     1     -11.904  12.029  69.634  1.00  0.00    -0.401 A  
HETATM   17  C   UNL     1     -11.779  11.751  68.272  1.00  0.00    -0.377 A  
HETATM   18  C   UNL     1     -11.747  12.777  67.301  1.00  0.00    -0.440 A  
BRANCH  18  19
HETATM   19  C   UNL     1     -11.564  12.437  65.829  1.00  0.00    -0.449 C  
HETATM   20  C   UNL     1     -10.459  13.190  65.067  1.00  0.00    -0.358 C  
HETATM   21  C   UNL     1     -10.332  12.405  63.774  1.00  0.00    -0.454 C  
HETATM   22  C   UNL     1     -10.384  10.960  64.246  1.00  0.00    -0.436 C  
HETATM   23  C   UNL     1     -11.233  10.962  65.526  1.00  0.00     0.201 C  
ENDBRANCH  18  19
ENDBRANCH  12  13
ENDBRANCH  11  12
ENDBRANCH   8  11
ENDBRANCH   7   8
ENDBRANCH   5   7
TORSDOF 6
ENDMDL
MODEL      124
REMARK 921   NORMALIZED FREE ENERGY PREDICTED BY IDOCK:   -4.32 KCAL/MOL
REMARK 922        TOTAL FREE ENERGY PREDICTED BY IDOCK:   -6.87 KCAL/MOL
REMARK 923 INTER-LIGAND FREE ENERGY PREDICTED BY IDOCK:   -6.05 KCAL/MOL
REMARK 924 INTRA-LIGAND FREE ENERGY PREDICTED BY IDOCK:   -0.82 KCAL/MOL
REMARK 927      BINDING AFFINITY PREDICTED BY RF-SCORE:    0.00 PKD
ROOT
HETATM    1  C   UNL     1      -8.964  14.882  67.502  1.00  0.00    -0.190 C  
HETATM    2  C   UNL     1     -10.053  15.906  67.138  1.00  0.00    -0.264 C  
HETATM    3  C   UNL     1      -9.414  16.988  66.245  1.00  0.00    -0.281 C  
HETATM    4  C   UNL     1     -10.581  16.587  68.413  1.00  0.00    -0.323 C  
HETATM    5  N   UNL     1     -11.156  15.315  66.359  1.00  0.00    -0.310 NA 
HETATM    6  H   UNL     1     -10.818  15.022  65.442  1.00  0.00     0.000 HD 
ENDROOT
BRANCH   5   7
HETATM    7  C   UNL     1     -11.865  14.211  67.006  1.00  0.00    -0.429 C  
BRANCH   7   8
HETATM    8  C   UNL     1     -11.803  12.878  66.234  1.00  0.00    -0.416 C  
HETATM    9  O   UNL     1     -12.984  12.816  65.410  1.00  0.00    -0.587 OA 
HETATM   10  H   UNL     1     -12.946  11.994  64.935  1.00  0.00     0.000 HD 
BRANCH   8  11
HETATM   11  C   UNL     1     -11.778  11.635  67.131  1.00  0.00    -0.133 C  
BRANCH  11  12
HETATM   12  O   UNL     1     -10.915  11.751  68.269  1.00  0.00    -0.203 OA 
BRANCH  12  13
HETATM   13  C   UNL     1     -11.308  11.036  69.383  1.00  0.00    -0.284 A  
HETATM   14  C   UNL     1     -12.387  11.429  70.198  1.00  0.00    -0.344 A  
HETATM   15  C   UNL     1     -12.717  10.723  71.351  1.00  0.00    -0.544 A  
HETATM   16  C   UNL     1     -11.981   9.605  71.702  1.00  0.00    -0.470 A  
HETATM   17  C   UNL     1     -10.925   9.186  70.891  1.00  0.00    -0.349 A  
HETATM   18  C   UNL     1     -10.569   9.877  69.711  1.00  0.00    -0.296 A  
BRANCH  18  19
HETATM   19  C   UNL     1      -9.383   9.417  68.877  1.00  0.00    -0.154 C  
HETATM   20  C   UNL     1      -7.984   9.865  69.338  1.00  0.00    -0.135 C  
HETATM   21  C   UNL     1      -7.052   8.993  68.516  1.00  0.00    -0.072 C  
HETATM   22  C   UNL     1      -7.714   7.625  68.588  1.00  0.00    -0.119 C  
HETATM   23  C   UNL     1      -9.219   7.889  68.748  1.00  0.00    -0.143 C  
ENDBRANCH  18  19
ENDBRANCH  12  13
ENDBRANCH  11  12
ENDBRANCH   8  11
ENDBRANCH   7   8
ENDBRANCH   5   7
TORSDOF 6
ENDMDL
MODEL      125
REMARK 921   NORMALIZED FREE ENERGY PREDICTED BY IDOCK:   -4.32 KCAL/MOL
REMARK 922        TOTAL FREE ENERGY PREDICTED BY IDOCK:   -6.86 KCAL/MOL
REMARK 923 INTER-LIGAND FREE ENERGY PREDICTED BY IDOCK:   -5.94 KCAL/MOL
REMARK 924 INTRA-LIGAND FREE ENERGY PREDICTED BY IDOCK:   -0.92 KCAL/MOL
REMARK 927      BINDING AFFINITY PREDICTED BY RF-SCORE:    0.00 PKD
ROOT
HETATM    1  C   UNL     1     -14.385  14.942  71.653  1.00  0.00    -0.660 C  
HETATM    2  C   UNL     1     -12.919  14.498  71.794  1.00  0.00    -0.341 C  
HETATM    3  C   UNL     1     -12.191  15.522  72.687  1.00  0.00    -0.521 C  
HETATM    4  C   UNL     1     -12.237  14.493  70.415  1.00  0.00    -0.394 C  
HETATM    5  N   UNL     1     -12.780  13.188  72.456  1.00  0.00     0.005 NA 
HETATM    6  H   UNL     1     -13.081  13.254  73.429  1.00  0.00     0.000 HD 
ENDROOT
BRANCH   5   7
HETATM    7  C   UNL     1     -13.460  12.073  71.798  1.00  0.00    -0.096 C  
BRANCH   7   8
HETATM    8  C   UNL     1     -12.515  11.077  71.097  1.00  0.00    -0.397 C  
HETATM    9  O   UNL     1     -13.080  10.807  69.798  1.00  0.00    -0.395 OA 
HETATM   10  H   UNL     1     -12.497  10.193  69.366  1.00  0.00     0.000 HD 
BRANCH   8  11
HETATM   11  C   UNL     1     -12.349   9.743  71.834  1.00  0.00    -0.335 C  
BRANCH  11  12
HETATM   12  O   UNL     1     -11.050   9.157  71.699  1.00  0.00    -0.332 OA 
BRANCH  12  13
HETATM   13  C   UNL     1     -10.908   8.272  70.648  1.00  0.00    -0.236 A  
HETATM   14  C   UNL     1     -11.575   7.034  70.599  1.00  0.00    -0.379 A  
HETATM   15  C   UNL     1     -11.361   6.137  69.557  1.00  0.00    -0.426 A  
HETATM   16  C   UNL     1     -10.484   6.468  68.540  1.00  0.00    -0.257 A  
HETATM   17  C   UNL     1      -9.833   7.703  68.559  1.00  0.00    -0.174 A  
HETATM   18  C   UNL     1     -10.035   8.637  69.598  1.00  0.00    -0.191 A  
BRANCH  18  19
HETATM   19  C   UNL     1      -9.274   9.955  69.607  1.00  0.00    -0.246 C  
HETATM   20  C   UNL     1      -7.747   9.885  69.421  1.00  0.00    -0.119 C  
HETATM   21  C   UNL     1      -7.363  11.329  69.155  1.00  0.00    -0.104 C  
HETATM   22  C   UNL     1      -8.446  11.798  68.195  1.00  0.00    -0.158 C  
HETATM   23  C   UNL     1      -9.696  10.970  68.526  1.00  0.00    -0.189 C  
ENDBRANCH  18  19
ENDBRANCH  12  13
ENDBRANCH  11  12
ENDBRANCH   8  11
ENDBRANCH   7   8
ENDBRANCH   5   7
TORSDOF 6
ENDMDL
MODEL      126
REMARK 921   NORMALIZED FREE ENERGY PREDICTED BY IDOCK:   -4.30 KCAL/MOL
REMARK 922        TOTAL FREE ENERGY PREDICTED BY IDOCK:   -6.83 KCAL/MOL
REMARK 923 INTER-LIGAND FREE ENERGY PREDICTED BY IDOCK:   -6.18 KCAL/MOL
REMARK 924 INTRA-LIGAND FREE ENERGY PREDICTED BY IDOCK:   -0.65 KCAL/MOL
REMARK 927      BINDING AFFINITY PREDICTED BY RF-SCORE:    0.00 PKD
ROOT
HETATM    1  C   UNL     1      -9.163  10.296  62.616  1.00  0.00    -0.318 C  
HETATM    2  C   UNL     1      -8.222   9.971  63.789  1.00  0.00    -0.161 C  
HETATM    3  C   UNL     1      -6.783  10.314  63.358  1.00  0.00    -0.096 C  
HETATM    4  C   UNL     1      -8.281   8.467  64.108  1.00  0.00    -0.122 C  
HETATM    5  N   UNL     1      -8.506  10.777  64.990  1.00  0.00    -0.323 NA 
HETATM    6  H   UNL     1      -8.296  11.759  64.809  1.00  0.00     0.000 HD 
ENDROOT
BRANCH   5   7
HETATM    7  C   UNL     1      -9.858  10.648  65.532  1.00  0.00    -0.258 C  
BRANCH   7   8
HETATM    8  C   UNL     1      -9.914  10.115  66.978  1.00  0.00    -0.199 C  
HETATM    9  O   UNL     1     -10.347   8.741  66.902  1.00  0.00    -0.271 OA 
HETATM   10  H   UNL     1     -10.381   8.413  67.792  1.00  0.00     0.000 HD 
BRANCH   8  11
HETATM   11  C   UNL     1     -10.885  10.873  67.890  1.00  0.00    -0.247 C  
BRANCH  11  12
HETATM   12  O   UNL     1     -10.504  10.885  69.270  1.00  0.00    -0.216 OA 
BRANCH  12  13
HETATM   13  C   UNL     1     -11.464  11.354  70.144  1.00  0.00    -0.214 A  
HETATM   14  C   UNL     1     -11.825  12.713  70.222  1.00  0.00    -0.295 A  
HETATM   15  C   UNL     1     -12.750  13.164  71.158  1.00  0.00    -0.386 A  
HETATM   16  C   UNL     1     -13.340  12.261  72.025  1.00  0.00    -0.491 A  
HETATM   17  C   UNL     1     -13.013  10.906  71.945  1.00  0.00    -0.502 A  
HETATM   18  C   UNL     1     -12.083  10.417  71.001  1.00  0.00    -0.488 A  
BRANCH  18  19
HETATM   19  C   UNL     1     -11.720   8.939  70.973  1.00  0.00    -0.340 C  
HETATM   20  C   UNL     1     -10.659   8.459  71.980  1.00  0.00    -0.387 C  
HETATM   21  C   UNL     1     -10.776   6.947  71.912  1.00  0.00    -0.245 C  
HETATM   22  C   UNL     1     -12.280   6.722  71.894  1.00  0.00    -0.377 C  
HETATM   23  C   UNL     1     -12.888   7.966  71.228  1.00  0.00    -0.244 C  
ENDBRANCH  18  19
ENDBRANCH  12  13
ENDBRANCH  11  12
ENDBRANCH   8  11
ENDBRANCH   7   8
ENDBRANCH   5   7
TORSDOF 6
ENDMDL
MODEL      127
REMARK 921   NORMALIZED FREE ENERGY PREDICTED BY IDOCK:   -4.28 KCAL/MOL
REMARK 922        TOTAL FREE ENERGY PREDICTED BY IDOCK:   -6.81 KCAL/MOL
REMARK 923 INTER-LIGAND FREE ENERGY PREDICTED BY IDOCK:   -6.04 KCAL/MOL
REMARK 924 INTRA-LIGAND FREE ENERGY PREDICTED BY IDOCK:   -0.77 KCAL/MOL
REMARK 927      BINDING AFFINITY PREDICTED BY RF-SCORE:    0.00 PKD
ROOT
HETATM    1  C   UNL     1      -9.232   5.681  68.865  1.00  0.00    -0.136 C  
HETATM    2  C   UNL     1     -10.220   6.832  68.610  1.00  0.00    -0.175 C  
HETATM    3  C   UNL     1     -11.258   6.834  69.749  1.00  0.00    -0.368 C  
HETATM    4  C   UNL     1     -10.965   6.601  67.283  1.00  0.00    -0.456 C  
HETATM    5  N   UNL     1      -9.573   8.156  68.628  1.00  0.00    -0.148 NA 
HETATM    6  H   UNL     1      -9.233   8.366  69.567  1.00  0.00     0.000 HD 
ENDROOT
BRANCH   5   7
HETATM    7  C   UNL     1      -8.498   8.347  67.654  1.00  0.00    -0.130 C  
BRANCH   7   8
HETATM    8  C   UNL     1      -8.760   9.472  66.632  1.00  0.00    -0.134 C  
HETATM    9  O   UNL     1      -7.557  10.263  66.563  1.00  0.00    -0.105 OA 
HETATM   10  H   UNL     1      -7.718  10.956  65.934  1.00  0.00     0.000 HD 
BRANCH   8  11
HETATM   11  C   UNL     1      -9.923  10.399  67.004  1.00  0.00    -0.206 C  
BRANCH  11  12
HETATM   12  O   UNL     1      -9.728  11.765  66.617  1.00  0.00    -0.194 OA 
BRANCH  12  13
HETATM   13  C   UNL     1     -10.600  12.236  65.656  1.00  0.00    -0.260 A  
HETATM   14  C   UNL     1     -10.960  11.485  64.521  1.00  0.00    -0.367 A  
HETATM   15  C   UNL     1     -11.790  12.014  63.537  1.00  0.00    -0.587 A  
HETATM   16  C   UNL     1     -12.284  13.299  63.678  1.00  0.00    -0.522 A  
HETATM   17  C   UNL     1     -11.959  14.048  64.810  1.00  0.00    -0.432 A  
HETATM   18  C   UNL     1     -11.124  13.537  65.829  1.00  0.00    -0.295 A  
BRANCH  18  19
HETATM   19  C   UNL     1     -10.755  14.400  67.026  1.00  0.00    -0.285 C  
HETATM   20  C   UNL     1     -10.217  15.812  66.734  1.00  0.00    -0.284 C  
HETATM   21  C   UNL     1     -10.265  16.489  68.092  1.00  0.00    -0.271 C  
HETATM   22  C   UNL     1     -11.613  16.051  68.644  1.00  0.00    -0.343 C  
HETATM   23  C   UNL     1     -11.902  14.678  68.019  1.00  0.00    -0.343 C  
ENDBRANCH  18  19
ENDBRANCH  12  13
ENDBRANCH  11  12
ENDBRANCH   8  11
ENDBRANCH   7   8
ENDBRANCH   5   7
TORSDOF 6
ENDMDL
MODEL      128
REMARK 921   NORMALIZED FREE ENERGY PREDICTED BY IDOCK:   -4.28 KCAL/MOL
REMARK 922        TOTAL FREE ENERGY PREDICTED BY IDOCK:   -6.81 KCAL/MOL
REMARK 923 INTER-LIGAND FREE ENERGY PREDICTED BY IDOCK:   -6.05 KCAL/MOL
REMARK 924 INTRA-LIGAND FREE ENERGY PREDICTED BY IDOCK:   -0.76 KCAL/MOL
REMARK 927      BINDING AFFINITY PREDICTED BY RF-SCORE:    0.00 PKD
ROOT
HETATM    1  C   UNL     1     -13.521  15.223  70.961  1.00  0.00    -0.516 C  
HETATM    2  C   UNL     1     -12.180  14.782  70.348  1.00  0.00    -0.336 C  
HETATM    3  C   UNL     1     -11.120  15.843  70.701  1.00  0.00    -0.368 C  
HETATM    4  C   UNL     1     -12.300  14.715  68.816  1.00  0.00    -0.041 C  
HETATM    5  N   UNL     1     -11.694  13.503  70.896  1.00  0.00    -0.409 NA 
HETATM    6  H   UNL     1     -11.457  13.613  71.882  1.00  0.00     0.000 HD 
ENDROOT
BRANCH   5   7
HETATM    7  C   UNL     1     -12.592  12.361  70.724  1.00  0.00    -0.211 C  
BRANCH   7   8
HETATM    8  C   UNL     1     -11.920  11.109  70.125  1.00  0.00    -0.365 C  
HETATM    9  O   UNL     1     -12.751  10.671  69.031  1.00  0.00    -0.675 OA 
HETATM   10  H   UNL     1     -12.336   9.900  68.662  1.00  0.00     0.000 HD 
BRANCH   8  11
HETATM   11  C   UNL     1     -11.771   9.944  71.110  1.00  0.00    -0.396 C  
BRANCH  11  12
HETATM   12  O   UNL     1     -10.458   9.375  71.149  1.00  0.00    -0.299 OA 
BRANCH  12  13
HETATM   13  C   UNL     1     -10.413   8.005  71.313  1.00  0.00    -0.200 A  
HETATM   14  C   UNL     1     -10.849   7.363  72.488  1.00  0.00    -0.327 A  
HETATM   15  C   UNL     1     -10.730   5.986  72.647  1.00  0.00    -0.266 A  
HETATM   16  C   UNL     1     -10.184   5.225  71.629  1.00  0.00    -0.274 A  
HETATM   17  C   UNL     1      -9.771   5.841  70.446  1.00  0.00    -0.224 A  
HETATM   18  C   UNL     1      -9.885   7.235  70.252  1.00  0.00    -0.179 A  
BRANCH  18  19
HETATM   19  C   UNL     1      -9.382   7.876  68.967  1.00  0.00    -0.151 C  
HETATM   20  C   UNL     1      -8.137   7.251  68.310  1.00  0.00    -0.124 C  
HETATM   21  C   UNL     1      -8.110   7.894  66.936  1.00  0.00    -0.115 C  
HETATM   22  C   UNL     1      -9.569   7.846  66.508  1.00  0.00    -0.281 C  
HETATM   23  C   UNL     1     -10.393   7.906  67.803  1.00  0.00    -0.289 C  
ENDBRANCH  18  19
ENDBRANCH  12  13
ENDBRANCH  11  12
ENDBRANCH   8  11
ENDBRANCH   7   8
ENDBRANCH   5   7
TORSDOF 6
ENDMDL
MODEL      129
REMARK 921   NORMALIZED FREE ENERGY PREDICTED BY IDOCK:   -4.28 KCAL/MOL
REMARK 922        TOTAL FREE ENERGY PREDICTED BY IDOCK:   -6.81 KCAL/MOL
REMARK 923 INTER-LIGAND FREE ENERGY PREDICTED BY IDOCK:   -5.66 KCAL/MOL
REMARK 924 INTRA-LIGAND FREE ENERGY PREDICTED BY IDOCK:   -1.15 KCAL/MOL
REMARK 927      BINDING AFFINITY PREDICTED BY RF-SCORE:    0.00 PKD
ROOT
HETATM    1  C   UNL     1     -11.261   6.760  71.411  1.00  0.00    -0.309 C  
HETATM    2  C   UNL     1     -10.447   7.765  70.577  1.00  0.00    -0.217 C  
HETATM    3  C   UNL     1      -9.258   8.245  71.432  1.00  0.00    -0.218 C  
HETATM    4  C   UNL     1     -11.316   8.988  70.234  1.00  0.00    -0.202 C  
HETATM    5  N   UNL     1      -9.875   7.166  69.358  1.00  0.00    -0.160 NA 
HETATM    6  H   UNL     1      -9.171   6.471  69.608  1.00  0.00     0.000 HD 
ENDROOT
BRANCH   5   7
HETATM    7  C   UNL     1     -10.841   6.585  68.426  1.00  0.00    -0.289 C  
BRANCH   7   8
HETATM    8  C   UNL     1     -10.824   7.214  67.019  1.00  0.00    -0.312 C  
HETATM    9  O   UNL     1     -10.462   6.167  66.096  1.00  0.00    -0.440 OA 
HETATM   10  H   UNL     1     -10.451   6.555  65.230  1.00  0.00     0.000 HD 
BRANCH   8  11
HETATM   11  C   UNL     1      -9.822   8.363  66.857  1.00  0.00    -0.245 C  
BRANCH  11  12
HETATM   12  O   UNL     1     -10.415   9.666  66.891  1.00  0.00    -0.242 OA 
BRANCH  12  13
HETATM   13  C   UNL     1      -9.571  10.690  67.274  1.00  0.00    -0.163 A  
HETATM   14  C   UNL     1      -8.434  10.479  68.076  1.00  0.00    -0.120 A  
HETATM   15  C   UNL     1      -7.640  11.541  68.499  1.00  0.00    -0.130 A  
HETATM   16  C   UNL     1      -7.963  12.830  68.116  1.00  0.00    -0.156 A  
HETATM   17  C   UNL     1      -9.072  13.055  67.299  1.00  0.00    -0.209 A  
HETATM   18  C   UNL     1      -9.894  11.998  66.848  1.00  0.00    -0.217 A  
BRANCH  18  19
HETATM   19  C   UNL     1     -11.120  12.287  65.995  1.00  0.00    -0.347 C  
HETATM   20  C   UNL     1     -11.828  13.635  66.217  1.00  0.00    -0.426 C  
HETATM   21  C   UNL     1     -12.764  13.736  65.026  1.00  0.00    -0.379 C  
HETATM   22  C   UNL     1     -11.895  13.267  63.869  1.00  0.00    -0.522 C  
HETATM   23  C   UNL     1     -10.883  12.282  64.471  1.00  0.00    -0.355 C  
ENDBRANCH  18  19
ENDBRANCH  12  13
ENDBRANCH  11  12
ENDBRANCH   8  11
ENDBRANCH   7   8
ENDBRANCH   5   7
TORSDOF 6
ENDMDL
MODEL      130
REMARK 921   NORMALIZED FREE ENERGY PREDICTED BY IDOCK:   -4.28 KCAL/MOL
REMARK 922        TOTAL FREE ENERGY PREDICTED BY IDOCK:   -6.81 KCAL/MOL
REMARK 923 INTER-LIGAND FREE ENERGY PREDICTED BY IDOCK:   -5.94 KCAL/MOL
REMARK 924 INTRA-LIGAND FREE ENERGY PREDICTED BY IDOCK:   -0.86 KCAL/MOL
REMARK 927      BINDING AFFINITY PREDICTED BY RF-SCORE:    0.00 PKD
ROOT
HETATM    1  C   UNL     1     -10.178  13.312  64.649  1.00  0.00    -0.334 C  
HETATM    2  C   UNL     1     -11.707  13.467  64.693  1.00  0.00    -0.372 C  
HETATM    3  C   UNL     1     -12.285  12.892  63.385  1.00  0.00    -0.574 C  
HETATM    4  C   UNL     1     -12.083  14.957  64.769  1.00  0.00    -0.335 C  
HETATM    5  N   UNL     1     -12.328  12.709  65.796  1.00  0.00    -0.619 NA 
HETATM    6  H   UNL     1     -12.215  11.708  65.637  1.00  0.00     0.000 HD 
ENDROOT
BRANCH   5   7
HETATM    7  C   UNL     1     -11.866  13.058  67.139  1.00  0.00    -0.373 C  
BRANCH   7   8
HETATM    8  C   UNL     1     -11.419  11.851  67.990  1.00  0.00    -0.323 C  
HETATM    9  O   UNL     1     -11.823  12.124  69.347  1.00  0.00    -0.299 OA 
HETATM   10  H   UNL     1     -11.548  11.381  69.870  1.00  0.00     0.000 HD 
BRANCH   8  11
HETATM   11  C   UNL     1      -9.906  11.603  67.981  1.00  0.00    -0.190 C  
BRANCH  11  12
HETATM   12  O   UNL     1      -9.538  10.230  68.155  1.00  0.00    -0.138 OA 
BRANCH  12  13
HETATM   13  C   UNL     1      -8.709   9.972  69.228  1.00  0.00    -0.177 A  
HETATM   14  C   UNL     1      -7.423  10.532  69.349  1.00  0.00    -0.141 A  
HETATM   15  C   UNL     1      -6.587  10.202  70.411  1.00  0.00    -0.132 A  
HETATM   16  C   UNL     1      -7.027   9.315  71.377  1.00  0.00     0.022 A  
HETATM   17  C   UNL     1      -8.310   8.771  71.288  1.00  0.00    -0.225 A  
HETATM   18  C   UNL     1      -9.184   9.092  70.226  1.00  0.00    -0.229 A  
BRANCH  18  19
HETATM   19  C   UNL     1     -10.558   8.443  70.138  1.00  0.00    -0.235 C  
HETATM   20  C   UNL     1     -10.650   6.945  70.478  1.00  0.00    -0.247 C  
HETATM   21  C   UNL     1     -12.144   6.710  70.611  1.00  0.00    -0.342 C  
HETATM   22  C   UNL     1     -12.610   7.923  71.402  1.00  0.00    -0.319 C  
HETATM   23  C   UNL     1     -11.639   9.059  71.049  1.00  0.00    -0.360 C  
ENDBRANCH  18  19
ENDBRANCH  12  13
ENDBRANCH  11  12
ENDBRANCH   8  11
ENDBRANCH   7   8
ENDBRANCH   5   7
TORSDOF 6
ENDMDL
MODEL      131
REMARK 921   NORMALIZED FREE ENERGY PREDICTED BY IDOCK:   -4.27 KCAL/MOL
REMARK 922        TOTAL FREE ENERGY PREDICTED BY IDOCK:   -6.80 KCAL/MOL
REMARK 923 INTER-LIGAND FREE ENERGY PREDICTED BY IDOCK:   -5.92 KCAL/MOL
REMARK 924 INTRA-LIGAND FREE ENERGY PREDICTED BY IDOCK:   -0.88 KCAL/MOL
REMARK 927      BINDING AFFINITY PREDICTED BY RF-SCORE:    0.00 PKD
ROOT
HETATM    1  C   UNL     1      -7.402  14.782  68.975  1.00  0.00    -0.139 C  
HETATM    2  C   UNL     1      -6.572  16.032  68.637  1.00  0.00    -0.123 C  
HETATM    3  C   UNL     1      -5.352  15.586  67.807  1.00  0.00    -0.118 C  
HETATM    4  C   UNL     1      -6.058  16.687  69.931  1.00  0.00    -0.192 C  
HETATM    5  N   UNL     1      -7.311  17.003  67.810  1.00  0.00    -0.158 NA 
HETATM    6  H   UNL     1      -7.495  16.609  66.888  1.00  0.00     0.000 HD 
ENDROOT
BRANCH   5   7
HETATM    7  C   UNL     1      -8.553  17.511  68.393  1.00  0.00    -0.275 C  
BRANCH   7   8
HETATM    8  C   UNL     1      -9.782  17.393  67.469  1.00  0.00    -0.266 C  
HETATM    9  O   UNL     1     -10.627  18.528  67.749  1.00  0.00    -0.406 OA 
HETATM   10  H   UNL     1     -11.384  18.455  67.180  1.00  0.00     0.000 HD 
BRANCH   8  11
HETATM   11  C   UNL     1     -10.606  16.118  67.680  1.00  0.00    -0.315 C  
BRANCH  11  12
HETATM   12  O   UNL     1      -9.975  14.926  67.196  1.00  0.00    -0.229 OA 
BRANCH  12  13
HETATM   13  C   UNL     1     -10.708  14.201  66.278  1.00  0.00    -0.293 A  
HETATM   14  C   UNL     1     -10.947  14.654  64.966  1.00  0.00    -0.415 A  
HETATM   15  C   UNL     1     -11.744  13.930  64.085  1.00  0.00    -0.369 A  
HETATM   16  C   UNL     1     -12.306  12.734  64.497  1.00  0.00    -0.515 A  
HETATM   17  C   UNL     1     -12.058  12.257  65.785  1.00  0.00    -0.287 A  
HETATM   18  C   UNL     1     -11.248  12.965  66.700  1.00  0.00    -0.342 A  
BRANCH  18  19
HETATM   19  C   UNL     1     -11.036  12.436  68.111  1.00  0.00    -0.288 C  
HETATM   20  C   UNL     1     -12.151  12.708  69.137  1.00  0.00    -0.191 C  
HETATM   21  C   UNL     1     -11.788  11.796  70.295  1.00  0.00    -0.382 C  
HETATM   22  C   UNL     1     -11.394  10.502  69.598  1.00  0.00    -0.345 C  
HETATM   23  C   UNL     1     -10.844  10.910  68.223  1.00  0.00    -0.272 C  
ENDBRANCH  18  19
ENDBRANCH  12  13
ENDBRANCH  11  12
ENDBRANCH   8  11
ENDBRANCH   7   8
ENDBRANCH   5   7
TORSDOF 6
ENDMDL
MODEL      132
REMARK 921   NORMALIZED FREE ENERGY PREDICTED BY IDOCK:   -4.25 KCAL/MOL
REMARK 922        TOTAL FREE ENERGY PREDICTED BY IDOCK:   -6.77 KCAL/MOL
REMARK 923 INTER-LIGAND FREE ENERGY PREDICTED BY IDOCK:   -5.39 KCAL/MOL
REMARK 924 INTRA-LIGAND FREE ENERGY PREDICTED BY IDOCK:   -1.38 KCAL/MOL
REMARK 927      BINDING AFFINITY PREDICTED BY RF-SCORE:    0.00 PKD
ROOT
HETATM    1  C   UNL     1      -8.051  18.986  68.419  1.00  0.00    -0.381 C  
HETATM    2  C   UNL     1      -9.409  19.052  67.700  1.00  0.00    -0.298 C  
HETATM    3  C   UNL     1      -9.167  19.554  66.263  1.00  0.00    -0.416 C  
HETATM    4  C   UNL     1     -10.332  20.057  68.411  1.00  0.00    -0.465 C  
HETATM    5  N   UNL     1     -10.058  17.733  67.582  1.00  0.00    -0.326 NA 
HETATM    6  H   UNL     1      -9.513  17.131  66.963  1.00  0.00     0.000 HD 
ENDROOT
BRANCH   5   7
HETATM    7  C   UNL     1     -10.322  17.043  68.844  1.00  0.00    -0.337 C  
BRANCH   7   8
HETATM    8  C   UNL     1     -11.511  16.063  68.796  1.00  0.00    -0.375 C  
HETATM    9  O   UNL     1     -11.434  15.252  69.986  1.00  0.00    -0.250 OA 
HETATM   10  H   UNL     1     -12.166  14.649  69.956  1.00  0.00     0.000 HD 
BRANCH   8  11
HETATM   11  C   UNL     1     -11.506  15.130  67.579  1.00  0.00    -0.298 C  
BRANCH  11  12
HETATM   12  O   UNL     1     -10.233  15.018  66.934  1.00  0.00    -0.252 OA 
BRANCH  12  13
HETATM   13  C   UNL     1      -9.690  13.748  66.917  1.00  0.00    -0.265 A  
HETATM   14  C   UNL     1     -10.331  12.653  66.307  1.00  0.00    -0.269 A  
HETATM   15  C   UNL     1      -9.789  11.373  66.363  1.00  0.00    -0.242 A  
HETATM   16  C   UNL     1      -8.589  11.168  67.021  1.00  0.00    -0.147 A  
HETATM   17  C   UNL     1      -7.926  12.247  67.608  1.00  0.00    -0.161 A  
HETATM   18  C   UNL     1      -8.447  13.559  67.562  1.00  0.00    -0.192 A  
BRANCH  18  19
HETATM   19  C   UNL     1      -7.718  14.702  68.254  1.00  0.00    -0.123 C  
HETATM   20  C   UNL     1      -6.778  14.334  69.416  1.00  0.00    -0.130 C  
HETATM   21  C   UNL     1      -5.994  15.612  69.646  1.00  0.00    -0.137 C  
HETATM   22  C   UNL     1      -5.668  16.072  68.233  1.00  0.00    -0.110 C  
HETATM   23  C   UNL     1      -6.807  15.551  67.344  1.00  0.00    -0.224 C  
ENDBRANCH  18  19
ENDBRANCH  12  13
ENDBRANCH  11  12
ENDBRANCH   8  11
ENDBRANCH   7   8
ENDBRANCH   5   7
TORSDOF 6
ENDMDL
MODEL      133
REMARK 921   NORMALIZED FREE ENERGY PREDICTED BY IDOCK:   -4.25 KCAL/MOL
REMARK 922        TOTAL FREE ENERGY PREDICTED BY IDOCK:   -6.77 KCAL/MOL
REMARK 923 INTER-LIGAND FREE ENERGY PREDICTED BY IDOCK:   -6.09 KCAL/MOL
REMARK 924 INTRA-LIGAND FREE ENERGY PREDICTED BY IDOCK:   -0.68 KCAL/MOL
REMARK 927      BINDING AFFINITY PREDICTED BY RF-SCORE:    0.00 PKD
ROOT
HETATM    1  C   UNL     1      -9.524  16.489  66.959  1.00  0.00    -0.249 C  
HETATM    2  C   UNL     1      -9.635  15.762  68.310  1.00  0.00    -0.201 C  
HETATM    3  C   UNL     1     -10.542  16.601  69.232  1.00  0.00    -0.343 C  
HETATM    4  C   UNL     1      -8.247  15.659  68.966  1.00  0.00    -0.233 C  
HETATM    5  N   UNL     1     -10.264  14.434  68.195  1.00  0.00    -0.228 NA 
HETATM    6  H   UNL     1     -11.242  14.533  67.921  1.00  0.00     0.000 HD 
ENDROOT
BRANCH   5   7
HETATM    7  C   UNL     1      -9.589  13.491  67.303  1.00  0.00    -0.235 C  
BRANCH   7   8
HETATM    8  C   UNL     1      -9.503  12.052  67.849  1.00  0.00    -0.196 C  
HETATM    9  O   UNL     1      -9.573  11.168  66.712  1.00  0.00    -0.186 OA 
HETATM   10  H   UNL     1      -9.520  10.281  67.049  1.00  0.00     0.000 HD 
BRANCH   8  11
HETATM   11  C   UNL     1     -10.633  11.679  68.816  1.00  0.00    -0.212 C  
BRANCH  11  12
HETATM   12  O   UNL     1     -10.609  10.312  69.244  1.00  0.00    -0.200 OA 
BRANCH  12  13
HETATM   13  C   UNL     1     -11.526   9.984  70.223  1.00  0.00    -0.300 A  
HETATM   14  C   UNL     1     -12.428  10.918  70.765  1.00  0.00    -0.489 A  
HETATM   15  C   UNL     1     -13.296  10.572  71.796  1.00  0.00    -0.446 A  
HETATM   16  C   UNL     1     -13.285   9.281  72.294  1.00  0.00    -0.535 A  
HETATM   17  C   UNL     1     -12.415   8.334  71.750  1.00  0.00    -0.367 A  
HETATM   18  C   UNL     1     -11.528   8.653  70.698  1.00  0.00    -0.256 A  
BRANCH  18  19
HETATM   19  C   UNL     1     -10.563   7.606  70.161  1.00  0.00    -0.239 C  
HETATM   20  C   UNL     1      -9.468   7.104  71.119  1.00  0.00    -0.157 C  
HETATM   21  C   UNL     1      -8.918   5.881  70.407  1.00  0.00    -0.154 C  
HETATM   22  C   UNL     1     -10.175   5.184  69.908  1.00  0.00    -0.361 C  
HETATM   23  C   UNL     1     -11.213   6.293  69.680  1.00  0.00    -0.506 C  
ENDBRANCH  18  19
ENDBRANCH  12  13
ENDBRANCH  11  12
ENDBRANCH   8  11
ENDBRANCH   7   8
ENDBRANCH   5   7
TORSDOF 6
ENDMDL
MODEL      134
REMARK 921   NORMALIZED FREE ENERGY PREDICTED BY IDOCK:   -4.22 KCAL/MOL
REMARK 922        TOTAL FREE ENERGY PREDICTED BY IDOCK:   -6.74 KCAL/MOL
REMARK 923 INTER-LIGAND FREE ENERGY PREDICTED BY IDOCK:   -6.44 KCAL/MOL
REMARK 924 INTRA-LIGAND FREE ENERGY PREDICTED BY IDOCK:   -0.30 KCAL/MOL
REMARK 927      BINDING AFFINITY PREDICTED BY RF-SCORE:    0.00 PKD
ROOT
HETATM    1  C   UNL     1      -8.828   4.801  67.478  1.00  0.00    -0.108 C  
HETATM    2  C   UNL     1      -9.222   5.180  66.040  1.00  0.00    -0.155 C  
HETATM    3  C   UNL     1     -10.145   4.075  65.490  1.00  0.00    -0.142 C  
HETATM    4  C   UNL     1      -7.968   5.244  65.151  1.00  0.00    -0.108 C  
HETATM    5  N   UNL     1      -9.985   6.439  65.969  1.00  0.00    -0.391 NA 
HETATM    6  H   UNL     1     -10.893   6.324  66.419  1.00  0.00     0.000 HD 
ENDROOT
BRANCH   5   7
HETATM    7  C   UNL     1      -9.307   7.619  66.506  1.00  0.00    -0.189 C  
BRANCH   7   8
HETATM    8  C   UNL     1     -10.091   8.352  67.614  1.00  0.00    -0.209 C  
HETATM    9  O   UNL     1     -11.281   7.578  67.866  1.00  0.00    -0.464 OA 
HETATM   10  H   UNL     1     -11.764   8.030  68.548  1.00  0.00     0.000 HD 
BRANCH   8  11
HETATM   11  C   UNL     1     -10.516   9.777  67.243  1.00  0.00    -0.261 C  
BRANCH  11  12
HETATM   12  O   UNL     1     -11.657  10.254  67.965  1.00  0.00    -0.330 OA 
BRANCH  12  13
HETATM   13  C   UNL     1     -11.703  11.620  68.162  1.00  0.00    -0.295 A  
HETATM   14  C   UNL     1     -11.568  12.546  67.110  1.00  0.00    -0.437 A  
HETATM   15  C   UNL     1     -11.553  13.916  67.350  1.00  0.00    -0.398 A  
HETATM   16  C   UNL     1     -11.686  14.385  68.646  1.00  0.00    -0.367 A  
HETATM   17  C   UNL     1     -11.848  13.481  69.697  1.00  0.00    -0.398 A  
HETATM   18  C   UNL     1     -11.873  12.085  69.485  1.00  0.00    -0.390 A  
BRANCH  18  19
HETATM   19  C   UNL     1     -12.006  11.130  70.663  1.00  0.00    -0.459 C  
HETATM   20  C   UNL     1     -13.288  10.282  70.737  1.00  0.00    -0.164 C  
HETATM   21  C   UNL     1     -12.959   9.247  71.797  1.00  0.00    -0.471 C  
HETATM   22  C   UNL     1     -11.536   8.840  71.446  1.00  0.00    -0.366 C  
HETATM   23  C   UNL     1     -10.895  10.067  70.781  1.00  0.00    -0.330 C  
ENDBRANCH  18  19
ENDBRANCH  12  13
ENDBRANCH  11  12
ENDBRANCH   8  11
ENDBRANCH   7   8
ENDBRANCH   5   7
TORSDOF 6
ENDMDL
MODEL      135
REMARK 921   NORMALIZED FREE ENERGY PREDICTED BY IDOCK:   -4.22 KCAL/MOL
REMARK 922        TOTAL FREE ENERGY PREDICTED BY IDOCK:   -6.74 KCAL/MOL
REMARK 923 INTER-LIGAND FREE ENERGY PREDICTED BY IDOCK:   -5.72 KCAL/MOL
REMARK 924 INTRA-LIGAND FREE ENERGY PREDICTED BY IDOCK:   -1.02 KCAL/MOL
REMARK 927      BINDING AFFINITY PREDICTED BY RF-SCORE:    0.00 PKD
ROOT
HETATM    1  C   UNL     1      -7.412  10.058  68.037  1.00  0.00    -0.088 C  
HETATM    2  C   UNL     1      -7.373  10.990  66.814  1.00  0.00    -0.139 C  
HETATM    3  C   UNL     1      -6.187  10.567  65.926  1.00  0.00    -0.128 C  
HETATM    4  C   UNL     1      -7.140  12.442  67.268  1.00  0.00    -0.128 C  
HETATM    5  N   UNL     1      -8.583  10.887  65.977  1.00  0.00    -0.175 NA 
HETATM    6  H   UNL     1      -8.631   9.964  65.545  1.00  0.00     0.000 HD 
ENDROOT
BRANCH   5   7
HETATM    7  C   UNL     1      -9.845  11.188  66.652  1.00  0.00    -0.199 C  
BRANCH   7   8
HETATM    8  C   UNL     1     -10.713  12.242  65.936  1.00  0.00    -0.258 C  
HETATM    9  O   UNL     1      -9.882  12.854  64.928  1.00  0.00    -0.499 OA 
HETATM   10  H   UNL     1     -10.416  13.503  64.488  1.00  0.00     0.000 HD 
BRANCH   8  11
HETATM   11  C   UNL     1     -11.242  13.349  66.856  1.00  0.00    -0.308 C  
BRANCH  11  12
HETATM   12  O   UNL     1     -10.420  13.601  68.001  1.00  0.00    -0.237 OA 
BRANCH  12  13
HETATM   13  C   UNL     1     -11.069  14.169  69.079  1.00  0.00    -0.263 A  
HETATM   14  C   UNL     1     -12.084  13.506  69.794  1.00  0.00    -0.381 A  
HETATM   15  C   UNL     1     -12.763  14.132  70.835  1.00  0.00    -0.432 A  
HETATM   16  C   UNL     1     -12.429  15.428  71.188  1.00  0.00    -0.463 A  
HETATM   17  C   UNL     1     -11.406  16.091  70.507  1.00  0.00    -0.420 A  
HETATM   18  C   UNL     1     -10.694  15.481  69.451  1.00  0.00    -0.251 A  
BRANCH  18  19
HETATM   19  C   UNL     1      -9.616  16.251  68.703  1.00  0.00    -0.237 C  
HETATM   20  C   UNL     1      -9.691  17.788  68.752  1.00  0.00    -0.314 C  
HETATM   21  C   UNL     1      -8.339  18.218  68.211  1.00  0.00    -0.316 C  
HETATM   22  C   UNL     1      -7.377  17.264  68.902  1.00  0.00    -0.243 C  
HETATM   23  C   UNL     1      -8.169  15.973  69.157  1.00  0.00    -0.241 C  
ENDBRANCH  18  19
ENDBRANCH  12  13
ENDBRANCH  11  12
ENDBRANCH   8  11
ENDBRANCH   7   8
ENDBRANCH   5   7
TORSDOF 6
ENDMDL
MODEL      136
REMARK 921   NORMALIZED FREE ENERGY PREDICTED BY IDOCK:   -4.22 KCAL/MOL
REMARK 922        TOTAL FREE ENERGY PREDICTED BY IDOCK:   -6.74 KCAL/MOL
REMARK 923 INTER-LIGAND FREE ENERGY PREDICTED BY IDOCK:   -5.96 KCAL/MOL
REMARK 924 INTRA-LIGAND FREE ENERGY PREDICTED BY IDOCK:   -0.77 KCAL/MOL
REMARK 927      BINDING AFFINITY PREDICTED BY RF-SCORE:    0.00 PKD
ROOT
HETATM    1  C   UNL     1     -10.983   9.417  69.791  1.00  0.00    -0.234 C  
HETATM    2  C   UNL     1     -10.728  10.509  68.738  1.00  0.00    -0.216 C  
HETATM    3  C   UNL     1     -10.755   9.849  67.346  1.00  0.00    -0.323 C  
HETATM    4  C   UNL     1      -9.335  11.128  68.950  1.00  0.00    -0.117 C  
HETATM    5  N   UNL     1     -11.772  11.550  68.731  1.00  0.00    -0.311 NA 
HETATM    6  H   UNL     1     -12.659  11.153  68.421  1.00  0.00     0.000 HD 
ENDROOT
BRANCH   5   7
HETATM    7  C   UNL     1     -11.959  12.266  69.992  1.00  0.00    -0.304 C  
BRANCH   7   8
HETATM    8  C   UNL     1     -11.728  13.788  69.900  1.00  0.00    -0.284 C  
HETATM    9  O   UNL     1     -12.988  14.422  70.199  1.00  0.00    -0.501 OA 
HETATM   10  H   UNL     1     -12.845  15.359  70.141  1.00  0.00     0.000 HD 
BRANCH   8  11
HETATM   11  C   UNL     1     -11.265  14.269  68.520  1.00  0.00    -0.266 C  
BRANCH  11  12
HETATM   12  O   UNL     1     -10.724  15.595  68.514  1.00  0.00    -0.245 OA 
BRANCH  12  13
HETATM   13  C   UNL     1      -9.357  15.674  68.337  1.00  0.00    -0.195 A  
HETATM   14  C   UNL     1      -8.491  14.594  68.595  1.00  0.00    -0.164 A  
HETATM   15  C   UNL     1      -7.112  14.726  68.469  1.00  0.00    -0.110 A  
HETATM   16  C   UNL     1      -6.575  15.937  68.070  1.00  0.00    -0.143 A  
HETATM   17  C   UNL     1      -7.420  17.011  67.784  1.00  0.00    -0.177 A  
HETATM   18  C   UNL     1      -8.824  16.907  67.896  1.00  0.00    -0.218 A  
BRANCH  18  19
HETATM   19  C   UNL     1      -9.710  18.112  67.619  1.00  0.00    -0.293 C  
HETATM   20  C   UNL     1      -9.046  19.500  67.679  1.00  0.00    -0.381 C  
HETATM   21  C   UNL     1     -10.086  20.410  67.052  1.00  0.00    -0.507 C  
HETATM   22  C   UNL     1     -10.564  19.605  65.852  1.00  0.00    -0.566 C  
HETATM   23  C   UNL     1     -10.392  18.128  66.236  1.00  0.00    -0.407 C  
ENDBRANCH  18  19
ENDBRANCH  12  13
ENDBRANCH  11  12
ENDBRANCH   8  11
ENDBRANCH   7   8
ENDBRANCH   5   7
TORSDOF 6
ENDMDL
MODEL      137
REMARK 921   NORMALIZED FREE ENERGY PREDICTED BY IDOCK:   -4.20 KCAL/MOL
REMARK 922        TOTAL FREE ENERGY PREDICTED BY IDOCK:   -6.71 KCAL/MOL
REMARK 923 INTER-LIGAND FREE ENERGY PREDICTED BY IDOCK:   -5.51 KCAL/MOL
REMARK 924 INTRA-LIGAND FREE ENERGY PREDICTED BY IDOCK:   -1.20 KCAL/MOL
REMARK 927      BINDING AFFINITY PREDICTED BY RF-SCORE:    0.00 PKD
ROOT
HETATM    1  C   UNL     1     -10.502  16.157  65.528  1.00  0.00    -0.407 C  
HETATM    2  C   UNL     1     -10.601  14.835  66.309  1.00  0.00    -0.305 C  
HETATM    3  C   UNL     1     -11.506  15.070  67.535  1.00  0.00    -0.339 C  
HETATM    4  C   UNL     1      -9.209  14.417  66.813  1.00  0.00    -0.287 C  
HETATM    5  N   UNL     1     -11.226  13.753  65.526  1.00  0.00    -0.297 NA 
HETATM    6  H   UNL     1     -12.206  13.973  65.346  1.00  0.00     0.000 HD 
ENDROOT
BRANCH   5   7
HETATM    7  C   UNL     1     -10.553  13.412  64.273  1.00  0.00    -0.341 C  
BRANCH   7   8
HETATM    8  C   UNL     1     -10.825  11.978  63.776  1.00  0.00    -0.420 C  
HETATM    9  O   UNL     1     -12.191  11.947  63.315  1.00  0.00    -0.724 OA 
HETATM   10  H   UNL     1     -12.359  11.064  63.010  1.00  0.00     0.000 HD 
BRANCH   8  11
HETATM   11  C   UNL     1     -10.658  10.899  64.852  1.00  0.00    -0.234 C  
BRANCH  11  12
HETATM   12  O   UNL     1      -9.742  11.250  65.896  1.00  0.00    -0.207 OA 
BRANCH  12  13
HETATM   13  C   UNL     1     -10.108  10.843  67.164  1.00  0.00    -0.198 A  
HETATM   14  C   UNL     1     -11.182  11.419  67.868  1.00  0.00    -0.352 A  
HETATM   15  C   UNL     1     -11.485  11.031  69.170  1.00  0.00    -0.370 A  
HETATM   16  C   UNL     1     -10.725  10.052  69.785  1.00  0.00    -0.304 A  
HETATM   17  C   UNL     1      -9.672   9.452  69.092  1.00  0.00    -0.165 A  
HETATM   18  C   UNL     1      -9.345   9.819  67.768  1.00  0.00    -0.148 A  
BRANCH  18  19
HETATM   19  C   UNL     1      -8.162   9.174  67.061  1.00  0.00    -0.116 C  
HETATM   20  C   UNL     1      -6.755   9.559  67.552  1.00  0.00    -0.067 C  
HETATM   21  C   UNL     1      -5.861   8.528  66.887  1.00  0.00    -0.049 C  
HETATM   22  C   UNL     1      -6.640   7.234  67.068  1.00  0.00    -0.060 C  
HETATM   23  C   UNL     1      -8.122   7.633  67.109  1.00  0.00    -0.118 C  
ENDBRANCH  18  19
ENDBRANCH  12  13
ENDBRANCH  11  12
ENDBRANCH   8  11
ENDBRANCH   7   8
ENDBRANCH   5   7
TORSDOF 6
ENDMDL
MODEL      138
REMARK 921   NORMALIZED FREE ENERGY PREDICTED BY IDOCK:   -4.20 KCAL/MOL
REMARK 922        TOTAL FREE ENERGY PREDICTED BY IDOCK:   -6.70 KCAL/MOL
REMARK 923 INTER-LIGAND FREE ENERGY PREDICTED BY IDOCK:   -5.82 KCAL/MOL
REMARK 924 INTRA-LIGAND FREE ENERGY PREDICTED BY IDOCK:   -0.88 KCAL/MOL
REMARK 927      BINDING AFFINITY PREDICTED BY RF-SCORE:    0.00 PKD
ROOT
HETATM    1  C   UNL     1      -7.349   6.787  63.945  1.00  0.00    -0.079 C  
HETATM    2  C   UNL     1      -7.762   8.269  63.935  1.00  0.00    -0.141 C  
HETATM    3  C   UNL     1      -8.309   8.604  62.533  1.00  0.00    -0.195 C  
HETATM    4  C   UNL     1      -6.534   9.159  64.196  1.00  0.00    -0.084 C  
HETATM    5  N   UNL     1      -8.843   8.568  64.892  1.00  0.00    -0.408 NA 
HETATM    6  H   UNL     1      -9.703   8.100  64.604  1.00  0.00     0.000 HD 
ENDROOT
BRANCH   5   7
HETATM    7  C   UNL     1      -8.551   8.258  66.291  1.00  0.00    -0.138 C  
BRANCH   7   8
HETATM    8  C   UNL     1      -8.776   9.435  67.262  1.00  0.00    -0.128 C  
HETATM    9  O   UNL     1      -8.884   8.871  68.585  1.00  0.00    -0.136 OA 
HETATM   10  H   UNL     1      -9.022   9.596  69.182  1.00  0.00     0.000 HD 
BRANCH   8  11
HETATM   11  C   UNL     1     -10.046  10.246  66.981  1.00  0.00    -0.218 C  
BRANCH  11  12
HETATM   12  O   UNL     1      -9.803  11.621  66.661  1.00  0.00    -0.195 OA 
BRANCH  12  13
HETATM   13  C   UNL     1     -10.577  12.134  65.639  1.00  0.00    -0.262 A  
HETATM   14  C   UNL     1     -10.872  11.409  64.469  1.00  0.00    -0.375 A  
HETATM   15  C   UNL     1     -11.600  11.979  63.429  1.00  0.00    -0.495 A  
HETATM   16  C   UNL     1     -12.057  13.280  63.547  1.00  0.00    -0.550 A  
HETATM   17  C   UNL     1     -11.797  14.004  64.712  1.00  0.00    -0.415 A  
HETATM   18  C   UNL     1     -11.066  13.452  65.787  1.00  0.00    -0.295 A  
BRANCH  18  19
HETATM   19  C   UNL     1     -10.764  14.288  67.022  1.00  0.00    -0.290 C  
HETATM   20  C   UNL     1     -10.647  15.810  66.828  1.00  0.00    -0.309 C  
HETATM   21  C   UNL     1     -10.674  16.345  68.248  1.00  0.00    -0.337 C  
HETATM   22  C   UNL     1     -11.776  15.524  68.900  1.00  0.00    -0.385 C  
HETATM   23  C   UNL     1     -11.792  14.175  68.165  1.00  0.00    -0.387 C  
ENDBRANCH  18  19
ENDBRANCH  12  13
ENDBRANCH  11  12
ENDBRANCH   8  11
ENDBRANCH   7   8
ENDBRANCH   5   7
TORSDOF 6
ENDMDL
MODEL      139
REMARK 921   NORMALIZED FREE ENERGY PREDICTED BY IDOCK:   -4.17 KCAL/MOL
REMARK 922        TOTAL FREE ENERGY PREDICTED BY IDOCK:   -6.67 KCAL/MOL
REMARK 923 INTER-LIGAND FREE ENERGY PREDICTED BY IDOCK:   -6.49 KCAL/MOL
REMARK 924 INTRA-LIGAND FREE ENERGY PREDICTED BY IDOCK:   -0.18 KCAL/MOL
REMARK 927      BINDING AFFINITY PREDICTED BY RF-SCORE:    0.00 PKD
ROOT
HETATM    1  C   UNL     1      -7.847  14.338  68.875  1.00  0.00    -0.097 C  
HETATM    2  C   UNL     1      -7.144  12.978  68.730  1.00  0.00    -0.097 C  
HETATM    3  C   UNL     1      -6.092  12.860  69.851  1.00  0.00    -0.126 C  
HETATM    4  C   UNL     1      -6.414  12.905  67.378  1.00  0.00    -0.126 C  
HETATM    5  N   UNL     1      -8.064  11.838  68.896  1.00  0.00    -0.348 NA 
HETATM    6  H   UNL     1      -8.408  11.803  69.856  1.00  0.00     0.000 HD 
ENDROOT
BRANCH   5   7
HETATM    7  C   UNL     1      -9.188  11.793  67.961  1.00  0.00    -0.181 C  
BRANCH   7   8
HETATM    8  C   UNL     1     -10.153  10.611  68.184  1.00  0.00    -0.158 C  
HETATM    9  O   UNL     1     -10.320   9.960  66.908  1.00  0.00    -0.230 OA 
HETATM   10  H   UNL     1     -10.915   9.233  67.046  1.00  0.00     0.000 HD 
BRANCH   8  11
HETATM   11  C   UNL     1     -11.538  11.021  68.698  1.00  0.00    -0.316 C  
BRANCH  11  12
HETATM   12  O   UNL     1     -12.086  12.173  68.048  1.00  0.00    -0.478 OA 
BRANCH  12  13
HETATM   13  C   UNL     1     -11.985  13.354  68.756  1.00  0.00    -0.324 A  
HETATM   14  C   UNL     1     -12.156  13.423  70.151  1.00  0.00    -0.415 A  
HETATM   15  C   UNL     1     -12.112  14.638  70.827  1.00  0.00    -0.387 A  
HETATM   16  C   UNL     1     -11.886  15.806  70.120  1.00  0.00    -0.369 A  
HETATM   17  C   UNL     1     -11.688  15.753  68.738  1.00  0.00    -0.387 A  
HETATM   18  C   UNL     1     -11.720  14.535  68.025  1.00  0.00    -0.373 A  
BRANCH  18  19
HETATM   19  C   UNL     1     -11.545  14.523  66.514  1.00  0.00    -0.379 C  
HETATM   20  C   UNL     1     -10.283  13.838  65.958  1.00  0.00    -0.315 C  
HETATM   21  C   UNL     1     -10.578  13.717  64.475  1.00  0.00    -0.428 C  
HETATM   22  C   UNL     1     -12.029  13.260  64.452  1.00  0.00    -0.459 C  
HETATM   23  C   UNL     1     -12.674  13.833  65.723  1.00  0.00    -0.494 C  
ENDBRANCH  18  19
ENDBRANCH  12  13
ENDBRANCH  11  12
ENDBRANCH   8  11
ENDBRANCH   7   8
ENDBRANCH   5   7
TORSDOF 6
ENDMDL
MODEL      140
REMARK 921   NORMALIZED FREE ENERGY PREDICTED BY IDOCK:   -4.17 KCAL/MOL
REMARK 922        TOTAL FREE ENERGY PREDICTED BY IDOCK:   -6.67 KCAL/MOL
REMARK 923 INTER-LIGAND FREE ENERGY PREDICTED BY IDOCK:   -6.48 KCAL/MOL
REMARK 924 INTRA-LIGAND FREE ENERGY PREDICTED BY IDOCK:   -0.19 KCAL/MOL
REMARK 927      BINDING AFFINITY PREDICTED BY RF-SCORE:    0.00 PKD
ROOT
HETATM    1  C   UNL     1      -9.397   5.910  70.539  1.00  0.00    -0.185 C  
HETATM    2  C   UNL     1     -10.487   6.859  70.012  1.00  0.00    -0.207 C  
HETATM    3  C   UNL     1     -11.730   6.707  70.910  1.00  0.00    -0.431 C  
HETATM    4  C   UNL     1     -10.880   6.463  68.578  1.00  0.00    -0.382 C  
HETATM    5  N   UNL     1     -10.091   8.278  70.078  1.00  0.00    -0.193 NA 
HETATM    6  H   UNL     1     -10.001   8.570  71.051  1.00  0.00     0.000 HD 
ENDROOT
BRANCH   5   7
HETATM    7  C   UNL     1      -8.881   8.630  69.336  1.00  0.00    -0.144 C  
BRANCH   7   8
HETATM    8  C   UNL     1      -8.874  10.068  68.777  1.00  0.00    -0.137 C  
HETATM    9  O   UNL     1      -8.066  10.860  69.670  1.00  0.00    -0.374 OA 
HETATM   10  H   UNL     1      -8.063  11.746  69.326  1.00  0.00     0.000 HD 
BRANCH   8  11
HETATM   11  C   UNL     1     -10.263  10.712  68.688  1.00  0.00    -0.182 C  
BRANCH  11  12
HETATM   12  O   UNL     1     -10.239  12.112  68.386  1.00  0.00    -0.203 OA 
BRANCH  12  13
HETATM   13  C   UNL     1     -10.877  12.474  67.217  1.00  0.00    -0.245 A  
HETATM   14  C   UNL     1     -10.701  11.779  66.005  1.00  0.00    -0.324 A  
HETATM   15  C   UNL     1     -11.308  12.208  64.829  1.00  0.00    -0.378 A  
HETATM   16  C   UNL     1     -12.112  13.334  64.847  1.00  0.00    -0.440 A  
HETATM   17  C   UNL     1     -12.320  14.021  66.045  1.00  0.00    -0.504 A  
HETATM   18  C   UNL     1     -11.723  13.606  67.256  1.00  0.00    -0.416 A  
BRANCH  18  19
HETATM   19  C   UNL     1     -11.937  14.406  68.532  1.00  0.00    -0.333 C  
HETATM   20  C   UNL     1     -12.148  13.610  69.833  1.00  0.00    -0.406 C  
HETATM   21  C   UNL     1     -12.000  14.665  70.914  1.00  0.00    -0.388 C  
HETATM   22  C   UNL     1     -10.797  15.468  70.443  1.00  0.00    -0.356 C  
HETATM   23  C   UNL     1     -10.790  15.366  68.911  1.00  0.00    -0.251 C  
ENDBRANCH  18  19
ENDBRANCH  12  13
ENDBRANCH  11  12
ENDBRANCH   8  11
ENDBRANCH   7   8
ENDBRANCH   5   7
TORSDOF 6
ENDMDL
MODEL      141
REMARK 921   NORMALIZED FREE ENERGY PREDICTED BY IDOCK:   -4.16 KCAL/MOL
REMARK 922        TOTAL FREE ENERGY PREDICTED BY IDOCK:   -6.65 KCAL/MOL
REMARK 923 INTER-LIGAND FREE ENERGY PREDICTED BY IDOCK:   -5.81 KCAL/MOL
REMARK 924 INTRA-LIGAND FREE ENERGY PREDICTED BY IDOCK:   -0.83 KCAL/MOL
REMARK 927      BINDING AFFINITY PREDICTED BY RF-SCORE:    0.00 PKD
ROOT
HETATM    1  C   UNL     1     -10.676   6.959  70.857  1.00  0.00    -0.258 C  
HETATM    2  C   UNL     1     -10.709   8.338  71.537  1.00  0.00    -0.235 C  
HETATM    3  C   UNL     1      -9.729   8.308  72.727  1.00  0.00    -0.336 C  
HETATM    4  C   UNL     1     -12.119   8.621  72.084  1.00  0.00    -0.451 C  
HETATM    5  N   UNL     1     -10.259   9.425  70.649  1.00  0.00    -0.267 NA 
HETATM    6  H   UNL     1      -9.268   9.313  70.433  1.00  0.00     0.000 HD 
ENDROOT
BRANCH   5   7
HETATM    7  C   UNL     1     -11.024   9.586  69.412  1.00  0.00    -0.170 C  
BRANCH   7   8
HETATM    8  C   UNL     1     -10.186   9.449  68.125  1.00  0.00    -0.200 C  
HETATM    9  O   UNL     1      -8.863   9.933  68.433  1.00  0.00    -0.118 OA 
HETATM   10  H   UNL     1      -8.348   9.849  67.640  1.00  0.00     0.000 HD 
BRANCH   8  11
HETATM   11  C   UNL     1     -10.726  10.252  66.936  1.00  0.00    -0.184 C  
BRANCH  11  12
HETATM   12  O   UNL     1     -11.462  11.423  67.308  1.00  0.00    -0.441 OA 
BRANCH  12  13
HETATM   13  C   UNL     1     -11.454  12.445  66.379  1.00  0.00    -0.373 A  
HETATM   14  C   UNL     1     -12.322  12.474  65.271  1.00  0.00    -0.469 A  
HETATM   15  C   UNL     1     -12.244  13.485  64.318  1.00  0.00    -0.450 A  
HETATM   16  C   UNL     1     -11.305  14.491  64.463  1.00  0.00    -0.323 A  
HETATM   17  C   UNL     1     -10.455  14.492  65.570  1.00  0.00    -0.373 A  
HETATM   18  C   UNL     1     -10.513  13.485  66.558  1.00  0.00    -0.284 A  
BRANCH  18  19
HETATM   19  C   UNL     1      -9.539  13.495  67.727  1.00  0.00    -0.219 C  
HETATM   20  C   UNL     1      -8.040  13.394  67.392  1.00  0.00    -0.178 C  
HETATM   21  C   UNL     1      -7.366  13.756  68.703  1.00  0.00    -0.117 C  
HETATM   22  C   UNL     1      -8.182  14.944  69.188  1.00  0.00    -0.151 C  
HETATM   23  C   UNL     1      -9.597  14.748  68.624  1.00  0.00    -0.218 C  
ENDBRANCH  18  19
ENDBRANCH  12  13
ENDBRANCH  11  12
ENDBRANCH   8  11
ENDBRANCH   7   8
ENDBRANCH   5   7
TORSDOF 6
ENDMDL
MODEL      142
REMARK 921   NORMALIZED FREE ENERGY PREDICTED BY IDOCK:   -4.15 KCAL/MOL
REMARK 922        TOTAL FREE ENERGY PREDICTED BY IDOCK:   -6.64 KCAL/MOL
REMARK 923 INTER-LIGAND FREE ENERGY PREDICTED BY IDOCK:   -6.04 KCAL/MOL
REMARK 924 INTRA-LIGAND FREE ENERGY PREDICTED BY IDOCK:   -0.60 KCAL/MOL
REMARK 927      BINDING AFFINITY PREDICTED BY RF-SCORE:    0.00 PKD
ROOT
HETATM    1  C   UNL     1      -7.335  15.460  67.293  1.00  0.00    -0.239 C  
HETATM    2  C   UNL     1      -7.469  16.963  66.992  1.00  0.00    -0.196 C  
HETATM    3  C   UNL     1      -6.086  17.491  66.562  1.00  0.00    -0.248 C  
HETATM    4  C   UNL     1      -7.895  17.717  68.264  1.00  0.00    -0.256 C  
HETATM    5  N   UNL     1      -8.392  17.243  65.878  1.00  0.00    -0.542 NA 
HETATM    6  H   UNL     1      -8.006  16.881  65.005  1.00  0.00     0.000 HD 
ENDROOT
BRANCH   5   7
HETATM    7  C   UNL     1      -9.761  16.762  66.056  1.00  0.00    -0.259 C  
BRANCH   7   8
HETATM    8  C   UNL     1     -10.278  15.876  64.904  1.00  0.00     0.137 C  
HETATM    9  O   UNL     1     -11.410  16.557  64.327  1.00  0.00    -1.249 OA 
HETATM   10  H   UNL     1     -11.728  16.011  63.618  1.00  0.00     0.000 HD 
BRANCH   8  11
HETATM   11  C   UNL     1     -10.732  14.479  65.343  1.00  0.00    -0.361 C  
BRANCH  11  12
HETATM   12  O   UNL     1      -9.885  13.869  66.324  1.00  0.00    -0.290 OA 
BRANCH  12  13
HETATM   13  C   UNL     1     -10.482  12.890  67.093  1.00  0.00    -0.238 A  
HETATM   14  C   UNL     1     -10.734  11.592  66.611  1.00  0.00    -0.311 A  
HETATM   15  C   UNL     1     -11.397  10.647  67.389  1.00  0.00    -0.185 A  
HETATM   16  C   UNL     1     -11.807  10.981  68.667  1.00  0.00    -0.318 A  
HETATM   17  C   UNL     1     -11.542  12.255  69.171  1.00  0.00    -0.373 A  
HETATM   18  C   UNL     1     -10.866  13.234  68.409  1.00  0.00    -0.279 A  
BRANCH  18  19
HETATM   19  C   UNL     1     -10.635  14.627  68.976  1.00  0.00    -0.248 C  
HETATM   20  C   UNL     1     -11.506  15.766  68.416  1.00  0.00    -0.367 C  
HETATM   21  C   UNL     1     -11.261  16.902  69.392  1.00  0.00     0.163 C  
HETATM   22  C   UNL     1     -11.312  16.206  70.744  1.00  0.00    -0.397 C  
HETATM   23  C   UNL     1     -10.843  14.764  70.497  1.00  0.00     0.016 C  
ENDBRANCH  18  19
ENDBRANCH  12  13
ENDBRANCH  11  12
ENDBRANCH   8  11
ENDBRANCH   7   8
ENDBRANCH   5   7
TORSDOF 6
ENDMDL
MODEL      143
REMARK 921   NORMALIZED FREE ENERGY PREDICTED BY IDOCK:   -4.13 KCAL/MOL
REMARK 922        TOTAL FREE ENERGY PREDICTED BY IDOCK:   -6.61 KCAL/MOL
REMARK 923 INTER-LIGAND FREE ENERGY PREDICTED BY IDOCK:   -5.98 KCAL/MOL
REMARK 924 INTRA-LIGAND FREE ENERGY PREDICTED BY IDOCK:   -0.62 KCAL/MOL
REMARK 927      BINDING AFFINITY PREDICTED BY RF-SCORE:    0.00 PKD
ROOT
HETATM    1  C   UNL     1      -8.988   5.836  73.203  1.00  0.00    -0.124 C  
HETATM    2  C   UNL     1     -10.355   5.131  73.185  1.00  0.00    -0.195 C  
HETATM    3  C   UNL     1     -10.534   4.400  74.530  1.00  0.00    -0.295 C  
HETATM    4  C   UNL     1     -10.390   4.082  72.060  1.00  0.00    -0.121 C  
HETATM    5  N   UNL     1     -11.483   6.073  73.064  1.00  0.00    -0.489 NA 
HETATM    6  H   UNL     1     -11.547   6.650  73.903  1.00  0.00     0.000 HD 
ENDROOT
BRANCH   5   7
HETATM    7  C   UNL     1     -11.471   6.922  71.874  1.00  0.00    -0.272 C  
BRANCH   7   8
HETATM    8  C   UNL     1     -12.000   8.352  72.108  1.00  0.00    -0.374 C  
HETATM    9  O   UNL     1     -13.317   8.412  71.523  1.00  0.00    -0.374 OA 
HETATM   10  H   UNL     1     -13.642   9.292  71.667  1.00  0.00     0.000 HD 
BRANCH   8  11
HETATM   11  C   UNL     1     -11.141   9.451  71.470  1.00  0.00    -0.376 C  
BRANCH  11  12
HETATM   12  O   UNL     1     -11.350   9.613  70.063  1.00  0.00    -0.241 OA 
BRANCH  12  13
HETATM   13  C   UNL     1     -11.536  10.914  69.639  1.00  0.00    -0.305 A  
HETATM   14  C   UNL     1     -12.114  11.905  70.455  1.00  0.00    -0.421 A  
HETATM   15  C   UNL     1     -12.347  13.191  69.977  1.00  0.00    -0.241 A  
HETATM   16  C   UNL     1     -11.994  13.511  68.678  1.00  0.00    -0.378 A  
HETATM   17  C   UNL     1     -11.394  12.548  67.864  1.00  0.00    -0.343 A  
HETATM   18  C   UNL     1     -11.139  11.237  68.322  1.00  0.00    -0.297 A  
BRANCH  18  19
HETATM   19  C   UNL     1     -10.525  10.202  67.391  1.00  0.00    -0.310 C  
HETATM   20  C   UNL     1     -10.421  10.573  65.900  1.00  0.00    -0.224 C  
HETATM   21  C   UNL     1      -9.500   9.504  65.340  1.00  0.00    -0.336 C  
HETATM   22  C   UNL     1      -8.414   9.401  66.401  1.00  0.00    -0.131 C  
HETATM   23  C   UNL     1      -9.082   9.779  67.731  1.00  0.00    -0.138 C  
ENDBRANCH  18  19
ENDBRANCH  12  13
ENDBRANCH  11  12
ENDBRANCH   8  11
ENDBRANCH   7   8
ENDBRANCH   5   7
TORSDOF 6
ENDMDL
MODEL      144
REMARK 921   NORMALIZED FREE ENERGY PREDICTED BY IDOCK:   -4.09 KCAL/MOL
REMARK 922        TOTAL FREE ENERGY PREDICTED BY IDOCK:   -6.56 KCAL/MOL
REMARK 923 INTER-LIGAND FREE ENERGY PREDICTED BY IDOCK:   -5.55 KCAL/MOL
REMARK 924 INTRA-LIGAND FREE ENERGY PREDICTED BY IDOCK:   -1.00 KCAL/MOL
REMARK 927      BINDING AFFINITY PREDICTED BY RF-SCORE:    0.00 PKD
ROOT
HETATM    1  C   UNL     1     -11.792   6.607  71.895  1.00  0.00    -0.375 C  
HETATM    2  C   UNL     1     -11.023   7.126  70.667  1.00  0.00    -0.258 C  
HETATM    3  C   UNL     1     -11.395   6.241  69.461  1.00  0.00    -0.475 C  
HETATM    4  C   UNL     1      -9.508   7.001  70.905  1.00  0.00    -0.160 C  
HETATM    5  N   UNL     1     -11.389   8.507  70.305  1.00  0.00    -0.420 NA 
HETATM    6  H   UNL     1     -12.357   8.540  69.985  1.00  0.00     0.000 HD 
ENDROOT
BRANCH   5   7
HETATM    7  C   UNL     1     -11.174   9.511  71.347  1.00  0.00    -0.382 C  
BRANCH   7   8
HETATM    8  C   UNL     1     -12.037  10.779  71.195  1.00  0.00    -0.309 C  
HETATM    9  O   UNL     1     -13.279  10.525  71.882  1.00  0.00    -0.446 OA 
HETATM   10  H   UNL     1     -13.811  11.306  71.788  1.00  0.00     0.000 HD 
BRANCH   8  11
HETATM   11  C   UNL     1     -12.360  11.148  69.742  1.00  0.00    -0.246 C  
BRANCH  11  12
HETATM   12  O   UNL     1     -11.299  10.873  68.820  1.00  0.00    -0.248 OA 
BRANCH  12  13
HETATM   13  C   UNL     1     -10.963  11.915  67.979  1.00  0.00    -0.224 A  
HETATM   14  C   UNL     1     -11.841  12.979  67.696  1.00  0.00    -0.401 A  
HETATM   15  C   UNL     1     -11.497  13.981  66.794  1.00  0.00    -0.379 A  
HETATM   16  C   UNL     1     -10.264  13.942  66.167  1.00  0.00    -0.307 A  
HETATM   17  C   UNL     1      -9.370  12.909  66.456  1.00  0.00    -0.224 A  
HETATM   18  C   UNL     1      -9.687  11.882  67.372  1.00  0.00    -0.189 A  
BRANCH  18  19
HETATM   19  C   UNL     1      -8.706  10.747  67.627  1.00  0.00    -0.126 C  
HETATM   20  C   UNL     1      -7.667  10.458  66.528  1.00  0.00    -0.121 C  
HETATM   21  C   UNL     1      -6.680   9.534  67.219  1.00  0.00    -0.072 C  
HETATM   22  C   UNL     1      -6.505  10.182  68.584  1.00  0.00    -0.052 C  
HETATM   23  C   UNL     1      -7.827  10.903  68.884  1.00  0.00    -0.142 C  
ENDBRANCH  18  19
ENDBRANCH  12  13
ENDBRANCH  11  12
ENDBRANCH   8  11
ENDBRANCH   7   8
ENDBRANCH   5   7
TORSDOF 6
ENDMDL
MODEL      145
REMARK 921   NORMALIZED FREE ENERGY PREDICTED BY IDOCK:   -4.09 KCAL/MOL
REMARK 922        TOTAL FREE ENERGY PREDICTED BY IDOCK:   -6.55 KCAL/MOL
REMARK 923 INTER-LIGAND FREE ENERGY PREDICTED BY IDOCK:   -5.94 KCAL/MOL
REMARK 924 INTRA-LIGAND FREE ENERGY PREDICTED BY IDOCK:   -0.61 KCAL/MOL
REMARK 927      BINDING AFFINITY PREDICTED BY RF-SCORE:    0.00 PKD
ROOT
HETATM    1  C   UNL     1      -8.988  17.385  66.322  1.00  0.00    -0.239 C  
HETATM    2  C   UNL     1      -9.739  18.154  67.422  1.00  0.00    -0.296 C  
HETATM    3  C   UNL     1     -10.583  19.254  66.749  1.00  0.00    -0.543 C  
HETATM    4  C   UNL     1      -8.734  18.832  68.369  1.00  0.00    -0.369 C  
HETATM    5  N   UNL     1     -10.680  17.302  68.174  1.00  0.00    -0.383 NA 
HETATM    6  H   UNL     1     -11.439  16.999  67.564  1.00  0.00     0.000 HD 
ENDROOT
BRANCH   5   7
HETATM    7  C   UNL     1     -10.087  16.147  68.846  1.00  0.00    -0.238 C  
BRANCH   7   8
HETATM    8  C   UNL     1     -10.954  14.873  68.802  1.00  0.00    -0.253 C  
HETATM    9  O   UNL     1     -11.102  14.420  70.164  1.00  0.00    -0.444 OA 
HETATM   10  H   UNL     1     -11.636  13.635  70.136  1.00  0.00     0.000 HD 
BRANCH   8  11
HETATM   11  C   UNL     1     -10.349  13.729  67.980  1.00  0.00    -0.246 C  
BRANCH  11  12
HETATM   12  O   UNL     1     -11.303  12.753  67.544  1.00  0.00    -0.276 OA 
BRANCH  12  13
HETATM   13  C   UNL     1     -11.219  11.525  68.169  1.00  0.00    -0.271 A  
HETATM   14  C   UNL     1     -11.859  11.247  69.392  1.00  0.00    -0.424 A  
HETATM   15  C   UNL     1     -11.701  10.020  70.029  1.00  0.00    -0.242 A  
HETATM   16  C   UNL     1     -10.909   9.045  69.447  1.00  0.00    -0.152 A  
HETATM   17  C   UNL     1     -10.289   9.294  68.222  1.00  0.00    -0.257 A  
HETATM   18  C   UNL     1     -10.435  10.527  67.548  1.00  0.00    -0.284 A  
BRANCH  18  19
HETATM   19  C   UNL     1      -9.706  10.778  66.236  1.00  0.00    -0.248 C  
HETATM   20  C   UNL     1      -8.400   9.998  65.998  1.00  0.00    -0.126 C  
HETATM   21  C   UNL     1      -8.126  10.223  64.522  1.00  0.00    -0.150 C  
HETATM   22  C   UNL     1      -9.499  10.048  63.890  1.00  0.00    -0.280 C  
HETATM   23  C   UNL     1     -10.516  10.470  64.960  1.00  0.00    -0.221 C  
ENDBRANCH  18  19
ENDBRANCH  12  13
ENDBRANCH  11  12
ENDBRANCH   8  11
ENDBRANCH   7   8
ENDBRANCH   5   7
TORSDOF 6
ENDMDL
MODEL      146
REMARK 921   NORMALIZED FREE ENERGY PREDICTED BY IDOCK:   -4.08 KCAL/MOL
REMARK 922        TOTAL FREE ENERGY PREDICTED BY IDOCK:   -6.54 KCAL/MOL
REMARK 923 INTER-LIGAND FREE ENERGY PREDICTED BY IDOCK:   -5.34 KCAL/MOL
REMARK 924 INTRA-LIGAND FREE ENERGY PREDICTED BY IDOCK:   -1.20 KCAL/MOL
REMARK 927      BINDING AFFINITY PREDICTED BY RF-SCORE:    0.00 PKD
ROOT
HETATM    1  C   UNL     1     -10.802  14.866  64.745  1.00  0.00    -0.382 C  
HETATM    2  C   UNL     1     -11.566  13.534  64.846  1.00  0.00    -0.335 C  
HETATM    3  C   UNL     1     -11.646  12.920  63.434  1.00  0.00    -0.463 C  
HETATM    4  C   UNL     1     -13.001  13.788  65.341  1.00  0.00    -0.361 C  
HETATM    5  N   UNL     1     -10.881  12.545  65.697  1.00  0.00    -0.270 NA 
HETATM    6  H   UNL     1     -10.003  12.259  65.263  1.00  0.00     0.000 HD 
ENDROOT
BRANCH   5   7
HETATM    7  C   UNL     1     -10.644  12.959  67.080  1.00  0.00    -0.252 C  
BRANCH   7   8
HETATM    8  C   UNL     1      -9.225  12.651  67.599  1.00  0.00    -0.191 C  
HETATM    9  O   UNL     1      -8.323  12.835  66.489  1.00  0.00    -0.414 OA 
HETATM   10  H   UNL     1      -7.450  12.645  66.809  1.00  0.00     0.000 HD 
BRANCH   8  11
HETATM   11  C   UNL     1      -9.046  11.225  68.131  1.00  0.00    -0.166 C  
BRANCH  11  12
HETATM   12  O   UNL     1      -9.977  10.279  67.591  1.00  0.00    -0.169 OA 
BRANCH  12  13
HETATM   13  C   UNL     1      -9.416   9.252  66.858  1.00  0.00    -0.161 A  
HETATM   14  C   UNL     1      -8.785   9.458  65.616  1.00  0.00    -0.179 A  
HETATM   15  C   UNL     1      -8.287   8.393  64.872  1.00  0.00    -0.159 A  
HETATM   16  C   UNL     1      -8.400   7.104  65.362  1.00  0.00    -0.122 A  
HETATM   17  C   UNL     1      -8.999   6.884  66.604  1.00  0.00    -0.157 A  
HETATM   18  C   UNL     1      -9.508   7.944  67.386  1.00  0.00    -0.179 A  
BRANCH  18  19
HETATM   19  C   UNL     1     -10.195   7.660  68.714  1.00  0.00    -0.210 C  
HETATM   20  C   UNL     1     -10.839   6.273  68.889  1.00  0.00    -0.396 C  
HETATM   21  C   UNL     1     -11.126   6.209  70.377  1.00  0.00    -0.420 C  
HETATM   22  C   UNL     1      -9.860   6.784  70.994  1.00  0.00    -0.192 C  
HETATM   23  C   UNL     1      -9.295   7.770  69.961  1.00  0.00    -0.157 C  
ENDBRANCH  18  19
ENDBRANCH  12  13
ENDBRANCH  11  12
ENDBRANCH   8  11
ENDBRANCH   7   8
ENDBRANCH   5   7
TORSDOF 6
ENDMDL
MODEL      147
REMARK 921   NORMALIZED FREE ENERGY PREDICTED BY IDOCK:   -4.08 KCAL/MOL
REMARK 922        TOTAL FREE ENERGY PREDICTED BY IDOCK:   -6.54 KCAL/MOL
REMARK 923 INTER-LIGAND FREE ENERGY PREDICTED BY IDOCK:   -5.84 KCAL/MOL
REMARK 924 INTRA-LIGAND FREE ENERGY PREDICTED BY IDOCK:   -0.70 KCAL/MOL
REMARK 927      BINDING AFFINITY PREDICTED BY RF-SCORE:    0.00 PKD
ROOT
HETATM    1  C   UNL     1      -9.803  11.445  65.564  1.00  0.00    -0.271 C  
HETATM    2  C   UNL     1      -9.752  10.516  66.789  1.00  0.00    -0.179 C  
HETATM    3  C   UNL     1      -9.453   9.087  66.295  1.00  0.00    -0.306 C  
HETATM    4  C   UNL     1     -11.120  10.503  67.496  1.00  0.00    -0.358 C  
HETATM    5  N   UNL     1      -8.675  10.870  67.731  1.00  0.00    -0.127 NA 
HETATM    6  H   UNL     1      -7.766  10.708  67.298  1.00  0.00     0.000 HD 
ENDROOT
BRANCH   5   7
HETATM    7  C   UNL     1      -8.734  12.226  68.277  1.00  0.00    -0.178 C  
BRANCH   7   8
HETATM    8  C   UNL     1      -7.371  12.945  68.341  1.00  0.00    -0.119 C  
HETATM    9  O   UNL     1      -6.858  12.750  69.675  1.00  0.00    -0.331 OA 
HETATM   10  H   UNL     1      -6.019  13.193  69.714  1.00  0.00     0.000 HD 
BRANCH   8  11
HETATM   11  C   UNL     1      -7.443  14.452  68.070  1.00  0.00    -0.140 C  
BRANCH  11  12
HETATM   12  O   UNL     1      -8.457  15.133  68.818  1.00  0.00    -0.159 OA 
BRANCH  12  13
HETATM   13  C   UNL     1      -8.566  16.486  68.568  1.00  0.00    -0.223 A  
HETATM   14  C   UNL     1      -7.507  17.388  68.784  1.00  0.00    -0.258 A  
HETATM   15  C   UNL     1      -7.669  18.756  68.584  1.00  0.00    -0.358 A  
HETATM   16  C   UNL     1      -8.890  19.244  68.154  1.00  0.00    -0.373 A  
HETATM   17  C   UNL     1      -9.943  18.361  67.910  1.00  0.00    -0.370 A  
HETATM   18  C   UNL     1      -9.808  16.967  68.097  1.00  0.00    -0.273 A  
BRANCH  18  19
HETATM   19  C   UNL     1     -10.993  16.041  67.863  1.00  0.00    -0.327 C  
HETATM   20  C   UNL     1     -10.872  15.023  66.715  1.00  0.00    -0.318 C  
HETATM   21  C   UNL     1     -12.035  14.079  66.965  1.00  0.00    -0.472 C  
HETATM   22  C   UNL     1     -11.984  13.866  68.470  1.00  0.00    -0.394 C  
HETATM   23  C   UNL     1     -11.381  15.150  69.060  1.00  0.00    -0.307 C  
ENDBRANCH  18  19
ENDBRANCH  12  13
ENDBRANCH  11  12
ENDBRANCH   8  11
ENDBRANCH   7   8
ENDBRANCH   5   7
TORSDOF 6
ENDMDL
MODEL      148
REMARK 921   NORMALIZED FREE ENERGY PREDICTED BY IDOCK:   -4.07 KCAL/MOL
REMARK 922        TOTAL FREE ENERGY PREDICTED BY IDOCK:   -6.53 KCAL/MOL
REMARK 923 INTER-LIGAND FREE ENERGY PREDICTED BY IDOCK:   -5.86 KCAL/MOL
REMARK 924 INTRA-LIGAND FREE ENERGY PREDICTED BY IDOCK:   -0.67 KCAL/MOL
REMARK 927      BINDING AFFINITY PREDICTED BY RF-SCORE:    0.00 PKD
ROOT
HETATM    1  C   UNL     1      -6.137  10.290  69.603  1.00  0.00    -0.049 C  
HETATM    2  C   UNL     1      -6.964  10.707  68.375  1.00  0.00    -0.066 C  
HETATM    3  C   UNL     1      -6.022  10.753  67.156  1.00  0.00    -0.062 C  
HETATM    4  C   UNL     1      -7.544  12.117  68.587  1.00  0.00    -0.097 C  
HETATM    5  N   UNL     1      -8.029   9.742  68.048  1.00  0.00    -0.097 NA 
HETATM    6  H   UNL     1      -7.619   8.859  67.743  1.00  0.00     0.000 HD 
ENDROOT
BRANCH   5   7
HETATM    7  C   UNL     1      -9.008   9.498  69.107  1.00  0.00    -0.148 C  
BRANCH   7   8
HETATM    8  C   UNL     1     -10.477   9.641  68.660  1.00  0.00    -0.210 C  
HETATM    9  O   UNL     1     -10.937   8.321  68.306  1.00  0.00    -0.444 OA 
HETATM   10  H   UNL     1     -11.841   8.410  68.031  1.00  0.00     0.000 HD 
BRANCH   8  11
HETATM   11  C   UNL     1     -10.677  10.560  67.450  1.00  0.00    -0.281 C  
BRANCH  11  12
HETATM   12  O   UNL     1     -11.553  11.667  67.694  1.00  0.00    -0.428 OA 
BRANCH  12  13
HETATM   13  C   UNL     1     -11.630  12.595  66.675  1.00  0.00    -0.381 A  
HETATM   14  C   UNL     1     -11.816  12.232  65.327  1.00  0.00    -0.411 A  
HETATM   15  C   UNL     1     -11.824  13.187  64.315  1.00  0.00    -0.462 A  
HETATM   16  C   UNL     1     -11.660  14.523  64.635  1.00  0.00    -0.413 A  
HETATM   17  C   UNL     1     -11.501  14.903  65.969  1.00  0.00    -0.275 A  
HETATM   18  C   UNL     1     -11.495  13.958  67.019  1.00  0.00    -0.367 A  
BRANCH  18  19
HETATM   19  C   UNL     1     -11.275  14.407  68.456  1.00  0.00    -0.286 C  
HETATM   20  C   UNL     1     -11.090  15.915  68.701  1.00  0.00    -0.337 C  
HETATM   21  C   UNL     1     -11.224  16.041  70.207  1.00  0.00    -0.397 C  
HETATM   22  C   UNL     1     -12.407  15.137  70.521  1.00  0.00    -0.408 C  
HETATM   23  C   UNL     1     -12.404  14.044  69.442  1.00  0.00    -0.247 C  
ENDBRANCH  18  19
ENDBRANCH  12  13
ENDBRANCH  11  12
ENDBRANCH   8  11
ENDBRANCH   7   8
ENDBRANCH   5   7
TORSDOF 6
ENDMDL
MODEL      149
REMARK 921   NORMALIZED FREE ENERGY PREDICTED BY IDOCK:   -4.06 KCAL/MOL
REMARK 922        TOTAL FREE ENERGY PREDICTED BY IDOCK:   -6.51 KCAL/MOL
REMARK 923 INTER-LIGAND FREE ENERGY PREDICTED BY IDOCK:   -5.40 KCAL/MOL
REMARK 924 INTRA-LIGAND FREE ENERGY PREDICTED BY IDOCK:   -1.11 KCAL/MOL
REMARK 927      BINDING AFFINITY PREDICTED BY RF-SCORE:    0.00 PKD
ROOT
HETATM    1  C   UNL     1     -11.436  12.561  69.365  1.00  0.00    -0.327 C  
HETATM    2  C   UNL     1     -11.592  11.034  69.474  1.00  0.00    -0.313 C  
HETATM    3  C   UNL     1     -12.742  10.739  70.457  1.00  0.00    -0.388 C  
HETATM    4  C   UNL     1     -10.303  10.415  70.044  1.00  0.00    -0.181 C  
HETATM    5  N   UNL     1     -11.959  10.403  68.194  1.00  0.00    -0.661 NA 
HETATM    6  H   UNL     1     -12.895  10.697  67.916  1.00  0.00     0.000 HD 
ENDROOT
BRANCH   5   7
HETATM    7  C   UNL     1     -11.021  10.618  67.092  1.00  0.00    -0.247 C  
BRANCH   7   8
HETATM    8  C   UNL     1     -10.198   9.372  66.707  1.00  0.00    -0.250 C  
HETATM    9  O   UNL     1      -9.986   9.434  65.282  1.00  0.00    -0.434 OA 
HETATM   10  H   UNL     1      -9.479   8.666  65.046  1.00  0.00     0.000 HD 
BRANCH   8  11
HETATM   11  C   UNL     1     -10.886   8.040  67.032  1.00  0.00    -0.042 C  
BRANCH  11  12
HETATM   12  O   UNL     1     -10.547   7.505  68.316  1.00  0.00    -0.193 OA 
BRANCH  12  13
HETATM   13  C   UNL     1     -10.208   6.166  68.326  1.00  0.00    -0.175 A  
HETATM   14  C   UNL     1      -9.915   5.445  67.153  1.00  0.00    -0.199 A  
HETATM   15  C   UNL     1      -9.640   4.082  67.191  1.00  0.00    -0.231 A  
HETATM   16  C   UNL     1      -9.642   3.418  68.405  1.00  0.00    -0.144 A  
HETATM   17  C   UNL     1      -9.903   4.123  69.581  1.00  0.00    -0.208 A  
HETATM   18  C   UNL     1     -10.179   5.508  69.576  1.00  0.00    -0.331 A  
BRANCH  18  19
HETATM   19  C   UNL     1     -10.505   6.232  70.874  1.00  0.00    -0.274 C  
HETATM   20  C   UNL     1     -11.006   5.375  72.050  1.00  0.00    -0.244 C  
HETATM   21  C   UNL     1     -10.918   6.322  73.233  1.00  0.00    -0.221 C  
HETATM   22  C   UNL     1      -9.575   7.005  73.023  1.00  0.00    -0.182 C  
HETATM   23  C   UNL     1      -9.336   7.014  71.506  1.00  0.00    -0.154 C  
ENDBRANCH  18  19
ENDBRANCH  12  13
ENDBRANCH  11  12
ENDBRANCH   8  11
ENDBRANCH   7   8
ENDBRANCH   5   7
TORSDOF 6
ENDMDL
MODEL      150
REMARK 921   NORMALIZED FREE ENERGY PREDICTED BY IDOCK:   -4.06 KCAL/MOL
REMARK 922        TOTAL FREE ENERGY PREDICTED BY IDOCK:   -6.51 KCAL/MOL
REMARK 923 INTER-LIGAND FREE ENERGY PREDICTED BY IDOCK:   -5.02 KCAL/MOL
REMARK 924 INTRA-LIGAND FREE ENERGY PREDICTED BY IDOCK:   -1.49 KCAL/MOL
REMARK 927      BINDING AFFINITY PREDICTED BY RF-SCORE:    0.00 PKD
ROOT
HETATM    1  C   UNL     1      -7.995   5.863  68.327  1.00  0.00    -0.109 C  
HETATM    2  C   UNL     1      -8.951   5.304  67.259  1.00  0.00    -0.111 C  
HETATM    3  C   UNL     1      -9.985   4.405  67.965  1.00  0.00    -0.076 C  
HETATM    4  C   UNL     1      -8.169   4.439  66.255  1.00  0.00    -0.102 C  
HETATM    5  N   UNL     1      -9.714   6.359  66.566  1.00  0.00    -0.251 NA 
HETATM    6  H   UNL     1     -10.356   6.811  67.217  1.00  0.00     0.000 HD 
ENDROOT
BRANCH   5   7
HETATM    7  C   UNL     1      -8.911   7.368  65.875  1.00  0.00    -0.120 C  
BRANCH   7   8
HETATM    8  C   UNL     1      -9.196   8.817  66.316  1.00  0.00    -0.207 C  
HETATM    9  O   UNL     1      -8.023   9.282  67.014  1.00  0.00    -0.101 OA 
HETATM   10  H   UNL     1      -8.200  10.175  67.285  1.00  0.00     0.000 HD 
BRANCH   8  11
HETATM   11  C   UNL     1     -10.401   8.962  67.253  1.00  0.00    -0.280 C  
BRANCH  11  12
HETATM   12  O   UNL     1     -10.078   8.841  68.643  1.00  0.00    -0.178 OA 
BRANCH  12  13
HETATM   13  C   UNL     1     -10.965   9.446  69.511  1.00  0.00    -0.173 A  
HETATM   14  C   UNL     1     -11.386  10.781  69.360  1.00  0.00    -0.351 A  
HETATM   15  C   UNL     1     -12.231  11.383  70.288  1.00  0.00    -0.433 A  
HETATM   16  C   UNL     1     -12.679  10.655  71.377  1.00  0.00    -0.545 A  
HETATM   17  C   UNL     1     -12.293   9.322  71.527  1.00  0.00    -0.439 A  
HETATM   18  C   UNL     1     -11.442   8.682  70.599  1.00  0.00    -0.256 A  
BRANCH  18  19
HETATM   19  C   UNL     1     -11.007   7.240  70.821  1.00  0.00    -0.273 C  
HETATM   20  C   UNL     1      -9.618   7.015  71.444  1.00  0.00    -0.162 C  
HETATM   21  C   UNL     1      -9.640   5.544  71.819  1.00  0.00    -0.183 C  
HETATM   22  C   UNL     1     -11.024   5.368  72.425  1.00  0.00    -0.298 C  
HETATM   23  C   UNL     1     -11.924   6.407  71.738  1.00  0.00    -0.370 C  
ENDBRANCH  18  19
ENDBRANCH  12  13
ENDBRANCH  11  12
ENDBRANCH   8  11
ENDBRANCH   7   8
ENDBRANCH   5   7
TORSDOF 6
ENDMDL
MODEL      151
REMARK 921   NORMALIZED FREE ENERGY PREDICTED BY IDOCK:   -4.04 KCAL/MOL
REMARK 922        TOTAL FREE ENERGY PREDICTED BY IDOCK:   -6.49 KCAL/MOL
REMARK 923 INTER-LIGAND FREE ENERGY PREDICTED BY IDOCK:   -5.78 KCAL/MOL
REMARK 924 INTRA-LIGAND FREE ENERGY PREDICTED BY IDOCK:   -0.72 KCAL/MOL
REMARK 927      BINDING AFFINITY PREDICTED BY RF-SCORE:    0.00 PKD
ROOT
HETATM    1  C   UNL     1      -9.215   6.499  69.782  1.00  0.00    -0.145 C  
HETATM    2  C   UNL     1     -10.595   6.907  69.240  1.00  0.00    -0.226 C  
HETATM    3  C   UNL     1     -11.669   6.361  70.202  1.00  0.00    -0.372 C  
HETATM    4  C   UNL     1     -10.825   6.273  67.857  1.00  0.00    -0.417 C  
HETATM    5  N   UNL     1     -10.780   8.369  69.189  1.00  0.00    -0.384 NA 
HETATM    6  H   UNL     1     -10.796   8.752  70.134  1.00  0.00     0.000 HD 
ENDROOT
BRANCH   5   7
HETATM    7  C   UNL     1      -9.813   9.099  68.370  1.00  0.00    -0.164 C  
BRANCH   7   8
HETATM    8  C   UNL     1     -10.204  10.562  68.079  1.00  0.00    -0.166 C  
HETATM    9  O   UNL     1      -9.184  11.393  68.670  1.00  0.00    -0.205 OA 
HETATM   10  H   UNL     1      -9.425  12.294  68.491  1.00  0.00     0.000 HD 
BRANCH   8  11
HETATM   11  C   UNL     1     -11.559  10.978  68.663  1.00  0.00    -0.316 C  
BRANCH  11  12
HETATM   12  O   UNL     1     -11.833  12.380  68.563  1.00  0.00    -0.314 OA 
BRANCH  12  13
HETATM   13  C   UNL     1     -12.218  12.991  69.740  1.00  0.00    -0.177 A  
HETATM   14  C   UNL     1     -13.008  12.346  70.710  1.00  0.00     0.032 A  
HETATM   15  C   UNL     1     -13.433  13.012  71.856  1.00  0.00    -0.498 A  
HETATM   16  C   UNL     1     -13.067  14.331  72.056  1.00  0.00    -0.456 A  
HETATM   17  C   UNL     1     -12.262  14.978  71.117  1.00  0.00    -0.381 A  
HETATM   18  C   UNL     1     -11.808  14.328  69.948  1.00  0.00    -0.382 A  
BRANCH  18  19
HETATM   19  C   UNL     1     -10.970  15.080  68.925  1.00  0.00    -0.256 C  
HETATM   20  C   UNL     1     -11.659  16.220  68.154  1.00  0.00    -0.072 C  
HETATM   21  C   UNL     1     -10.500  16.942  67.492  1.00  0.00    -0.328 C  
HETATM   22  C   UNL     1      -9.458  17.000  68.598  1.00  0.00    -0.274 C  
HETATM   23  C   UNL     1      -9.708  15.769  69.482  1.00  0.00    -0.276 C  
ENDBRANCH  18  19
ENDBRANCH  12  13
ENDBRANCH  11  12
ENDBRANCH   8  11
ENDBRANCH   7   8
ENDBRANCH   5   7
TORSDOF 6
ENDMDL
MODEL      152
REMARK 921   NORMALIZED FREE ENERGY PREDICTED BY IDOCK:   -4.00 KCAL/MOL
REMARK 922        TOTAL FREE ENERGY PREDICTED BY IDOCK:   -6.43 KCAL/MOL
REMARK 923 INTER-LIGAND FREE ENERGY PREDICTED BY IDOCK:   -5.41 KCAL/MOL
REMARK 924 INTRA-LIGAND FREE ENERGY PREDICTED BY IDOCK:   -1.03 KCAL/MOL
REMARK 927      BINDING AFFINITY PREDICTED BY RF-SCORE:    0.00 PKD
ROOT
HETATM    1  C   UNL     1     -10.987   7.984  72.619  1.00  0.00    -0.448 C  
HETATM    2  C   UNL     1     -11.012   7.786  71.094  1.00  0.00    -0.239 C  
HETATM    3  C   UNL     1     -11.563   6.377  70.802  1.00  0.00    -0.402 C  
HETATM    4  C   UNL     1      -9.582   7.868  70.530  1.00  0.00    -0.170 C  
HETATM    5  N   UNL     1     -11.905   8.738  70.408  1.00  0.00    -0.472 NA 
HETATM    6  H   UNL     1     -12.874   8.555  70.666  1.00  0.00     0.000 HD 
ENDROOT
BRANCH   5   7
HETATM    7  C   UNL     1     -11.593  10.153  70.609  1.00  0.00    -0.343 C  
BRANCH   7   8
HETATM    8  C   UNL     1     -12.267  11.101  69.597  1.00  0.00    -0.290 C  
HETATM    9  O   UNL     1     -12.081  10.521  68.290  1.00  0.00    -0.797 OA 
HETATM   10  H   UNL     1     -12.495  11.105  67.667  1.00  0.00     0.000 HD 
BRANCH   8  11
HETATM   11  C   UNL     1     -11.682  12.518  69.580  1.00  0.00    -0.309 C  
BRANCH  11  12
HETATM   12  O   UNL     1     -11.154  12.918  68.310  1.00  0.00    -0.237 OA 
BRANCH  12  13
HETATM   13  C   UNL     1     -10.114  13.825  68.362  1.00  0.00    -0.241 A  
HETATM   14  C   UNL     1     -10.305  15.186  68.668  1.00  0.00    -0.232 A  
HETATM   15  C   UNL     1      -9.246  16.087  68.649  1.00  0.00    -0.216 A  
HETATM   16  C   UNL     1      -7.974  15.641  68.334  1.00  0.00    -0.136 A  
HETATM   17  C   UNL     1      -7.762  14.290  68.054  1.00  0.00    -0.141 A  
HETATM   18  C   UNL     1      -8.815  13.349  68.072  1.00  0.00    -0.183 A  
BRANCH  18  19
HETATM   19  C   UNL     1      -8.553  11.893  67.717  1.00  0.00    -0.154 C  
HETATM   20  C   UNL     1      -7.360  11.601  66.789  1.00  0.00    -0.083 C  
HETATM   21  C   UNL     1      -7.189  10.097  66.907  1.00  0.00    -0.092 C  
HETATM   22  C   UNL     1      -7.350   9.852  68.399  1.00  0.00    -0.078 C  
HETATM   23  C   UNL     1      -8.281  10.959  68.914  1.00  0.00    -0.141 C  
ENDBRANCH  18  19
ENDBRANCH  12  13
ENDBRANCH  11  12
ENDBRANCH   8  11
ENDBRANCH   7   8
ENDBRANCH   5   7
TORSDOF 6
ENDMDL
MODEL      153
REMARK 921   NORMALIZED FREE ENERGY PREDICTED BY IDOCK:   -4.00 KCAL/MOL
REMARK 922        TOTAL FREE ENERGY PREDICTED BY IDOCK:   -6.43 KCAL/MOL
REMARK 923 INTER-LIGAND FREE ENERGY PREDICTED BY IDOCK:   -6.03 KCAL/MOL
REMARK 924 INTRA-LIGAND FREE ENERGY PREDICTED BY IDOCK:   -0.40 KCAL/MOL
REMARK 927      BINDING AFFINITY PREDICTED BY RF-SCORE:    0.00 PKD
ROOT
HETATM    1  C   UNL     1      -7.889  18.482  68.767  1.00  0.00    -0.301 C  
HETATM    2  C   UNL     1      -8.400  17.771  67.502  1.00  0.00    -0.226 C  
HETATM    3  C   UNL     1      -8.106  18.679  66.291  1.00  0.00    -0.267 C  
HETATM    4  C   UNL     1      -9.923  17.570  67.592  1.00  0.00    -0.309 C  
HETATM    5  N   UNL     1      -7.712  16.493  67.247  1.00  0.00    -0.151 NA 
HETATM    6  H   UNL     1      -6.732  16.663  67.020  1.00  0.00     0.000 HD 
ENDROOT
BRANCH   5   7
HETATM    7  C   UNL     1      -7.812  15.498  68.315  1.00  0.00    -0.127 C  
BRANCH   7   8
HETATM    8  C   UNL     1      -7.167  14.139  67.979  1.00  0.00    -0.143 C  
HETATM    9  O   UNL     1      -6.064  14.407  67.089  1.00  0.00    -0.276 OA 
HETATM   10  H   UNL     1      -5.668  13.569  66.882  1.00  0.00     0.000 HD 
BRANCH   8  11
HETATM   11  C   UNL     1      -8.112  13.150  67.286  1.00  0.00    -0.146 C  
BRANCH  11  12
HETATM   12  O   UNL     1      -9.485  13.288  67.670  1.00  0.00    -0.197 OA 
BRANCH  12  13
HETATM   13  C   UNL     1     -10.366  13.530  66.635  1.00  0.00    -0.271 A  
HETATM   14  C   UNL     1     -10.264  14.656  65.796  1.00  0.00    -0.360 A  
HETATM   15  C   UNL     1     -11.205  14.906  64.802  1.00  0.00    -0.393 A  
HETATM   16  C   UNL     1     -12.259  14.028  64.623  1.00  0.00    -0.460 A  
HETATM   17  C   UNL     1     -12.361  12.892  65.428  1.00  0.00    -0.538 A  
HETATM   18  C   UNL     1     -11.418  12.607  66.440  1.00  0.00    -0.409 A  
BRANCH  18  19
HETATM   19  C   UNL     1     -11.588  11.382  67.327  1.00  0.00    -0.232 C  
HETATM   20  C   UNL     1     -10.481  10.314  67.268  1.00  0.00    -0.307 C  
HETATM   21  C   UNL     1     -10.784   9.434  68.467  1.00  0.00    -0.203 C  
HETATM   22  C   UNL     1     -11.111  10.444  69.557  1.00  0.00    -0.314 C  
HETATM   23  C   UNL     1     -11.693  11.670  68.839  1.00  0.00    -0.397 C  
ENDBRANCH  18  19
ENDBRANCH  12  13
ENDBRANCH  11  12
ENDBRANCH   8  11
ENDBRANCH   7   8
ENDBRANCH   5   7
TORSDOF 6
ENDMDL
MODEL      154
REMARK 921   NORMALIZED FREE ENERGY PREDICTED BY IDOCK:   -4.00 KCAL/MOL
REMARK 922        TOTAL FREE ENERGY PREDICTED BY IDOCK:   -6.43 KCAL/MOL
REMARK 923 INTER-LIGAND FREE ENERGY PREDICTED BY IDOCK:   -5.09 KCAL/MOL
REMARK 924 INTRA-LIGAND FREE ENERGY PREDICTED BY IDOCK:   -1.34 KCAL/MOL
REMARK 927      BINDING AFFINITY PREDICTED BY RF-SCORE:    0.00 PKD
ROOT
HETATM    1  C   UNL     1     -10.521  16.158  66.522  1.00  0.00    -0.298 C  
HETATM    2  C   UNL     1     -10.036  15.794  67.936  1.00  0.00    -0.230 C  
HETATM    3  C   UNL     1      -9.520  17.080  68.611  1.00  0.00    -0.274 C  
HETATM    4  C   UNL     1      -8.869  14.795  67.851  1.00  0.00    -0.167 C  
HETATM    5  N   UNL     1     -11.116  15.272  68.794  1.00  0.00    -0.255 NA 
HETATM    6  H   UNL     1     -11.799  16.007  68.981  1.00  0.00     0.000 HD 
ENDROOT
BRANCH   5   7
HETATM    7  C   UNL     1     -11.793  14.075  68.298  1.00  0.00    -0.371 C  
BRANCH   7   8
HETATM    8  C   UNL     1     -12.407  13.190  69.402  1.00  0.00    -0.003 C  
HETATM    9  O   UNL     1     -12.265  13.910  70.643  1.00  0.00    -0.334 OA 
HETATM   10  H   UNL     1     -12.643  13.364  71.323  1.00  0.00     0.000 HD 
BRANCH   8  11
HETATM   11  C   UNL     1     -11.729  11.824  69.560  1.00  0.00    -0.343 C  
BRANCH  11  12
HETATM   12  O   UNL     1     -11.408  11.183  68.320  1.00  0.00    -0.247 OA 
BRANCH  12  13
HETATM   13  C   UNL     1     -10.060  11.045  68.058  1.00  0.00    -0.179 A  
HETATM   14  C   UNL     1      -9.113  10.768  69.062  1.00  0.00    -0.153 A  
HETATM   15  C   UNL     1      -7.753  10.699  68.776  1.00  0.00    -0.117 A  
HETATM   16  C   UNL     1      -7.318  10.894  67.478  1.00  0.00    -0.096 A  
HETATM   17  C   UNL     1      -8.245  11.143  66.464  1.00  0.00    -0.167 A  
HETATM   18  C   UNL     1      -9.632  11.213  66.722  1.00  0.00    -0.215 A  
BRANCH  18  19
HETATM   19  C   UNL     1     -10.608  11.531  65.599  1.00  0.00    -0.326 C  
HETATM   20  C   UNL     1     -10.593  12.966  65.041  1.00  0.00    -0.333 C  
HETATM   21  C   UNL     1     -11.412  12.853  63.769  1.00  0.00    -0.519 C  
HETATM   22  C   UNL     1     -10.904  11.558  63.151  1.00  0.00    -0.243 C  
HETATM   23  C   UNL     1     -10.452  10.677  64.325  1.00  0.00    -0.221 C  
ENDBRANCH  18  19
ENDBRANCH  12  13
ENDBRANCH  11  12
ENDBRANCH   8  11
ENDBRANCH   7   8
ENDBRANCH   5   7
TORSDOF 6
ENDMDL
MODEL      155
REMARK 921   NORMALIZED FREE ENERGY PREDICTED BY IDOCK:   -3.99 KCAL/MOL
REMARK 922        TOTAL FREE ENERGY PREDICTED BY IDOCK:   -6.42 KCAL/MOL
REMARK 923 INTER-LIGAND FREE ENERGY PREDICTED BY IDOCK:   -4.85 KCAL/MOL
REMARK 924 INTRA-LIGAND FREE ENERGY PREDICTED BY IDOCK:   -1.56 KCAL/MOL
REMARK 927      BINDING AFFINITY PREDICTED BY RF-SCORE:    0.00 PKD
ROOT
HETATM    1  C   UNL     1     -11.703  12.200  69.893  1.00  0.00    -0.361 C  
HETATM    2  C   UNL     1     -11.770  10.664  69.840  1.00  0.00    -0.317 C  
HETATM    3  C   UNL     1     -13.034  10.214  70.599  1.00  0.00    -0.296 C  
HETATM    4  C   UNL     1     -10.544  10.060  70.548  1.00  0.00    -0.313 C  
HETATM    5  N   UNL     1     -11.896  10.144  68.466  1.00  0.00    -0.607 NA 
HETATM    6  H   UNL     1     -12.797  10.414  68.072  1.00  0.00     0.000 HD 
ENDROOT
BRANCH   5   7
HETATM    7  C   UNL     1     -10.818  10.514  67.550  1.00  0.00    -0.301 C  
BRANCH   7   8
HETATM    8  C   UNL     1     -10.082   9.316  66.917  1.00  0.00    -0.256 C  
HETATM    9  O   UNL     1     -10.081   9.532  65.491  1.00  0.00    -0.366 OA 
HETATM   10  H   UNL     1      -9.629   8.793  65.101  1.00  0.00     0.000 HD 
BRANCH   8  11
HETATM   11  C   UNL     1     -10.738   7.959  67.196  1.00  0.00    -0.236 C  
BRANCH  11  12
HETATM   12  O   UNL     1      -9.876   7.014  67.840  1.00  0.00    -0.133 OA 
BRANCH  12  13
HETATM   13  C   UNL     1     -10.207   6.707  69.145  1.00  0.00    -0.179 A  
HETATM   14  C   UNL     1     -11.532   6.474  69.560  1.00  0.00    -0.384 A  
HETATM   15  C   UNL     1     -11.840   6.231  70.895  1.00  0.00    -0.215 A  
HETATM   16  C   UNL     1     -10.826   6.204  71.836  1.00  0.00    -0.295 A  
HETATM   17  C   UNL     1      -9.503   6.406  71.438  1.00  0.00    -0.164 A  
HETATM   18  C   UNL     1      -9.158   6.649  70.090  1.00  0.00    -0.155 A  
BRANCH  18  19
HETATM   19  C   UNL     1      -7.710   6.910  69.702  1.00  0.00    -0.110 C  
HETATM   20  C   UNL     1      -7.282   8.379  69.533  1.00  0.00    -0.061 C  
HETATM   21  C   UNL     1      -5.768   8.295  69.477  1.00  0.00    -0.030 C  
HETATM   22  C   UNL     1      -5.441   7.301  70.582  1.00  0.00    -0.024 C  
HETATM   23  C   UNL     1      -6.654   6.364  70.683  1.00  0.00    -0.052 C  
ENDBRANCH  18  19
ENDBRANCH  12  13
ENDBRANCH  11  12
ENDBRANCH   8  11
ENDBRANCH   7   8
ENDBRANCH   5   7
TORSDOF 6
ENDMDL
MODEL      156
REMARK 921   NORMALIZED FREE ENERGY PREDICTED BY IDOCK:   -3.97 KCAL/MOL
REMARK 922        TOTAL FREE ENERGY PREDICTED BY IDOCK:   -6.39 KCAL/MOL
REMARK 923 INTER-LIGAND FREE ENERGY PREDICTED BY IDOCK:   -5.95 KCAL/MOL
REMARK 924 INTRA-LIGAND FREE ENERGY PREDICTED BY IDOCK:   -0.44 KCAL/MOL
REMARK 927      BINDING AFFINITY PREDICTED BY RF-SCORE:    0.00 PKD
ROOT
HETATM    1  C   UNL     1     -13.583  15.422  71.085  1.00  0.00    -0.536 C  
HETATM    2  C   UNL     1     -12.302  14.906  70.407  1.00  0.00    -0.345 C  
HETATM    3  C   UNL     1     -11.223  16.000  70.525  1.00  0.00    -0.397 C  
HETATM    4  C   UNL     1     -12.566  14.652  68.912  1.00  0.00     0.263 C  
HETATM    5  N   UNL     1     -11.754  13.702  71.058  1.00  0.00    -0.375 NA 
HETATM    6  H   UNL     1     -11.425  13.932  71.996  1.00  0.00     0.000 HD 
ENDROOT
BRANCH   5   7
HETATM    7  C   UNL     1     -12.653  12.550  71.113  1.00  0.00    -0.253 C  
BRANCH   7   8
HETATM    8  C   UNL     1     -12.153  11.317  70.334  1.00  0.00    -0.384 C  
HETATM    9  O   UNL     1     -11.204  10.641  71.184  1.00  0.00    -0.202 OA 
HETATM   10  H   UNL     1     -10.896   9.882  70.704  1.00  0.00     0.000 HD 
BRANCH   8  11
HETATM   11  C   UNL     1     -11.457  11.651  69.010  1.00  0.00    -0.294 C  
BRANCH  11  12
HETATM   12  O   UNL     1     -11.900  10.861  67.900  1.00  0.00    -0.590 OA 
BRANCH  12  13
HETATM   13  C   UNL     1     -10.935  10.576  66.956  1.00  0.00    -0.180 A  
HETATM   14  C   UNL     1     -10.614  11.456  65.904  1.00  0.00    -0.317 A  
HETATM   15  C   UNL     1      -9.682  11.110  64.931  1.00  0.00    -0.297 A  
HETATM   16  C   UNL     1      -9.045   9.884  64.999  1.00  0.00    -0.264 A  
HETATM   17  C   UNL     1      -9.331   9.011  66.050  1.00  0.00    -0.305 A  
HETATM   18  C   UNL     1     -10.267   9.335  67.056  1.00  0.00    -0.331 A  
BRANCH  18  19
HETATM   19  C   UNL     1     -10.585   8.338  68.161  1.00  0.00    -0.169 C  
HETATM   20  C   UNL     1     -10.596   6.846  67.779  1.00  0.00    -0.305 C  
HETATM   21  C   UNL     1     -10.615   6.144  69.124  1.00  0.00    -0.345 C  
HETATM   22  C   UNL     1      -9.605   6.938  69.938  1.00  0.00    -0.156 C  
HETATM   23  C   UNL     1      -9.631   8.366  69.372  1.00  0.00    -0.170 C  
ENDBRANCH  18  19
ENDBRANCH  12  13
ENDBRANCH  11  12
ENDBRANCH   8  11
ENDBRANCH   7   8
ENDBRANCH   5   7
TORSDOF 6
ENDMDL
MODEL      157
REMARK 921   NORMALIZED FREE ENERGY PREDICTED BY IDOCK:   -3.96 KCAL/MOL
REMARK 922        TOTAL FREE ENERGY PREDICTED BY IDOCK:   -6.37 KCAL/MOL
REMARK 923 INTER-LIGAND FREE ENERGY PREDICTED BY IDOCK:   -5.36 KCAL/MOL
REMARK 924 INTRA-LIGAND FREE ENERGY PREDICTED BY IDOCK:   -1.02 KCAL/MOL
REMARK 927      BINDING AFFINITY PREDICTED BY RF-SCORE:    0.00 PKD
ROOT
HETATM    1  C   UNL     1     -11.313   9.987  70.491  1.00  0.00    -0.409 C  
HETATM    2  C   UNL     1     -11.448   8.537  70.986  1.00  0.00    -0.273 C  
HETATM    3  C   UNL     1     -12.771   8.419  71.768  1.00  0.00    -0.373 C  
HETATM    4  C   UNL     1     -10.292   8.200  71.945  1.00  0.00    -0.300 C  
HETATM    5  N   UNL     1     -11.521   7.561  69.884  1.00  0.00    -0.480 NA 
HETATM    6  H   UNL     1     -12.385   7.692  69.358  1.00  0.00     0.000 HD 
ENDROOT
BRANCH   5   7
HETATM    7  C   UNL     1     -10.378   7.552  68.971  1.00  0.00    -0.212 C  
BRANCH   7   8
HETATM    8  C   UNL     1     -10.753   7.692  67.482  1.00  0.00    -0.209 C  
HETATM    9  O   UNL     1     -11.461   6.491  67.114  1.00  0.00    -0.768 OA 
HETATM   10  H   UNL     1     -11.692   6.578  66.197  1.00  0.00     0.000 HD 
BRANCH   8  11
HETATM   11  C   UNL     1      -9.551   7.847  66.544  1.00  0.00    -0.212 C  
BRANCH  11  12
HETATM   12  O   UNL     1      -9.501   9.104  65.859  1.00  0.00    -0.226 OA 
BRANCH  12  13
HETATM   13  C   UNL     1      -8.312   9.795  65.980  1.00  0.00    -0.120 A  
HETATM   14  C   UNL     1      -7.075   9.259  65.571  1.00  0.00    -0.086 A  
HETATM   15  C   UNL     1      -5.886   9.955  65.766  1.00  0.00    -0.065 A  
HETATM   16  C   UNL     1      -5.914  11.203  66.361  1.00  0.00    -0.145 A  
HETATM   17  C   UNL     1      -7.134  11.761  66.747  1.00  0.00    -0.047 A  
HETATM   18  C   UNL     1      -8.358  11.083  66.558  1.00  0.00    -0.163 A  
BRANCH  18  19
HETATM   19  C   UNL     1      -9.664  11.705  67.033  1.00  0.00    -0.201 C  
HETATM   20  C   UNL     1      -9.628  12.484  68.360  1.00  0.00    -0.176 C  
HETATM   21  C   UNL     1     -10.955  13.220  68.367  1.00  0.00    -0.289 C  
HETATM   22  C   UNL     1     -11.070  13.727  66.937  1.00  0.00    -0.311 C  
HETATM   23  C   UNL     1     -10.303  12.721  66.066  1.00  0.00    -0.291 C  
ENDBRANCH  18  19
ENDBRANCH  12  13
ENDBRANCH  11  12
ENDBRANCH   8  11
ENDBRANCH   7   8
ENDBRANCH   5   7
TORSDOF 6
ENDMDL
MODEL      158
REMARK 921   NORMALIZED FREE ENERGY PREDICTED BY IDOCK:   -3.94 KCAL/MOL
REMARK 922        TOTAL FREE ENERGY PREDICTED BY IDOCK:   -6.35 KCAL/MOL
REMARK 923 INTER-LIGAND FREE ENERGY PREDICTED BY IDOCK:   -5.52 KCAL/MOL
REMARK 924 INTRA-LIGAND FREE ENERGY PREDICTED BY IDOCK:   -0.82 KCAL/MOL
REMARK 927      BINDING AFFINITY PREDICTED BY RF-SCORE:    0.00 PKD
ROOT
HETATM    1  C   UNL     1      -8.478  18.939  68.405  1.00  0.00    -0.385 C  
HETATM    2  C   UNL     1      -8.795  19.435  66.984  1.00  0.00    -0.300 C  
HETATM    3  C   UNL     1      -7.474  19.876  66.324  1.00  0.00    -0.316 C  
HETATM    4  C   UNL     1      -9.729  20.656  67.051  1.00  0.00    -0.485 C  
HETATM    5  N   UNL     1      -9.365  18.382  66.124  1.00  0.00    -0.499 NA 
HETATM    6  H   UNL     1      -8.667  17.658  65.950  1.00  0.00     0.000 HD 
ENDROOT
BRANCH   5   7
HETATM    7  C   UNL     1     -10.604  17.774  66.607  1.00  0.00    -0.223 C  
BRANCH   7   8
HETATM    8  C   UNL     1     -10.480  16.280  66.968  1.00  0.00    -0.306 C  
HETATM    9  O   UNL     1     -11.121  15.539  65.909  1.00  0.00    -0.301 OA 
HETATM   10  H   UNL     1     -11.044  14.619  66.132  1.00  0.00     0.000 HD 
BRANCH   8  11
HETATM   11  C   UNL     1     -11.149  15.897  68.293  1.00  0.00    -0.345 C  
BRANCH  11  12
HETATM   12  O   UNL     1     -10.713  14.642  68.828  1.00  0.00    -0.234 OA 
BRANCH  12  13
HETATM   13  C   UNL     1      -9.344  14.473  68.893  1.00  0.00    -0.136 A  
HETATM   14  C   UNL     1      -8.491  15.399  69.524  1.00  0.00    -0.213 A  
HETATM   15  C   UNL     1      -7.110  15.231  69.517  1.00  0.00    -0.201 A  
HETATM   16  C   UNL     1      -6.558  14.129  68.889  1.00  0.00    -0.099 A  
HETATM   17  C   UNL     1      -7.391  13.187  68.282  1.00  0.00    -0.116 A  
HETATM   18  C   UNL     1      -8.796  13.324  68.278  1.00  0.00    -0.168 A  
BRANCH  18  19
HETATM   19  C   UNL     1      -9.668  12.300  67.567  1.00  0.00    -0.190 C  
HETATM   20  C   UNL     1      -9.164  11.768  66.213  1.00  0.00    -0.227 C  
HETATM   21  C   UNL     1     -10.063  10.573  65.954  1.00  0.00    -0.323 C  
HETATM   22  C   UNL     1     -10.123   9.890  67.312  1.00  0.00    -0.264 C  
HETATM   23  C   UNL     1      -9.941  11.003  68.355  1.00  0.00    -0.194 C  
ENDBRANCH  18  19
ENDBRANCH  12  13
ENDBRANCH  11  12
ENDBRANCH   8  11
ENDBRANCH   7   8
ENDBRANCH   5   7
TORSDOF 6
ENDMDL
MODEL      159
REMARK 921   NORMALIZED FREE ENERGY PREDICTED BY IDOCK:   -3.93 KCAL/MOL
REMARK 922        TOTAL FREE ENERGY PREDICTED BY IDOCK:   -6.34 KCAL/MOL
REMARK 923 INTER-LIGAND FREE ENERGY PREDICTED BY IDOCK:   -5.40 KCAL/MOL
REMARK 924 INTRA-LIGAND FREE ENERGY PREDICTED BY IDOCK:   -0.93 KCAL/MOL
REMARK 927      BINDING AFFINITY PREDICTED BY RF-SCORE:    0.00 PKD
ROOT
HETATM    1  C   UNL     1      -9.261   7.832  71.087  1.00  0.00    -0.158 C  
HETATM    2  C   UNL     1     -10.249   7.548  72.232  1.00  0.00    -0.206 C  
HETATM    3  C   UNL     1      -9.441   7.404  73.537  1.00  0.00    -0.305 C  
HETATM    4  C   UNL     1     -10.983   6.220  71.974  1.00  0.00    -0.299 C  
HETATM    5  N   UNL     1     -11.207   8.647  72.448  1.00  0.00    -0.331 NA 
HETATM    6  H   UNL     1     -10.716   9.476  72.785  1.00  0.00     0.000 HD 
ENDROOT
BRANCH   5   7
HETATM    7  C   UNL     1     -12.039   8.994  71.297  1.00  0.00    -0.314 C  
BRANCH   7   8
HETATM    8  C   UNL     1     -12.043  10.495  70.944  1.00  0.00    -0.383 C  
HETATM    9  O   UNL     1     -13.318  11.021  71.364  1.00  0.00    -0.279 OA 
HETATM   10  H   UNL     1     -13.320  11.945  71.147  1.00  0.00     0.000 HD 
BRANCH   8  11
HETATM   11  C   UNL     1     -11.872  10.789  69.449  1.00  0.00    -0.298 C  
BRANCH  11  12
HETATM   12  O   UNL     1     -10.596  10.408  68.921  1.00  0.00    -0.190 OA 
BRANCH  12  13
HETATM   13  C   UNL     1     -10.453  10.563  67.556  1.00  0.00    -0.239 A  
HETATM   14  C   UNL     1     -10.785  11.756  66.886  1.00  0.00    -0.288 A  
HETATM   15  C   UNL     1     -10.690  11.859  65.502  1.00  0.00    -0.329 A  
HETATM   16  C   UNL     1     -10.250  10.774  64.764  1.00  0.00    -0.403 A  
HETATM   17  C   UNL     1      -9.890   9.592  65.415  1.00  0.00    -0.322 A  
HETATM   18  C   UNL     1      -9.969   9.459  66.819  1.00  0.00    -0.305 A  
BRANCH  18  19
HETATM   19  C   UNL     1      -9.611   8.140  67.488  1.00  0.00    -0.196 C  
HETATM   20  C   UNL     1      -9.835   6.855  66.671  1.00  0.00    -0.217 C  
HETATM   21  C   UNL     1      -9.095   5.800  67.473  1.00  0.00    -0.106 C  
HETATM   22  C   UNL     1      -7.802   6.505  67.851  1.00  0.00    -0.108 C  
HETATM   23  C   UNL     1      -8.142   8.001  67.933  1.00  0.00    -0.129 C  
ENDBRANCH  18  19
ENDBRANCH  12  13
ENDBRANCH  11  12
ENDBRANCH   8  11
ENDBRANCH   7   8
ENDBRANCH   5   7
TORSDOF 6
ENDMDL
MODEL      160
REMARK 921   NORMALIZED FREE ENERGY PREDICTED BY IDOCK:   -3.92 KCAL/MOL
REMARK 922        TOTAL FREE ENERGY PREDICTED BY IDOCK:   -6.32 KCAL/MOL
REMARK 923 INTER-LIGAND FREE ENERGY PREDICTED BY IDOCK:   -5.95 KCAL/MOL
REMARK 924 INTRA-LIGAND FREE ENERGY PREDICTED BY IDOCK:   -0.37 KCAL/MOL
REMARK 927      BINDING AFFINITY PREDICTED BY RF-SCORE:    0.00 PKD
ROOT
HETATM    1  C   UNL     1     -12.356  12.620  65.064  1.00  0.00    -0.561 C  
HETATM    2  C   UNL     1     -10.823  12.693  64.958  1.00  0.00    -0.290 C  
HETATM    3  C   UNL     1     -10.413  14.178  64.944  1.00  0.00    -0.461 C  
HETATM    4  C   UNL     1     -10.357  12.054  63.638  1.00  0.00    -0.482 C  
HETATM    5  N   UNL     1     -10.140  12.079  66.112  1.00  0.00    -0.220 NA 
HETATM    6  H   UNL     1     -10.326  12.621  66.956  1.00  0.00     0.000 HD 
ENDROOT
BRANCH   5   7
HETATM    7  C   UNL     1     -10.445  10.668  66.348  1.00  0.00    -0.213 C  
BRANCH   7   8
HETATM    8  C   UNL     1     -10.760  10.323  67.818  1.00  0.00    -0.275 C  
HETATM    9  O   UNL     1     -12.155  10.620  68.027  1.00  0.00    -0.755 OA 
HETATM   10  H   UNL     1     -12.349  10.408  68.933  1.00  0.00     0.000 HD 
BRANCH   8  11
HETATM   11  C   UNL     1      -9.941  11.122  68.838  1.00  0.00    -0.175 C  
BRANCH  11  12
HETATM   12  O   UNL     1      -9.119  10.315  69.689  1.00  0.00    -0.196 OA 
BRANCH  12  13
HETATM   13  C   UNL     1      -9.801   9.542  70.607  1.00  0.00    -0.262 A  
HETATM   14  C   UNL     1     -11.135   9.796  70.976  1.00  0.00    -0.431 A  
HETATM   15  C   UNL     1     -11.773   9.037  71.953  1.00  0.00    -0.445 A  
HETATM   16  C   UNL     1     -11.091   8.003  72.569  1.00  0.00    -0.440 A  
HETATM   17  C   UNL     1      -9.776   7.719  72.196  1.00  0.00    -0.240 A  
HETATM   18  C   UNL     1      -9.103   8.467  71.204  1.00  0.00    -0.217 A  
BRANCH  18  19
HETATM   19  C   UNL     1      -7.655   8.157  70.857  1.00  0.00    -0.076 C  
HETATM   20  C   UNL     1      -6.569   8.976  71.578  1.00  0.00    -0.065 C  
HETATM   21  C   UNL     1      -5.294   8.216  71.263  1.00  0.00    -0.033 C  
HETATM   22  C   UNL     1      -5.708   6.764  71.448  1.00  0.00    -0.035 C  
HETATM   23  C   UNL     1      -7.207   6.705  71.120  1.00  0.00    -0.078 C  
ENDBRANCH  18  19
ENDBRANCH  12  13
ENDBRANCH  11  12
ENDBRANCH   8  11
ENDBRANCH   7   8
ENDBRANCH   5   7
TORSDOF 6
ENDMDL
MODEL      161
REMARK 921   NORMALIZED FREE ENERGY PREDICTED BY IDOCK:   -3.91 KCAL/MOL
REMARK 922        TOTAL FREE ENERGY PREDICTED BY IDOCK:   -6.31 KCAL/MOL
REMARK 923 INTER-LIGAND FREE ENERGY PREDICTED BY IDOCK:   -5.48 KCAL/MOL
REMARK 924 INTRA-LIGAND FREE ENERGY PREDICTED BY IDOCK:   -0.83 KCAL/MOL
REMARK 927      BINDING AFFINITY PREDICTED BY RF-SCORE:    0.00 PKD
ROOT
HETATM    1  C   UNL     1      -7.911   4.387  71.435  1.00  0.00    -0.082 C  
HETATM    2  C   UNL     1      -9.362   3.875  71.429  1.00  0.00    -0.139 C  
HETATM    3  C   UNL     1      -9.836   3.763  72.891  1.00  0.00    -0.194 C  
HETATM    4  C   UNL     1      -9.422   2.473  70.796  1.00  0.00    -0.210 C  
HETATM    5  N   UNL     1     -10.292   4.799  70.754  1.00  0.00    -0.168 NA 
HETATM    6  H   UNL     1     -10.370   5.666  71.286  1.00  0.00     0.000 HD 
ENDROOT
BRANCH   5   7
HETATM    7  C   UNL     1      -9.982   5.097  69.356  1.00  0.00    -0.222 C  
BRANCH   7   8
HETATM    8  C   UNL     1     -10.429   6.497  68.891  1.00  0.00    -0.215 C  
HETATM    9  O   UNL     1     -11.808   6.649  69.285  1.00  0.00    -0.629 OA 
HETATM   10  H   UNL     1     -12.083   7.511  68.998  1.00  0.00     0.000 HD 
BRANCH   8  11
HETATM   11  C   UNL     1     -10.336   6.715  67.376  1.00  0.00    -0.220 C  
BRANCH  11  12
HETATM   12  O   UNL     1     -10.982   7.908  66.916  1.00  0.00    -0.188 OA 
BRANCH  12  13
HETATM   13  C   UNL     1     -10.141   8.973  66.660  1.00  0.00    -0.285 A  
HETATM   14  C   UNL     1      -9.220   8.978  65.596  1.00  0.00    -0.288 A  
HETATM   15  C   UNL     1      -8.342  10.040  65.404  1.00  0.00    -0.154 A  
HETATM   16  C   UNL     1      -8.377  11.121  66.267  1.00  0.00    -0.163 A  
HETATM   17  C   UNL     1      -9.302  11.144  67.312  1.00  0.00    -0.170 A  
HETATM   18  C   UNL     1     -10.211  10.085  67.529  1.00  0.00    -0.260 A  
BRANCH  18  19
HETATM   19  C   UNL     1     -11.174  10.127  68.706  1.00  0.00    -0.217 C  
HETATM   20  C   UNL     1     -10.594   9.823  70.099  1.00  0.00    -0.337 C  
HETATM   21  C   UNL     1     -11.701  10.261  71.040  1.00  0.00    -0.461 C  
HETATM   22  C   UNL     1     -12.159  11.581  70.437  1.00  0.00    -0.471 C  
HETATM   23  C   UNL     1     -11.889  11.475  68.929  1.00  0.00    -0.406 C  
ENDBRANCH  18  19
ENDBRANCH  12  13
ENDBRANCH  11  12
ENDBRANCH   8  11
ENDBRANCH   7   8
ENDBRANCH   5   7
TORSDOF 6
ENDMDL
MODEL      162
REMARK 921   NORMALIZED FREE ENERGY PREDICTED BY IDOCK:   -3.91 KCAL/MOL
REMARK 922        TOTAL FREE ENERGY PREDICTED BY IDOCK:   -6.31 KCAL/MOL
REMARK 923 INTER-LIGAND FREE ENERGY PREDICTED BY IDOCK:   -5.32 KCAL/MOL
REMARK 924 INTRA-LIGAND FREE ENERGY PREDICTED BY IDOCK:   -0.99 KCAL/MOL
REMARK 927      BINDING AFFINITY PREDICTED BY RF-SCORE:    0.00 PKD
ROOT
HETATM    1  C   UNL     1      -6.191   9.713  70.804  1.00  0.00    -0.092 C  
HETATM    2  C   UNL     1      -7.072   9.614  69.546  1.00  0.00    -0.072 C  
HETATM    3  C   UNL     1      -6.193   9.113  68.383  1.00  0.00    -0.053 C  
HETATM    4  C   UNL     1      -7.614  11.005  69.174  1.00  0.00    -0.113 C  
HETATM    5  N   UNL     1      -8.171   8.642  69.693  1.00  0.00    -0.112 NA 
HETATM    6  H   UNL     1      -7.793   7.697  69.768  1.00  0.00     0.000 HD 
ENDROOT
BRANCH   5   7
HETATM    7  C   UNL     1      -9.098   8.898  70.795  1.00  0.00    -0.213 C  
BRANCH   7   8
HETATM    8  C   UNL     1     -10.578   8.630  70.455  1.00  0.00    -0.220 C  
HETATM    9  O   UNL     1     -10.639   8.354  69.041  1.00  0.00    -0.283 OA 
HETATM   10  H   UNL     1     -11.551   8.189  68.832  1.00  0.00     0.000 HD 
BRANCH   8  11
HETATM   11  C   UNL     1     -11.514   9.807  70.754  1.00  0.00    -0.342 C  
BRANCH  11  12
HETATM   12  O   UNL     1     -11.570  10.789  69.713  1.00  0.00    -0.263 OA 
BRANCH  12  13
HETATM   13  C   UNL     1     -11.937  12.057  70.117  1.00  0.00    -0.321 A  
HETATM   14  C   UNL     1     -12.528  12.317  71.368  1.00  0.00    -0.212 A  
HETATM   15  C   UNL     1     -12.946  13.597  71.719  1.00  0.00    -0.441 A  
HETATM   16  C   UNL     1     -12.768  14.642  70.829  1.00  0.00    -0.422 A  
HETATM   17  C   UNL     1     -12.159  14.407  69.595  1.00  0.00    -0.381 A  
HETATM   18  C   UNL     1     -11.718  13.121  69.213  1.00  0.00    -0.376 A  
BRANCH  18  19
HETATM   19  C   UNL     1     -11.100  12.896  67.841  1.00  0.00    -0.283 C  
HETATM   20  C   UNL     1     -12.058  12.554  66.686  1.00  0.00    -0.212 C  
HETATM   21  C   UNL     1     -11.189  12.719  65.453  1.00  0.00    -0.327 C  
HETATM   22  C   UNL     1     -10.426  14.002  65.743  1.00  0.00    -0.317 C  
HETATM   23  C   UNL     1     -10.303  14.087  67.271  1.00  0.00    -0.264 C  
ENDBRANCH  18  19
ENDBRANCH  12  13
ENDBRANCH  11  12
ENDBRANCH   8  11
ENDBRANCH   7   8
ENDBRANCH   5   7
TORSDOF 6
ENDMDL
MODEL      163
REMARK 921   NORMALIZED FREE ENERGY PREDICTED BY IDOCK:   -3.90 KCAL/MOL
REMARK 922        TOTAL FREE ENERGY PREDICTED BY IDOCK:   -6.30 KCAL/MOL
REMARK 923 INTER-LIGAND FREE ENERGY PREDICTED BY IDOCK:   -5.04 KCAL/MOL
REMARK 924 INTRA-LIGAND FREE ENERGY PREDICTED BY IDOCK:   -1.26 KCAL/MOL
REMARK 927      BINDING AFFINITY PREDICTED BY RF-SCORE:    0.00 PKD
ROOT
HETATM    1  C   UNL     1      -9.880  12.251  68.471  1.00  0.00    -0.157 C  
HETATM    2  C   UNL     1     -11.408  12.431  68.511  1.00  0.00    -0.293 C  
HETATM    3  C   UNL     1     -11.769  13.182  69.808  1.00  0.00    -0.350 C  
HETATM    4  C   UNL     1     -12.097  11.056  68.545  1.00  0.00    -0.066 C  
HETATM    5  N   UNL     1     -11.917  13.249  67.395  1.00  0.00    -0.358 NA 
HETATM    6  H   UNL     1     -11.583  14.209  67.485  1.00  0.00     0.000 HD 
ENDROOT
BRANCH   5   7
HETATM    7  C   UNL     1     -11.622  12.742  66.055  1.00  0.00    -0.383 C  
BRANCH   7   8
HETATM    8  C   UNL     1     -10.879  13.743  65.147  1.00  0.00    -0.345 C  
HETATM    9  O   UNL     1      -9.713  13.062  64.640  1.00  0.00    -0.559 OA 
HETATM   10  H   UNL     1      -9.256  13.679  64.081  1.00  0.00     0.000 HD 
BRANCH   8  11
HETATM   11  C   UNL     1     -10.417  15.017  65.863  1.00  0.00    -0.328 C  
BRANCH  11  12
HETATM   12  O   UNL     1      -9.316  14.818  66.758  1.00  0.00    -0.224 OA 
BRANCH  12  13
HETATM   13  C   UNL     1      -8.405  15.854  66.811  1.00  0.00    -0.271 A  
HETATM   14  C   UNL     1      -8.571  17.053  66.092  1.00  0.00    -0.252 A  
HETATM   15  C   UNL     1      -7.602  18.052  66.117  1.00  0.00    -0.285 A  
HETATM   16  C   UNL     1      -6.456  17.873  66.871  1.00  0.00    -0.207 A  
HETATM   17  C   UNL     1      -6.287  16.702  67.611  1.00  0.00    -0.175 A  
HETATM   18  C   UNL     1      -7.254  15.673  67.612  1.00  0.00    -0.197 A  
BRANCH  18  19
HETATM   19  C   UNL     1      -7.014  14.392  68.397  1.00  0.00    -0.109 C  
HETATM   20  C   UNL     1      -6.122  13.323  67.739  1.00  0.00    -0.154 C  
HETATM   21  C   UNL     1      -5.831  12.365  68.879  1.00  0.00    -0.066 C  
HETATM   22  C   UNL     1      -5.541  13.299  70.044  1.00  0.00    -0.117 C  
HETATM   23  C   UNL     1      -6.353  14.575  69.777  1.00  0.00    -0.148 C  
ENDBRANCH  18  19
ENDBRANCH  12  13
ENDBRANCH  11  12
ENDBRANCH   8  11
ENDBRANCH   7   8
ENDBRANCH   5   7
TORSDOF 6
ENDMDL
MODEL      164
REMARK 921   NORMALIZED FREE ENERGY PREDICTED BY IDOCK:   -3.90 KCAL/MOL
REMARK 922        TOTAL FREE ENERGY PREDICTED BY IDOCK:   -6.30 KCAL/MOL
REMARK 923 INTER-LIGAND FREE ENERGY PREDICTED BY IDOCK:   -5.21 KCAL/MOL
REMARK 924 INTRA-LIGAND FREE ENERGY PREDICTED BY IDOCK:   -1.09 KCAL/MOL
REMARK 927      BINDING AFFINITY PREDICTED BY RF-SCORE:    0.00 PKD
ROOT
HETATM    1  C   UNL     1      -8.234   4.018  66.816  1.00  0.00    -0.100 C  
HETATM    2  C   UNL     1      -9.262   5.114  66.488  1.00  0.00    -0.136 C  
HETATM    3  C   UNL     1     -10.396   4.477  65.662  1.00  0.00    -0.274 C  
HETATM    4  C   UNL     1      -8.604   6.212  65.634  1.00  0.00    -0.148 C  
HETATM    5  N   UNL     1      -9.890   5.688  67.692  1.00  0.00    -0.127 NA 
HETATM    6  H   UNL     1     -10.465   4.984  68.156  1.00  0.00     0.000 HD 
ENDROOT
BRANCH   5   7
HETATM    7  C   UNL     1      -8.971   6.295  68.655  1.00  0.00    -0.127 C  
BRANCH   7   8
HETATM    8  C   UNL     1      -9.237   5.902  70.122  1.00  0.00    -0.153 C  
HETATM    9  O   UNL     1     -10.302   4.929  70.108  1.00  0.00    -0.265 OA 
HETATM   10  H   UNL     1     -10.466   4.687  71.011  1.00  0.00     0.000 HD 
BRANCH   8  11
HETATM   11  C   UNL     1      -9.667   7.070  71.017  1.00  0.00    -0.173 C  
BRANCH  11  12
HETATM   12  O   UNL     1      -9.532   8.357  70.404  1.00  0.00    -0.164 OA 
BRANCH  12  13
HETATM   13  C   UNL     1     -10.588   9.223  70.610  1.00  0.00    -0.262 A  
HETATM   14  C   UNL     1     -11.355   9.222  71.790  1.00  0.00    -0.437 A  
HETATM   15  C   UNL     1     -12.453  10.063  71.940  1.00  0.00    -0.408 A  
HETATM   16  C   UNL     1     -12.796  10.928  70.917  1.00  0.00    -0.418 A  
HETATM   17  C   UNL     1     -12.030  10.961  69.750  1.00  0.00    -0.423 A  
HETATM   18  C   UNL     1     -10.906  10.125  69.570  1.00  0.00    -0.289 A  
BRANCH  18  19
HETATM   19  C   UNL     1     -10.124  10.158  68.266  1.00  0.00    -0.179 C  
HETATM   20  C   UNL     1     -10.574   9.195  67.152  1.00  0.00    -0.286 C  
HETATM   21  C   UNL     1      -9.828   9.703  65.932  1.00  0.00    -0.358 C  
HETATM   22  C   UNL     1      -9.983  11.212  66.041  1.00  0.00    -0.280 C  
HETATM   23  C   UNL     1     -10.102  11.519  67.541  1.00  0.00    -0.203 C  
ENDBRANCH  18  19
ENDBRANCH  12  13
ENDBRANCH  11  12
ENDBRANCH   8  11
ENDBRANCH   7   8
ENDBRANCH   5   7
TORSDOF 6
ENDMDL
MODEL      165
REMARK 921   NORMALIZED FREE ENERGY PREDICTED BY IDOCK:   -3.89 KCAL/MOL
REMARK 922        TOTAL FREE ENERGY PREDICTED BY IDOCK:   -6.29 KCAL/MOL
REMARK 923 INTER-LIGAND FREE ENERGY PREDICTED BY IDOCK:   -5.66 KCAL/MOL
REMARK 924 INTRA-LIGAND FREE ENERGY PREDICTED BY IDOCK:   -0.63 KCAL/MOL
REMARK 927      BINDING AFFINITY PREDICTED BY RF-SCORE:    0.00 PKD
ROOT
HETATM    1  C   UNL     1      -9.170   7.812  70.888  1.00  0.00    -0.155 C  
HETATM    2  C   UNL     1     -10.375   7.683  71.834  1.00  0.00    -0.199 C  
HETATM    3  C   UNL     1      -9.843   7.405  73.254  1.00  0.00    -0.322 C  
HETATM    4  C   UNL     1     -11.251   6.491  71.409  1.00  0.00    -0.331 C  
HETATM    5  N   UNL     1     -11.172   8.920  71.918  1.00  0.00    -0.361 NA 
HETATM    6  H   UNL     1     -10.626   9.658  72.363  1.00  0.00     0.000 HD 
ENDROOT
BRANCH   5   7
HETATM    7  C   UNL     1     -11.725   9.402  70.653  1.00  0.00    -0.240 C  
BRANCH   7   8
HETATM    8  C   UNL     1     -11.606  10.926  70.447  1.00  0.00    -0.323 C  
HETATM    9  O   UNL     1     -12.574  11.543  71.320  1.00  0.00    -0.383 OA 
HETATM   10  H   UNL     1     -12.501  12.481  71.193  1.00  0.00     0.000 HD 
BRANCH   8  11
HETATM   11  C   UNL     1     -11.889  11.390  69.014  1.00  0.00    -0.348 C  
BRANCH  11  12
HETATM   12  O   UNL     1     -10.808  11.165  68.102  1.00  0.00    -0.190 OA 
BRANCH  12  13
HETATM   13  C   UNL     1     -10.022  12.268  67.834  1.00  0.00    -0.202 A  
HETATM   14  C   UNL     1      -9.047  12.745  68.730  1.00  0.00     0.168 A  
HETATM   15  C   UNL     1      -8.317  13.898  68.460  1.00  0.00    -0.132 A  
HETATM   16  C   UNL     1      -8.541  14.587  67.281  1.00  0.00    -0.231 A  
HETATM   17  C   UNL     1      -9.485  14.114  66.368  1.00  0.00    -0.289 A  
HETATM   18  C   UNL     1     -10.237  12.943  66.611  1.00  0.00    -0.251 A  
BRANCH  18  19
HETATM   19  C   UNL     1     -11.290  12.484  65.613  1.00  0.00    -0.372 C  
HETATM   20  C   UNL     1     -12.061  13.578  64.852  1.00  0.00    -0.431 C  
HETATM   21  C   UNL     1     -12.759  12.805  63.748  1.00  0.00    -0.277 C  
HETATM   22  C   UNL     1     -11.678  11.853  63.261  1.00  0.00    -0.397 C  
HETATM   23  C   UNL     1     -10.771  11.586  64.472  1.00  0.00    -0.390 C  
ENDBRANCH  18  19
ENDBRANCH  12  13
ENDBRANCH  11  12
ENDBRANCH   8  11
ENDBRANCH   7   8
ENDBRANCH   5   7
TORSDOF 6
ENDMDL
MODEL      166
REMARK 921   NORMALIZED FREE ENERGY PREDICTED BY IDOCK:   -3.89 KCAL/MOL
REMARK 922        TOTAL FREE ENERGY PREDICTED BY IDOCK:   -6.28 KCAL/MOL
REMARK 923 INTER-LIGAND FREE ENERGY PREDICTED BY IDOCK:   -5.57 KCAL/MOL
REMARK 924 INTRA-LIGAND FREE ENERGY PREDICTED BY IDOCK:   -0.71 KCAL/MOL
REMARK 927      BINDING AFFINITY PREDICTED BY RF-SCORE:    0.00 PKD
ROOT
HETATM    1  C   UNL     1     -10.852  14.746  67.260  1.00  0.00    -0.309 C  
HETATM    2  C   UNL     1     -10.328  14.357  68.652  1.00  0.00    -0.245 C  
HETATM    3  C   UNL     1     -11.449  13.601  69.392  1.00  0.00    -0.343 C  
HETATM    4  C   UNL     1      -9.991  15.624  69.459  1.00  0.00    -0.285 C  
HETATM    5  N   UNL     1      -9.171  13.445  68.594  1.00  0.00    -0.381 NA 
HETATM    6  H   UNL     1      -9.456  12.544  68.210  1.00  0.00     0.000 HD 
ENDROOT
BRANCH   5   7
HETATM    7  C   UNL     1      -8.005  13.950  67.870  1.00  0.00    -0.160 C  
BRANCH   7   8
HETATM    8  C   UNL     1      -6.786  13.007  67.893  1.00  0.00    -0.129 C  
HETATM    9  O   UNL     1      -5.682  13.735  67.317  1.00  0.00    -0.326 OA 
HETATM   10  H   UNL     1      -4.931  13.154  67.331  1.00  0.00     0.000 HD 
BRANCH   8  11
HETATM   11  C   UNL     1      -6.977  11.714  67.093  1.00  0.00    -0.144 C  
BRANCH  11  12
HETATM   12  O   UNL     1      -8.333  11.459  66.708  1.00  0.00    -0.153 OA 
BRANCH  12  13
HETATM   13  C   UNL     1      -8.861  10.267  67.162  1.00  0.00    -0.136 A  
HETATM   14  C   UNL     1      -8.462   9.669  68.373  1.00  0.00    -0.118 A  
HETATM   15  C   UNL     1      -8.966   8.435  68.771  1.00  0.00    -0.140 A  
HETATM   16  C   UNL     1      -9.888   7.783  67.971  1.00  0.00    -0.192 A  
HETATM   17  C   UNL     1     -10.316   8.374  66.781  1.00  0.00    -0.357 A  
HETATM   18  C   UNL     1      -9.828   9.628  66.353  1.00  0.00    -0.309 A  
BRANCH  18  19
HETATM   19  C   UNL     1     -10.284  10.220  65.027  1.00  0.00    -0.277 C  
HETATM   20  C   UNL     1     -10.759  11.684  65.038  1.00  0.00    -0.351 C  
HETATM   21  C   UNL     1     -10.819  12.040  63.564  1.00  0.00    -0.509 C  
HETATM   22  C   UNL     1      -9.538  11.432  63.014  1.00  0.00    -0.397 C  
HETATM   23  C   UNL     1      -9.226  10.220  63.905  1.00  0.00    -0.312 C  
ENDBRANCH  18  19
ENDBRANCH  12  13
ENDBRANCH  11  12
ENDBRANCH   8  11
ENDBRANCH   7   8
ENDBRANCH   5   7
TORSDOF 6
ENDMDL
MODEL      167
REMARK 921   NORMALIZED FREE ENERGY PREDICTED BY IDOCK:   -3.89 KCAL/MOL
REMARK 922        TOTAL FREE ENERGY PREDICTED BY IDOCK:   -6.28 KCAL/MOL
REMARK 923 INTER-LIGAND FREE ENERGY PREDICTED BY IDOCK:   -5.28 KCAL/MOL
REMARK 924 INTRA-LIGAND FREE ENERGY PREDICTED BY IDOCK:   -1.00 KCAL/MOL
REMARK 927      BINDING AFFINITY PREDICTED BY RF-SCORE:    0.00 PKD
ROOT
HETATM    1  C   UNL     1     -13.227   9.457  72.318  1.00  0.00    -0.528 C  
HETATM    2  C   UNL     1     -12.183   8.675  71.502  1.00  0.00    -0.318 C  
HETATM    3  C   UNL     1     -12.662   7.215  71.385  1.00  0.00    -0.433 C  
HETATM    4  C   UNL     1     -10.831   8.679  72.239  1.00  0.00    -0.392 C  
HETATM    5  N   UNL     1     -12.035   9.182  70.126  1.00  0.00    -0.443 NA 
HETATM    6  H   UNL     1     -12.893   9.014  69.598  1.00  0.00     0.000 HD 
ENDROOT
BRANCH   5   7
HETATM    7  C   UNL     1     -11.644  10.586  70.009  1.00  0.00    -0.313 C  
BRANCH   7   8
HETATM    8  C   UNL     1     -11.035  10.964  68.643  1.00  0.00    -0.227 C  
HETATM    9  O   UNL     1     -11.974  11.848  67.997  1.00  0.00    -0.527 OA 
HETATM   10  H   UNL     1     -11.599  12.080  67.155  1.00  0.00     0.000 HD 
BRANCH   8  11
HETATM   11  C   UNL     1     -10.785   9.769  67.715  1.00  0.00    -0.272 C  
BRANCH  11  12
HETATM   12  O   UNL     1      -9.524   9.123  67.922  1.00  0.00    -0.139 OA 
BRANCH  12  13
HETATM   13  C   UNL     1      -9.595   7.809  68.340  1.00  0.00    -0.152 A  
HETATM   14  C   UNL     1     -10.632   6.940  67.950  1.00  0.00    -0.286 A  
HETATM   15  C   UNL     1     -10.711   5.641  68.441  1.00  0.00    -0.229 A  
HETATM   16  C   UNL     1      -9.747   5.184  69.322  1.00  0.00    -0.242 A  
HETATM   17  C   UNL     1      -8.698   6.023  69.700  1.00  0.00    -0.133 A  
HETATM   18  C   UNL     1      -8.586   7.344  69.214  1.00  0.00    -0.137 A  
BRANCH  18  19
HETATM   19  C   UNL     1      -7.452   8.244  69.683  1.00  0.00    -0.081 C  
HETATM   20  C   UNL     1      -6.506   8.801  68.605  1.00  0.00    -0.054 C  
HETATM   21  C   UNL     1      -5.732   9.878  69.344  1.00  0.00    -0.037 C  
HETATM   22  C   UNL     1      -6.813  10.578  70.154  1.00  0.00    -0.145 C  
HETATM   23  C   UNL     1      -7.887   9.518  70.436  1.00  0.00    -0.190 C  
ENDBRANCH  18  19
ENDBRANCH  12  13
ENDBRANCH  11  12
ENDBRANCH   8  11
ENDBRANCH   7   8
ENDBRANCH   5   7
TORSDOF 6
ENDMDL
MODEL      168
REMARK 921   NORMALIZED FREE ENERGY PREDICTED BY IDOCK:   -3.88 KCAL/MOL
REMARK 922        TOTAL FREE ENERGY PREDICTED BY IDOCK:   -6.27 KCAL/MOL
REMARK 923 INTER-LIGAND FREE ENERGY PREDICTED BY IDOCK:   -5.37 KCAL/MOL
REMARK 924 INTRA-LIGAND FREE ENERGY PREDICTED BY IDOCK:   -0.91 KCAL/MOL
REMARK 927      BINDING AFFINITY PREDICTED BY RF-SCORE:    0.00 PKD
ROOT
HETATM    1  C   UNL     1      -6.914  10.480  68.792  1.00  0.00    -0.070 C  
HETATM    2  C   UNL     1      -6.864  11.495  67.637  1.00  0.00    -0.083 C  
HETATM    3  C   UNL     1      -5.513  11.330  66.913  1.00  0.00    -0.098 C  
HETATM    4  C   UNL     1      -6.938  12.928  68.193  1.00  0.00    -0.102 C  
HETATM    5  N   UNL     1      -7.913  11.266  66.628  1.00  0.00    -0.158 NA 
HETATM    6  H   UNL     1      -7.748  10.381  66.147  1.00  0.00     0.000 HD 
ENDROOT
BRANCH   5   7
HETATM    7  C   UNL     1      -9.288  11.315  67.125  1.00  0.00    -0.163 C  
BRANCH   7   8
HETATM    8  C   UNL     1     -10.320  11.810  66.091  1.00  0.00    -0.230 C  
HETATM    9  O   UNL     1      -9.579  12.465  65.041  1.00  0.00    -0.456 OA 
HETATM   10  H   UNL     1     -10.215  12.770  64.405  1.00  0.00     0.000 HD 
BRANCH   8  11
HETATM   11  C   UNL     1     -11.341  12.807  66.651  1.00  0.00    -0.316 C  
BRANCH  11  12
HETATM   12  O   UNL     1     -10.922  13.457  67.857  1.00  0.00    -0.245 OA 
BRANCH  12  13
HETATM   13  C   UNL     1     -10.782  14.828  67.769  1.00  0.00    -0.268 A  
HETATM   14  C   UNL     1     -10.332  15.475  66.603  1.00  0.00    -0.287 A  
HETATM   15  C   UNL     1     -10.138  16.852  66.568  1.00  0.00    -0.320 A  
HETATM   16  C   UNL     1     -10.403  17.608  67.695  1.00  0.00    -0.368 A  
HETATM   17  C   UNL     1     -10.876  16.987  68.853  1.00  0.00    -0.228 A  
HETATM   18  C   UNL     1     -11.089  15.592  68.918  1.00  0.00    -0.290 A  
BRANCH  18  19
HETATM   19  C   UNL     1     -11.562  14.945  70.211  1.00  0.00    -0.332 C  
HETATM   20  C   UNL     1     -11.382  15.755  71.508  1.00  0.00    -0.424 C  
HETATM   21  C   UNL     1     -12.226  14.993  72.513  1.00  0.00    -0.443 C  
HETATM   22  C   UNL     1     -13.488  14.674  71.726  1.00  0.00    -0.459 C  
HETATM   23  C   UNL     1     -13.057  14.571  70.256  1.00  0.00    -0.027 C  
ENDBRANCH  18  19
ENDBRANCH  12  13
ENDBRANCH  11  12
ENDBRANCH   8  11
ENDBRANCH   7   8
ENDBRANCH   5   7
TORSDOF 6
ENDMDL
MODEL      169
REMARK 921   NORMALIZED FREE ENERGY PREDICTED BY IDOCK:   -3.87 KCAL/MOL
REMARK 922        TOTAL FREE ENERGY PREDICTED BY IDOCK:   -6.26 KCAL/MOL
REMARK 923 INTER-LIGAND FREE ENERGY PREDICTED BY IDOCK:   -5.40 KCAL/MOL
REMARK 924 INTRA-LIGAND FREE ENERGY PREDICTED BY IDOCK:   -0.87 KCAL/MOL
REMARK 927      BINDING AFFINITY PREDICTED BY RF-SCORE:    0.00 PKD
ROOT
HETATM    1  C   UNL     1      -9.142  10.347  62.515  1.00  0.00    -0.312 C  
HETATM    2  C   UNL     1      -8.238   9.980  63.704  1.00  0.00    -0.160 C  
HETATM    3  C   UNL     1      -6.779  10.277  63.307  1.00  0.00    -0.105 C  
HETATM    4  C   UNL     1      -8.356   8.477  64.010  1.00  0.00    -0.099 C  
HETATM    5  N   UNL     1      -8.520  10.787  64.906  1.00  0.00    -0.333 NA 
HETATM    6  H   UNL     1      -8.272  11.762  64.738  1.00  0.00     0.000 HD 
ENDROOT
BRANCH   5   7
HETATM    7  C   UNL     1      -9.887  10.700  65.418  1.00  0.00    -0.267 C  
BRANCH   7   8
HETATM    8  C   UNL     1      -9.996  10.111  66.839  1.00  0.00    -0.207 C  
HETATM    9  O   UNL     1     -10.602   8.808  66.707  1.00  0.00    -0.258 OA 
HETATM   10  H   UNL     1     -10.670   8.446  67.582  1.00  0.00     0.000 HD 
BRANCH   8  11
HETATM   11  C   UNL     1     -10.854  10.943  67.799  1.00  0.00    -0.259 C  
BRANCH  11  12
HETATM   12  O   UNL     1     -10.365  10.972  69.145  1.00  0.00    -0.214 OA 
BRANCH  12  13
HETATM   13  C   UNL     1     -11.170  10.352  70.080  1.00  0.00    -0.316 A  
HETATM   14  C   UNL     1     -12.517  10.708  70.281  1.00  0.00    -0.381 A  
HETATM   15  C   UNL     1     -13.284  10.109  71.275  1.00  0.00    -0.453 A  
HETATM   16  C   UNL     1     -12.720   9.133  72.078  1.00  0.00    -0.473 A  
HETATM   17  C   UNL     1     -11.393   8.748  71.875  1.00  0.00    -0.431 A  
HETATM   18  C   UNL     1     -10.592   9.333  70.870  1.00  0.00    -0.366 A  
BRANCH  18  19
HETATM   19  C   UNL     1      -9.136   8.920  70.708  1.00  0.00    -0.260 C  
HETATM   20  C   UNL     1      -8.437   8.317  71.940  1.00  0.00    -0.214 C  
HETATM   21  C   UNL     1      -7.161   7.732  71.363  1.00  0.00    -0.058 C  
HETATM   22  C   UNL     1      -7.640   7.061  70.085  1.00  0.00    -0.095 C  
HETATM   23  C   UNL     1      -8.866   7.861  69.620  1.00  0.00    -0.138 C  
ENDBRANCH  18  19
ENDBRANCH  12  13
ENDBRANCH  11  12
ENDBRANCH   8  11
ENDBRANCH   7   8
ENDBRANCH   5   7
TORSDOF 6
ENDMDL
MODEL      170
REMARK 921   NORMALIZED FREE ENERGY PREDICTED BY IDOCK:   -3.86 KCAL/MOL
REMARK 922        TOTAL FREE ENERGY PREDICTED BY IDOCK:   -6.24 KCAL/MOL
REMARK 923 INTER-LIGAND FREE ENERGY PREDICTED BY IDOCK:   -5.30 KCAL/MOL
REMARK 924 INTRA-LIGAND FREE ENERGY PREDICTED BY IDOCK:   -0.95 KCAL/MOL
REMARK 927      BINDING AFFINITY PREDICTED BY RF-SCORE:    0.00 PKD
ROOT
HETATM    1  C   UNL     1     -10.371  15.719  65.966  1.00  0.00    -0.356 C  
HETATM    2  C   UNL     1      -9.809  16.470  67.185  1.00  0.00    -0.255 C  
HETATM    3  C   UNL     1     -10.991  16.869  68.090  1.00  0.00    -0.290 C  
HETATM    4  C   UNL     1      -9.099  17.756  66.728  1.00  0.00    -0.273 C  
HETATM    5  N   UNL     1      -8.913  15.636  68.007  1.00  0.00    -0.177 NA 
HETATM    6  H   UNL     1      -9.442  14.880  68.443  1.00  0.00     0.000 HD 
ENDROOT
BRANCH   5   7
HETATM    7  C   UNL     1      -7.744  15.093  67.315  1.00  0.00    -0.210 C  
BRANCH   7   8
HETATM    8  C   UNL     1      -7.042  13.941  68.062  1.00  0.00    -0.144 C  
HETATM    9  O   UNL     1      -6.150  13.313  67.119  1.00  0.00    -0.446 OA 
HETATM   10  H   UNL     1      -5.718  12.603  67.579  1.00  0.00     0.000 HD 
BRANCH   8  11
HETATM   11  C   UNL     1      -7.996  12.872  68.605  1.00  0.00    -0.024 C  
BRANCH  11  12
HETATM   12  O   UNL     1      -9.227  12.764  67.880  1.00  0.00    -0.189 OA 
BRANCH  12  13
HETATM   13  C   UNL     1      -9.396  11.589  67.176  1.00  0.00    -0.172 A  
HETATM   14  C   UNL     1      -9.203  11.500  65.784  1.00  0.00    -0.210 A  
HETATM   15  C   UNL     1      -9.444  10.317  65.093  1.00  0.00    -0.309 A  
HETATM   16  C   UNL     1      -9.871   9.197  65.785  1.00  0.00    -0.248 A  
HETATM   17  C   UNL     1     -10.042   9.259  67.169  1.00  0.00    -0.299 A  
HETATM   18  C   UNL     1      -9.799  10.443  67.899  1.00  0.00    -0.176 A  
BRANCH  18  19
HETATM   19  C   UNL     1     -10.040  10.485  69.401  1.00  0.00    -0.233 C  
HETATM   20  C   UNL     1     -11.492  10.317  69.884  1.00  0.00    -0.340 C  
HETATM   21  C   UNL     1     -11.336  10.081  71.375  1.00  0.00    -0.251 C  
HETATM   22  C   UNL     1     -10.164   9.115  71.447  1.00  0.00    -0.402 C  
HETATM   23  C   UNL     1      -9.289   9.416  70.221  1.00  0.00    -0.294 C  
ENDBRANCH  18  19
ENDBRANCH  12  13
ENDBRANCH  11  12
ENDBRANCH   8  11
ENDBRANCH   7   8
ENDBRANCH   5   7
TORSDOF 6
ENDMDL
MODEL      171
REMARK 921   NORMALIZED FREE ENERGY PREDICTED BY IDOCK:   -3.82 KCAL/MOL
REMARK 922        TOTAL FREE ENERGY PREDICTED BY IDOCK:   -6.19 KCAL/MOL
REMARK 923 INTER-LIGAND FREE ENERGY PREDICTED BY IDOCK:   -5.39 KCAL/MOL
REMARK 924 INTRA-LIGAND FREE ENERGY PREDICTED BY IDOCK:   -0.80 KCAL/MOL
REMARK 927      BINDING AFFINITY PREDICTED BY RF-SCORE:    0.00 PKD
ROOT
HETATM    1  C   UNL     1     -10.449  10.627  65.620  1.00  0.00    -0.235 C  
HETATM    2  C   UNL     1      -9.130  10.314  64.893  1.00  0.00    -0.213 C  
HETATM    3  C   UNL     1      -9.353  10.527  63.383  1.00  0.00    -0.335 C  
HETATM    4  C   UNL     1      -8.743   8.841  65.117  1.00  0.00    -0.202 C  
HETATM    5  N   UNL     1      -8.031  11.214  65.288  1.00  0.00    -0.348 NA 
HETATM    6  H   UNL     1      -8.231  12.165  64.977  1.00  0.00     0.000 HD 
ENDROOT
BRANCH   5   7
HETATM    7  C   UNL     1      -7.697  11.215  66.712  1.00  0.00    -0.153 C  
BRANCH   7   8
HETATM    8  C   UNL     1      -7.545  12.620  67.328  1.00  0.00    -0.120 C  
HETATM    9  O   UNL     1      -6.542  12.519  68.359  1.00  0.00    -0.060 OA 
HETATM   10  H   UNL     1      -6.449  13.385  68.739  1.00  0.00     0.000 HD 
BRANCH   8  11
HETATM   11  C   UNL     1      -8.829  13.170  67.960  1.00  0.00    -0.191 C  
BRANCH  11  12
HETATM   12  O   UNL     1      -8.631  14.339  68.764  1.00  0.00    -0.167 OA 
BRANCH  12  13
HETATM   13  C   UNL     1      -9.099  15.517  68.217  1.00  0.00    -0.186 A  
HETATM   14  C   UNL     1      -8.481  16.147  67.120  1.00  0.00    -0.218 A  
HETATM   15  C   UNL     1      -8.938  17.367  66.634  1.00  0.00    -0.274 A  
HETATM   16  C   UNL     1     -10.031  17.974  67.229  1.00  0.00    -0.324 A  
HETATM   17  C   UNL     1     -10.673  17.350  68.301  1.00  0.00    -0.327 A  
HETATM   18  C   UNL     1     -10.236  16.109  68.813  1.00  0.00    -0.238 A  
BRANCH  18  19
HETATM   19  C   UNL     1     -10.934  15.482  70.011  1.00  0.00    -0.331 C  
HETATM   20  C   UNL     1     -11.296  16.416  71.180  1.00  0.00    -0.191 C  
HETATM   21  C   UNL     1     -12.236  15.572  72.021  1.00  0.00    -0.484 C  
HETATM   22  C   UNL     1     -13.130  14.917  70.979  1.00  0.00    -0.456 C  
HETATM   23  C   UNL     1     -12.279  14.792  69.707  1.00  0.00    -0.337 C  
ENDBRANCH  18  19
ENDBRANCH  12  13
ENDBRANCH  11  12
ENDBRANCH   8  11
ENDBRANCH   7   8
ENDBRANCH   5   7
TORSDOF 6
ENDMDL
MODEL      172
REMARK 921   NORMALIZED FREE ENERGY PREDICTED BY IDOCK:   -3.81 KCAL/MOL
REMARK 922        TOTAL FREE ENERGY PREDICTED BY IDOCK:   -6.18 KCAL/MOL
REMARK 923 INTER-LIGAND FREE ENERGY PREDICTED BY IDOCK:   -5.53 KCAL/MOL
REMARK 924 INTRA-LIGAND FREE ENERGY PREDICTED BY IDOCK:   -0.65 KCAL/MOL
REMARK 927      BINDING AFFINITY PREDICTED BY RF-SCORE:    0.00 PKD
ROOT
HETATM    1  C   UNL     1      -7.761   3.978  67.438  1.00  0.00    -0.080 C  
HETATM    2  C   UNL     1      -9.119   3.332  67.113  1.00  0.00    -0.176 C  
HETATM    3  C   UNL     1      -9.291   2.096  68.019  1.00  0.00    -0.244 C  
HETATM    4  C   UNL     1      -9.139   2.860  65.649  1.00  0.00    -0.140 C  
HETATM    5  N   UNL     1     -10.259   4.223  67.396  1.00  0.00    -0.053 NA 
HETATM    6  H   UNL     1     -10.332   4.388  68.400  1.00  0.00     0.000 HD 
ENDROOT
BRANCH   5   7
HETATM    7  C   UNL     1     -10.256   5.498  66.679  1.00  0.00    -0.235 C  
BRANCH   7   8
HETATM    8  C   UNL     1     -10.303   6.740  67.592  1.00  0.00    -0.203 C  
HETATM    9  O   UNL     1     -11.519   6.648  68.361  1.00  0.00    -0.571 OA 
HETATM   10  H   UNL     1     -11.548   7.413  68.923  1.00  0.00     0.000 HD 
BRANCH   8  11
HETATM   11  C   UNL     1     -10.313   8.074  66.836  1.00  0.00    -0.338 C  
BRANCH  11  12
HETATM   12  O   UNL     1     -10.688   9.198  67.640  1.00  0.00    -0.262 OA 
BRANCH  12  13
HETATM   13  C   UNL     1      -9.725  10.179  67.768  1.00  0.00    -0.153 A  
HETATM   14  C   UNL     1      -8.679  10.102  68.707  1.00  0.00    -0.138 A  
HETATM   15  C   UNL     1      -7.762  11.138  68.855  1.00  0.00    -0.137 A  
HETATM   16  C   UNL     1      -7.868  12.264  68.059  1.00  0.00    -0.147 A  
HETATM   17  C   UNL     1      -8.884  12.346  67.105  1.00  0.00    -0.197 A  
HETATM   18  C   UNL     1      -9.826  11.309  66.925  1.00  0.00    -0.220 A  
BRANCH  18  19
HETATM   19  C   UNL     1     -10.946  11.454  65.905  1.00  0.00    -0.268 C  
HETATM   20  C   UNL     1     -11.810  12.726  65.988  1.00  0.00    -0.495 C  
HETATM   21  C   UNL     1     -12.577  12.709  64.679  1.00  0.00    -0.517 C  
HETATM   22  C   UNL     1     -11.515  12.313  63.665  1.00  0.00    -0.572 C  
HETATM   23  C   UNL     1     -10.501  11.448  64.429  1.00  0.00    -0.388 C  
ENDBRANCH  18  19
ENDBRANCH  12  13
ENDBRANCH  11  12
ENDBRANCH   8  11
ENDBRANCH   7   8
ENDBRANCH   5   7
TORSDOF 6
ENDMDL
MODEL      173
REMARK 921   NORMALIZED FREE ENERGY PREDICTED BY IDOCK:   -3.81 KCAL/MOL
REMARK 922        TOTAL FREE ENERGY PREDICTED BY IDOCK:   -6.17 KCAL/MOL
REMARK 923 INTER-LIGAND FREE ENERGY PREDICTED BY IDOCK:   -5.51 KCAL/MOL
REMARK 924 INTRA-LIGAND FREE ENERGY PREDICTED BY IDOCK:   -0.67 KCAL/MOL
REMARK 927      BINDING AFFINITY PREDICTED BY RF-SCORE:    0.00 PKD
ROOT
HETATM    1  C   UNL     1     -10.339   5.679  68.970  1.00  0.00    -0.314 C  
HETATM    2  C   UNL     1     -10.349   6.460  70.296  1.00  0.00    -0.205 C  
HETATM    3  C   UNL     1      -9.893   5.506  71.417  1.00  0.00    -0.218 C  
HETATM    4  C   UNL     1     -11.779   6.929  70.617  1.00  0.00    -0.417 C  
HETATM    5  N   UNL     1      -9.408   7.595  70.299  1.00  0.00    -0.157 NA 
HETATM    6  H   UNL     1      -8.448   7.252  70.256  1.00  0.00     0.000 HD 
ENDROOT
BRANCH   5   7
HETATM    7  C   UNL     1      -9.627   8.598  69.258  1.00  0.00    -0.166 C  
BRANCH   7   8
HETATM    8  C   UNL     1      -9.296  10.042  69.688  1.00  0.00    -0.220 C  
HETATM    9  O   UNL     1     -10.533  10.782  69.657  1.00  0.00    -0.352 OA 
HETATM   10  H   UNL     1     -10.328  11.671  69.922  1.00  0.00     0.000 HD 
BRANCH   8  11
HETATM   11  C   UNL     1      -8.289  10.753  68.776  1.00  0.00    -0.147 C  
BRANCH  11  12
HETATM   12  O   UNL     1      -8.889  11.611  67.799  1.00  0.00    -0.149 OA 
BRANCH  12  13
HETATM   13  C   UNL     1      -8.506  12.936  67.862  1.00  0.00    -0.181 A  
HETATM   14  C   UNL     1      -7.501  13.398  68.734  1.00  0.00    -0.061 A  
HETATM   15  C   UNL     1      -7.182  14.749  68.820  1.00  0.00    -0.125 A  
HETATM   16  C   UNL     1      -7.855  15.662  68.027  1.00  0.00    -0.135 A  
HETATM   17  C   UNL     1      -8.835  15.218  67.137  1.00  0.00    -0.232 A  
HETATM   18  C   UNL     1      -9.177  13.853  67.022  1.00  0.00    -0.257 A  
BRANCH  18  19
HETATM   19  C   UNL     1     -10.282  13.413  66.073  1.00  0.00    -0.301 C  
HETATM   20  C   UNL     1     -11.696  13.266  66.664  1.00  0.00    -0.425 C  
HETATM   21  C   UNL     1     -12.576  13.147  65.432  1.00  0.00    -0.512 C  
HETATM   22  C   UNL     1     -12.009  14.211  64.504  1.00  0.00    -0.476 C  
HETATM   23  C   UNL     1     -10.520  14.337  64.862  1.00  0.00    -0.454 C  
ENDBRANCH  18  19
ENDBRANCH  12  13
ENDBRANCH  11  12
ENDBRANCH   8  11
ENDBRANCH   7   8
ENDBRANCH   5   7
TORSDOF 6
ENDMDL
MODEL      174
REMARK 921   NORMALIZED FREE ENERGY PREDICTED BY IDOCK:   -3.80 KCAL/MOL
REMARK 922        TOTAL FREE ENERGY PREDICTED BY IDOCK:   -6.17 KCAL/MOL
REMARK 923 INTER-LIGAND FREE ENERGY PREDICTED BY IDOCK:   -5.49 KCAL/MOL
REMARK 924 INTRA-LIGAND FREE ENERGY PREDICTED BY IDOCK:   -0.68 KCAL/MOL
REMARK 927      BINDING AFFINITY PREDICTED BY RF-SCORE:    0.00 PKD
ROOT
HETATM    1  C   UNL     1      -7.253   9.749  66.603  1.00  0.00    -0.090 C  
HETATM    2  C   UNL     1      -8.226  10.811  67.143  1.00  0.00    -0.123 C  
HETATM    3  C   UNL     1      -9.494  10.789  66.267  1.00  0.00    -0.213 C  
HETATM    4  C   UNL     1      -7.592  12.209  67.032  1.00  0.00    -0.093 C  
HETATM    5  N   UNL     1      -8.664  10.538  68.524  1.00  0.00    -0.133 NA 
HETATM    6  H   UNL     1      -9.232   9.691  68.549  1.00  0.00     0.000 HD 
ENDROOT
BRANCH   5   7
HETATM    7  C   UNL     1      -7.595  10.452  69.519  1.00  0.00    -0.156 C  
BRANCH   7   8
HETATM    8  C   UNL     1      -7.739   9.275  70.504  1.00  0.00    -0.148 C  
HETATM    9  O   UNL     1      -7.543   8.065  69.743  1.00  0.00    -0.087 OA 
HETATM   10  H   UNL     1      -7.632   7.341  70.350  1.00  0.00     0.000 HD 
BRANCH   8  11
HETATM   11  C   UNL     1      -9.107   9.193  71.190  1.00  0.00    -0.205 C  
BRANCH  11  12
HETATM   12  O   UNL     1     -10.172   8.782  70.324  1.00  0.00    -0.186 OA 
BRANCH  12  13
HETATM   13  C   UNL     1     -11.432   8.800  70.889  1.00  0.00    -0.284 A  
HETATM   14  C   UNL     1     -12.080   9.991  71.267  1.00  0.00    -0.487 A  
HETATM   15  C   UNL     1     -13.323   9.971  71.892  1.00  0.00    -0.516 A  
HETATM   16  C   UNL     1     -13.944   8.760  72.140  1.00  0.00    -0.522 A  
HETATM   17  C   UNL     1     -13.327   7.570  71.748  1.00  0.00    -0.370 A  
HETATM   18  C   UNL     1     -12.070   7.558  71.105  1.00  0.00    -0.335 A  
BRANCH  18  19
HETATM   19  C   UNL     1     -11.408   6.239  70.733  1.00  0.00    -0.397 C  
HETATM   20  C   UNL     1     -10.844   6.114  69.306  1.00  0.00    -0.418 C  
HETATM   21  C   UNL     1      -9.997   4.857  69.376  1.00  0.00    -0.282 C  
HETATM   22  C   UNL     1      -9.272   5.008  70.705  1.00  0.00    -0.192 C  
HETATM   23  C   UNL     1     -10.203   5.834  71.605  1.00  0.00    -0.253 C  
ENDBRANCH  18  19
ENDBRANCH  12  13
ENDBRANCH  11  12
ENDBRANCH   8  11
ENDBRANCH   7   8
ENDBRANCH   5   7
TORSDOF 6
ENDMDL
MODEL      175
REMARK 921   NORMALIZED FREE ENERGY PREDICTED BY IDOCK:   -3.78 KCAL/MOL
REMARK 922        TOTAL FREE ENERGY PREDICTED BY IDOCK:   -6.14 KCAL/MOL
REMARK 923 INTER-LIGAND FREE ENERGY PREDICTED BY IDOCK:   -5.47 KCAL/MOL
REMARK 924 INTRA-LIGAND FREE ENERGY PREDICTED BY IDOCK:   -0.67 KCAL/MOL
REMARK 927      BINDING AFFINITY PREDICTED BY RF-SCORE:    0.00 PKD
ROOT
HETATM    1  C   UNL     1      -9.563   2.850  64.757  1.00  0.00    -0.104 C  
HETATM    2  C   UNL     1      -8.789   4.180  64.739  1.00  0.00    -0.135 C  
HETATM    3  C   UNL     1      -8.371   4.471  63.285  1.00  0.00    -0.104 C  
HETATM    4  C   UNL     1      -7.513   4.055  65.590  1.00  0.00    -0.081 C  
HETATM    5  N   UNL     1      -9.607   5.324  65.180  1.00  0.00    -0.362 NA 
HETATM    6  H   UNL     1     -10.354   5.499  64.507  1.00  0.00     0.000 HD 
ENDROOT
BRANCH   5   7
HETATM    7  C   UNL     1     -10.164   5.220  66.529  1.00  0.00    -0.253 C  
BRANCH   7   8
HETATM    8  C   UNL     1      -9.541   6.192  67.550  1.00  0.00    -0.112 C  
HETATM    9  O   UNL     1      -9.520   5.509  68.820  1.00  0.00    -0.121 OA 
HETATM   10  H   UNL     1      -9.137   6.109  69.449  1.00  0.00     0.000 HD 
BRANCH   8  11
HETATM   11  C   UNL     1     -10.318   7.503  67.724  1.00  0.00    -0.216 C  
BRANCH  11  12
HETATM   12  O   UNL     1      -9.692   8.441  68.606  1.00  0.00    -0.158 OA 
BRANCH  12  13
HETATM   13  C   UNL     1     -10.529   9.406  69.132  1.00  0.00    -0.217 A  
HETATM   14  C   UNL     1     -10.833  10.602  68.455  1.00  0.00    -0.282 A  
HETATM   15  C   UNL     1     -11.628  11.583  69.040  1.00  0.00    -0.383 A  
HETATM   16  C   UNL     1     -12.143  11.379  70.308  1.00  0.00    -0.459 A  
HETATM   17  C   UNL     1     -11.873  10.187  70.983  1.00  0.00    -0.475 A  
HETATM   18  C   UNL     1     -11.076   9.170  70.413  1.00  0.00    -0.293 A  
BRANCH  18  19
HETATM   19  C   UNL     1     -10.767   7.903  71.198  1.00  0.00    -0.251 C  
HETATM   20  C   UNL     1     -10.590   8.047  72.721  1.00  0.00    -0.420 C  
HETATM   21  C   UNL     1     -10.625   6.611  73.211  1.00  0.00    -0.316 C  
HETATM   22  C   UNL     1     -11.770   6.006  72.413  1.00  0.00    -0.322 C  
HETATM   23  C   UNL     1     -11.822   6.784  71.089  1.00  0.00    -0.410 C  
ENDBRANCH  18  19
ENDBRANCH  12  13
ENDBRANCH  11  12
ENDBRANCH   8  11
ENDBRANCH   7   8
ENDBRANCH   5   7
TORSDOF 6
ENDMDL
MODEL      176
REMARK 921   NORMALIZED FREE ENERGY PREDICTED BY IDOCK:   -3.76 KCAL/MOL
REMARK 922        TOTAL FREE ENERGY PREDICTED BY IDOCK:   -6.11 KCAL/MOL
REMARK 923 INTER-LIGAND FREE ENERGY PREDICTED BY IDOCK:   -4.90 KCAL/MOL
REMARK 924 INTRA-LIGAND FREE ENERGY PREDICTED BY IDOCK:   -1.21 KCAL/MOL
REMARK 927      BINDING AFFINITY PREDICTED BY RF-SCORE:    0.00 PKD
ROOT
HETATM    1  C   UNL     1     -13.808   9.331  71.534  1.00  0.00    -0.330 C  
HETATM    2  C   UNL     1     -12.705  10.298  71.072  1.00  0.00    -0.396 C  
HETATM    3  C   UNL     1     -12.836  11.599  71.887  1.00  0.00    -0.354 C  
HETATM    4  C   UNL     1     -12.897  10.642  69.585  1.00  0.00     0.309 C  
HETATM    5  N   UNL     1     -11.348   9.778  71.322  1.00  0.00    -0.380 NA 
HETATM    6  H   UNL     1     -11.177   9.718  72.326  1.00  0.00     0.000 HD 
ENDROOT
BRANCH   5   7
HETATM    7  C   UNL     1     -11.033   8.500  70.684  1.00  0.00    -0.239 C  
BRANCH   7   8
HETATM    8  C   UNL     1      -9.789   8.534  69.775  1.00  0.00    -0.186 C  
HETATM    9  O   UNL     1      -8.885   7.522  70.263  1.00  0.00    -0.144 OA 
HETATM   10  H   UNL     1      -8.119   7.543  69.703  1.00  0.00     0.000 HD 
BRANCH   8  11
HETATM   11  C   UNL     1      -9.048   9.877  69.773  1.00  0.00    -0.225 C  
BRANCH  11  12
HETATM   12  O   UNL     1      -9.554  10.823  68.824  1.00  0.00    -0.175 OA 
BRANCH  12  13
HETATM   13  C   UNL     1      -8.671  11.818  68.455  1.00  0.00    -0.155 A  
HETATM   14  C   UNL     1      -7.324  11.831  68.863  1.00  0.00    -0.093 A  
HETATM   15  C   UNL     1      -6.477  12.882  68.528  1.00  0.00    -0.083 A  
HETATM   16  C   UNL     1      -6.958  13.932  67.767  1.00  0.00    -0.181 A  
HETATM   17  C   UNL     1      -8.285  13.922  67.330  1.00  0.00    -0.198 A  
HETATM   18  C   UNL     1      -9.168  12.867  67.649  1.00  0.00    -0.193 A  
BRANCH  18  19
HETATM   19  C   UNL     1     -10.619  12.913  67.193  1.00  0.00    -0.246 C  
HETATM   20  C   UNL     1     -11.229  14.303  66.935  1.00  0.00    -0.333 C  
HETATM   21  C   UNL     1     -12.521  13.984  66.205  1.00  0.00    -0.467 C  
HETATM   22  C   UNL     1     -12.099  12.903  65.221  1.00  0.00    -0.496 C  
HETATM   23  C   UNL     1     -10.923  12.165  65.879  1.00  0.00    -0.332 C  
ENDBRANCH  18  19
ENDBRANCH  12  13
ENDBRANCH  11  12
ENDBRANCH   8  11
ENDBRANCH   7   8
ENDBRANCH   5   7
TORSDOF 6
ENDMDL
MODEL      177
REMARK 921   NORMALIZED FREE ENERGY PREDICTED BY IDOCK:   -3.76 KCAL/MOL
REMARK 922        TOTAL FREE ENERGY PREDICTED BY IDOCK:   -6.10 KCAL/MOL
REMARK 923 INTER-LIGAND FREE ENERGY PREDICTED BY IDOCK:   -5.58 KCAL/MOL
REMARK 924 INTRA-LIGAND FREE ENERGY PREDICTED BY IDOCK:   -0.52 KCAL/MOL
REMARK 927      BINDING AFFINITY PREDICTED BY RF-SCORE:    0.00 PKD
ROOT
HETATM    1  C   UNL     1     -10.654   5.647  66.865  1.00  0.00    -0.367 C  
HETATM    2  C   UNL     1     -10.076   5.977  68.252  1.00  0.00    -0.164 C  
HETATM    3  C   UNL     1      -9.438   4.695  68.822  1.00  0.00    -0.214 C  
HETATM    4  C   UNL     1     -11.206   6.413  69.201  1.00  0.00    -0.421 C  
HETATM    5  N   UNL     1      -9.009   6.993  68.201  1.00  0.00    -0.128 NA 
HETATM    6  H   UNL     1      -8.196   6.620  67.710  1.00  0.00     0.000 HD 
ENDROOT
BRANCH   5   7
HETATM    7  C   UNL     1      -9.391   8.282  67.625  1.00  0.00    -0.137 C  
BRANCH   7   8
HETATM    8  C   UNL     1      -8.250   9.318  67.575  1.00  0.00    -0.114 C  
HETATM    9  O   UNL     1      -7.538   9.218  68.825  1.00  0.00    -0.078 OA 
HETATM   10  H   UNL     1      -6.836   9.857  68.793  1.00  0.00     0.000 HD 
BRANCH   8  11
HETATM   11  C   UNL     1      -8.724  10.766  67.407  1.00  0.00    -0.126 C  
BRANCH  11  12
HETATM   12  O   UNL     1      -9.717  11.170  68.357  1.00  0.00    -0.177 OA 
BRANCH  12  13
HETATM   13  C   UNL     1     -10.407  12.322  68.037  1.00  0.00    -0.214 A  
HETATM   14  C   UNL     1     -10.131  13.079  66.883  1.00  0.00    -0.243 A  
HETATM   15  C   UNL     1     -10.799  14.271  66.622  1.00  0.00    -0.301 A  
HETATM   16  C   UNL     1     -11.765  14.721  67.505  1.00  0.00    -0.370 A  
HETATM   17  C   UNL     1     -12.070  13.969  68.641  1.00  0.00    -0.332 A  
HETATM   18  C   UNL     1     -11.414  12.752  68.930  1.00  0.00    -0.352 A  
BRANCH  18  19
HETATM   19  C   UNL     1     -11.743  11.984  70.202  1.00  0.00    -0.316 C  
HETATM   20  C   UNL     1     -12.853  12.556  71.101  1.00  0.00    -0.303 C  
HETATM   21  C   UNL     1     -13.142  11.418  72.063  1.00  0.00    -0.423 C  
HETATM   22  C   UNL     1     -13.151  10.198  71.154  1.00  0.00    -0.480 C  
HETATM   23  C   UNL     1     -12.200  10.526  69.994  1.00  0.00    -0.323 C  
ENDBRANCH  18  19
ENDBRANCH  12  13
ENDBRANCH  11  12
ENDBRANCH   8  11
ENDBRANCH   7   8
ENDBRANCH   5   7
TORSDOF 6
ENDMDL
MODEL      178
REMARK 921   NORMALIZED FREE ENERGY PREDICTED BY IDOCK:   -3.74 KCAL/MOL
REMARK 922        TOTAL FREE ENERGY PREDICTED BY IDOCK:   -6.09 KCAL/MOL
REMARK 923 INTER-LIGAND FREE ENERGY PREDICTED BY IDOCK:   -5.32 KCAL/MOL
REMARK 924 INTRA-LIGAND FREE ENERGY PREDICTED BY IDOCK:   -0.76 KCAL/MOL
REMARK 927      BINDING AFFINITY PREDICTED BY RF-SCORE:    0.00 PKD
ROOT
HETATM    1  C   UNL     1      -9.407   5.824  66.369  1.00  0.00    -0.168 C  
HETATM    2  C   UNL     1      -9.468   5.592  67.888  1.00  0.00    -0.113 C  
HETATM    3  C   UNL     1      -9.578   4.075  68.138  1.00  0.00    -0.189 C  
HETATM    4  C   UNL     1     -10.722   6.266  68.473  1.00  0.00    -0.354 C  
HETATM    5  N   UNL     1      -8.251   6.046  68.585  1.00  0.00    -0.106 NA 
HETATM    6  H   UNL     1      -7.455   5.470  68.309  1.00  0.00     0.000 HD 
ENDROOT
BRANCH   5   7
HETATM    7  C   UNL     1      -7.922   7.462  68.423  1.00  0.00    -0.124 C  
BRANCH   7   8
HETATM    8  C   UNL     1      -7.721   8.223  69.749  1.00  0.00    -0.098 C  
HETATM    9  O   UNL     1      -7.548   7.229  70.780  1.00  0.00    -0.082 OA 
HETATM   10  H   UNL     1      -7.425   7.698  71.596  1.00  0.00     0.000 HD 
BRANCH   8  11
HETATM   11  C   UNL     1      -8.899   9.122  70.142  1.00  0.00    -0.197 C  
BRANCH  11  12
HETATM   12  O   UNL     1      -9.471   8.812  71.419  1.00  0.00    -0.210 OA 
BRANCH  12  13
HETATM   13  C   UNL     1     -10.815   9.100  71.549  1.00  0.00    -0.366 A  
HETATM   14  C   UNL     1     -11.417  10.219  70.943  1.00  0.00    -0.425 A  
HETATM   15  C   UNL     1     -12.760  10.517  71.147  1.00  0.00    -0.518 A  
HETATM   16  C   UNL     1     -13.528   9.694  71.952  1.00  0.00    -0.496 A  
HETATM   17  C   UNL     1     -12.955   8.565  72.539  1.00  0.00    -0.300 A  
HETATM   18  C   UNL     1     -11.596   8.232  72.346  1.00  0.00    -0.464 A  
BRANCH  18  19
HETATM   19  C   UNL     1     -10.995   7.018  73.039  1.00  0.00    -0.327 C  
HETATM   20  C   UNL     1     -10.399   5.920  72.140  1.00  0.00    -0.241 C  
HETATM   21  C   UNL     1      -9.622   5.056  73.116  1.00  0.00    -0.156 C  
HETATM   22  C   UNL     1      -8.927   6.081  73.999  1.00  0.00    -0.127 C  
HETATM   23  C   UNL     1      -9.837   7.318  74.012  1.00  0.00    -0.264 C  
ENDBRANCH  18  19
ENDBRANCH  12  13
ENDBRANCH  11  12
ENDBRANCH   8  11
ENDBRANCH   7   8
ENDBRANCH   5   7
TORSDOF 6
ENDMDL
MODEL      179
REMARK 921   NORMALIZED FREE ENERGY PREDICTED BY IDOCK:   -3.74 KCAL/MOL
REMARK 922        TOTAL FREE ENERGY PREDICTED BY IDOCK:   -6.09 KCAL/MOL
REMARK 923 INTER-LIGAND FREE ENERGY PREDICTED BY IDOCK:   -5.58 KCAL/MOL
REMARK 924 INTRA-LIGAND FREE ENERGY PREDICTED BY IDOCK:   -0.51 KCAL/MOL
REMARK 927      BINDING AFFINITY PREDICTED BY RF-SCORE:    0.00 PKD
ROOT
HETATM    1  C   UNL     1      -6.505   9.834  68.011  1.00  0.00    -0.056 C  
HETATM    2  C   UNL     1      -7.156  10.800  67.006  1.00  0.00    -0.104 C  
HETATM    3  C   UNL     1      -6.359  10.730  65.689  1.00  0.00    -0.059 C  
HETATM    4  C   UNL     1      -7.078  12.242  67.538  1.00  0.00    -0.142 C  
HETATM    5  N   UNL     1      -8.546  10.433  66.678  1.00  0.00    -0.124 NA 
HETATM    6  H   UNL     1      -8.563   9.548  66.171  1.00  0.00     0.000 HD 
ENDROOT
BRANCH   5   7
HETATM    7  C   UNL     1      -9.468  10.376  67.812  1.00  0.00    -0.145 C  
BRANCH   7   8
HETATM    8  C   UNL     1     -10.950  10.570  67.436  1.00  0.00    -0.288 C  
HETATM    9  O   UNL     1     -10.976  11.094  66.092  1.00  0.00    -0.236 OA 
HETATM   10  H   UNL     1     -11.889  11.214  65.861  1.00  0.00     0.000 HD 
BRANCH   8  11
HETATM   11  C   UNL     1     -11.707  11.546  68.345  1.00  0.00    -0.303 C  
BRANCH  11  12
HETATM   12  O   UNL     1     -10.973  12.733  68.667  1.00  0.00    -0.242 OA 
BRANCH  12  13
HETATM   13  C   UNL     1     -11.598  13.591  69.550  1.00  0.00    -0.294 A  
HETATM   14  C   UNL     1     -12.227  13.147  70.728  1.00  0.00    -0.375 A  
HETATM   15  C   UNL     1     -12.904  14.029  71.564  1.00  0.00    -0.440 A  
HETATM   16  C   UNL     1     -12.953  15.374  71.242  1.00  0.00    -0.541 A  
HETATM   17  C   UNL     1     -12.311  15.836  70.092  1.00  0.00    -0.309 A  
HETATM   18  C   UNL     1     -11.611  14.967  69.227  1.00  0.00    -0.338 A  
BRANCH  18  19
HETATM   19  C   UNL     1     -10.963  15.501  67.958  1.00  0.00    -0.311 C  
HETATM   20  C   UNL     1      -9.428  15.418  67.865  1.00  0.00    -0.197 C  
HETATM   21  C   UNL     1      -9.153  15.713  66.402  1.00  0.00    -0.355 C  
HETATM   22  C   UNL     1     -10.222  14.903  65.684  1.00  0.00    -0.382 C  
HETATM   23  C   UNL     1     -11.414  14.823  66.649  1.00  0.00    -0.339 C  
ENDBRANCH  18  19
ENDBRANCH  12  13
ENDBRANCH  11  12
ENDBRANCH   8  11
ENDBRANCH   7   8
ENDBRANCH   5   7
TORSDOF 6
ENDMDL
MODEL      180
REMARK 921   NORMALIZED FREE ENERGY PREDICTED BY IDOCK:   -3.72 KCAL/MOL
REMARK 922        TOTAL FREE ENERGY PREDICTED BY IDOCK:   -6.06 KCAL/MOL
REMARK 923 INTER-LIGAND FREE ENERGY PREDICTED BY IDOCK:   -5.46 KCAL/MOL
REMARK 924 INTRA-LIGAND FREE ENERGY PREDICTED BY IDOCK:   -0.60 KCAL/MOL
REMARK 927      BINDING AFFINITY PREDICTED BY RF-SCORE:    0.00 PKD
ROOT
HETATM    1  C   UNL     1      -8.498   4.918  64.855  1.00  0.00    -0.144 C  
HETATM    2  C   UNL     1      -9.561   3.948  65.399  1.00  0.00    -0.185 C  
HETATM    3  C   UNL     1      -8.937   2.540  65.461  1.00  0.00    -0.133 C  
HETATM    4  C   UNL     1     -10.765   3.897  64.442  1.00  0.00    -0.200 C  
HETATM    5  N   UNL     1      -9.990   4.280  66.770  1.00  0.00    -0.268 NA 
HETATM    6  H   UNL     1      -9.216   4.142  67.421  1.00  0.00     0.000 HD 
ENDROOT
BRANCH   5   7
HETATM    7  C   UNL     1     -10.560   5.615  66.947  1.00  0.00    -0.296 C  
BRANCH   7   8
HETATM    8  C   UNL     1      -9.634   6.608  67.679  1.00  0.00    -0.124 C  
HETATM    9  O   UNL     1      -8.594   5.829  68.304  1.00  0.00    -0.112 OA 
HETATM   10  H   UNL     1      -8.025   6.440  68.755  1.00  0.00     0.000 HD 
BRANCH   8  11
HETATM   11  C   UNL     1     -10.333   7.434  68.765  1.00  0.00    -0.199 C  
BRANCH  11  12
HETATM   12  O   UNL     1     -10.429   8.831  68.466  1.00  0.00    -0.206 OA 
BRANCH  12  13
HETATM   13  C   UNL     1     -11.094   9.592  69.407  1.00  0.00    -0.110 A  
HETATM   14  C   UNL     1     -11.510   9.075  70.649  1.00  0.00    -0.291 A  
HETATM   15  C   UNL     1     -12.236   9.849  71.549  1.00  0.00    -0.505 A  
HETATM   16  C   UNL     1     -12.547  11.158  71.228  1.00  0.00    -0.503 A  
HETATM   17  C   UNL     1     -12.119  11.696  70.013  1.00  0.00    -0.395 A  
HETATM   18  C   UNL     1     -11.376  10.938  69.081  1.00  0.00    -0.350 A  
BRANCH  18  19
HETATM   19  C   UNL     1     -10.966  11.545  67.747  1.00  0.00    -0.291 C  
HETATM   20  C   UNL     1     -11.849  12.676  67.190  1.00  0.00    -0.399 C  
HETATM   21  C   UNL     1     -11.005  13.253  66.068  1.00  0.00    -0.292 C  
HETATM   22  C   UNL     1      -9.615  13.311  66.682  1.00  0.00    -0.262 C  
HETATM   23  C   UNL     1      -9.558  12.172  67.711  1.00  0.00    -0.195 C  
ENDBRANCH  18  19
ENDBRANCH  12  13
ENDBRANCH  11  12
ENDBRANCH   8  11
ENDBRANCH   7   8
ENDBRANCH   5   7
TORSDOF 6
ENDMDL
MODEL      181
REMARK 921   NORMALIZED FREE ENERGY PREDICTED BY IDOCK:   -3.72 KCAL/MOL
REMARK 922        TOTAL FREE ENERGY PREDICTED BY IDOCK:   -6.05 KCAL/MOL
REMARK 923 INTER-LIGAND FREE ENERGY PREDICTED BY IDOCK:   -4.79 KCAL/MOL
REMARK 924 INTRA-LIGAND FREE ENERGY PREDICTED BY IDOCK:   -1.26 KCAL/MOL
REMARK 927      BINDING AFFINITY PREDICTED BY RF-SCORE:    0.00 PKD
ROOT
HETATM    1  C   UNL     1      -6.788  10.919  68.682  1.00  0.00    -0.062 C  
HETATM    2  C   UNL     1      -7.645   9.846  67.989  1.00  0.00    -0.085 C  
HETATM    3  C   UNL     1      -6.718   8.686  67.575  1.00  0.00    -0.066 C  
HETATM    4  C   UNL     1      -8.286  10.426  66.716  1.00  0.00    -0.126 C  
HETATM    5  N   UNL     1      -8.669   9.270  68.880  1.00  0.00    -0.130 NA 
HETATM    6  H   UNL     1      -8.222   8.740  69.629  1.00  0.00     0.000 HD 
ENDROOT
BRANCH   5   7
HETATM    7  C   UNL     1      -9.625  10.223  69.443  1.00  0.00    -0.218 C  
BRANCH   7   8
HETATM    8  C   UNL     1     -11.097   9.928  69.092  1.00  0.00    -0.159 C  
HETATM    9  O   UNL     1     -11.135   8.605  68.520  1.00  0.00    -0.434 OA 
HETATM   10  H   UNL     1     -12.041   8.424  68.304  1.00  0.00     0.000 HD 
BRANCH   8  11
HETATM   11  C   UNL     1     -11.708  10.905  68.080  1.00  0.00    -0.154 C  
BRANCH  11  12
HETATM   12  O   UNL     1     -11.117  12.209  68.096  1.00  0.00    -0.217 OA 
BRANCH  12  13
HETATM   13  C   UNL     1     -11.290  12.950  66.943  1.00  0.00    -0.312 A  
HETATM   14  C   UNL     1     -12.220  12.600  65.946  1.00  0.00    -0.375 A  
HETATM   15  C   UNL     1     -12.324  13.330  64.766  1.00  0.00    -0.454 A  
HETATM   16  C   UNL     1     -11.509  14.430  64.569  1.00  0.00    -0.352 A  
HETATM   17  C   UNL     1     -10.600  14.807  65.559  1.00  0.00    -0.374 A  
HETATM   18  C   UNL     1     -10.475  14.091  66.770  1.00  0.00    -0.277 A  
BRANCH  18  19
HETATM   19  C   UNL     1      -9.441  14.506  67.806  1.00  0.00    -0.210 C  
HETATM   20  C   UNL     1      -7.991  14.681  67.320  1.00  0.00    -0.223 C  
HETATM   21  C   UNL     1      -7.319  15.391  68.481  1.00  0.00    -0.116 C  
HETATM   22  C   UNL     1      -8.349  16.436  68.883  1.00  0.00    -0.234 C  
HETATM   23  C   UNL     1      -9.719  15.845  68.518  1.00  0.00    -0.211 C  
ENDBRANCH  18  19
ENDBRANCH  12  13
ENDBRANCH  11  12
ENDBRANCH   8  11
ENDBRANCH   7   8
ENDBRANCH   5   7
TORSDOF 6
ENDMDL
MODEL      182
REMARK 921   NORMALIZED FREE ENERGY PREDICTED BY IDOCK:   -3.71 KCAL/MOL
REMARK 922        TOTAL FREE ENERGY PREDICTED BY IDOCK:   -6.04 KCAL/MOL
REMARK 923 INTER-LIGAND FREE ENERGY PREDICTED BY IDOCK:   -5.36 KCAL/MOL
REMARK 924 INTRA-LIGAND FREE ENERGY PREDICTED BY IDOCK:   -0.68 KCAL/MOL
REMARK 927      BINDING AFFINITY PREDICTED BY RF-SCORE:    0.00 PKD
ROOT
HETATM    1  C   UNL     1     -10.559   3.605  63.781  1.00  0.00    -0.284 C  
HETATM    2  C   UNL     1      -9.322   4.267  64.413  1.00  0.00    -0.157 C  
HETATM    3  C   UNL     1      -8.523   4.959  63.290  1.00  0.00    -0.117 C  
HETATM    4  C   UNL     1      -8.421   3.195  65.051  1.00  0.00    -0.096 C  
HETATM    5  N   UNL     1      -9.669   5.315  65.390  1.00  0.00    -0.364 NA 
HETATM    6  H   UNL     1     -10.117   6.099  64.916  1.00  0.00     0.000 HD 
ENDROOT
BRANCH   5   7
HETATM    7  C   UNL     1     -10.491   4.878  66.518  1.00  0.00    -0.252 C  
BRANCH   7   8
HETATM    8  C   UNL     1      -9.814   5.032  67.895  1.00  0.00    -0.151 C  
HETATM    9  O   UNL     1      -9.531   3.702  68.374  1.00  0.00    -0.172 OA 
HETATM   10  H   UNL     1      -9.115   3.797  69.222  1.00  0.00     0.000 HD 
BRANCH   8  11
HETATM   11  C   UNL     1     -10.678   5.745  68.942  1.00  0.00    -0.263 C  
BRANCH  11  12
HETATM   12  O   UNL     1     -10.165   7.017  69.355  1.00  0.00    -0.178 OA 
BRANCH  12  13
HETATM   13  C   UNL     1      -9.698   7.072  70.652  1.00  0.00    -0.172 A  
HETATM   14  C   UNL     1      -8.406   6.647  71.016  1.00  0.00    -0.125 A  
HETATM   15  C   UNL     1      -7.988   6.655  72.343  1.00  0.00    -0.099 A  
HETATM   16  C   UNL     1      -8.850   7.100  73.328  1.00  0.00    -0.168 A  
HETATM   17  C   UNL     1     -10.126   7.551  72.983  1.00  0.00    -0.342 A  
HETATM   18  C   UNL     1     -10.577   7.561  71.645  1.00  0.00    -0.232 A  
BRANCH  18  19
HETATM   19  C   UNL     1     -11.990   8.017  71.313  1.00  0.00    -0.321 C  
HETATM   20  C   UNL     1     -13.134   7.031  71.609  1.00  0.00    -0.384 C  
HETATM   21  C   UNL     1     -14.377   7.892  71.480  1.00  0.00    -0.563 C  
HETATM   22  C   UNL     1     -13.981   9.173  72.197  1.00  0.00    -0.466 C  
HETATM   23  C   UNL     1     -12.459   9.298  72.034  1.00  0.00    -0.451 C  
ENDBRANCH  18  19
ENDBRANCH  12  13
ENDBRANCH  11  12
ENDBRANCH   8  11
ENDBRANCH   7   8
ENDBRANCH   5   7
TORSDOF 6
ENDMDL
MODEL      183
REMARK 921   NORMALIZED FREE ENERGY PREDICTED BY IDOCK:   -3.71 KCAL/MOL
REMARK 922        TOTAL FREE ENERGY PREDICTED BY IDOCK:   -6.04 KCAL/MOL
REMARK 923 INTER-LIGAND FREE ENERGY PREDICTED BY IDOCK:   -5.14 KCAL/MOL
REMARK 924 INTRA-LIGAND FREE ENERGY PREDICTED BY IDOCK:   -0.90 KCAL/MOL
REMARK 927      BINDING AFFINITY PREDICTED BY RF-SCORE:    0.00 PKD
ROOT
HETATM    1  C   UNL     1     -10.153  11.673  68.685  1.00  0.00    -0.206 C  
HETATM    2  C   UNL     1     -10.386  12.212  67.264  1.00  0.00    -0.212 C  
HETATM    3  C   UNL     1      -9.838  13.651  67.201  1.00  0.00    -0.242 C  
HETATM    4  C   UNL     1     -11.894  12.259  66.960  1.00  0.00    -0.329 C  
HETATM    5  N   UNL     1      -9.664  11.441  66.234  1.00  0.00    -0.205 NA 
HETATM    6  H   UNL     1      -8.658  11.562  66.350  1.00  0.00     0.000 HD 
ENDROOT
BRANCH   5   7
HETATM    7  C   UNL     1      -9.992  10.018  66.167  1.00  0.00    -0.256 C  
BRANCH   7   8
HETATM    8  C   UNL     1      -8.826   9.119  65.707  1.00  0.00    -0.175 C  
HETATM    9  O   UNL     1      -9.096   8.751  64.339  1.00  0.00    -0.416 OA 
HETATM   10  H   UNL     1      -8.378   8.197  64.056  1.00  0.00     0.000 HD 
BRANCH   8  11
HETATM   11  C   UNL     1      -8.665   7.833  66.526  1.00  0.00    -0.148 C  
BRANCH  11  12
HETATM   12  O   UNL     1      -9.646   7.668  67.556  1.00  0.00    -0.136 OA 
BRANCH  12  13
HETATM   13  C   UNL     1      -9.559   6.491  68.272  1.00  0.00    -0.131 A  
HETATM   14  C   UNL     1      -8.806   5.386  67.832  1.00  0.00    -0.105 A  
HETATM   15  C   UNL     1      -8.790   4.191  68.544  1.00  0.00    -0.139 A  
HETATM   16  C   UNL     1      -9.518   4.084  69.716  1.00  0.00    -0.265 A  
HETATM   17  C   UNL     1     -10.249   5.179  70.181  1.00  0.00    -0.348 A  
HETATM   18  C   UNL     1     -10.279   6.407  69.484  1.00  0.00    -0.228 A  
BRANCH  18  19
HETATM   19  C   UNL     1     -11.124   7.563  69.999  1.00  0.00    -0.219 C  
HETATM   20  C   UNL     1     -12.262   7.220  70.978  1.00  0.00    -0.350 C  
HETATM   21  C   UNL     1     -12.667   8.576  71.528  1.00  0.00    -0.340 C  
HETATM   22  C   UNL     1     -11.329   9.253  71.783  1.00  0.00    -0.437 C  
HETATM   23  C   UNL     1     -10.351   8.660  70.759  1.00  0.00    -0.249 C  
ENDBRANCH  18  19
ENDBRANCH  12  13
ENDBRANCH  11  12
ENDBRANCH   8  11
ENDBRANCH   7   8
ENDBRANCH   5   7
TORSDOF 6
ENDMDL
MODEL      184
REMARK 921   NORMALIZED FREE ENERGY PREDICTED BY IDOCK:   -3.69 KCAL/MOL
REMARK 922        TOTAL FREE ENERGY PREDICTED BY IDOCK:   -6.02 KCAL/MOL
REMARK 923 INTER-LIGAND FREE ENERGY PREDICTED BY IDOCK:   -5.75 KCAL/MOL
REMARK 924 INTRA-LIGAND FREE ENERGY PREDICTED BY IDOCK:   -0.27 KCAL/MOL
REMARK 927      BINDING AFFINITY PREDICTED BY RF-SCORE:    0.00 PKD
ROOT
HETATM    1  C   UNL     1     -12.894  15.544  70.678  1.00  0.00    -0.466 C  
HETATM    2  C   UNL     1     -11.757  14.847  69.911  1.00  0.00    -0.305 C  
HETATM    3  C   UNL     1     -10.487  15.709  70.049  1.00  0.00    -0.333 C  
HETATM    4  C   UNL     1     -12.112  14.751  68.417  1.00  0.00    -0.202 C  
HETATM    5  N   UNL     1     -11.426  13.520  70.461  1.00  0.00    -0.472 NA 
HETATM    6  H   UNL     1     -11.029  13.618  71.396  1.00  0.00     0.000 HD 
ENDROOT
BRANCH   5   7
HETATM    7  C   UNL     1     -12.525  12.554  70.485  1.00  0.00    -0.185 C  
BRANCH   7   8
HETATM    8  C   UNL     1     -12.283  11.296  69.626  1.00  0.00    -0.271 C  
HETATM    9  O   UNL     1     -13.165  10.272  70.128  1.00  0.00    -0.526 OA 
HETATM   10  H   UNL     1     -13.016   9.497  69.600  1.00  0.00     0.000 HD 
BRANCH   8  11
HETATM   11  C   UNL     1     -10.847  10.763  69.685  1.00  0.00    -0.241 C  
BRANCH  11  12
HETATM   12  O   UNL     1     -10.739   9.426  70.187  1.00  0.00    -0.215 OA 
BRANCH  12  13
HETATM   13  C   UNL     1     -10.243   8.498  69.292  1.00  0.00    -0.208 A  
HETATM   14  C   UNL     1     -10.358   8.648  67.897  1.00  0.00    -0.286 A  
HETATM   15  C   UNL     1      -9.906   7.664  67.024  1.00  0.00    -0.282 A  
HETATM   16  C   UNL     1      -9.319   6.518  67.531  1.00  0.00    -0.124 A  
HETATM   17  C   UNL     1      -9.173   6.365  68.911  1.00  0.00    -0.128 A  
HETATM   18  C   UNL     1      -9.616   7.349  69.822  1.00  0.00    -0.163 A  
BRANCH  18  19
HETATM   19  C   UNL     1      -9.479   7.126  71.321  1.00  0.00    -0.163 C  
HETATM   20  C   UNL     1      -8.739   8.209  72.127  1.00  0.00    -0.234 C  
HETATM   21  C   UNL     1      -9.064   7.853  73.567  1.00  0.00    -0.346 C  
HETATM   22  C   UNL     1     -10.547   7.519  73.509  1.00  0.00    -0.347 C  
HETATM   23  C   UNL     1     -10.807   6.985  72.093  1.00  0.00    -0.255 C  
ENDBRANCH  18  19
ENDBRANCH  12  13
ENDBRANCH  11  12
ENDBRANCH   8  11
ENDBRANCH   7   8
ENDBRANCH   5   7
TORSDOF 6
ENDMDL
MODEL      185
REMARK 921   NORMALIZED FREE ENERGY PREDICTED BY IDOCK:   -3.68 KCAL/MOL
REMARK 922        TOTAL FREE ENERGY PREDICTED BY IDOCK:   -6.00 KCAL/MOL
REMARK 923 INTER-LIGAND FREE ENERGY PREDICTED BY IDOCK:   -5.30 KCAL/MOL
REMARK 924 INTRA-LIGAND FREE ENERGY PREDICTED BY IDOCK:   -0.70 KCAL/MOL
REMARK 927      BINDING AFFINITY PREDICTED BY RF-SCORE:    0.00 PKD
ROOT
HETATM    1  C   UNL     1      -9.682   8.178  70.794  1.00  0.00    -0.189 C  
HETATM    2  C   UNL     1     -10.885   7.947  71.724  1.00  0.00    -0.237 C  
HETATM    3  C   UNL     1     -10.346   7.592  73.124  1.00  0.00    -0.402 C  
HETATM    4  C   UNL     1     -11.721   6.759  71.216  1.00  0.00    -0.384 C  
HETATM    5  N   UNL     1     -11.722   9.149  71.888  1.00  0.00    -0.371 NA 
HETATM    6  H   UNL     1     -11.200   9.873  72.383  1.00  0.00     0.000 HD 
ENDROOT
BRANCH   5   7
HETATM    7  C   UNL     1     -12.287   9.697  70.655  1.00  0.00    -0.128 C  
BRANCH   7   8
HETATM    8  C   UNL     1     -11.864  11.149  70.353  1.00  0.00    -0.369 C  
HETATM    9  O   UNL     1     -12.837  12.008  70.980  1.00  0.00    -0.294 OA 
HETATM   10  H   UNL     1     -12.577  12.902  70.793  1.00  0.00     0.000 HD 
BRANCH   8  11
HETATM   11  C   UNL     1     -11.815  11.490  68.859  1.00  0.00    -0.341 C  
BRANCH  11  12
HETATM   12  O   UNL     1     -10.512  11.844  68.382  1.00  0.00    -0.203 OA 
BRANCH  12  13
HETATM   13  C   UNL     1     -10.483  12.847  67.433  1.00  0.00    -0.233 A  
HETATM   14  C   UNL     1     -11.604  13.192  66.655  1.00  0.00    -0.403 A  
HETATM   15  C   UNL     1     -11.525  14.163  65.662  1.00  0.00    -0.325 A  
HETATM   16  C   UNL     1     -10.325  14.815  65.438  1.00  0.00    -0.410 A  
HETATM   17  C   UNL     1      -9.210  14.505  66.218  1.00  0.00    -0.231 A  
HETATM   18  C   UNL     1      -9.261  13.529  67.238  1.00  0.00    -0.233 A  
BRANCH  18  19
HETATM   19  C   UNL     1      -8.012  13.186  68.038  1.00  0.00    -0.156 C  
HETATM   20  C   UNL     1      -6.922  12.368  67.322  1.00  0.00    -0.129 C  
HETATM   21  C   UNL     1      -5.730  12.487  68.254  1.00  0.00    -0.063 C  
HETATM   22  C   UNL     1      -5.751  13.956  68.647  1.00  0.00    -0.085 C  
HETATM   23  C   UNL     1      -7.221  14.394  68.579  1.00  0.00    -0.119 C  
ENDBRANCH  18  19
ENDBRANCH  12  13
ENDBRANCH  11  12
ENDBRANCH   8  11
ENDBRANCH   7   8
ENDBRANCH   5   7
TORSDOF 6
ENDMDL
MODEL      186
REMARK 921   NORMALIZED FREE ENERGY PREDICTED BY IDOCK:   -3.67 KCAL/MOL
REMARK 922        TOTAL FREE ENERGY PREDICTED BY IDOCK:   -5.99 KCAL/MOL
REMARK 923 INTER-LIGAND FREE ENERGY PREDICTED BY IDOCK:   -5.11 KCAL/MOL
REMARK 924 INTRA-LIGAND FREE ENERGY PREDICTED BY IDOCK:   -0.88 KCAL/MOL
REMARK 927      BINDING AFFINITY PREDICTED BY RF-SCORE:    0.00 PKD
ROOT
HETATM    1  C   UNL     1      -7.636  10.702  65.684  1.00  0.00    -0.100 C  
HETATM    2  C   UNL     1      -9.056  10.894  66.243  1.00  0.00    -0.176 C  
HETATM    3  C   UNL     1      -9.981   9.864  65.565  1.00  0.00    -0.363 C  
HETATM    4  C   UNL     1      -9.570  12.303  65.896  1.00  0.00    -0.207 C  
HETATM    5  N   UNL     1      -9.139  10.644  67.693  1.00  0.00    -0.142 NA 
HETATM    6  H   UNL     1      -8.960   9.659  67.888  1.00  0.00     0.000 HD 
ENDROOT
BRANCH   5   7
HETATM    7  C   UNL     1      -8.278  11.482  68.528  1.00  0.00    -0.148 C  
BRANCH   7   8
HETATM    8  C   UNL     1      -7.379  10.696  69.503  1.00  0.00    -0.141 C  
HETATM    9  O   UNL     1      -6.397  10.007  68.703  1.00  0.00    -0.048 OA 
HETATM   10  H   UNL     1      -5.843   9.522  69.303  1.00  0.00     0.000 HD 
BRANCH   8  11
HETATM   11  C   UNL     1      -8.126   9.656  70.346  1.00  0.00    -0.168 C  
BRANCH  11  12
HETATM   12  O   UNL     1      -9.083   8.886  69.610  1.00  0.00    -0.144 OA 
BRANCH  12  13
HETATM   13  C   UNL     1     -10.110   8.349  70.361  1.00  0.00    -0.187 A  
HETATM   14  C   UNL     1     -10.650   8.997  71.487  1.00  0.00    -0.415 A  
HETATM   15  C   UNL     1     -11.641   8.400  72.261  1.00  0.00    -0.453 A  
HETATM   16  C   UNL     1     -12.117   7.148  71.913  1.00  0.00    -0.357 A  
HETATM   17  C   UNL     1     -11.612   6.502  70.783  1.00  0.00    -0.437 A  
HETATM   18  C   UNL     1     -10.612   7.085  69.975  1.00  0.00    -0.251 A  
BRANCH  18  19
HETATM   19  C   UNL     1     -10.054   6.330  68.777  1.00  0.00    -0.191 C  
HETATM   20  C   UNL     1      -9.896   4.806  68.919  1.00  0.00    -0.230 C  
HETATM   21  C   UNL     1      -9.645   4.349  67.494  1.00  0.00    -0.213 C  
HETATM   22  C   UNL     1     -10.655   5.157  66.693  1.00  0.00    -0.295 C  
HETATM   23  C   UNL     1     -10.869   6.462  67.474  1.00  0.00    -0.438 C  
ENDBRANCH  18  19
ENDBRANCH  12  13
ENDBRANCH  11  12
ENDBRANCH   8  11
ENDBRANCH   7   8
ENDBRANCH   5   7
TORSDOF 6
ENDMDL
MODEL      187
REMARK 921   NORMALIZED FREE ENERGY PREDICTED BY IDOCK:   -3.67 KCAL/MOL
REMARK 922        TOTAL FREE ENERGY PREDICTED BY IDOCK:   -5.98 KCAL/MOL
REMARK 923 INTER-LIGAND FREE ENERGY PREDICTED BY IDOCK:   -5.25 KCAL/MOL
REMARK 924 INTRA-LIGAND FREE ENERGY PREDICTED BY IDOCK:   -0.73 KCAL/MOL
REMARK 927      BINDING AFFINITY PREDICTED BY RF-SCORE:    0.00 PKD
ROOT
HETATM    1  C   UNL     1     -12.955   8.931  71.730  1.00  0.00    -0.418 C  
HETATM    2  C   UNL     1     -11.623   8.263  71.348  1.00  0.00    -0.280 C  
HETATM    3  C   UNL     1     -11.833   6.736  71.361  1.00  0.00    -0.385 C  
HETATM    4  C   UNL     1     -10.545   8.608  72.389  1.00  0.00    -0.310 C  
HETATM    5  N   UNL     1     -11.176   8.614  69.988  1.00  0.00    -0.424 NA 
HETATM    6  H   UNL     1     -11.819   8.227  69.297  1.00  0.00     0.000 HD 
ENDROOT
BRANCH   5   7
HETATM    7  C   UNL     1     -10.977  10.042  69.738  1.00  0.00    -0.276 C  
BRANCH   7   8
HETATM    8  C   UNL     1     -11.239  10.475  68.282  1.00  0.00    -0.291 C  
HETATM    9  O   UNL     1     -11.041   9.309  67.457  1.00  0.00    -0.455 OA 
HETATM   10  H   UNL     1     -11.203   9.576  66.560  1.00  0.00     0.000 HD 
BRANCH   8  11
HETATM   11  C   UNL     1     -10.307  11.582  67.779  1.00  0.00    -0.182 C  
BRANCH  11  12
HETATM   12  O   UNL     1      -9.744  12.390  68.819  1.00  0.00    -0.104 OA 
BRANCH  12  13
HETATM   13  C   UNL     1     -10.191  13.696  68.860  1.00  0.00    -0.077 A  
HETATM   14  C   UNL     1     -11.558  14.032  68.868  1.00  0.00    -0.351 A  
HETATM   15  C   UNL     1     -11.977  15.359  68.844  1.00  0.00    -0.298 A  
HETATM   16  C   UNL     1     -11.035  16.373  68.824  1.00  0.00    -0.344 A  
HETATM   17  C   UNL     1      -9.675  16.057  68.843  1.00  0.00    -0.232 A  
HETATM   18  C   UNL     1      -9.219  14.721  68.874  1.00  0.00    -0.177 A  
BRANCH  18  19
HETATM   19  C   UNL     1      -7.729  14.416  68.848  1.00  0.00    -0.128 C  
HETATM   20  C   UNL     1      -7.076  14.219  67.467  1.00  0.00    -0.189 C  
HETATM   21  C   UNL     1      -5.591  14.264  67.776  1.00  0.00    -0.046 C  
HETATM   22  C   UNL     1      -5.480  15.424  68.753  1.00  0.00    -0.093 C  
HETATM   23  C   UNL     1      -6.824  15.484  69.495  1.00  0.00    -0.186 C  
ENDBRANCH  18  19
ENDBRANCH  12  13
ENDBRANCH  11  12
ENDBRANCH   8  11
ENDBRANCH   7   8
ENDBRANCH   5   7
TORSDOF 6
ENDMDL
MODEL      188
REMARK 921   NORMALIZED FREE ENERGY PREDICTED BY IDOCK:   -3.65 KCAL/MOL
REMARK 922        TOTAL FREE ENERGY PREDICTED BY IDOCK:   -5.96 KCAL/MOL
REMARK 923 INTER-LIGAND FREE ENERGY PREDICTED BY IDOCK:   -5.26 KCAL/MOL
REMARK 924 INTRA-LIGAND FREE ENERGY PREDICTED BY IDOCK:   -0.70 KCAL/MOL
REMARK 927      BINDING AFFINITY PREDICTED BY RF-SCORE:    0.00 PKD
ROOT
HETATM    1  C   UNL     1      -9.619  15.901  66.741  1.00  0.00    -0.252 C  
HETATM    2  C   UNL     1     -10.535  14.740  66.316  1.00  0.00    -0.296 C  
HETATM    3  C   UNL     1     -11.047  15.031  64.891  1.00  0.00    -0.425 C  
HETATM    4  C   UNL     1     -11.750  14.659  67.256  1.00  0.00    -0.406 C  
HETATM    5  N   UNL     1      -9.828  13.448  66.253  1.00  0.00    -0.287 NA 
HETATM    6  H   UNL     1      -9.136  13.464  65.504  1.00  0.00     0.000 HD 
ENDROOT
BRANCH   5   7
HETATM    7  C   UNL     1      -9.203  13.009  67.500  1.00  0.00    -0.195 C  
BRANCH   7   8
HETATM    8  C   UNL     1      -9.786  11.704  68.078  1.00  0.00    -0.190 C  
HETATM    9  O   UNL     1     -10.196  11.991  69.431  1.00  0.00    -0.396 OA 
HETATM   10  H   UNL     1     -10.555  11.187  69.786  1.00  0.00     0.000 HD 
BRANCH   8  11
HETATM   11  C   UNL     1      -8.794  10.536  68.116  1.00  0.00    -0.134 C  
BRANCH  11  12
HETATM   12  O   UNL     1      -9.058   9.577  69.146  1.00  0.00    -0.140 OA 
BRANCH  12  13
HETATM   13  C   UNL     1      -9.600   8.382  68.716  1.00  0.00    -0.149 A  
HETATM   14  C   UNL     1      -9.794   8.080  67.355  1.00  0.00    -0.244 A  
HETATM   15  C   UNL     1     -10.402   6.894  66.956  1.00  0.00    -0.348 A  
HETATM   16  C   UNL     1     -10.815   5.983  67.912  1.00  0.00    -0.378 A  
HETATM   17  C   UNL     1     -10.606   6.253  69.265  1.00  0.00    -0.332 A  
HETATM   18  C   UNL     1      -9.986   7.445  69.701  1.00  0.00    -0.182 A  
BRANCH  18  19
HETATM   19  C   UNL     1      -9.815   7.725  71.187  1.00  0.00    -0.187 C  
HETATM   20  C   UNL     1     -11.097   7.830  72.033  1.00  0.00    -0.318 C  
HETATM   21  C   UNL     1     -10.577   7.782  73.458  1.00  0.00    -0.103 C  
HETATM   22  C   UNL     1      -9.531   6.679  73.402  1.00  0.00    -0.163 C  
HETATM   23  C   UNL     1      -8.986   6.684  71.965  1.00  0.00    -0.139 C  
ENDBRANCH  18  19
ENDBRANCH  12  13
ENDBRANCH  11  12
ENDBRANCH   8  11
ENDBRANCH   7   8
ENDBRANCH   5   7
TORSDOF 6
ENDMDL
MODEL      189
REMARK 921   NORMALIZED FREE ENERGY PREDICTED BY IDOCK:   -3.65 KCAL/MOL
REMARK 922        TOTAL FREE ENERGY PREDICTED BY IDOCK:   -5.96 KCAL/MOL
REMARK 923 INTER-LIGAND FREE ENERGY PREDICTED BY IDOCK:   -4.91 KCAL/MOL
REMARK 924 INTRA-LIGAND FREE ENERGY PREDICTED BY IDOCK:   -1.05 KCAL/MOL
REMARK 927      BINDING AFFINITY PREDICTED BY RF-SCORE:    0.00 PKD
ROOT
HETATM    1  C   UNL     1      -9.582   9.892  65.083  1.00  0.00    -0.367 C  
HETATM    2  C   UNL     1      -8.977  10.613  63.866  1.00  0.00    -0.192 C  
HETATM    3  C   UNL     1      -9.220   9.739  62.621  1.00  0.00    -0.268 C  
HETATM    4  C   UNL     1      -7.458  10.772  64.052  1.00  0.00     0.361 C  
HETATM    5  N   UNL     1      -9.615  11.915  63.598  1.00  0.00    -0.559 NA 
HETATM    6  H   UNL     1     -10.584  11.776  63.308  1.00  0.00     0.000 HD 
ENDROOT
BRANCH   5   7
HETATM    7  C   UNL     1      -9.555  12.885  64.691  1.00  0.00     0.301 C  
BRANCH   7   8
HETATM    8  C   UNL     1     -10.780  13.817  64.780  1.00  0.00    -0.416 C  
HETATM    9  O   UNL     1     -11.453  13.748  63.507  1.00  0.00    -0.547 OA 
HETATM   10  H   UNL     1     -12.207  14.323  63.562  1.00  0.00     0.000 HD 
BRANCH   8  11
HETATM   11  C   UNL     1     -10.433  15.284  65.060  1.00  0.00    -0.382 C  
BRANCH  11  12
HETATM   12  O   UNL     1     -10.757  15.719  66.386  1.00  0.00    -0.309 OA 
BRANCH  12  13
HETATM   13  C   UNL     1      -9.692  15.785  67.262  1.00  0.00    -0.223 A  
HETATM   14  C   UNL     1      -8.709  16.790  67.193  1.00  0.00    -0.218 A  
HETATM   15  C   UNL     1      -7.613  16.790  68.051  1.00  0.00    -0.173 A  
HETATM   16  C   UNL     1      -7.488  15.792  69.000  1.00  0.00    -0.186 A  
HETATM   17  C   UNL     1      -8.467  14.802  69.100  1.00  0.00    -0.096 A  
HETATM   18  C   UNL     1      -9.594  14.778  68.249  1.00  0.00    -0.215 A  
BRANCH  18  19
HETATM   19  C   UNL     1     -10.618  13.657  68.359  1.00  0.00    -0.260 C  
HETATM   20  C   UNL     1     -10.094  12.214  68.237  1.00  0.00    -0.210 C  
HETATM   21  C   UNL     1     -11.271  11.378  68.707  1.00  0.00    -0.308 C  
HETATM   22  C   UNL     1     -11.764  12.140  69.928  1.00  0.00    -0.361 C  
HETATM   23  C   UNL     1     -11.412  13.614  69.680  1.00  0.00    -0.286 C  
ENDBRANCH  18  19
ENDBRANCH  12  13
ENDBRANCH  11  12
ENDBRANCH   8  11
ENDBRANCH   7   8
ENDBRANCH   5   7
TORSDOF 6
ENDMDL
MODEL      190
REMARK 921   NORMALIZED FREE ENERGY PREDICTED BY IDOCK:   -3.65 KCAL/MOL
REMARK 922        TOTAL FREE ENERGY PREDICTED BY IDOCK:   -5.96 KCAL/MOL
REMARK 923 INTER-LIGAND FREE ENERGY PREDICTED BY IDOCK:   -5.24 KCAL/MOL
REMARK 924 INTRA-LIGAND FREE ENERGY PREDICTED BY IDOCK:   -0.72 KCAL/MOL
REMARK 927      BINDING AFFINITY PREDICTED BY RF-SCORE:    0.00 PKD
ROOT
HETATM    1  C   UNL     1     -10.612  13.799  64.519  1.00  0.00    -0.405 C  
HETATM    2  C   UNL     1     -11.871  13.042  64.976  1.00  0.00    -0.362 C  
HETATM    3  C   UNL     1     -12.406  12.235  63.776  1.00  0.00    -0.637 C  
HETATM    4  C   UNL     1     -12.959  14.043  65.404  1.00  0.00    -0.346 C  
HETATM    5  N   UNL     1     -11.597  12.070  66.049  1.00  0.00    -0.441 NA 
HETATM    6  H   UNL     1     -11.007  11.316  65.695  1.00  0.00     0.000 HD 
ENDROOT
BRANCH   5   7
HETATM    7  C   UNL     1     -11.016  12.626  67.271  1.00  0.00    -0.256 C  
BRANCH   7   8
HETATM    8  C   UNL     1     -11.584  12.026  68.573  1.00  0.00    -0.309 C  
HETATM    9  O   UNL     1     -10.788  12.549  69.657  1.00  0.00    -0.444 OA 
HETATM   10  H   UNL     1     -11.137  12.179  70.458  1.00  0.00     0.000 HD 
BRANCH   8  11
HETATM   11  C   UNL     1     -11.531  10.495  68.635  1.00  0.00    -0.223 C  
BRANCH  11  12
HETATM   12  O   UNL     1     -10.950   9.978  69.837  1.00  0.00    -0.253 OA 
BRANCH  12  13
HETATM   13  C   UNL     1     -10.394   8.719  69.730  1.00  0.00    -0.211 A  
HETATM   14  C   UNL     1     -11.131   7.539  69.947  1.00  0.00    -0.185 A  
HETATM   15  C   UNL     1     -10.526   6.287  69.895  1.00  0.00    -0.284 A  
HETATM   16  C   UNL     1      -9.175   6.193  69.613  1.00  0.00    -0.148 A  
HETATM   17  C   UNL     1      -8.434   7.350  69.368  1.00  0.00    -0.133 A  
HETATM   18  C   UNL     1      -9.020   8.635  69.407  1.00  0.00    -0.145 A  
BRANCH  18  19
HETATM   19  C   UNL     1      -8.170   9.876  69.180  1.00  0.00    -0.128 C  
HETATM   20  C   UNL     1      -7.185  10.266  70.297  1.00  0.00    -0.077 C  
HETATM   21  C   UNL     1      -6.301  11.305  69.632  1.00  0.00    -0.124 C  
HETATM   22  C   UNL     1      -6.036  10.700  68.261  1.00  0.00    -0.046 C  
HETATM   23  C   UNL     1      -7.264   9.838  67.933  1.00  0.00    -0.084 C  
ENDBRANCH  18  19
ENDBRANCH  12  13
ENDBRANCH  11  12
ENDBRANCH   8  11
ENDBRANCH   7   8
ENDBRANCH   5   7
TORSDOF 6
ENDMDL
MODEL      191
REMARK 921   NORMALIZED FREE ENERGY PREDICTED BY IDOCK:   -3.64 KCAL/MOL
REMARK 922        TOTAL FREE ENERGY PREDICTED BY IDOCK:   -5.95 KCAL/MOL
REMARK 923 INTER-LIGAND FREE ENERGY PREDICTED BY IDOCK:   -5.23 KCAL/MOL
REMARK 924 INTRA-LIGAND FREE ENERGY PREDICTED BY IDOCK:   -0.72 KCAL/MOL
REMARK 927      BINDING AFFINITY PREDICTED BY RF-SCORE:    0.00 PKD
ROOT
HETATM    1  C   UNL     1      -6.824  14.358  69.430  1.00  0.00    -0.132 C  
HETATM    2  C   UNL     1      -6.734  14.341  67.894  1.00  0.00    -0.167 C  
HETATM    3  C   UNL     1      -5.581  15.272  67.471  1.00  0.00     0.029 C  
HETATM    4  C   UNL     1      -8.039  14.887  67.287  1.00  0.00    -0.234 C  
HETATM    5  N   UNL     1      -6.418  13.007  67.353  1.00  0.00    -0.298 NA 
HETATM    6  H   UNL     1      -5.475  12.733  67.628  1.00  0.00     0.000 HD 
ENDROOT
BRANCH   5   7
HETATM    7  C   UNL     1      -7.366  11.946  67.696  1.00  0.00    -0.123 C  
BRANCH   7   8
HETATM    8  C   UNL     1      -7.339  10.738  66.739  1.00  0.00    -0.129 C  
HETATM    9  O   UNL     1      -6.626  11.155  65.557  1.00  0.00    -0.369 OA 
HETATM   10  H   UNL     1      -6.610  10.410  64.968  1.00  0.00     0.000 HD 
BRANCH   8  11
HETATM   11  C   UNL     1      -8.727  10.245  66.313  1.00  0.00    -0.146 C  
BRANCH  11  12
HETATM   12  O   UNL     1      -9.792  10.689  67.162  1.00  0.00    -0.168 OA 
BRANCH  12  13
HETATM   13  C   UNL     1     -10.402  11.865  66.776  1.00  0.00    -0.209 A  
HETATM   14  C   UNL     1     -10.243  12.421  65.492  1.00  0.00    -0.297 A  
HETATM   15  C   UNL     1     -10.819  13.642  65.155  1.00  0.00    -0.338 A  
HETATM   16  C   UNL     1     -11.576  14.322  66.093  1.00  0.00    -0.374 A  
HETATM   17  C   UNL     1     -11.767  13.772  67.362  1.00  0.00    -0.417 A  
HETATM   18  C   UNL     1     -11.201  12.533  67.732  1.00  0.00    -0.318 A  
BRANCH  18  19
HETATM   19  C   UNL     1     -11.394  11.987  69.139  1.00  0.00    -0.338 C  
HETATM   20  C   UNL     1     -12.141  12.884  70.143  1.00  0.00    -0.373 C  
HETATM   21  C   UNL     1     -12.439  11.942  71.295  1.00  0.00    -0.319 C  
HETATM   22  C   UNL     1     -12.896  10.674  70.589  1.00  0.00    -0.404 C  
HETATM   23  C   UNL     1     -12.174  10.660  69.233  1.00  0.00    -0.108 C  
ENDBRANCH  18  19
ENDBRANCH  12  13
ENDBRANCH  11  12
ENDBRANCH   8  11
ENDBRANCH   7   8
ENDBRANCH   5   7
TORSDOF 6
ENDMDL
MODEL      192
REMARK 921   NORMALIZED FREE ENERGY PREDICTED BY IDOCK:   -3.64 KCAL/MOL
REMARK 922        TOTAL FREE ENERGY PREDICTED BY IDOCK:   -5.95 KCAL/MOL
REMARK 923 INTER-LIGAND FREE ENERGY PREDICTED BY IDOCK:   -5.30 KCAL/MOL
REMARK 924 INTRA-LIGAND FREE ENERGY PREDICTED BY IDOCK:   -0.65 KCAL/MOL
REMARK 927      BINDING AFFINITY PREDICTED BY RF-SCORE:    0.00 PKD
ROOT
HETATM    1  C   UNL     1      -8.468   4.294  64.130  1.00  0.00    -0.111 C  
HETATM    2  C   UNL     1      -9.606   3.400  64.650  1.00  0.00    -0.161 C  
HETATM    3  C   UNL     1      -9.103   1.943  64.664  1.00  0.00    -0.128 C  
HETATM    4  C   UNL     1     -10.814   3.481  63.700  1.00  0.00    -0.212 C  
HETATM    5  N   UNL     1     -10.001   3.722  66.034  1.00  0.00    -0.414 NA 
HETATM    6  H   UNL     1      -9.239   3.499  66.675  1.00  0.00     0.000 HD 
ENDROOT
BRANCH   5   7
HETATM    7  C   UNL     1     -10.455   5.094  66.257  1.00  0.00    -0.289 C  
BRANCH   7   8
HETATM    8  C   UNL     1      -9.744   5.818  67.418  1.00  0.00    -0.123 C  
HETATM    9  O   UNL     1      -9.597   4.857  68.483  1.00  0.00    -0.135 OA 
HETATM   10  H   UNL     1      -9.159   5.303  69.198  1.00  0.00     0.000 HD 
BRANCH   8  11
HETATM   11  C   UNL     1     -10.508   7.028  67.966  1.00  0.00    -0.208 C  
BRANCH  11  12
HETATM   12  O   UNL     1      -9.919   7.613  69.133  1.00  0.00    -0.172 OA 
BRANCH  12  13
HETATM   13  C   UNL     1     -10.767   8.392  69.895  1.00  0.00    -0.227 A  
HETATM   14  C   UNL     1     -11.069   9.729  69.571  1.00  0.00    -0.226 A  
HETATM   15  C   UNL     1     -11.876  10.508  70.395  1.00  0.00    -0.431 A  
HETATM   16  C   UNL     1     -12.404   9.961  71.550  1.00  0.00    -0.504 A  
HETATM   17  C   UNL     1     -12.136   8.629  71.873  1.00  0.00    -0.422 A  
HETATM   18  C   UNL     1     -11.327   7.810  71.055  1.00  0.00    -0.287 A  
BRANCH  18  19
HETATM   19  C   UNL     1     -11.020   6.377  71.463  1.00  0.00    -0.310 C  
HETATM   20  C   UNL     1      -9.658   6.113  72.129  1.00  0.00    -0.162 C  
HETATM   21  C   UNL     1      -9.811   4.709  72.686  1.00  0.00    -0.197 C  
HETATM   22  C   UNL     1     -11.207   4.733  73.291  1.00  0.00    -0.421 C  
HETATM   23  C   UNL     1     -12.010   5.749  72.465  1.00  0.00    -0.157 C  
ENDBRANCH  18  19
ENDBRANCH  12  13
ENDBRANCH  11  12
ENDBRANCH   8  11
ENDBRANCH   7   8
ENDBRANCH   5   7
TORSDOF 6
ENDMDL
MODEL      193
REMARK 921   NORMALIZED FREE ENERGY PREDICTED BY IDOCK:   -3.64 KCAL/MOL
REMARK 922        TOTAL FREE ENERGY PREDICTED BY IDOCK:   -5.95 KCAL/MOL
REMARK 923 INTER-LIGAND FREE ENERGY PREDICTED BY IDOCK:   -5.21 KCAL/MOL
REMARK 924 INTRA-LIGAND FREE ENERGY PREDICTED BY IDOCK:   -0.74 KCAL/MOL
REMARK 927      BINDING AFFINITY PREDICTED BY RF-SCORE:    0.00 PKD
ROOT
HETATM    1  C   UNL     1      -5.790   7.624  70.345  1.00  0.00    -0.026 C  
HETATM    2  C   UNL     1      -6.699   8.865  70.367  1.00  0.00    -0.047 C  
HETATM    3  C   UNL     1      -6.071   9.901  71.321  1.00  0.00     0.036 C  
HETATM    4  C   UNL     1      -8.087   8.490  70.914  1.00  0.00    -0.140 C  
HETATM    5  N   UNL     1      -6.809   9.518  69.050  1.00  0.00    -0.053 NA 
HETATM    6  H   UNL     1      -5.908   9.913  68.780  1.00  0.00     0.000 HD 
ENDROOT
BRANCH   5   7
HETATM    7  C   UNL     1      -7.329   8.678  67.971  1.00  0.00    -0.092 C  
BRANCH   7   8
HETATM    8  C   UNL     1      -7.307   9.345  66.581  1.00  0.00    -0.090 C  
HETATM    9  O   UNL     1      -6.591  10.588  66.724  1.00  0.00    -0.075 OA 
HETATM   10  H   UNL     1      -6.579  10.999  65.867  1.00  0.00     0.000 HD 
BRANCH   8  11
HETATM   11  C   UNL     1      -8.697   9.654  66.012  1.00  0.00    -0.138 C  
BRANCH  11  12
HETATM   12  O   UNL     1      -9.284  10.856  66.525  1.00  0.00    -0.164 OA 
BRANCH  12  13
HETATM   13  C   UNL     1     -10.312  11.380  65.767  1.00  0.00    -0.255 A  
HETATM   14  C   UNL     1     -10.443  11.136  64.387  1.00  0.00    -0.418 A  
HETATM   15  C   UNL     1     -11.453  11.732  63.639  1.00  0.00    -0.524 A  
HETATM   16  C   UNL     1     -12.358  12.574  64.261  1.00  0.00    -0.541 A  
HETATM   17  C   UNL     1     -12.260  12.806  65.634  1.00  0.00    -0.503 A  
HETATM   18  C   UNL     1     -11.250  12.211  66.422  1.00  0.00    -0.380 A  
BRANCH  18  19
HETATM   19  C   UNL     1     -11.148  12.523  67.907  1.00  0.00    -0.286 C  
HETATM   20  C   UNL     1     -11.890  13.774  68.414  1.00  0.00    -0.411 C  
HETATM   21  C   UNL     1     -11.858  13.608  69.922  1.00  0.00    -0.389 C  
HETATM   22  C   UNL     1     -12.184  12.135  70.111  1.00  0.00    -0.308 C  
HETATM   23  C   UNL     1     -11.668  11.421  68.852  1.00  0.00    -0.409 C  
ENDBRANCH  18  19
ENDBRANCH  12  13
ENDBRANCH  11  12
ENDBRANCH   8  11
ENDBRANCH   7   8
ENDBRANCH   5   7
TORSDOF 6
ENDMDL
MODEL      194
REMARK 921   NORMALIZED FREE ENERGY PREDICTED BY IDOCK:   -3.63 KCAL/MOL
REMARK 922        TOTAL FREE ENERGY PREDICTED BY IDOCK:   -5.94 KCAL/MOL
REMARK 923 INTER-LIGAND FREE ENERGY PREDICTED BY IDOCK:   -4.89 KCAL/MOL
REMARK 924 INTRA-LIGAND FREE ENERGY PREDICTED BY IDOCK:   -1.04 KCAL/MOL
REMARK 927      BINDING AFFINITY PREDICTED BY RF-SCORE:    0.00 PKD
ROOT
HETATM    1  C   UNL     1      -5.399   8.034  71.772  1.00  0.00    -0.035 C  
HETATM    2  C   UNL     1      -6.450   6.961  71.442  1.00  0.00    -0.042 C  
HETATM    3  C   UNL     1      -5.936   6.140  70.243  1.00  0.00    -0.029 C  
HETATM    4  C   UNL     1      -7.773   7.632  71.032  1.00  0.00    -0.088 C  
HETATM    5  N   UNL     1      -6.661   6.008  72.547  1.00  0.00    -0.068 NA 
HETATM    6  H   UNL     1      -5.820   5.450  72.691  1.00  0.00     0.000 HD 
ENDROOT
BRANCH   5   7
HETATM    7  C   UNL     1      -7.095   6.596  73.814  1.00  0.00    -0.080 C  
BRANCH   7   8
HETATM    8  C   UNL     1      -8.376   5.970  74.399  1.00  0.00    -0.116 C  
HETATM    9  O   UNL     1      -8.347   4.567  74.066  1.00  0.00    -0.102 OA 
HETATM   10  H   UNL     1      -9.136   4.182  74.426  1.00  0.00     0.000 HD 
BRANCH   8  11
HETATM   11  C   UNL     1      -9.676   6.567  73.846  1.00  0.00    -0.229 C  
BRANCH  11  12
HETATM   12  O   UNL     1     -10.595   5.594  73.336  1.00  0.00    -0.223 OA 
BRANCH  12  13
HETATM   13  C   UNL     1     -10.620   5.471  71.961  1.00  0.00    -0.228 A  
HETATM   14  C   UNL     1      -9.793   4.572  71.261  1.00  0.00    -0.260 A  
HETATM   15  C   UNL     1      -9.796   4.517  69.871  1.00  0.00    -0.298 A  
HETATM   16  C   UNL     1     -10.636   5.352  69.156  1.00  0.00    -0.241 A  
HETATM   17  C   UNL     1     -11.483   6.231  69.834  1.00  0.00    -0.459 A  
HETATM   18  C   UNL     1     -11.508   6.305  71.244  1.00  0.00    -0.352 A  
BRANCH  18  19
HETATM   19  C   UNL     1     -12.412   7.308  71.947  1.00  0.00    -0.337 C  
HETATM   20  C   UNL     1     -11.987   8.787  71.903  1.00  0.00    -0.435 C  
HETATM   21  C   UNL     1     -13.227   9.518  72.386  1.00  0.00    -0.451 C  
HETATM   22  C   UNL     1     -14.352   8.801  71.655  1.00  0.00    -0.387 C  
HETATM   23  C   UNL     1     -13.864   7.362  71.432  1.00  0.00    -0.436 C  
ENDBRANCH  18  19
ENDBRANCH  12  13
ENDBRANCH  11  12
ENDBRANCH   8  11
ENDBRANCH   7   8
ENDBRANCH   5   7
TORSDOF 6
ENDMDL
MODEL      195
REMARK 921   NORMALIZED FREE ENERGY PREDICTED BY IDOCK:   -3.63 KCAL/MOL
REMARK 922        TOTAL FREE ENERGY PREDICTED BY IDOCK:   -5.94 KCAL/MOL
REMARK 923 INTER-LIGAND FREE ENERGY PREDICTED BY IDOCK:   -5.19 KCAL/MOL
REMARK 924 INTRA-LIGAND FREE ENERGY PREDICTED BY IDOCK:   -0.74 KCAL/MOL
REMARK 927      BINDING AFFINITY PREDICTED BY RF-SCORE:    0.00 PKD
ROOT
HETATM    1  C   UNL     1     -10.003   5.319  69.713  1.00  0.00    -0.306 C  
HETATM    2  C   UNL     1      -8.648   5.980  70.019  1.00  0.00    -0.131 C  
HETATM    3  C   UNL     1      -7.546   4.916  69.843  1.00  0.00    -0.056 C  
HETATM    4  C   UNL     1      -8.618   6.464  71.479  1.00  0.00    -0.130 C  
HETATM    5  N   UNL     1      -8.325   7.079  69.091  1.00  0.00    -0.125 NA 
HETATM    6  H   UNL     1      -8.179   6.711  68.151  1.00  0.00     0.000 HD 
ENDROOT
BRANCH   5   7
HETATM    7  C   UNL     1      -9.290   8.177  69.054  1.00  0.00    -0.147 C  
BRANCH   7   8
HETATM    8  C   UNL     1      -9.412   8.869  67.681  1.00  0.00    -0.138 C  
HETATM    9  O   UNL     1      -8.348   9.839  67.604  1.00  0.00    -0.114 OA 
HETATM   10  H   UNL     1      -8.424  10.265  66.759  1.00  0.00     0.000 HD 
BRANCH   8  11
HETATM   11  C   UNL     1     -10.743   9.598  67.461  1.00  0.00    -0.256 C  
BRANCH  11  12
HETATM   12  O   UNL     1     -10.630  11.026  67.440  1.00  0.00    -0.209 OA 
BRANCH  12  13
HETATM   13  C   UNL     1     -11.169  11.676  68.532  1.00  0.00    -0.256 A  
HETATM   14  C   UNL     1     -11.740  10.992  69.622  1.00  0.00    -0.401 A  
HETATM   15  C   UNL     1     -12.332  11.678  70.677  1.00  0.00    -0.437 A  
HETATM   16  C   UNL     1     -12.354  13.061  70.667  1.00  0.00    -0.391 A  
HETATM   17  C   UNL     1     -11.768  13.757  69.608  1.00  0.00    -0.379 A  
HETATM   18  C   UNL     1     -11.153  13.090  68.526  1.00  0.00    -0.298 A  
BRANCH  18  19
HETATM   19  C   UNL     1     -10.566  13.882  67.367  1.00  0.00    -0.267 C  
HETATM   20  C   UNL     1     -11.144  15.285  67.111  1.00  0.00    -0.323 C  
HETATM   21  C   UNL     1     -10.149  15.899  66.143  1.00  0.00    -0.334 C  
HETATM   22  C   UNL     1      -8.807  15.486  66.726  1.00  0.00    -0.297 C  
HETATM   23  C   UNL     1      -9.051  14.155  67.453  1.00  0.00    -0.199 C  
ENDBRANCH  18  19
ENDBRANCH  12  13
ENDBRANCH  11  12
ENDBRANCH   8  11
ENDBRANCH   7   8
ENDBRANCH   5   7
TORSDOF 6
ENDMDL
MODEL      196
REMARK 921   NORMALIZED FREE ENERGY PREDICTED BY IDOCK:   -3.61 KCAL/MOL
REMARK 922        TOTAL FREE ENERGY PREDICTED BY IDOCK:   -5.91 KCAL/MOL
REMARK 923 INTER-LIGAND FREE ENERGY PREDICTED BY IDOCK:   -5.24 KCAL/MOL
REMARK 924 INTRA-LIGAND FREE ENERGY PREDICTED BY IDOCK:   -0.68 KCAL/MOL
REMARK 927      BINDING AFFINITY PREDICTED BY RF-SCORE:    0.00 PKD
ROOT
HETATM    1  C   UNL     1      -7.094   5.047  69.382  1.00  0.00    -0.056 C  
HETATM    2  C   UNL     1      -8.231   4.271  70.069  1.00  0.00    -0.062 C  
HETATM    3  C   UNL     1      -7.813   3.999  71.527  1.00  0.00    -0.065 C  
HETATM    4  C   UNL     1      -8.440   2.916  69.369  1.00  0.00    -0.100 C  
HETATM    5  N   UNL     1      -9.491   5.035  70.127  1.00  0.00    -0.155 NA 
HETATM    6  H   UNL     1      -9.380   5.844  70.739  1.00  0.00     0.000 HD 
ENDROOT
BRANCH   5   7
HETATM    7  C   UNL     1     -10.035   5.455  68.836  1.00  0.00    -0.180 C  
BRANCH   7   8
HETATM    8  C   UNL     1     -10.644   6.871  68.834  1.00  0.00    -0.221 C  
HETATM    9  O   UNL     1     -11.914   6.781  69.512  1.00  0.00    -0.634 OA 
HETATM   10  H   UNL     1     -12.289   7.654  69.510  1.00  0.00     0.000 HD 
BRANCH   8  11
HETATM   11  C   UNL     1     -10.887   7.448  67.435  1.00  0.00    -0.229 C  
BRANCH  11  12
HETATM   12  O   UNL     1     -10.675   8.861  67.340  1.00  0.00    -0.272 OA 
BRANCH  12  13
HETATM   13  C   UNL     1      -9.909   9.272  66.267  1.00  0.00    -0.291 A  
HETATM   14  C   UNL     1      -8.913   8.462  65.687  1.00  0.00    -0.183 A  
HETATM   15  C   UNL     1      -8.114   8.930  64.649  1.00  0.00    -0.151 A  
HETATM   16  C   UNL     1      -8.305  10.212  64.164  1.00  0.00    -0.168 A  
HETATM   17  C   UNL     1      -9.305  11.019  64.709  1.00  0.00    -0.239 A  
HETATM   18  C   UNL     1     -10.137  10.571  65.759  1.00  0.00    -0.329 A  
BRANCH  18  19
HETATM   19  C   UNL     1     -11.186  11.496  66.358  1.00  0.00    -0.307 C  
HETATM   20  C   UNL     1     -10.714  12.488  67.435  1.00  0.00    -0.254 C  
HETATM   21  C   UNL     1     -11.889  13.441  67.568  1.00  0.00    -0.408 C  
HETATM   22  C   UNL     1     -12.293  13.686  66.122  1.00  0.00    -0.476 C  
HETATM   23  C   UNL     1     -11.910  12.414  65.352  1.00  0.00    -0.460 C  
ENDBRANCH  18  19
ENDBRANCH  12  13
ENDBRANCH  11  12
ENDBRANCH   8  11
ENDBRANCH   7   8
ENDBRANCH   5   7
TORSDOF 6
ENDMDL
MODEL      197
REMARK 921   NORMALIZED FREE ENERGY PREDICTED BY IDOCK:   -3.61 KCAL/MOL
REMARK 922        TOTAL FREE ENERGY PREDICTED BY IDOCK:   -5.91 KCAL/MOL
REMARK 923 INTER-LIGAND FREE ENERGY PREDICTED BY IDOCK:   -4.81 KCAL/MOL
REMARK 924 INTRA-LIGAND FREE ENERGY PREDICTED BY IDOCK:   -1.09 KCAL/MOL
REMARK 927      BINDING AFFINITY PREDICTED BY RF-SCORE:    0.00 PKD
ROOT
HETATM    1  C   UNL     1      -7.837   6.386  69.409  1.00  0.00    -0.105 C  
HETATM    2  C   UNL     1      -8.677   5.324  70.138  1.00  0.00    -0.121 C  
HETATM    3  C   UNL     1      -7.718   4.421  70.938  1.00  0.00    -0.060 C  
HETATM    4  C   UNL     1      -9.418   4.447  69.113  1.00  0.00    -0.240 C  
HETATM    5  N   UNL     1      -9.617   5.907  71.112  1.00  0.00    -0.168 NA 
HETATM    6  H   UNL     1      -9.102   6.339  71.879  1.00  0.00     0.000 HD 
ENDROOT
BRANCH   5   7
HETATM    7  C   UNL     1     -10.586   6.856  70.564  1.00  0.00    -0.220 C  
BRANCH   7   8
HETATM    8  C   UNL     1     -11.497   7.514  71.620  1.00  0.00    -0.261 C  
HETATM    9  O   UNL     1     -12.752   6.804  71.590  1.00  0.00    -0.366 OA 
HETATM   10  H   UNL     1     -13.314   7.210  72.240  1.00  0.00     0.000 HD 
BRANCH   8  11
HETATM   11  C   UNL     1     -11.780   8.999  71.366  1.00  0.00    -0.322 C  
BRANCH  11  12
HETATM   12  O   UNL     1     -10.713   9.694  70.710  1.00  0.00    -0.288 OA 
BRANCH  12  13
HETATM   13  C   UNL     1     -11.082  10.841  70.036  1.00  0.00    -0.255 A  
HETATM   14  C   UNL     1     -11.816  11.878  70.642  1.00  0.00    -0.142 A  
HETATM   15  C   UNL     1     -12.228  12.992  69.918  1.00  0.00    -0.271 A  
HETATM   16  C   UNL     1     -11.904  13.093  68.577  1.00  0.00    -0.377 A  
HETATM   17  C   UNL     1     -11.155  12.086  67.966  1.00  0.00    -0.292 A  
HETATM   18  C   UNL     1     -10.715  10.947  68.675  1.00  0.00    -0.238 A  
BRANCH  18  19
HETATM   19  C   UNL     1      -9.939   9.849  67.964  1.00  0.00    -0.179 C  
HETATM   20  C   UNL     1     -10.754   8.691  67.360  1.00  0.00    -0.212 C  
HETATM   21  C   UNL     1      -9.746   7.981  66.476  1.00  0.00    -0.297 C  
HETATM   22  C   UNL     1      -9.024   9.131  65.790  1.00  0.00    -0.237 C  
HETATM   23  C   UNL     1      -9.082  10.313  66.769  1.00  0.00    -0.161 C  
ENDBRANCH  18  19
ENDBRANCH  12  13
ENDBRANCH  11  12
ENDBRANCH   8  11
ENDBRANCH   7   8
ENDBRANCH   5   7
TORSDOF 6
ENDMDL
MODEL      198
REMARK 921   NORMALIZED FREE ENERGY PREDICTED BY IDOCK:   -3.60 KCAL/MOL
REMARK 922        TOTAL FREE ENERGY PREDICTED BY IDOCK:   -5.90 KCAL/MOL
REMARK 923 INTER-LIGAND FREE ENERGY PREDICTED BY IDOCK:   -5.33 KCAL/MOL
REMARK 924 INTRA-LIGAND FREE ENERGY PREDICTED BY IDOCK:   -0.57 KCAL/MOL
REMARK 927      BINDING AFFINITY PREDICTED BY RF-SCORE:    0.00 PKD
ROOT
HETATM    1  C   UNL     1      -9.139   7.900  73.336  1.00  0.00    -0.347 C  
HETATM    2  C   UNL     1      -8.233   7.651  72.118  1.00  0.00    -0.106 C  
HETATM    3  C   UNL     1      -7.492   6.317  72.336  1.00  0.00    -0.093 C  
HETATM    4  C   UNL     1      -7.183   8.770  72.007  1.00  0.00    -0.022 C  
HETATM    5  N   UNL     1      -8.990   7.512  70.860  1.00  0.00    -0.148 NA 
HETATM    6  H   UNL     1      -9.557   6.664  70.886  1.00  0.00     0.000 HD 
ENDROOT
BRANCH   5   7
HETATM    7  C   UNL     1      -9.823   8.657  70.495  1.00  0.00    -0.179 C  
BRANCH   7   8
HETATM    8  C   UNL     1      -9.781   9.020  68.997  1.00  0.00    -0.167 C  
HETATM    9  O   UNL     1      -8.582   9.794  68.787  1.00  0.00    -0.119 OA 
HETATM   10  H   UNL     1      -8.557  10.018  67.864  1.00  0.00     0.000 HD 
BRANCH   8  11
HETATM   11  C   UNL     1     -10.978   9.851  68.519  1.00  0.00    -0.180 C  
BRANCH  11  12
HETATM   12  O   UNL     1     -10.846  11.257  68.756  1.00  0.00    -0.185 OA 
BRANCH  12  13
HETATM   13  C   UNL     1     -11.405  12.073  67.793  1.00  0.00    -0.303 A  
HETATM   14  C   UNL     1     -11.749  11.611  66.509  1.00  0.00    -0.034 A  
HETATM   15  C   UNL     1     -12.251  12.473  65.539  1.00  0.00    -0.442 A  
HETATM   16  C   UNL     1     -12.429  13.812  65.842  1.00  0.00    -0.512 A  
HETATM   17  C   UNL     1     -12.119  14.282  67.119  1.00  0.00    -0.412 A  
HETATM   18  C   UNL     1     -11.614  13.431  68.126  1.00  0.00    -0.376 A  
BRANCH  18  19
HETATM   19  C   UNL     1     -11.244  13.989  69.492  1.00  0.00    -0.249 C  
HETATM   20  C   UNL     1     -11.378  15.511  69.688  1.00  0.00    -0.319 C  
HETATM   21  C   UNL     1     -11.258  15.678  71.192  1.00  0.00    -0.409 C  
HETATM   22  C   UNL     1     -12.115  14.543  71.731  1.00  0.00    -0.354 C  
HETATM   23  C   UNL     1     -12.054  13.427  70.678  1.00  0.00    -0.374 C  
ENDBRANCH  18  19
ENDBRANCH  12  13
ENDBRANCH  11  12
ENDBRANCH   8  11
ENDBRANCH   7   8
ENDBRANCH   5   7
TORSDOF 6
ENDMDL
MODEL      199
REMARK 921   NORMALIZED FREE ENERGY PREDICTED BY IDOCK:   -3.60 KCAL/MOL
REMARK 922        TOTAL FREE ENERGY PREDICTED BY IDOCK:   -5.90 KCAL/MOL
REMARK 923 INTER-LIGAND FREE ENERGY PREDICTED BY IDOCK:   -5.28 KCAL/MOL
REMARK 924 INTRA-LIGAND FREE ENERGY PREDICTED BY IDOCK:   -0.62 KCAL/MOL
REMARK 927      BINDING AFFINITY PREDICTED BY RF-SCORE:    0.00 PKD
ROOT
HETATM    1  C   UNL     1      -8.104  19.220  67.745  1.00  0.00    -0.321 C  
HETATM    2  C   UNL     1      -9.642  19.226  67.803  1.00  0.00    -0.318 C  
HETATM    3  C   UNL     1     -10.165  19.995  66.574  1.00  0.00    -0.598 C  
HETATM    4  C   UNL     1     -10.116  19.963  69.068  1.00  0.00    -0.395 C  
HETATM    5  N   UNL     1     -10.222  17.873  67.731  1.00  0.00    -0.350 NA 
HETATM    6  H   UNL     1     -10.042  17.464  66.814  1.00  0.00     0.000 HD 
ENDROOT
BRANCH   5   7
HETATM    7  C   UNL     1      -9.800  16.948  68.783  1.00  0.00    -0.269 C  
BRANCH   7   8
HETATM    8  C   UNL     1     -10.741  15.743  68.985  1.00  0.00    -0.235 C  
HETATM    9  O   UNL     1     -10.538  15.276  70.334  1.00  0.00    -0.426 OA 
HETATM   10  H   UNL     1     -11.118  14.534  70.458  1.00  0.00     0.000 HD 
BRANCH   8  11
HETATM   11  C   UNL     1     -10.478  14.575  68.028  1.00  0.00    -0.236 C  
BRANCH  11  12
HETATM   12  O   UNL     1      -9.856  13.442  68.645  1.00  0.00    -0.205 OA 
BRANCH  12  13
HETATM   13  C   UNL     1      -8.597  13.130  68.173  1.00  0.00    -0.181 A  
HETATM   14  C   UNL     1      -7.535  14.054  68.166  1.00  0.00    -0.131 A  
HETATM   15  C   UNL     1      -6.296  13.729  67.623  1.00  0.00    -0.141 A  
HETATM   16  C   UNL     1      -6.093  12.469  67.089  1.00  0.00    -0.036 A  
HETATM   17  C   UNL     1      -7.127  11.530  67.112  1.00  0.00    -0.140 A  
HETATM   18  C   UNL     1      -8.393  11.828  67.662  1.00  0.00    -0.145 A  
BRANCH  18  19
HETATM   19  C   UNL     1      -9.509  10.794  67.628  1.00  0.00    -0.166 C  
HETATM   20  C   UNL     1      -9.238   9.494  66.849  1.00  0.00    -0.174 C  
HETATM   21  C   UNL     1     -10.376   8.587  67.281  1.00  0.00    -0.372 C  
HETATM   22  C   UNL     1     -10.455   8.831  68.781  1.00  0.00    -0.214 C  
HETATM   23  C   UNL     1      -9.967  10.270  69.004  1.00  0.00    -0.223 C  
ENDBRANCH  18  19
ENDBRANCH  12  13
ENDBRANCH  11  12
ENDBRANCH   8  11
ENDBRANCH   7   8
ENDBRANCH   5   7
TORSDOF 6
ENDMDL
MODEL      200
REMARK 921   NORMALIZED FREE ENERGY PREDICTED BY IDOCK:   -3.58 KCAL/MOL
REMARK 922        TOTAL FREE ENERGY PREDICTED BY IDOCK:   -5.87 KCAL/MOL
REMARK 923 INTER-LIGAND FREE ENERGY PREDICTED BY IDOCK:   -6.50 KCAL/MOL
REMARK 924 INTRA-LIGAND FREE ENERGY PREDICTED BY IDOCK:    0.63 KCAL/MOL
REMARK 927      BINDING AFFINITY PREDICTED BY RF-SCORE:    0.00 PKD
ROOT
HETATM    1  C   UNL     1     -10.426  13.788  64.599  1.00  0.00    -0.433 C  
HETATM    2  C   UNL     1     -11.659  12.874  64.693  1.00  0.00    -0.346 C  
HETATM    3  C   UNL     1     -12.223  12.682  63.271  1.00  0.00    -0.512 C  
HETATM    4  C   UNL     1     -12.745  13.544  65.553  1.00  0.00    -0.493 C  
HETATM    5  N   UNL     1     -11.337  11.529  65.203  1.00  0.00    -0.153 NA 
HETATM    6  H   UNL     1     -10.750  11.033  64.532  1.00  0.00     0.000 HD 
ENDROOT
BRANCH   5   7
HETATM    7  C   UNL     1     -10.723  11.488  66.530  1.00  0.00    -0.273 C  
BRANCH   7   8
HETATM    8  C   UNL     1      -9.508  12.422  66.697  1.00  0.00    -0.232 C  
HETATM    9  O   UNL     1      -8.371  11.733  66.139  1.00  0.00    -0.373 OA 
HETATM   10  H   UNL     1      -7.622  12.308  66.242  1.00  0.00     0.000 HD 
BRANCH   8  11
HETATM   11  C   UNL     1      -9.185  12.777  68.153  1.00  0.00    -0.212 C  
BRANCH  11  12
HETATM   12  O   UNL     1      -8.302  13.895  68.300  1.00  0.00    -0.151 OA 
BRANCH  12  13
HETATM   13  C   UNL     1      -8.754  15.080  67.754  1.00  0.00    -0.164 A  
HETATM   14  C   UNL     1      -8.162  15.671  66.621  1.00  0.00    -0.284 A  
HETATM   15  C   UNL     1      -8.600  16.899  66.134  1.00  0.00    -0.277 A  
HETATM   16  C   UNL     1      -9.646  17.551  66.764  1.00  0.00    -0.286 A  
HETATM   17  C   UNL     1     -10.262  16.966  67.872  1.00  0.00    -0.308 A  
HETATM   18  C   UNL     1      -9.845  15.719  68.386  1.00  0.00    -0.206 A  
BRANCH  18  19
HETATM   19  C   UNL     1     -10.512  15.135  69.623  1.00  0.00    -0.261 C  
HETATM   20  C   UNL     1     -11.050  16.130  70.666  1.00  0.00    -0.318 C  
HETATM   21  C   UNL     1     -11.910  15.260  71.565  1.00  0.00    -0.441 C  
HETATM   22  C   UNL     1     -12.658  14.382  70.573  1.00  0.00    -0.417 C  
HETATM   23  C   UNL     1     -11.737  14.239  69.353  1.00  0.00    -0.363 C  
ENDBRANCH  18  19
ENDBRANCH  12  13
ENDBRANCH  11  12
ENDBRANCH   8  11
ENDBRANCH   7   8
ENDBRANCH   5   7
TORSDOF 6
ENDMDL
MODEL      201
REMARK 921   NORMALIZED FREE ENERGY PREDICTED BY IDOCK:   -3.58 KCAL/MOL
REMARK 922        TOTAL FREE ENERGY PREDICTED BY IDOCK:   -5.87 KCAL/MOL
REMARK 923 INTER-LIGAND FREE ENERGY PREDICTED BY IDOCK:   -4.97 KCAL/MOL
REMARK 924 INTRA-LIGAND FREE ENERGY PREDICTED BY IDOCK:   -0.90 KCAL/MOL
REMARK 927      BINDING AFFINITY PREDICTED BY RF-SCORE:    0.00 PKD
ROOT
HETATM    1  C   UNL     1     -10.289   9.534  70.688  1.00  0.00    -0.369 C  
HETATM    2  C   UNL     1      -9.756   8.102  70.866  1.00  0.00    -0.166 C  
HETATM    3  C   UNL     1     -10.726   7.340  71.790  1.00  0.00    -0.243 C  
HETATM    4  C   UNL     1      -8.375   8.137  71.545  1.00  0.00    -0.155 C  
HETATM    5  N   UNL     1      -9.703   7.350  69.599  1.00  0.00    -0.163 NA 
HETATM    6  H   UNL     1     -10.647   7.188  69.250  1.00  0.00     0.000 HD 
ENDROOT
BRANCH   5   7
HETATM    7  C   UNL     1      -8.876   7.943  68.548  1.00  0.00    -0.134 C  
BRANCH   7   8
HETATM    8  C   UNL     1      -9.154   7.391  67.135  1.00  0.00    -0.130 C  
HETATM    9  O   UNL     1      -7.873   7.109  66.536  1.00  0.00    -0.101 OA 
HETATM   10  H   UNL     1      -8.044   6.770  65.666  1.00  0.00     0.000 HD 
BRANCH   8  11
HETATM   11  C   UNL     1      -9.908   8.362  66.219  1.00  0.00    -0.187 C  
BRANCH  11  12
HETATM   12  O   UNL     1      -9.650   9.744  66.493  1.00  0.00    -0.172 OA 
BRANCH  12  13
HETATM   13  C   UNL     1      -9.888  10.608  65.443  1.00  0.00    -0.267 A  
HETATM   14  C   UNL     1      -9.706  10.240  64.096  1.00  0.00    -0.357 A  
HETATM   15  C   UNL     1      -9.893  11.154  63.064  1.00  0.00    -0.368 A  
HETATM   16  C   UNL     1     -10.276  12.450  63.360  1.00  0.00    -0.252 A  
HETATM   17  C   UNL     1     -10.487  12.826  64.689  1.00  0.00    -0.373 A  
HETATM   18  C   UNL     1     -10.312  11.919  65.757  1.00  0.00    -0.285 A  
BRANCH  18  19
HETATM   19  C   UNL     1     -10.508  12.378  67.195  1.00  0.00    -0.236 C  
HETATM   20  C   UNL     1     -10.087  13.819  67.535  1.00  0.00    -0.241 C  
HETATM   21  C   UNL     1     -10.701  14.046  68.905  1.00  0.00    -0.265 C  
HETATM   22  C   UNL     1     -12.089  13.440  68.760  1.00  0.00    -0.281 C  
HETATM   23  C   UNL     1     -11.958  12.321  67.716  1.00  0.00    -0.229 C  
ENDBRANCH  18  19
ENDBRANCH  12  13
ENDBRANCH  11  12
ENDBRANCH   8  11
ENDBRANCH   7   8
ENDBRANCH   5   7
TORSDOF 6
ENDMDL
MODEL      202
REMARK 921   NORMALIZED FREE ENERGY PREDICTED BY IDOCK:   -3.57 KCAL/MOL
REMARK 922        TOTAL FREE ENERGY PREDICTED BY IDOCK:   -5.85 KCAL/MOL
REMARK 923 INTER-LIGAND FREE ENERGY PREDICTED BY IDOCK:   -5.26 KCAL/MOL
REMARK 924 INTRA-LIGAND FREE ENERGY PREDICTED BY IDOCK:   -0.59 KCAL/MOL
REMARK 927      BINDING AFFINITY PREDICTED BY RF-SCORE:    0.00 PKD
ROOT
HETATM    1  C   UNL     1     -12.572  12.770  65.016  1.00  0.00    -0.538 C  
HETATM    2  C   UNL     1     -11.039  12.811  64.898  1.00  0.00    -0.292 C  
HETATM    3  C   UNL     1     -10.599  14.288  64.873  1.00  0.00    -0.452 C  
HETATM    4  C   UNL     1     -10.597  12.157  63.577  1.00  0.00    -0.501 C  
HETATM    5  N   UNL     1     -10.359  12.188  66.048  1.00  0.00    -0.231 NA 
HETATM    6  H   UNL     1     -10.526  12.737  66.891  1.00  0.00     0.000 HD 
ENDROOT
BRANCH   5   7
HETATM    7  C   UNL     1     -10.691  10.784  66.293  1.00  0.00    -0.138 C  
BRANCH   7   8
HETATM    8  C   UNL     1     -11.218  10.494  67.713  1.00  0.00    -0.273 C  
HETATM    9  O   UNL     1     -12.351  11.361  67.924  1.00  0.00    -0.380 OA 
HETATM   10  H   UNL     1     -12.675  11.183  68.798  1.00  0.00     0.000 HD 
BRANCH   8  11
HETATM   11  C   UNL     1     -10.198  10.759  68.826  1.00  0.00    -0.193 C  
BRANCH  11  12
HETATM   12  O   UNL     1      -9.455   9.602  69.226  1.00  0.00    -0.161 OA 
BRANCH  12  13
HETATM   13  C   UNL     1     -10.215   8.525  69.639  1.00  0.00    -0.209 A  
HETATM   14  C   UNL     1     -11.288   8.652  70.541  1.00  0.00    -0.241 A  
HETATM   15  C   UNL     1     -11.993   7.539  70.988  1.00  0.00    -0.317 A  
HETATM   16  C   UNL     1     -11.645   6.280  70.530  1.00  0.00    -0.357 A  
HETATM   17  C   UNL     1     -10.600   6.139  69.614  1.00  0.00    -0.347 A  
HETATM   18  C   UNL     1      -9.870   7.250  69.137  1.00  0.00    -0.166 A  
BRANCH  18  19
HETATM   19  C   UNL     1      -8.709   7.051  68.174  1.00  0.00    -0.127 C  
HETATM   20  C   UNL     1      -7.310   6.871  68.789  1.00  0.00    -0.094 C  
HETATM   21  C   UNL     1      -6.476   6.383  67.618  1.00  0.00    -0.052 C  
HETATM   22  C   UNL     1      -7.389   5.367  66.950  1.00  0.00    -0.083 C  
HETATM   23  C   UNL     1      -8.825   5.828  67.242  1.00  0.00    -0.106 C  
ENDBRANCH  18  19
ENDBRANCH  12  13
ENDBRANCH  11  12
ENDBRANCH   8  11
ENDBRANCH   7   8
ENDBRANCH   5   7
TORSDOF 6
ENDMDL
MODEL      203
REMARK 921   NORMALIZED FREE ENERGY PREDICTED BY IDOCK:   -3.56 KCAL/MOL
REMARK 922        TOTAL FREE ENERGY PREDICTED BY IDOCK:   -5.84 KCAL/MOL
REMARK 923 INTER-LIGAND FREE ENERGY PREDICTED BY IDOCK:   -5.58 KCAL/MOL
REMARK 924 INTRA-LIGAND FREE ENERGY PREDICTED BY IDOCK:   -0.26 KCAL/MOL
REMARK 927      BINDING AFFINITY PREDICTED BY RF-SCORE:    0.00 PKD
ROOT
HETATM    1  C   UNL     1     -12.740  15.451  70.626  1.00  0.00    -0.490 C  
HETATM    2  C   UNL     1     -11.658  14.865  69.702  1.00  0.00    -0.303 C  
HETATM    3  C   UNL     1     -10.412  15.768  69.790  1.00  0.00    -0.318 C  
HETATM    4  C   UNL     1     -12.153  14.870  68.245  1.00  0.00    -0.146 C  
HETATM    5  N   UNL     1     -11.229  13.514  70.109  1.00  0.00    -0.463 NA 
HETATM    6  H   UNL     1     -10.747  13.557  71.008  1.00  0.00     0.000 HD 
ENDROOT
BRANCH   5   7
HETATM    7  C   UNL     1     -12.285  12.504  70.156  1.00  0.00    -0.234 C  
BRANCH   7   8
HETATM    8  C   UNL     1     -12.032  11.278  69.257  1.00  0.00    -0.342 C  
HETATM    9  O   UNL     1     -12.781  10.182  69.821  1.00  0.00    -0.510 OA 
HETATM   10  H   UNL     1     -12.624   9.427  69.267  1.00  0.00     0.000 HD 
BRANCH   8  11
HETATM   11  C   UNL     1     -10.560  10.857  69.169  1.00  0.00    -0.220 C  
BRANCH  11  12
HETATM   12  O   UNL     1     -10.308   9.516  69.604  1.00  0.00    -0.196 OA 
BRANCH  12  13
HETATM   13  C   UNL     1      -9.129   9.333  70.299  1.00  0.00    -0.237 A  
HETATM   14  C   UNL     1      -7.912   9.917  69.901  1.00  0.00    -0.193 A  
HETATM   15  C   UNL     1      -6.728   9.660  70.586  1.00  0.00    -0.116 A  
HETATM   16  C   UNL     1      -6.743   8.824  71.687  1.00  0.00    -0.078 A  
HETATM   17  C   UNL     1      -7.946   8.256  72.112  1.00  0.00    -0.186 A  
HETATM   18  C   UNL     1      -9.165   8.503  71.442  1.00  0.00    -0.272 A  
BRANCH  18  19
HETATM   19  C   UNL     1     -10.449   7.831  71.908  1.00  0.00    -0.268 C  
HETATM   20  C   UNL     1     -11.604   8.750  72.343  1.00  0.00    -0.321 C  
HETATM   21  C   UNL     1     -12.789   7.804  72.422  1.00  0.00    -0.007 C  
HETATM   22  C   UNL     1     -12.632   6.956  71.169  1.00  0.00    -0.366 C  
HETATM   23  C   UNL     1     -11.126   6.910  70.872  1.00  0.00    -0.313 C  
ENDBRANCH  18  19
ENDBRANCH  12  13
ENDBRANCH  11  12
ENDBRANCH   8  11
ENDBRANCH   7   8
ENDBRANCH   5   7
TORSDOF 6
ENDMDL
MODEL      204
REMARK 921   NORMALIZED FREE ENERGY PREDICTED BY IDOCK:   -3.56 KCAL/MOL
REMARK 922        TOTAL FREE ENERGY PREDICTED BY IDOCK:   -5.84 KCAL/MOL
REMARK 923 INTER-LIGAND FREE ENERGY PREDICTED BY IDOCK:   -5.03 KCAL/MOL
REMARK 924 INTRA-LIGAND FREE ENERGY PREDICTED BY IDOCK:   -0.81 KCAL/MOL
REMARK 927      BINDING AFFINITY PREDICTED BY RF-SCORE:    0.00 PKD
ROOT
HETATM    1  C   UNL     1      -9.578   8.603  67.443  1.00  0.00    -0.204 C  
HETATM    2  C   UNL     1      -8.180   8.476  66.812  1.00  0.00    -0.105 C  
HETATM    3  C   UNL     1      -8.326   7.731  65.470  1.00  0.00    -0.151 C  
HETATM    4  C   UNL     1      -7.265   7.643  67.726  1.00  0.00    -0.087 C  
HETATM    5  N   UNL     1      -7.571   9.783  66.503  1.00  0.00    -0.098 NA 
HETATM    6  H   UNL     1      -8.100  10.250  65.767  1.00  0.00     0.000 HD 
ENDROOT
BRANCH   5   7
HETATM    7  C   UNL     1      -7.399  10.684  67.643  1.00  0.00    -0.090 C  
BRANCH   7   8
HETATM    8  C   UNL     1      -6.705  12.017  67.299  1.00  0.00    -0.144 C  
HETATM    9  O   UNL     1      -5.542  12.114  68.146  1.00  0.00    -0.048 OA 
HETATM   10  H   UNL     1      -5.115  12.935  67.935  1.00  0.00     0.000 HD 
BRANCH   8  11
HETATM   11  C   UNL     1      -7.575  13.257  67.536  1.00  0.00    -0.164 C  
BRANCH  11  12
HETATM   12  O   UNL     1      -8.867  12.969  68.085  1.00  0.00    -0.186 OA 
BRANCH  12  13
HETATM   13  C   UNL     1      -9.935  13.239  67.253  1.00  0.00    -0.231 A  
HETATM   14  C   UNL     1      -9.917  12.956  65.874  1.00  0.00    -0.273 A  
HETATM   15  C   UNL     1     -10.985  13.300  65.050  1.00  0.00    -0.328 A  
HETATM   16  C   UNL     1     -12.094  13.922  65.594  1.00  0.00    -0.442 A  
HETATM   17  C   UNL     1     -12.140  14.186  66.964  1.00  0.00    -0.449 A  
HETATM   18  C   UNL     1     -11.076  13.843  67.827  1.00  0.00    -0.281 A  
BRANCH  18  19
HETATM   19  C   UNL     1     -11.143  14.188  69.308  1.00  0.00    -0.286 C  
HETATM   20  C   UNL     1     -10.855  15.648  69.702  1.00  0.00    -0.287 C  
HETATM   21  C   UNL     1     -11.316  15.715  71.147  1.00  0.00    -0.446 C  
HETATM   22  C   UNL     1     -12.631  14.951  71.120  1.00  0.00    -0.404 C  
HETATM   23  C   UNL     1     -12.501  13.921  69.988  1.00  0.00    -0.325 C  
ENDBRANCH  18  19
ENDBRANCH  12  13
ENDBRANCH  11  12
ENDBRANCH   8  11
ENDBRANCH   7   8
ENDBRANCH   5   7
TORSDOF 6
ENDMDL
MODEL      205
REMARK 921   NORMALIZED FREE ENERGY PREDICTED BY IDOCK:   -3.54 KCAL/MOL
REMARK 922        TOTAL FREE ENERGY PREDICTED BY IDOCK:   -5.81 KCAL/MOL
REMARK 923 INTER-LIGAND FREE ENERGY PREDICTED BY IDOCK:   -4.31 KCAL/MOL
REMARK 924 INTRA-LIGAND FREE ENERGY PREDICTED BY IDOCK:   -1.50 KCAL/MOL
REMARK 927      BINDING AFFINITY PREDICTED BY RF-SCORE:    0.00 PKD
ROOT
HETATM    1  C   UNL     1      -5.462   9.154  71.368  1.00  0.00    -0.051 C  
HETATM    2  C   UNL     1      -6.681   9.004  70.441  1.00  0.00    -0.052 C  
HETATM    3  C   UNL     1      -6.193   8.421  69.100  1.00  0.00    -0.043 C  
HETATM    4  C   UNL     1      -7.305  10.383  70.166  1.00  0.00    -0.049 C  
HETATM    5  N   UNL     1      -7.687   8.064  70.968  1.00  0.00    -0.081 NA 
HETATM    6  H   UNL     1      -7.307   7.117  70.983  1.00  0.00     0.000 HD 
ENDROOT
BRANCH   5   7
HETATM    7  C   UNL     1      -8.239   8.401  72.280  1.00  0.00    -0.140 C  
BRANCH   7   8
HETATM    8  C   UNL     1      -9.771   8.250  72.382  1.00  0.00    -0.303 C  
HETATM    9  O   UNL     1     -10.086   6.900  71.984  1.00  0.00    -0.185 OA 
HETATM   10  H   UNL     1     -11.029   6.808  72.047  1.00  0.00     0.000 HD 
BRANCH   8  11
HETATM   11  C   UNL     1     -10.557   9.211  71.483  1.00  0.00    -0.358 C  
BRANCH  11  12
HETATM   12  O   UNL     1     -10.892   8.670  70.200  1.00  0.00    -0.234 OA 
BRANCH  12  13
HETATM   13  C   UNL     1     -10.815   9.559  69.147  1.00  0.00    -0.173 A  
HETATM   14  C   UNL     1     -11.088  10.932  69.287  1.00  0.00    -0.305 A  
HETATM   15  C   UNL     1     -11.065  11.791  68.193  1.00  0.00    -0.297 A  
HETATM   16  C   UNL     1     -10.756  11.292  66.940  1.00  0.00    -0.319 A  
HETATM   17  C   UNL     1     -10.456   9.937  66.786  1.00  0.00    -0.261 A  
HETATM   18  C   UNL     1     -10.464   9.042  67.879  1.00  0.00    -0.291 A  
BRANCH  18  19
HETATM   19  C   UNL     1     -10.176   7.564  67.664  1.00  0.00    -0.275 C  
HETATM   20  C   UNL     1     -11.261   6.732  66.956  1.00  0.00    -0.222 C  
HETATM   21  C   UNL     1     -10.542   5.438  66.620  1.00  0.00    -0.359 C  
HETATM   22  C   UNL     1      -9.192   5.920  66.112  1.00  0.00    -0.164 C  
HETATM   23  C   UNL     1      -8.917   7.249  66.831  1.00  0.00    -0.148 C  
ENDBRANCH  18  19
ENDBRANCH  12  13
ENDBRANCH  11  12
ENDBRANCH   8  11
ENDBRANCH   7   8
ENDBRANCH   5   7
TORSDOF 6
ENDMDL
MODEL      206
REMARK 921   NORMALIZED FREE ENERGY PREDICTED BY IDOCK:   -3.53 KCAL/MOL
REMARK 922        TOTAL FREE ENERGY PREDICTED BY IDOCK:   -5.79 KCAL/MOL
REMARK 923 INTER-LIGAND FREE ENERGY PREDICTED BY IDOCK:   -5.00 KCAL/MOL
REMARK 924 INTRA-LIGAND FREE ENERGY PREDICTED BY IDOCK:   -0.80 KCAL/MOL
REMARK 927      BINDING AFFINITY PREDICTED BY RF-SCORE:    0.00 PKD
ROOT
HETATM    1  C   UNL     1     -10.244  13.687  64.727  1.00  0.00    -0.363 C  
HETATM    2  C   UNL     1     -11.683  14.004  65.167  1.00  0.00    -0.350 C  
HETATM    3  C   UNL     1     -12.513  12.710  65.057  1.00  0.00    -0.556 C  
HETATM    4  C   UNL     1     -12.302  15.052  64.225  1.00  0.00    -0.247 C  
HETATM    5  N   UNL     1     -11.769  14.441  66.572  1.00  0.00    -0.383 NA 
HETATM    6  H   UNL     1     -11.516  13.672  67.193  1.00  0.00     0.000 HD 
ENDROOT
BRANCH   5   7
HETATM    7  C   UNL     1     -10.991  15.632  66.911  1.00  0.00    -0.243 C  
BRANCH   7   8
HETATM    8  C   UNL     1     -10.790  15.850  68.425  1.00  0.00    -0.316 C  
HETATM    9  O   UNL     1     -10.028  17.065  68.575  1.00  0.00    -0.262 OA 
HETATM   10  H   UNL     1      -9.904  17.199  69.507  1.00  0.00     0.000 HD 
BRANCH   8  11
HETATM   11  C   UNL     1     -10.031  14.718  69.126  1.00  0.00    -0.181 C  
BRANCH  11  12
HETATM   12  O   UNL     1      -9.687  13.624  68.268  1.00  0.00    -0.223 OA 
BRANCH  12  13
HETATM   13  C   UNL     1      -8.334  13.393  68.119  1.00  0.00    -0.164 A  
HETATM   14  C   UNL     1      -7.384  14.432  68.075  1.00  0.00    -0.148 A  
HETATM   15  C   UNL     1      -6.035  14.169  67.859  1.00  0.00    -0.143 A  
HETATM   16  C   UNL     1      -5.610  12.863  67.695  1.00  0.00    -0.120 A  
HETATM   17  C   UNL     1      -6.535  11.819  67.763  1.00  0.00    -0.075 A  
HETATM   18  C   UNL     1      -7.910  12.052  67.988  1.00  0.00    -0.145 A  
BRANCH  18  19
HETATM   19  C   UNL     1      -8.894  10.891  68.010  1.00  0.00    -0.135 C  
HETATM   20  C   UNL     1      -9.306  10.348  69.390  1.00  0.00    -0.186 C  
HETATM   21  C   UNL     1     -10.497   9.461  69.072  1.00  0.00    -0.233 C  
HETATM   22  C   UNL     1     -11.285  10.295  68.073  1.00  0.00    -0.303 C  
HETATM   23  C   UNL     1     -10.254  11.165  67.338  1.00  0.00    -0.221 C  
ENDBRANCH  18  19
ENDBRANCH  12  13
ENDBRANCH  11  12
ENDBRANCH   8  11
ENDBRANCH   7   8
ENDBRANCH   5   7
TORSDOF 6
ENDMDL
MODEL      207
REMARK 921   NORMALIZED FREE ENERGY PREDICTED BY IDOCK:   -3.52 KCAL/MOL
REMARK 922        TOTAL FREE ENERGY PREDICTED BY IDOCK:   -5.78 KCAL/MOL
REMARK 923 INTER-LIGAND FREE ENERGY PREDICTED BY IDOCK:   -4.63 KCAL/MOL
REMARK 924 INTRA-LIGAND FREE ENERGY PREDICTED BY IDOCK:   -1.15 KCAL/MOL
REMARK 927      BINDING AFFINITY PREDICTED BY RF-SCORE:    0.00 PKD
ROOT
HETATM    1  C   UNL     1     -12.755   9.025  72.037  1.00  0.00    -0.467 C  
HETATM    2  C   UNL     1     -11.601   8.525  71.150  1.00  0.00    -0.281 C  
HETATM    3  C   UNL     1     -11.737   6.997  71.005  1.00  0.00    -0.375 C  
HETATM    4  C   UNL     1     -10.252   8.826  71.826  1.00  0.00    -0.408 C  
HETATM    5  N   UNL     1     -11.645   9.083  69.787  1.00  0.00    -0.419 NA 
HETATM    6  H   UNL     1     -12.466   8.733  69.292  1.00  0.00     0.000 HD 
ENDROOT
BRANCH   5   7
HETATM    7  C   UNL     1     -11.594  10.542  69.700  1.00  0.00    -0.271 C  
BRANCH   7   8
HETATM    8  C   UNL     1     -10.974  11.079  68.394  1.00  0.00    -0.230 C  
HETATM    9  O   UNL     1     -12.055  11.620  67.608  1.00  0.00    -0.615 OA 
HETATM   10  H   UNL     1     -11.673  11.950  66.804  1.00  0.00     0.000 HD 
BRANCH   8  11
HETATM   11  C   UNL     1     -10.257  10.015  67.556  1.00  0.00    -0.212 C  
BRANCH  11  12
HETATM   12  O   UNL     1      -8.833  10.165  67.514  1.00  0.00    -0.125 OA 
BRANCH  12  13
HETATM   13  C   UNL     1      -8.151   9.624  68.586  1.00  0.00    -0.100 A  
HETATM   14  C   UNL     1      -7.509  10.416  69.557  1.00  0.00    -0.148 A  
HETATM   15  C   UNL     1      -6.774   9.841  70.589  1.00  0.00    -0.111 A  
HETATM   16  C   UNL     1      -6.680   8.463  70.675  1.00  0.00    -0.038 A  
HETATM   17  C   UNL     1      -7.333   7.662  69.736  1.00  0.00    -0.081 A  
HETATM   18  C   UNL     1      -8.091   8.216  68.681  1.00  0.00    -0.124 A  
BRANCH  18  19
HETATM   19  C   UNL     1      -8.751   7.311  67.650  1.00  0.00    -0.125 C  
HETATM   20  C   UNL     1      -7.942   6.986  66.382  1.00  0.00    -0.109 C  
HETATM   21  C   UNL     1      -8.723   5.845  65.756  1.00  0.00    -0.153 C  
HETATM   22  C   UNL     1      -9.063   4.968  66.951  1.00  0.00    -0.117 C  
HETATM   23  C   UNL     1      -9.152   5.912  68.159  1.00  0.00    -0.117 C  
ENDBRANCH  18  19
ENDBRANCH  12  13
ENDBRANCH  11  12
ENDBRANCH   8  11
ENDBRANCH   7   8
ENDBRANCH   5   7
TORSDOF 6
ENDMDL
MODEL      208
REMARK 921   NORMALIZED FREE ENERGY PREDICTED BY IDOCK:   -3.51 KCAL/MOL
REMARK 922        TOTAL FREE ENERGY PREDICTED BY IDOCK:   -5.78 KCAL/MOL
REMARK 923 INTER-LIGAND FREE ENERGY PREDICTED BY IDOCK:   -5.38 KCAL/MOL
REMARK 924 INTRA-LIGAND FREE ENERGY PREDICTED BY IDOCK:   -0.40 KCAL/MOL
REMARK 927      BINDING AFFINITY PREDICTED BY RF-SCORE:    0.00 PKD
ROOT
HETATM    1  C   UNL     1      -9.417  10.145  62.435  1.00  0.00    -0.244 C  
HETATM    2  C   UNL     1      -8.467   9.889  63.617  1.00  0.00    -0.181 C  
HETATM    3  C   UNL     1      -7.071  10.415  63.232  1.00  0.00    -0.043 C  
HETATM    4  C   UNL     1      -8.354   8.377  63.882  1.00  0.00    -0.063 C  
HETATM    5  N   UNL     1      -8.867  10.610  64.839  1.00  0.00    -0.193 NA 
HETATM    6  H   UNL     1      -8.771  11.616  64.697  1.00  0.00     0.000 HD 
ENDROOT
BRANCH   5   7
HETATM    7  C   UNL     1     -10.205  10.302  65.344  1.00  0.00    -0.242 C  
BRANCH   7   8
HETATM    8  C   UNL     1     -10.246   9.917  66.837  1.00  0.00    -0.240 C  
HETATM    9  O   UNL     1     -10.811   8.592  66.911  1.00  0.00    -0.287 OA 
HETATM   10  H   UNL     1     -10.837   8.355  67.831  1.00  0.00     0.000 HD 
BRANCH   8  11
HETATM   11  C   UNL     1     -11.099  10.851  67.703  1.00  0.00    -0.313 C  
BRANCH  11  12
HETATM   12  O   UNL     1     -10.572  11.074  69.016  1.00  0.00    -0.207 OA 
BRANCH  12  13
HETATM   13  C   UNL     1     -11.429  11.703  69.897  1.00  0.00    -0.228 A  
HETATM   14  C   UNL     1     -12.123  11.012  70.909  1.00  0.00    -0.444 A  
HETATM   15  C   UNL     1     -13.029  11.664  71.739  1.00  0.00    -0.483 A  
HETATM   16  C   UNL     1     -13.249  13.021  71.580  1.00  0.00    -0.360 A  
HETATM   17  C   UNL     1     -12.550  13.726  70.599  1.00  0.00    -0.386 A  
HETATM   18  C   UNL     1     -11.618  13.095  69.745  1.00  0.00    -0.291 A  
BRANCH  18  19
HETATM   19  C   UNL     1     -10.909  13.889  68.658  1.00  0.00    -0.278 C  
HETATM   20  C   UNL     1     -11.595  15.177  68.169  1.00  0.00    -0.358 C  
HETATM   21  C   UNL     1     -10.507  15.865  67.364  1.00  0.00    -0.306 C  
HETATM   22  C   UNL     1      -9.273  15.684  68.234  1.00  0.00    -0.188 C  
HETATM   23  C   UNL     1      -9.492  14.380  69.016  1.00  0.00    -0.042 C  
ENDBRANCH  18  19
ENDBRANCH  12  13
ENDBRANCH  11  12
ENDBRANCH   8  11
ENDBRANCH   7   8
ENDBRANCH   5   7
TORSDOF 6
ENDMDL
MODEL      209
REMARK 921   NORMALIZED FREE ENERGY PREDICTED BY IDOCK:   -3.50 KCAL/MOL
REMARK 922        TOTAL FREE ENERGY PREDICTED BY IDOCK:   -5.76 KCAL/MOL
REMARK 923 INTER-LIGAND FREE ENERGY PREDICTED BY IDOCK:   -4.79 KCAL/MOL
REMARK 924 INTRA-LIGAND FREE ENERGY PREDICTED BY IDOCK:   -0.97 KCAL/MOL
REMARK 927      BINDING AFFINITY PREDICTED BY RF-SCORE:    0.00 PKD
ROOT
HETATM    1  C   UNL     1     -13.245  10.570  72.183  1.00  0.00    -0.398 C  
HETATM    2  C   UNL     1     -12.664   9.221  71.723  1.00  0.00    -0.381 C  
HETATM    3  C   UNL     1     -13.833   8.234  71.539  1.00  0.00    -0.382 C  
HETATM    4  C   UNL     1     -11.725   8.658  72.805  1.00  0.00    -0.029 C  
HETATM    5  N   UNL     1     -11.977   9.308  70.422  1.00  0.00    -0.469 NA 
HETATM    6  H   UNL     1     -12.651   9.516  69.685  1.00  0.00     0.000 HD 
ENDROOT
BRANCH   5   7
HETATM    7  C   UNL     1     -10.861  10.251  70.359  1.00  0.00    -0.253 C  
BRANCH   7   8
HETATM    8  C   UNL     1      -9.500   9.603  70.033  1.00  0.00    -0.240 C  
HETATM    9  O   UNL     1      -8.642  10.654  69.545  1.00  0.00    -0.354 OA 
HETATM   10  H   UNL     1      -7.804  10.255  69.344  1.00  0.00     0.000 HD 
BRANCH   8  11
HETATM   11  C   UNL     1      -9.567   8.504  68.966  1.00  0.00    -0.167 C  
BRANCH  11  12
HETATM   12  O   UNL     1      -8.973   7.264  69.365  1.00  0.00    -0.140 OA 
BRANCH  12  13
HETATM   13  C   UNL     1      -9.203   6.199  68.516  1.00  0.00    -0.115 A  
HETATM   14  C   UNL     1      -9.198   6.328  67.114  1.00  0.00    -0.125 A  
HETATM   15  C   UNL     1      -9.497   5.250  66.288  1.00  0.00    -0.166 A  
HETATM   16  C   UNL     1      -9.794   4.020  66.849  1.00  0.00    -0.157 A  
HETATM   17  C   UNL     1      -9.777   3.868  68.236  1.00  0.00    -0.119 A  
HETATM   18  C   UNL     1      -9.471   4.941  69.102  1.00  0.00    -0.205 A  
BRANCH  18  19
HETATM   19  C   UNL     1      -9.507   4.748  70.611  1.00  0.00    -0.238 C  
HETATM   20  C   UNL     1     -10.777   5.209  71.348  1.00  0.00    -0.154 C  
HETATM   21  C   UNL     1     -10.623   4.590  72.725  1.00  0.00    -0.263 C  
HETATM   22  C   UNL     1     -10.127   3.186  72.414  1.00  0.00    -0.227 C  
HETATM   23  C   UNL     1      -9.349   3.292  71.094  1.00  0.00    -0.210 C  
ENDBRANCH  18  19
ENDBRANCH  12  13
ENDBRANCH  11  12
ENDBRANCH   8  11
ENDBRANCH   7   8
ENDBRANCH   5   7
TORSDOF 6
ENDMDL
MODEL      210
REMARK 921   NORMALIZED FREE ENERGY PREDICTED BY IDOCK:   -3.49 KCAL/MOL
REMARK 922        TOTAL FREE ENERGY PREDICTED BY IDOCK:   -5.75 KCAL/MOL
REMARK 923 INTER-LIGAND FREE ENERGY PREDICTED BY IDOCK:   -5.14 KCAL/MOL
REMARK 924 INTRA-LIGAND FREE ENERGY PREDICTED BY IDOCK:   -0.61 KCAL/MOL
REMARK 927      BINDING AFFINITY PREDICTED BY RF-SCORE:    0.00 PKD
ROOT
HETATM    1  C   UNL     1     -11.120   4.706  73.433  1.00  0.00    -0.418 C  
HETATM    2  C   UNL     1     -10.234   5.393  72.380  1.00  0.00    -0.195 C  
HETATM    3  C   UNL     1     -10.141   4.465  71.153  1.00  0.00    -0.196 C  
HETATM    4  C   UNL     1      -8.814   5.594  72.938  1.00  0.00    -0.124 C  
HETATM    5  N   UNL     1     -10.798   6.668  71.901  1.00  0.00    -0.230 NA 
HETATM    6  H   UNL     1     -11.659   6.495  71.382  1.00  0.00     0.000 HD 
ENDROOT
BRANCH   5   7
HETATM    7  C   UNL     1     -11.031   7.681  72.930  1.00  0.00    -0.400 C  
BRANCH   7   8
HETATM    8  C   UNL     1     -11.998   8.805  72.507  1.00  0.00    -0.231 C  
HETATM    9  O   UNL     1     -13.278   8.499  73.096  1.00  0.00    -0.687 OA 
HETATM   10  H   UNL     1     -13.874   9.191  72.835  1.00  0.00     0.000 HD 
BRANCH   8  11
HETATM   11  C   UNL     1     -12.186   8.934  70.991  1.00  0.00    -0.203 C  
BRANCH  11  12
HETATM   12  O   UNL     1     -10.965   9.111  70.264  1.00  0.00    -0.233 OA 
BRANCH  12  13
HETATM   13  C   UNL     1     -10.876  10.281  69.535  1.00  0.00    -0.256 A  
HETATM   14  C   UNL     1     -12.008  11.011  69.125  1.00  0.00    -0.394 A  
HETATM   15  C   UNL     1     -11.887  12.151  68.337  1.00  0.00    -0.360 A  
HETATM   16  C   UNL     1     -10.631  12.588  67.955  1.00  0.00    -0.233 A  
HETATM   17  C   UNL     1      -9.496  11.892  68.375  1.00  0.00    -0.189 A  
HETATM   18  C   UNL     1      -9.585  10.736  69.181  1.00  0.00    -0.169 A  
BRANCH  18  19
HETATM   19  C   UNL     1      -8.328   9.978  69.582  1.00  0.00    -0.188 C  
HETATM   20  C   UNL     1      -8.347   9.257  70.942  1.00  0.00    -0.196 C  
HETATM   21  C   UNL     1      -7.120   8.366  70.879  1.00  0.00    -0.057 C  
HETATM   22  C   UNL     1      -7.184   7.797  69.470  1.00  0.00    -0.079 C  
HETATM   23  C   UNL     1      -7.895   8.857  68.616  1.00  0.00    -0.102 C  
ENDBRANCH  18  19
ENDBRANCH  12  13
ENDBRANCH  11  12
ENDBRANCH   8  11
ENDBRANCH   7   8
ENDBRANCH   5   7
TORSDOF 6
ENDMDL
MODEL      211
REMARK 921   NORMALIZED FREE ENERGY PREDICTED BY IDOCK:   -3.46 KCAL/MOL
REMARK 922        TOTAL FREE ENERGY PREDICTED BY IDOCK:   -5.70 KCAL/MOL
REMARK 923 INTER-LIGAND FREE ENERGY PREDICTED BY IDOCK:   -5.40 KCAL/MOL
REMARK 924 INTRA-LIGAND FREE ENERGY PREDICTED BY IDOCK:   -0.30 KCAL/MOL
REMARK 927      BINDING AFFINITY PREDICTED BY RF-SCORE:    0.00 PKD
ROOT
HETATM    1  C   UNL     1     -10.287  14.633  64.909  1.00  0.00    -0.382 C  
HETATM    2  C   UNL     1     -11.346  14.053  65.863  1.00  0.00    -0.317 C  
HETATM    3  C   UNL     1     -12.725  14.188  65.187  1.00  0.00    -0.387 C  
HETATM    4  C   UNL     1     -11.373  14.862  67.172  1.00  0.00    -0.348 C  
HETATM    5  N   UNL     1     -11.148  12.617  66.134  1.00  0.00    -0.282 NA 
HETATM    6  H   UNL     1     -11.304  12.077  65.282  1.00  0.00     0.000 HD 
ENDROOT
BRANCH   5   7
HETATM    7  C   UNL     1      -9.859  12.258  66.724  1.00  0.00    -0.209 C  
BRANCH   7   8
HETATM    8  C   UNL     1      -9.795  12.421  68.256  1.00  0.00    -0.224 C  
HETATM    9  O   UNL     1      -8.441  12.796  68.581  1.00  0.00    -0.325 OA 
HETATM   10  H   UNL     1      -8.401  12.896  69.524  1.00  0.00     0.000 HD 
BRANCH   8  11
HETATM   11  C   UNL     1     -10.140  11.148  69.037  1.00  0.00    -0.155 C  
BRANCH  11  12
HETATM   12  O   UNL     1     -10.630  10.077  68.222  1.00  0.00    -0.200 OA 
BRANCH  12  13
HETATM   13  C   UNL     1      -9.758   9.021  68.047  1.00  0.00    -0.155 A  
HETATM   14  C   UNL     1      -8.785   8.998  67.030  1.00  0.00    -0.124 A  
HETATM   15  C   UNL     1      -7.963   7.891  66.840  1.00  0.00    -0.108 A  
HETATM   16  C   UNL     1      -8.093   6.793  67.671  1.00  0.00    -0.116 A  
HETATM   17  C   UNL     1      -9.034   6.809  68.702  1.00  0.00    -0.125 A  
HETATM   18  C   UNL     1      -9.878   7.920  68.925  1.00  0.00    -0.174 A  
BRANCH  18  19
HETATM   19  C   UNL     1     -10.923   7.883  70.030  1.00  0.00    -0.208 C  
HETATM   20  C   UNL     1     -11.520   6.510  70.386  1.00  0.00    -0.465 C  
HETATM   21  C   UNL     1     -12.245   6.774  71.693  1.00  0.00    -0.410 C  
HETATM   22  C   UNL     1     -11.258   7.640  72.461  1.00  0.00    -0.399 C  
HETATM   23  C   UNL     1     -10.453   8.408  71.402  1.00  0.00    -0.286 C  
ENDBRANCH  18  19
ENDBRANCH  12  13
ENDBRANCH  11  12
ENDBRANCH   8  11
ENDBRANCH   7   8
ENDBRANCH   5   7
TORSDOF 6
ENDMDL
MODEL      212
REMARK 921   NORMALIZED FREE ENERGY PREDICTED BY IDOCK:   -3.45 KCAL/MOL
REMARK 922        TOTAL FREE ENERGY PREDICTED BY IDOCK:   -5.69 KCAL/MOL
REMARK 923 INTER-LIGAND FREE ENERGY PREDICTED BY IDOCK:   -4.44 KCAL/MOL
REMARK 924 INTRA-LIGAND FREE ENERGY PREDICTED BY IDOCK:   -1.25 KCAL/MOL
REMARK 927      BINDING AFFINITY PREDICTED BY RF-SCORE:    0.00 PKD
ROOT
HETATM    1  C   UNL     1     -10.783  13.633  66.656  1.00  0.00    -0.280 C  
HETATM    2  C   UNL     1     -10.522  12.128  66.839  1.00  0.00    -0.225 C  
HETATM    3  C   UNL     1     -10.870  11.417  65.517  1.00  0.00    -0.282 C  
HETATM    4  C   UNL     1     -11.437  11.567  67.941  1.00  0.00    -0.372 C  
HETATM    5  N   UNL     1      -9.107  11.823  67.121  1.00  0.00    -0.170 NA 
HETATM    6  H   UNL     1      -8.533  12.046  66.308  1.00  0.00     0.000 HD 
ENDROOT
BRANCH   5   7
HETATM    7  C   UNL     1      -8.550  12.460  68.315  1.00  0.00    -0.172 C  
BRANCH   7   8
HETATM    8  C   UNL     1      -7.633  11.546  69.152  1.00  0.00    -0.003 C  
HETATM    9  O   UNL     1      -6.280  11.811  68.730  1.00  0.00    -0.052 OA 
HETATM   10  H   UNL     1      -5.716  11.247  69.246  1.00  0.00     0.000 HD 
BRANCH   8  11
HETATM   11  C   UNL     1      -7.908  10.049  68.974  1.00  0.00    -0.101 C  
BRANCH  11  12
HETATM   12  O   UNL     1      -9.245   9.656  69.305  1.00  0.00    -0.163 OA 
BRANCH  12  13
HETATM   13  C   UNL     1      -9.640   8.430  68.806  1.00  0.00    -0.149 A  
HETATM   14  C   UNL     1      -9.982   8.232  67.455  1.00  0.00    -0.271 A  
HETATM   15  C   UNL     1     -10.439   7.000  66.997  1.00  0.00    -0.386 A  
HETATM   16  C   UNL     1     -10.550   5.941  67.881  1.00  0.00    -0.322 A  
HETATM   17  C   UNL     1     -10.189   6.112  69.218  1.00  0.00    -0.251 A  
HETATM   18  C   UNL     1      -9.715   7.348  69.712  1.00  0.00    -0.170 A  
BRANCH  18  19
HETATM   19  C   UNL     1      -9.375   7.509  71.186  1.00  0.00    -0.155 C  
HETATM   20  C   UNL     1     -10.550   7.704  72.161  1.00  0.00    -0.281 C  
HETATM   21  C   UNL     1      -9.909   7.502  73.522  1.00  0.00    -0.372 C  
HETATM   22  C   UNL     1      -9.012   6.294  73.301  1.00  0.00    -0.131 C  
HETATM   23  C   UNL     1      -8.607   6.331  71.820  1.00  0.00    -0.133 C  
ENDBRANCH  18  19
ENDBRANCH  12  13
ENDBRANCH  11  12
ENDBRANCH   8  11
ENDBRANCH   7   8
ENDBRANCH   5   7
TORSDOF 6
ENDMDL
MODEL      213
REMARK 921   NORMALIZED FREE ENERGY PREDICTED BY IDOCK:   -3.43 KCAL/MOL
REMARK 922        TOTAL FREE ENERGY PREDICTED BY IDOCK:   -5.67 KCAL/MOL
REMARK 923 INTER-LIGAND FREE ENERGY PREDICTED BY IDOCK:   -5.21 KCAL/MOL
REMARK 924 INTRA-LIGAND FREE ENERGY PREDICTED BY IDOCK:   -0.46 KCAL/MOL
REMARK 927      BINDING AFFINITY PREDICTED BY RF-SCORE:    0.00 PKD
ROOT
HETATM    1  C   UNL     1      -8.271   5.314  72.206  1.00  0.00    -0.118 C  
HETATM    2  C   UNL     1      -9.804   5.227  72.299  1.00  0.00    -0.168 C  
HETATM    3  C   UNL     1     -10.200   5.320  73.786  1.00  0.00    -0.250 C  
HETATM    4  C   UNL     1     -10.286   3.869  71.758  1.00  0.00    -0.116 C  
HETATM    5  N   UNL     1     -10.483   6.340  71.612  1.00  0.00    -0.212 NA 
HETATM    6  H   UNL     1     -10.287   7.218  72.092  1.00  0.00     0.000 HD 
ENDROOT
BRANCH   5   7
HETATM    7  C   UNL     1     -10.190   6.474  70.185  1.00  0.00    -0.192 C  
BRANCH   7   8
HETATM    8  C   UNL     1     -10.197   7.927  69.669  1.00  0.00    -0.207 C  
HETATM    9  O   UNL     1     -11.561   8.391  69.744  1.00  0.00    -0.430 OA 
HETATM   10  H   UNL     1     -11.565   9.286  69.425  1.00  0.00     0.000 HD 
BRANCH   8  11
HETATM   11  C   UNL     1      -9.717   8.081  68.221  1.00  0.00    -0.164 C  
BRANCH  11  12
HETATM   12  O   UNL     1     -10.225   9.244  67.557  1.00  0.00    -0.209 OA 
BRANCH  12  13
HETATM   13  C   UNL     1      -9.448  10.378  67.676  1.00  0.00    -0.148 A  
HETATM   14  C   UNL     1      -8.429  10.506  68.639  1.00  0.00    -0.138 A  
HETATM   15  C   UNL     1      -7.706  11.688  68.775  1.00  0.00    -0.111 A  
HETATM   16  C   UNL     1      -7.983  12.758  67.943  1.00  0.00    -0.158 A  
HETATM   17  C   UNL     1      -8.972  12.639  66.965  1.00  0.00    -0.216 A  
HETATM   18  C   UNL     1      -9.717  11.452  66.797  1.00  0.00    -0.221 A  
BRANCH  18  19
HETATM   19  C   UNL     1     -10.818  11.376  65.749  1.00  0.00    -0.290 C  
HETATM   20  C   UNL     1     -11.761  12.587  65.632  1.00  0.00    -0.473 C  
HETATM   21  C   UNL     1     -12.493  12.332  64.328  1.00  0.00    -0.508 C  
HETATM   22  C   UNL     1     -11.383  11.864  63.399  1.00  0.00    -0.465 C  
HETATM   23  C   UNL     1     -10.337  11.185  64.297  1.00  0.00    -0.413 C  
ENDBRANCH  18  19
ENDBRANCH  12  13
ENDBRANCH  11  12
ENDBRANCH   8  11
ENDBRANCH   7   8
ENDBRANCH   5   7
TORSDOF 6
ENDMDL
MODEL      214
REMARK 921   NORMALIZED FREE ENERGY PREDICTED BY IDOCK:   -3.43 KCAL/MOL
REMARK 922        TOTAL FREE ENERGY PREDICTED BY IDOCK:   -5.67 KCAL/MOL
REMARK 923 INTER-LIGAND FREE ENERGY PREDICTED BY IDOCK:   -5.32 KCAL/MOL
REMARK 924 INTRA-LIGAND FREE ENERGY PREDICTED BY IDOCK:   -0.35 KCAL/MOL
REMARK 927      BINDING AFFINITY PREDICTED BY RF-SCORE:    0.00 PKD
ROOT
HETATM    1  C   UNL     1      -9.516  11.995  67.171  1.00  0.00    -0.187 C  
HETATM    2  C   UNL     1     -11.038  11.769  67.180  1.00  0.00    -0.296 C  
HETATM    3  C   UNL     1     -11.635  12.480  65.949  1.00  0.00    -0.454 C  
HETATM    4  C   UNL     1     -11.654  12.398  68.442  1.00  0.00    -0.373 C  
HETATM    5  N   UNL     1     -11.406  10.346  67.065  1.00  0.00    -0.194 NA 
HETATM    6  H   UNL     1     -11.139   9.990  66.147  1.00  0.00     0.000 HD 
ENDROOT
BRANCH   5   7
HETATM    7  C   UNL     1     -10.879   9.472  68.112  1.00  0.00    -0.156 C  
BRANCH   7   8
HETATM    8  C   UNL     1      -9.889   8.402  67.608  1.00  0.00    -0.173 C  
HETATM    9  O   UNL     1     -10.285   8.067  66.263  1.00  0.00    -0.481 OA 
HETATM   10  H   UNL     1      -9.675   7.408  65.953  1.00  0.00     0.000 HD 
BRANCH   8  11
HETATM   11  C   UNL     1      -9.880   7.115  68.440  1.00  0.00    -0.152 C  
BRANCH  11  12
HETATM   12  O   UNL     1     -10.347   7.282  69.783  1.00  0.00    -0.208 OA 
BRANCH  12  13
HETATM   13  C   UNL     1      -9.472   6.872  70.769  1.00  0.00    -0.165 A  
HETATM   14  C   UNL     1      -8.297   6.148  70.491  1.00  0.00    -0.129 A  
HETATM   15  C   UNL     1      -7.469   5.693  71.512  1.00  0.00    -0.096 A  
HETATM   16  C   UNL     1      -7.795   5.965  72.829  1.00  0.00    -0.104 A  
HETATM   17  C   UNL     1      -8.942   6.705  73.122  1.00  0.00    -0.140 A  
HETATM   18  C   UNL     1      -9.799   7.186  72.107  1.00  0.00    -0.171 A  
BRANCH  18  19
HETATM   19  C   UNL     1     -11.064   7.951  72.468  1.00  0.00    -0.423 C  
HETATM   20  C   UNL     1     -11.347   9.247  71.688  1.00  0.00    -0.467 C  
HETATM   21  C   UNL     1     -12.788   9.561  72.047  1.00  0.00    -0.499 C  
HETATM   22  C   UNL     1     -13.464   8.201  71.962  1.00  0.00    -0.312 C  
HETATM   23  C   UNL     1     -12.381   7.166  72.300  1.00  0.00    -0.137 C  
ENDBRANCH  18  19
ENDBRANCH  12  13
ENDBRANCH  11  12
ENDBRANCH   8  11
ENDBRANCH   7   8
ENDBRANCH   5   7
TORSDOF 6
ENDMDL
MODEL      215
REMARK 921   NORMALIZED FREE ENERGY PREDICTED BY IDOCK:   -3.43 KCAL/MOL
REMARK 922        TOTAL FREE ENERGY PREDICTED BY IDOCK:   -5.66 KCAL/MOL
REMARK 923 INTER-LIGAND FREE ENERGY PREDICTED BY IDOCK:   -5.13 KCAL/MOL
REMARK 924 INTRA-LIGAND FREE ENERGY PREDICTED BY IDOCK:   -0.54 KCAL/MOL
REMARK 927      BINDING AFFINITY PREDICTED BY RF-SCORE:    0.00 PKD
ROOT
HETATM    1  C   UNL     1     -10.713   2.911  63.482  1.00  0.00    -0.228 C  
HETATM    2  C   UNL     1      -9.454   3.673  63.929  1.00  0.00    -0.143 C  
HETATM    3  C   UNL     1      -8.658   4.063  62.668  1.00  0.00    -0.087 C  
HETATM    4  C   UNL     1      -8.566   2.760  64.793  1.00  0.00    -0.096 C  
HETATM    5  N   UNL     1      -9.765   4.929  64.635  1.00  0.00    -0.361 NA 
HETATM    6  H   UNL     1     -10.203   5.591  63.994  1.00  0.00     0.000 HD 
ENDROOT
BRANCH   5   7
HETATM    7  C   UNL     1     -10.580   4.789  65.842  1.00  0.00    -0.244 C  
BRANCH   7   8
HETATM    8  C   UNL     1      -9.999   5.493  67.085  1.00  0.00    -0.169 C  
HETATM    9  O   UNL     1      -9.431   4.465  67.921  1.00  0.00    -0.143 OA 
HETATM   10  H   UNL     1      -9.074   4.899  68.687  1.00  0.00     0.000 HD 
BRANCH   8  11
HETATM   11  C   UNL     1     -11.035   6.264  67.911  1.00  0.00    -0.327 C  
BRANCH  11  12
HETATM   12  O   UNL     1     -10.548   7.493  68.461  1.00  0.00    -0.195 OA 
BRANCH  12  13
HETATM   13  C   UNL     1     -10.908   7.737  69.771  1.00  0.00    -0.209 A  
HETATM   14  C   UNL     1     -11.136   6.707  70.703  1.00  0.00    -0.349 A  
HETATM   15  C   UNL     1     -11.560   6.984  71.999  1.00  0.00    -0.322 A  
HETATM   16  C   UNL     1     -11.753   8.297  72.389  1.00  0.00    -0.463 A  
HETATM   17  C   UNL     1     -11.506   9.333  71.486  1.00  0.00    -0.454 A  
HETATM   18  C   UNL     1     -11.068   9.085  70.167  1.00  0.00    -0.228 A  
BRANCH  18  19
HETATM   19  C   UNL     1     -10.852  10.238  69.197  1.00  0.00    -0.270 C  
HETATM   20  C   UNL     1     -11.243  11.645  69.683  1.00  0.00    -0.249 C  
HETATM   21  C   UNL     1     -10.614  12.557  68.646  1.00  0.00    -0.240 C  
HETATM   22  C   UNL     1      -9.239  11.941  68.439  1.00  0.00    -0.173 C  
HETATM   23  C   UNL     1      -9.399  10.440  68.722  1.00  0.00    -0.175 C  
ENDBRANCH  18  19
ENDBRANCH  12  13
ENDBRANCH  11  12
ENDBRANCH   8  11
ENDBRANCH   7   8
ENDBRANCH   5   7
TORSDOF 6
ENDMDL
MODEL      216
REMARK 921   NORMALIZED FREE ENERGY PREDICTED BY IDOCK:   -3.42 KCAL/MOL
REMARK 922        TOTAL FREE ENERGY PREDICTED BY IDOCK:   -5.65 KCAL/MOL
REMARK 923 INTER-LIGAND FREE ENERGY PREDICTED BY IDOCK:   -4.46 KCAL/MOL
REMARK 924 INTRA-LIGAND FREE ENERGY PREDICTED BY IDOCK:   -1.18 KCAL/MOL
REMARK 927      BINDING AFFINITY PREDICTED BY RF-SCORE:    0.00 PKD
ROOT
HETATM    1  C   UNL     1     -11.074  15.745  64.998  1.00  0.00    -0.380 C  
HETATM    2  C   UNL     1     -10.912  14.477  65.852  1.00  0.00    -0.320 C  
HETATM    3  C   UNL     1     -11.953  14.528  66.989  1.00  0.00    -0.371 C  
HETATM    4  C   UNL     1      -9.511  14.446  66.486  1.00  0.00    -0.309 C  
HETATM    5  N   UNL     1     -11.177  13.239  65.096  1.00  0.00    -0.297 NA 
HETATM    6  H   UNL     1     -12.160  13.197  64.829  1.00  0.00     0.000 HD 
ENDROOT
BRANCH   5   7
HETATM    7  C   UNL     1     -10.331  13.025  63.922  1.00  0.00    -0.127 C  
BRANCH   7   8
HETATM    8  C   UNL     1     -10.100  11.542  63.568  1.00  0.00    -0.409 C  
HETATM    9  O   UNL     1     -11.392  10.900  63.589  1.00  0.00    -0.340 OA 
HETATM   10  H   UNL     1     -11.249   9.987  63.372  1.00  0.00     0.000 HD 
BRANCH   8  11
HETATM   11  C   UNL     1      -9.181  10.799  64.545  1.00  0.00    -0.220 C  
BRANCH  11  12
HETATM   12  O   UNL     1      -9.553  10.940  65.921  1.00  0.00    -0.198 OA 
BRANCH  12  13
HETATM   13  C   UNL     1      -9.454   9.791  66.680  1.00  0.00    -0.171 A  
HETATM   14  C   UNL     1     -10.425   8.772  66.650  1.00  0.00    -0.240 A  
HETATM   15  C   UNL     1     -10.328   7.656  67.476  1.00  0.00    -0.326 A  
HETATM   16  C   UNL     1      -9.251   7.534  68.337  1.00  0.00    -0.139 A  
HETATM   17  C   UNL     1      -8.265   8.522  68.359  1.00  0.00    -0.123 A  
HETATM   18  C   UNL     1      -8.332   9.663  67.529  1.00  0.00    -0.118 A  
BRANCH  18  19
HETATM   19  C   UNL     1      -7.261  10.741  67.615  1.00  0.00    -0.092 C  
HETATM   20  C   UNL     1      -7.613  12.020  68.396  1.00  0.00    -0.128 C  
HETATM   21  C   UNL     1      -6.270  12.706  68.562  1.00  0.00    -0.067 C  
HETATM   22  C   UNL     1      -5.344  11.558  68.933  1.00  0.00    -0.046 C  
HETATM   23  C   UNL     1      -5.935  10.305  68.270  1.00  0.00    -0.041 C  
ENDBRANCH  18  19
ENDBRANCH  12  13
ENDBRANCH  11  12
ENDBRANCH   8  11
ENDBRANCH   7   8
ENDBRANCH   5   7
TORSDOF 6
ENDMDL
MODEL      217
REMARK 921   NORMALIZED FREE ENERGY PREDICTED BY IDOCK:   -3.41 KCAL/MOL
REMARK 922        TOTAL FREE ENERGY PREDICTED BY IDOCK:   -5.64 KCAL/MOL
REMARK 923 INTER-LIGAND FREE ENERGY PREDICTED BY IDOCK:   -4.54 KCAL/MOL
REMARK 924 INTRA-LIGAND FREE ENERGY PREDICTED BY IDOCK:   -1.09 KCAL/MOL
REMARK 927      BINDING AFFINITY PREDICTED BY RF-SCORE:    0.00 PKD
ROOT
HETATM    1  C   UNL     1     -11.304  12.201  68.988  1.00  0.00    -0.329 C  
HETATM    2  C   UNL     1     -11.458  10.762  69.509  1.00  0.00    -0.294 C  
HETATM    3  C   UNL     1     -12.722  10.704  70.389  1.00  0.00    -0.340 C  
HETATM    4  C   UNL     1     -10.247  10.388  70.382  1.00  0.00     0.173 C  
HETATM    5  N   UNL     1     -11.652   9.779  68.427  1.00  0.00    -0.405 NA 
HETATM    6  H   UNL     1     -12.548   9.940  67.966  1.00  0.00     0.000 HD 
ENDROOT
BRANCH   5   7
HETATM    7  C   UNL     1     -10.583   9.717  67.431  1.00  0.00    -0.267 C  
BRANCH   7   8
HETATM    8  C   UNL     1     -10.014   8.303  67.198  1.00  0.00    -0.239 C  
HETATM    9  O   UNL     1      -9.664   8.217  65.802  1.00  0.00    -0.453 OA 
HETATM   10  H   UNL     1      -9.314   7.346  65.659  1.00  0.00     0.000 HD 
BRANCH   8  11
HETATM   11  C   UNL     1     -10.996   7.171  67.517  1.00  0.00    -0.190 C  
BRANCH  11  12
HETATM   12  O   UNL     1     -10.422   6.089  68.259  1.00  0.00    -0.185 OA 
BRANCH  12  13
HETATM   13  C   UNL     1     -10.770   6.039  69.594  1.00  0.00    -0.335 A  
HETATM   14  C   UNL     1     -11.992   6.540  70.082  1.00  0.00    -0.200 A  
HETATM   15  C   UNL     1     -12.285   6.533  71.442  1.00  0.00    -0.304 A  
HETATM   16  C   UNL     1     -11.367   6.013  72.337  1.00  0.00    -0.349 A  
HETATM   17  C   UNL     1     -10.161   5.487  71.868  1.00  0.00    -0.251 A  
HETATM   18  C   UNL     1      -9.837   5.474  70.494  1.00  0.00    -0.254 A  
BRANCH  18  19
HETATM   19  C   UNL     1      -8.494   4.934  70.025  1.00  0.00    -0.091 C  
HETATM   20  C   UNL     1      -7.331   4.974  71.032  1.00  0.00    -0.072 C  
HETATM   21  C   UNL     1      -6.279   4.093  70.384  1.00  0.00    -0.019 C  
HETATM   22  C   UNL     1      -7.092   2.911  69.875  1.00  0.00    -0.040 C  
HETATM   23  C   UNL     1      -8.495   3.459  69.575  1.00  0.00    -0.097 C  
ENDBRANCH  18  19
ENDBRANCH  12  13
ENDBRANCH  11  12
ENDBRANCH   8  11
ENDBRANCH   7   8
ENDBRANCH   5   7
TORSDOF 6
ENDMDL
MODEL      218
REMARK 921   NORMALIZED FREE ENERGY PREDICTED BY IDOCK:   -3.39 KCAL/MOL
REMARK 922        TOTAL FREE ENERGY PREDICTED BY IDOCK:   -5.61 KCAL/MOL
REMARK 923 INTER-LIGAND FREE ENERGY PREDICTED BY IDOCK:   -5.06 KCAL/MOL
REMARK 924 INTRA-LIGAND FREE ENERGY PREDICTED BY IDOCK:   -0.55 KCAL/MOL
REMARK 927      BINDING AFFINITY PREDICTED BY RF-SCORE:    0.00 PKD
ROOT
HETATM    1  C   UNL     1     -13.953  14.864  71.464  1.00  0.00    -0.571 C  
HETATM    2  C   UNL     1     -12.549  14.983  70.847  1.00  0.00    -0.356 C  
HETATM    3  C   UNL     1     -11.761  16.037  71.650  1.00  0.00    -0.583 C  
HETATM    4  C   UNL     1     -12.655  15.470  69.391  1.00  0.00     0.109 C  
HETATM    5  N   UNL     1     -11.779  13.729  70.930  1.00  0.00    -0.483 NA 
HETATM    6  H   UNL     1     -11.570  13.511  71.905  1.00  0.00     0.000 HD 
ENDROOT
BRANCH   5   7
HETATM    7  C   UNL     1     -12.389  12.570  70.279  1.00  0.00    -0.190 C  
BRANCH   7   8
HETATM    8  C   UNL     1     -11.929  12.343  68.825  1.00  0.00    -0.229 C  
HETATM    9  O   UNL     1     -12.201  10.962  68.511  1.00  0.00    -0.799 OA 
HETATM   10  H   UNL     1     -11.917  10.822  67.615  1.00  0.00     0.000 HD 
BRANCH   8  11
HETATM   11  C   UNL     1     -10.436  12.602  68.592  1.00  0.00    -0.205 C  
BRANCH  11  12
HETATM   12  O   UNL     1      -9.809  11.659  67.715  1.00  0.00    -0.173 OA 
BRANCH  12  13
HETATM   13  C   UNL     1      -8.465  11.442  67.944  1.00  0.00    -0.139 A  
HETATM   14  C   UNL     1      -7.455  12.229  67.358  1.00  0.00    -0.160 A  
HETATM   15  C   UNL     1      -6.108  11.944  67.558  1.00  0.00    -0.100 A  
HETATM   16  C   UNL     1      -5.747  10.875  68.358  1.00  0.00    -0.043 A  
HETATM   17  C   UNL     1      -6.735  10.100  68.969  1.00  0.00    -0.054 A  
HETATM   18  C   UNL     1      -8.110  10.368  68.791  1.00  0.00    -0.125 A  
BRANCH  18  19
HETATM   19  C   UNL     1      -9.158   9.473  69.437  1.00  0.00    -0.172 C  
HETATM   20  C   UNL     1      -9.722   8.323  68.583  1.00  0.00    -0.162 C  
HETATM   21  C   UNL     1     -10.459   7.468  69.597  1.00  0.00    -0.235 C  
HETATM   22  C   UNL     1      -9.497   7.430  70.775  1.00  0.00    -0.167 C  
HETATM   23  C   UNL     1      -8.707   8.746  70.720  1.00  0.00    -0.224 C  
ENDBRANCH  18  19
ENDBRANCH  12  13
ENDBRANCH  11  12
ENDBRANCH   8  11
ENDBRANCH   7   8
ENDBRANCH   5   7
TORSDOF 6
ENDMDL
MODEL      219
REMARK 921   NORMALIZED FREE ENERGY PREDICTED BY IDOCK:   -3.39 KCAL/MOL
REMARK 922        TOTAL FREE ENERGY PREDICTED BY IDOCK:   -5.61 KCAL/MOL
REMARK 923 INTER-LIGAND FREE ENERGY PREDICTED BY IDOCK:   -4.77 KCAL/MOL
REMARK 924 INTRA-LIGAND FREE ENERGY PREDICTED BY IDOCK:   -0.83 KCAL/MOL
REMARK 927      BINDING AFFINITY PREDICTED BY RF-SCORE:    0.00 PKD
ROOT
HETATM    1  C   UNL     1     -10.243  10.014  67.449  1.00  0.00    -0.269 C  
HETATM    2  C   UNL     1      -9.629   9.766  68.837  1.00  0.00    -0.167 C  
HETATM    3  C   UNL     1      -9.339   8.258  68.970  1.00  0.00    -0.147 C  
HETATM    4  C   UNL     1     -10.634  10.160  69.934  1.00  0.00    -0.331 C  
HETATM    5  N   UNL     1      -8.342  10.460  69.026  1.00  0.00    -0.140 NA 
HETATM    6  H   UNL     1      -7.637  10.064  68.403  1.00  0.00     0.000 HD 
ENDROOT
BRANCH   5   7
HETATM    7  C   UNL     1      -8.382  11.914  68.876  1.00  0.00     0.116 C  
BRANCH   7   8
HETATM    8  C   UNL     1      -6.994  12.586  68.835  1.00  0.00    -0.088 C  
HETATM    9  O   UNL     1      -6.629  12.877  70.199  1.00  0.00    -0.364 OA 
HETATM   10  H   UNL     1      -5.775  13.291  70.174  1.00  0.00     0.000 HD 
BRANCH   8  11
HETATM   11  C   UNL     1      -6.955  13.896  68.039  1.00  0.00    -0.141 C  
BRANCH  11  12
HETATM   12  O   UNL     1      -8.025  14.041  67.098  1.00  0.00    -0.157 OA 
BRANCH  12  13
HETATM   13  C   UNL     1      -8.316  15.340  66.731  1.00  0.00    -0.223 A  
HETATM   14  C   UNL     1      -7.407  16.401  66.900  1.00  0.00    -0.269 A  
HETATM   15  C   UNL     1      -7.754  17.710  66.580  1.00  0.00    -0.305 A  
HETATM   16  C   UNL     1      -9.013  17.978  66.073  1.00  0.00     0.001 A  
HETATM   17  C   UNL     1      -9.918  16.934  65.873  1.00  0.00    -0.274 A  
HETATM   18  C   UNL     1      -9.593  15.595  66.182  1.00  0.00    -0.362 A  
BRANCH  18  19
HETATM   19  C   UNL     1     -10.622  14.490  65.993  1.00  0.00    -0.311 C  
HETATM   20  C   UNL     1     -12.106  14.890  66.079  1.00  0.00     0.021 C  
HETATM   21  C   UNL     1     -12.827  13.670  65.536  1.00  0.00    -0.443 C  
HETATM   22  C   UNL     1     -11.986  13.288  64.328  1.00  0.00    -0.477 C  
HETATM   23  C   UNL     1     -10.555  13.747  64.644  1.00  0.00    -0.443 C  
ENDBRANCH  18  19
ENDBRANCH  12  13
ENDBRANCH  11  12
ENDBRANCH   8  11
ENDBRANCH   7   8
ENDBRANCH   5   7
TORSDOF 6
ENDMDL
MODEL      220
REMARK 921   NORMALIZED FREE ENERGY PREDICTED BY IDOCK:   -3.37 KCAL/MOL
REMARK 922        TOTAL FREE ENERGY PREDICTED BY IDOCK:   -5.58 KCAL/MOL
REMARK 923 INTER-LIGAND FREE ENERGY PREDICTED BY IDOCK:   -4.29 KCAL/MOL
REMARK 924 INTRA-LIGAND FREE ENERGY PREDICTED BY IDOCK:   -1.29 KCAL/MOL
REMARK 927      BINDING AFFINITY PREDICTED BY RF-SCORE:    0.00 PKD
ROOT
HETATM    1  C   UNL     1      -9.381   6.985  70.390  1.00  0.00    -0.159 C  
HETATM    2  C   UNL     1      -9.719   7.718  69.081  1.00  0.00    -0.161 C  
HETATM    3  C   UNL     1     -10.358   6.701  68.114  1.00  0.00    -0.223 C  
HETATM    4  C   UNL     1      -8.431   8.254  68.432  1.00  0.00    -0.129 C  
HETATM    5  N   UNL     1     -10.705   8.798  69.268  1.00  0.00    -0.356 NA 
HETATM    6  H   UNL     1     -11.608   8.404  69.535  1.00  0.00     0.000 HD 
ENDROOT
BRANCH   5   7
HETATM    7  C   UNL     1     -10.320   9.848  70.209  1.00  0.00    -0.281 C  
BRANCH   7   8
HETATM    8  C   UNL     1     -11.488  10.738  70.681  1.00  0.00    -0.219 C  
HETATM    9  O   UNL     1     -12.161  10.020  71.736  1.00  0.00    -0.373 OA 
HETATM   10  H   UNL     1     -12.880  10.568  72.026  1.00  0.00     0.000 HD 
BRANCH   8  11
HETATM   11  C   UNL     1     -12.514  11.058  69.588  1.00  0.00    -0.140 C  
BRANCH  11  12
HETATM   12  O   UNL     1     -11.967  11.738  68.453  1.00  0.00    -0.443 OA 
BRANCH  12  13
HETATM   13  C   UNL     1     -11.498  13.014  68.699  1.00  0.00    -0.307 A  
HETATM   14  C   UNL     1     -12.280  14.006  69.321  1.00  0.00    -0.319 A  
HETATM   15  C   UNL     1     -11.801  15.300  69.496  1.00  0.00    -0.368 A  
HETATM   16  C   UNL     1     -10.528  15.622  69.061  1.00  0.00    -0.229 A  
HETATM   17  C   UNL     1      -9.729  14.644  68.466  1.00  0.00    -0.225 A  
HETATM   18  C   UNL     1     -10.183  13.320  68.281  1.00  0.00    -0.250 A  
BRANCH  18  19
HETATM   19  C   UNL     1      -9.300  12.293  67.588  1.00  0.00    -0.186 C  
HETATM   20  C   UNL     1      -9.319  12.277  66.048  1.00  0.00    -0.142 C  
HETATM   21  C   UNL     1      -8.129  11.402  65.697  1.00  0.00     0.284 C  
HETATM   22  C   UNL     1      -7.054  11.887  66.657  1.00  0.00     0.079 C  
HETATM   23  C   UNL     1      -7.794  12.395  67.903  1.00  0.00    -0.145 C  
ENDBRANCH  18  19
ENDBRANCH  12  13
ENDBRANCH  11  12
ENDBRANCH   8  11
ENDBRANCH   7   8
ENDBRANCH   5   7
TORSDOF 6
ENDMDL
MODEL      221
REMARK 921   NORMALIZED FREE ENERGY PREDICTED BY IDOCK:   -3.33 KCAL/MOL
REMARK 922        TOTAL FREE ENERGY PREDICTED BY IDOCK:   -5.53 KCAL/MOL
REMARK 923 INTER-LIGAND FREE ENERGY PREDICTED BY IDOCK:   -4.72 KCAL/MOL
REMARK 924 INTRA-LIGAND FREE ENERGY PREDICTED BY IDOCK:   -0.80 KCAL/MOL
REMARK 927      BINDING AFFINITY PREDICTED BY RF-SCORE:    0.00 PKD
ROOT
HETATM    1  C   UNL     1      -7.370  14.376  69.272  1.00  0.00    -0.088 C  
HETATM    2  C   UNL     1      -6.271  13.363  69.637  1.00  0.00    -0.120 C  
HETATM    3  C   UNL     1      -5.485  13.921  70.839  1.00  0.00    -0.170 C  
HETATM    4  C   UNL     1      -5.295  13.201  68.458  1.00  0.00    -0.069 C  
HETATM    5  N   UNL     1      -6.813  12.058  70.057  1.00  0.00    -0.383 NA 
HETATM    6  H   UNL     1      -7.318  12.157  70.938  1.00  0.00     0.000 HD 
ENDROOT
BRANCH   5   7
HETATM    7  C   UNL     1      -7.655  11.377  69.073  1.00  0.00    -0.084 C  
BRANCH   7   8
HETATM    8  C   UNL     1      -8.106   9.964  69.492  1.00  0.00    -0.152 C  
HETATM    9  O   UNL     1      -7.641   9.056  68.472  1.00  0.00    -0.090 OA 
HETATM   10  H   UNL     1      -7.919   8.186  68.731  1.00  0.00     0.000 HD 
BRANCH   8  11
HETATM   11  C   UNL     1      -9.625   9.802  69.622  1.00  0.00    -0.221 C  
BRANCH  11  12
HETATM   12  O   UNL     1     -10.338   9.979  68.392  1.00  0.00    -0.173 OA 
BRANCH  12  13
HETATM   13  C   UNL     1     -10.727  11.275  68.117  1.00  0.00    -0.204 A  
HETATM   14  C   UNL     1     -11.205  12.154  69.107  1.00  0.00    -0.303 A  
HETATM   15  C   UNL     1     -11.650  13.433  68.786  1.00  0.00    -0.363 A  
HETATM   16  C   UNL     1     -11.613  13.859  67.470  1.00  0.00    -0.392 A  
HETATM   17  C   UNL     1     -11.117  13.010  66.479  1.00  0.00    -0.315 A  
HETATM   18  C   UNL     1     -10.652  11.709  66.774  1.00  0.00    -0.280 A  
BRANCH  18  19
HETATM   19  C   UNL     1     -10.161  10.796  65.660  1.00  0.00    -0.327 C  
HETATM   20  C   UNL     1     -10.650  11.104  64.233  1.00  0.00    -0.425 C  
HETATM   21  C   UNL     1      -9.746  10.249  63.364  1.00  0.00    -0.243 C  
HETATM   22  C   UNL     1      -8.376  10.453  63.994  1.00  0.00    -0.139 C  
HETATM   23  C   UNL     1      -8.630  10.735  65.482  1.00  0.00    -0.181 C  
ENDBRANCH  18  19
ENDBRANCH  12  13
ENDBRANCH  11  12
ENDBRANCH   8  11
ENDBRANCH   7   8
ENDBRANCH   5   7
TORSDOF 6
ENDMDL
MODEL      222
REMARK 921   NORMALIZED FREE ENERGY PREDICTED BY IDOCK:   -3.33 KCAL/MOL
REMARK 922        TOTAL FREE ENERGY PREDICTED BY IDOCK:   -5.53 KCAL/MOL
REMARK 923 INTER-LIGAND FREE ENERGY PREDICTED BY IDOCK:   -4.87 KCAL/MOL
REMARK 924 INTRA-LIGAND FREE ENERGY PREDICTED BY IDOCK:   -0.66 KCAL/MOL
REMARK 927      BINDING AFFINITY PREDICTED BY RF-SCORE:    0.00 PKD
ROOT
HETATM    1  C   UNL     1      -8.074   4.415  72.270  1.00  0.00    -0.096 C  
HETATM    2  C   UNL     1      -9.410   4.118  72.972  1.00  0.00    -0.110 C  
HETATM    3  C   UNL     1      -9.110   3.767  74.443  1.00  0.00    -0.101 C  
HETATM    4  C   UNL     1     -10.090   2.902  72.318  1.00  0.00    -0.222 C  
HETATM    5  N   UNL     1     -10.316   5.281  72.994  1.00  0.00    -0.182 NA 
HETATM    6  H   UNL     1      -9.923   6.019  73.578  1.00  0.00     0.000 HD 
ENDROOT
BRANCH   5   7
HETATM    7  C   UNL     1     -10.680   5.821  71.684  1.00  0.00    -0.256 C  
BRANCH   7   8
HETATM    8  C   UNL     1     -10.581   7.357  71.581  1.00  0.00    -0.205 C  
HETATM    9  O   UNL     1     -11.039   7.891  72.840  1.00  0.00    -0.384 OA 
HETATM   10  H   UNL     1     -10.978   8.837  72.776  1.00  0.00     0.000 HD 
BRANCH   8  11
HETATM   11  C   UNL     1     -11.434   7.966  70.463  1.00  0.00    -0.195 C  
BRANCH  11  12
HETATM   12  O   UNL     1     -10.910   9.186  69.926  1.00  0.00    -0.230 OA 
BRANCH  12  13
HETATM   13  C   UNL     1     -10.399   9.097  68.646  1.00  0.00    -0.209 A  
HETATM   14  C   UNL     1     -10.080   7.868  68.038  1.00  0.00    -0.235 A  
HETATM   15  C   UNL     1      -9.506   7.815  66.771  1.00  0.00    -0.251 A  
HETATM   16  C   UNL     1      -9.251   8.990  66.087  1.00  0.00    -0.272 A  
HETATM   17  C   UNL     1      -9.586  10.216  66.664  1.00  0.00    -0.230 A  
HETATM   18  C   UNL     1     -10.175  10.303  67.944  1.00  0.00    -0.217 A  
BRANCH  18  19
HETATM   19  C   UNL     1     -10.484  11.660  68.560  1.00  0.00    -0.236 C  
HETATM   20  C   UNL     1      -9.595  12.842  68.133  1.00  0.00    -0.223 C  
HETATM   21  C   UNL     1     -10.354  14.051  68.651  1.00  0.00    -0.238 C  
HETATM   22  C   UNL     1     -11.796  13.730  68.287  1.00  0.00    -0.413 C  
HETATM   23  C   UNL     1     -11.905  12.198  68.296  1.00  0.00    -0.361 C  
ENDBRANCH  18  19
ENDBRANCH  12  13
ENDBRANCH  11  12
ENDBRANCH   8  11
ENDBRANCH   7   8
ENDBRANCH   5   7
TORSDOF 6
ENDMDL
MODEL      223
REMARK 921   NORMALIZED FREE ENERGY PREDICTED BY IDOCK:   -3.31 KCAL/MOL
REMARK 922        TOTAL FREE ENERGY PREDICTED BY IDOCK:   -5.50 KCAL/MOL
REMARK 923 INTER-LIGAND FREE ENERGY PREDICTED BY IDOCK:   -4.76 KCAL/MOL
REMARK 924 INTRA-LIGAND FREE ENERGY PREDICTED BY IDOCK:   -0.74 KCAL/MOL
REMARK 927      BINDING AFFINITY PREDICTED BY RF-SCORE:    0.00 PKD
ROOT
HETATM    1  C   UNL     1     -11.070  15.753  64.996  1.00  0.00    -0.380 C  
HETATM    2  C   UNL     1     -10.912  14.510  65.889  1.00  0.00    -0.320 C  
HETATM    3  C   UNL     1     -11.968  14.587  67.009  1.00  0.00    -0.371 C  
HETATM    4  C   UNL     1      -9.519  14.506  66.542  1.00  0.00    -0.310 C  
HETATM    5  N   UNL     1     -11.159  13.250  65.163  1.00  0.00    -0.291 NA 
HETATM    6  H   UNL     1     -12.138  13.194  64.884  1.00  0.00     0.000 HD 
ENDROOT
BRANCH   5   7
HETATM    7  C   UNL     1     -10.295  13.008  64.008  1.00  0.00    -0.249 C  
BRANCH   7   8
HETATM    8  C   UNL     1     -10.006  11.518  63.732  1.00  0.00    -0.349 C  
HETATM    9  O   UNL     1     -11.283  10.851  63.661  1.00  0.00    -0.419 OA 
HETATM   10  H   UNL     1     -11.104   9.933  63.491  1.00  0.00     0.000 HD 
BRANCH   8  11
HETATM   11  C   UNL     1      -9.166  10.832  64.815  1.00  0.00    -0.214 C  
BRANCH  11  12
HETATM   12  O   UNL     1      -9.667   9.553  65.221  1.00  0.00    -0.293 OA 
BRANCH  12  13
HETATM   13  C   UNL     1      -8.707   8.587  65.447  1.00  0.00    -0.159 A  
HETATM   14  C   UNL     1      -8.096   7.861  64.406  1.00  0.00    -0.103 A  
HETATM   15  C   UNL     1      -7.179   6.849  64.671  1.00  0.00    -0.076 A  
HETATM   16  C   UNL     1      -6.847   6.553  65.982  1.00  0.00    -0.057 A  
HETATM   17  C   UNL     1      -7.423   7.281  67.025  1.00  0.00    -0.105 A  
HETATM   18  C   UNL     1      -8.352   8.318  66.788  1.00  0.00    -0.107 A  
BRANCH  18  19
HETATM   19  C   UNL     1      -8.992   9.059  67.953  1.00  0.00    -0.135 C  
HETATM   20  C   UNL     1     -10.413   8.632  68.360  1.00  0.00    -0.220 C  
HETATM   21  C   UNL     1     -10.608   9.311  69.704  1.00  0.00    -0.241 C  
HETATM   22  C   UNL     1      -9.278   9.073  70.402  1.00  0.00    -0.243 C  
HETATM   23  C   UNL     1      -8.224   8.981  69.288  1.00  0.00    -0.117 C  
ENDBRANCH  18  19
ENDBRANCH  12  13
ENDBRANCH  11  12
ENDBRANCH   8  11
ENDBRANCH   7   8
ENDBRANCH   5   7
TORSDOF 6
ENDMDL
MODEL      224
REMARK 921   NORMALIZED FREE ENERGY PREDICTED BY IDOCK:   -3.27 KCAL/MOL
REMARK 922        TOTAL FREE ENERGY PREDICTED BY IDOCK:   -5.45 KCAL/MOL
REMARK 923 INTER-LIGAND FREE ENERGY PREDICTED BY IDOCK:   -4.59 KCAL/MOL
REMARK 924 INTRA-LIGAND FREE ENERGY PREDICTED BY IDOCK:   -0.85 KCAL/MOL
REMARK 927      BINDING AFFINITY PREDICTED BY RF-SCORE:    0.00 PKD
ROOT
HETATM    1  C   UNL     1      -8.765   2.636  65.198  1.00  0.00    -0.113 C  
HETATM    2  C   UNL     1      -9.485   3.992  65.104  1.00  0.00    -0.172 C  
HETATM    3  C   UNL     1     -10.770   3.797  64.276  1.00  0.00    -0.216 C  
HETATM    4  C   UNL     1      -8.593   5.010  64.371  1.00  0.00    -0.135 C  
HETATM    5  N   UNL     1      -9.905   4.510  66.419  1.00  0.00    -0.209 NA 
HETATM    6  H   UNL     1     -10.628   3.908  66.815  1.00  0.00     0.000 HD 
ENDROOT
BRANCH   5   7
HETATM    7  C   UNL     1      -8.831   4.709  67.391  1.00  0.00    -0.105 C  
BRANCH   7   8
HETATM    8  C   UNL     1      -9.067   4.015  68.748  1.00  0.00    -0.134 C  
HETATM    9  O   UNL     1      -9.733   2.766  68.470  1.00  0.00    -0.101 OA 
HETATM   10  H   UNL     1      -9.878   2.339  69.305  1.00  0.00     0.000 HD 
BRANCH   8  11
HETATM   11  C   UNL     1      -9.939   4.817  69.720  1.00  0.00    -0.238 C  
BRANCH  11  12
HETATM   12  O   UNL     1     -10.570   5.961  69.133  1.00  0.00    -0.237 OA 
BRANCH  12  13
HETATM   13  C   UNL     1     -11.073   6.883  70.029  1.00  0.00    -0.299 A  
HETATM   14  C   UNL     1     -11.850   6.515  71.144  1.00  0.00    -0.383 A  
HETATM   15  C   UNL     1     -12.397   7.473  71.992  1.00  0.00    -0.305 A  
HETATM   16  C   UNL     1     -12.167   8.815  71.746  1.00  0.00    -0.415 A  
HETATM   17  C   UNL     1     -11.378   9.196  70.660  1.00  0.00    -0.323 A  
HETATM   18  C   UNL     1     -10.803   8.248  69.785  1.00  0.00    -0.186 A  
BRANCH  18  19
HETATM   19  C   UNL     1      -9.985   8.704  68.585  1.00  0.00    -0.197 C  
HETATM   20  C   UNL     1      -8.542   8.179  68.479  1.00  0.00    -0.130 C  
HETATM   21  C   UNL     1      -8.145   8.541  67.060  1.00  0.00    -0.103 C  
HETATM   22  C   UNL     1      -9.382   8.171  66.255  1.00  0.00    -0.259 C  
HETATM   23  C   UNL     1     -10.575   8.342  67.207  1.00  0.00    -0.335 C  
ENDBRANCH  18  19
ENDBRANCH  12  13
ENDBRANCH  11  12
ENDBRANCH   8  11
ENDBRANCH   7   8
ENDBRANCH   5   7
TORSDOF 6
ENDMDL
MODEL      225
REMARK 921   NORMALIZED FREE ENERGY PREDICTED BY IDOCK:   -3.26 KCAL/MOL
REMARK 922        TOTAL FREE ENERGY PREDICTED BY IDOCK:   -5.44 KCAL/MOL
REMARK 923 INTER-LIGAND FREE ENERGY PREDICTED BY IDOCK:   -4.55 KCAL/MOL
REMARK 924 INTRA-LIGAND FREE ENERGY PREDICTED BY IDOCK:   -0.89 KCAL/MOL
REMARK 927      BINDING AFFINITY PREDICTED BY RF-SCORE:    0.00 PKD
ROOT
HETATM    1  C   UNL     1     -14.372   8.430  71.775  1.00  0.00    -0.558 C  
HETATM    2  C   UNL     1     -13.080   9.266  71.772  1.00  0.00    -0.400 C  
HETATM    3  C   UNL     1     -13.441  10.707  72.182  1.00  0.00    -0.237 C  
HETATM    4  C   UNL     1     -12.485   9.305  70.353  1.00  0.00     0.266 C  
HETATM    5  N   UNL     1     -12.086   8.787  72.749  1.00  0.00    -0.205 NA 
HETATM    6  H   UNL     1     -12.433   8.928  73.698  1.00  0.00     0.000 HD 
ENDROOT
BRANCH   5   7
HETATM    7  C   UNL     1     -11.649   7.401  72.577  1.00  0.00    -0.275 C  
BRANCH   7   8
HETATM    8  C   UNL     1     -10.131   7.189  72.743  1.00  0.00    -0.196 C  
HETATM    9  O   UNL     1      -9.837   7.344  74.146  1.00  0.00    -0.413 OA 
HETATM   10  H   UNL     1      -8.902   7.214  74.248  1.00  0.00     0.000 HD 
BRANCH   8  11
HETATM   11  C   UNL     1      -9.269   8.185  71.959  1.00  0.00    -0.191 C  
BRANCH  11  12
HETATM   12  O   UNL     1      -8.604   7.617  70.825  1.00  0.00    -0.131 OA 
BRANCH  12  13
HETATM   13  C   UNL     1      -9.414   7.350  69.739  1.00  0.00    -0.159 A  
HETATM   14  C   UNL     1     -10.054   6.110  69.553  1.00  0.00    -0.232 A  
HETATM   15  C   UNL     1     -10.811   5.850  68.415  1.00  0.00    -0.322 A  
HETATM   16  C   UNL     1     -10.952   6.830  67.449  1.00  0.00    -0.407 A  
HETATM   17  C   UNL     1     -10.347   8.075  67.630  1.00  0.00    -0.312 A  
HETATM   18  C   UNL     1      -9.578   8.372  68.777  1.00  0.00    -0.150 A  
BRANCH  18  19
HETATM   19  C   UNL     1      -8.896   9.725  68.917  1.00  0.00    -0.140 C  
HETATM   20  C   UNL     1      -7.425   9.820  68.473  1.00  0.00    -0.079 C  
HETATM   21  C   UNL     1      -7.169  11.315  68.435  1.00  0.00    -0.085 C  
HETATM   22  C   UNL     1      -8.427  11.859  67.775  1.00  0.00    -0.154 C  
HETATM   23  C   UNL     1      -9.555  10.882  68.139  1.00  0.00    -0.169 C  
ENDBRANCH  18  19
ENDBRANCH  12  13
ENDBRANCH  11  12
ENDBRANCH   8  11
ENDBRANCH   7   8
ENDBRANCH   5   7
TORSDOF 6
ENDMDL
MODEL      226
REMARK 921   NORMALIZED FREE ENERGY PREDICTED BY IDOCK:   -3.26 KCAL/MOL
REMARK 922        TOTAL FREE ENERGY PREDICTED BY IDOCK:   -5.44 KCAL/MOL
REMARK 923 INTER-LIGAND FREE ENERGY PREDICTED BY IDOCK:   -4.30 KCAL/MOL
REMARK 924 INTRA-LIGAND FREE ENERGY PREDICTED BY IDOCK:   -1.13 KCAL/MOL
REMARK 927      BINDING AFFINITY PREDICTED BY RF-SCORE:    0.00 PKD
ROOT
HETATM    1  C   UNL     1      -5.762   7.719  69.735  1.00  0.00    -0.023 C  
HETATM    2  C   UNL     1      -6.315   9.028  70.325  1.00  0.00    -0.044 C  
HETATM    3  C   UNL     1      -5.166   9.744  71.062  1.00  0.00    -0.053 C  
HETATM    4  C   UNL     1      -7.421   8.716  71.348  1.00  0.00    -0.124 C  
HETATM    5  N   UNL     1      -6.799   9.962  69.292  1.00  0.00    -0.054 NA 
HETATM    6  H   UNL     1      -6.017  10.292  68.726  1.00  0.00     0.000 HD 
ENDROOT
BRANCH   5   7
HETATM    7  C   UNL     1      -7.861   9.450  68.426  1.00  0.00    -0.090 C  
BRANCH   7   8
HETATM    8  C   UNL     1      -8.980  10.467  68.125  1.00  0.00    -0.138 C  
HETATM    9  O   UNL     1      -8.858  11.525  69.098  1.00  0.00    -0.376 OA 
HETATM   10  H   UNL     1      -9.547  12.151  68.912  1.00  0.00     0.000 HD 
BRANCH   8  11
HETATM   11  C   UNL     1     -10.396   9.889  68.220  1.00  0.00    -0.201 C  
BRANCH  11  12
HETATM   12  O   UNL     1     -10.628   9.100  69.393  1.00  0.00    -0.222 OA 
BRANCH  12  13
HETATM   13  C   UNL     1     -11.496   9.653  70.314  1.00  0.00    -0.233 A  
HETATM   14  C   UNL     1     -12.176  10.865  70.087  1.00  0.00    -0.423 A  
HETATM   15  C   UNL     1     -12.994  11.428  71.062  1.00  0.00    -0.280 A  
HETATM   16  C   UNL     1     -13.155  10.784  72.275  1.00  0.00    -0.152 A  
HETATM   17  C   UNL     1     -12.509   9.568  72.507  1.00  0.00    -0.048 A  
HETATM   18  C   UNL     1     -11.678   8.967  71.536  1.00  0.00    -0.415 A  
BRANCH  18  19
HETATM   19  C   UNL     1     -10.955   7.664  71.841  1.00  0.00    -0.282 C  
HETATM   20  C   UNL     1     -10.805   7.275  73.324  1.00  0.00    -0.404 C  
HETATM   21  C   UNL     1     -10.356   5.826  73.259  1.00  0.00    -0.234 C  
HETATM   22  C   UNL     1     -11.253   5.240  72.179  1.00  0.00    -0.139 C  
HETATM   23  C   UNL     1     -11.584   6.398  71.226  1.00  0.00    -0.370 C  
ENDBRANCH  18  19
ENDBRANCH  12  13
ENDBRANCH  11  12
ENDBRANCH   8  11
ENDBRANCH   7   8
ENDBRANCH   5   7
TORSDOF 6
ENDMDL
MODEL      227
REMARK 921   NORMALIZED FREE ENERGY PREDICTED BY IDOCK:   -3.25 KCAL/MOL
REMARK 922        TOTAL FREE ENERGY PREDICTED BY IDOCK:   -5.42 KCAL/MOL
REMARK 923 INTER-LIGAND FREE ENERGY PREDICTED BY IDOCK:   -4.57 KCAL/MOL
REMARK 924 INTRA-LIGAND FREE ENERGY PREDICTED BY IDOCK:   -0.84 KCAL/MOL
REMARK 927      BINDING AFFINITY PREDICTED BY RF-SCORE:    0.00 PKD
ROOT
HETATM    1  C   UNL     1      -9.068   5.850  73.146  1.00  0.00    -0.130 C  
HETATM    2  C   UNL     1     -10.351   5.100  72.746  1.00  0.00    -0.197 C  
HETATM    3  C   UNL     1     -10.804   4.250  73.949  1.00  0.00    -0.330 C  
HETATM    4  C   UNL     1     -10.059   4.151  71.570  1.00  0.00    -0.184 C  
HETATM    5  N   UNL     1     -11.468   6.008  72.427  1.00  0.00    -0.302 NA 
HETATM    6  H   UNL     1     -11.762   6.508  73.266  1.00  0.00     0.000 HD 
ENDROOT
BRANCH   5   7
HETATM    7  C   UNL     1     -11.220   6.956  71.341  1.00  0.00    -0.259 C  
BRANCH   7   8
HETATM    8  C   UNL     1     -11.854   8.346  71.556  1.00  0.00    -0.297 C  
HETATM    9  O   UNL     1     -12.764   8.565  70.458  1.00  0.00    -0.307 OA 
HETATM   10  H   UNL     1     -13.153   9.421  70.590  1.00  0.00     0.000 HD 
BRANCH   8  11
HETATM   11  C   UNL     1     -10.844   9.499  71.578  1.00  0.00    -0.251 C  
BRANCH  11  12
HETATM   12  O   UNL     1     -10.521  10.019  70.283  1.00  0.00    -0.274 OA 
BRANCH  12  13
HETATM   13  C   UNL     1      -9.224   9.800  69.865  1.00  0.00    -0.234 A  
HETATM   14  C   UNL     1      -8.326   8.974  70.568  1.00  0.00    -0.205 A  
HETATM   15  C   UNL     1      -7.006   8.825  70.156  1.00  0.00    -0.044 A  
HETATM   16  C   UNL     1      -6.563   9.490  69.027  1.00  0.00    -0.050 A  
HETATM   17  C   UNL     1      -7.446  10.292  68.302  1.00  0.00    -0.086 A  
HETATM   18  C   UNL     1      -8.794  10.458  68.691  1.00  0.00    -0.142 A  
BRANCH  18  19
HETATM   19  C   UNL     1      -9.715  11.377  67.901  1.00  0.00    -0.186 C  
HETATM   20  C   UNL     1      -9.081  12.624  67.260  1.00  0.00    -0.191 C  
HETATM   21  C   UNL     1     -10.160  13.114  66.312  1.00  0.00    -0.285 C  
HETATM   22  C   UNL     1     -10.657  11.829  65.668  1.00  0.00    -0.314 C  
HETATM   23  C   UNL     1     -10.440  10.720  66.708  1.00  0.00    -0.305 C  
ENDBRANCH  18  19
ENDBRANCH  12  13
ENDBRANCH  11  12
ENDBRANCH   8  11
ENDBRANCH   7   8
ENDBRANCH   5   7
TORSDOF 6
ENDMDL
MODEL      228
REMARK 921   NORMALIZED FREE ENERGY PREDICTED BY IDOCK:   -3.24 KCAL/MOL
REMARK 922        TOTAL FREE ENERGY PREDICTED BY IDOCK:   -5.41 KCAL/MOL
REMARK 923 INTER-LIGAND FREE ENERGY PREDICTED BY IDOCK:   -4.63 KCAL/MOL
REMARK 924 INTRA-LIGAND FREE ENERGY PREDICTED BY IDOCK:   -0.78 KCAL/MOL
REMARK 927      BINDING AFFINITY PREDICTED BY RF-SCORE:    0.00 PKD
ROOT
HETATM    1  C   UNL     1      -9.750   4.942  67.973  1.00  0.00    -0.202 C  
HETATM    2  C   UNL     1     -10.275   6.366  68.224  1.00  0.00    -0.171 C  
HETATM    3  C   UNL     1     -11.282   6.308  69.389  1.00  0.00    -0.489 C  
HETATM    4  C   UNL     1     -11.014   6.881  66.976  1.00  0.00    -0.404 C  
HETATM    5  N   UNL     1      -9.212   7.304  68.632  1.00  0.00    -0.137 NA 
HETATM    6  H   UNL     1      -8.849   7.042  69.549  1.00  0.00     0.000 HD 
ENDROOT
BRANCH   5   7
HETATM    7  C   UNL     1      -8.110   7.460  67.684  1.00  0.00    -0.114 C  
BRANCH   7   8
HETATM    8  C   UNL     1      -7.770   8.924  67.340  1.00  0.00    -0.096 C  
HETATM    9  O   UNL     1      -6.521   9.228  67.993  1.00  0.00    -0.058 OA 
HETATM   10  H   UNL     1      -6.312  10.130  67.782  1.00  0.00     0.000 HD 
BRANCH   8  11
HETATM   11  C   UNL     1      -8.817   9.939  67.813  1.00  0.00    -0.129 C  
BRANCH  11  12
HETATM   12  O   UNL     1      -8.430  11.306  67.634  1.00  0.00    -0.120 OA 
BRANCH  12  13
HETATM   13  C   UNL     1      -9.175  12.014  66.711  1.00  0.00    -0.201 A  
HETATM   14  C   UNL     1      -9.871  11.394  65.657  1.00  0.00    -0.274 A  
HETATM   15  C   UNL     1     -10.560  12.141  64.706  1.00  0.00    -0.335 A  
HETATM   16  C   UNL     1     -10.573  13.521  64.800  1.00  0.00    -0.429 A  
HETATM   17  C   UNL     1      -9.909  14.152  65.854  1.00  0.00    -0.312 A  
HETATM   18  C   UNL     1      -9.208  13.421  66.838  1.00  0.00    -0.251 A  
BRANCH  18  19
HETATM   19  C   UNL     1      -8.459  14.146  67.947  1.00  0.00    -0.167 C  
HETATM   20  C   UNL     1      -7.019  14.597  67.643  1.00  0.00    -0.205 C  
HETATM   21  C   UNL     1      -6.701  15.539  68.790  1.00  0.00    -0.114 C  
HETATM   22  C   UNL     1      -7.975  16.359  68.921  1.00  0.00    -0.236 C  
HETATM   23  C   UNL     1      -9.118  15.447  68.449  1.00  0.00    -0.191 C  
ENDBRANCH  18  19
ENDBRANCH  12  13
ENDBRANCH  11  12
ENDBRANCH   8  11
ENDBRANCH   7   8
ENDBRANCH   5   7
TORSDOF 6
ENDMDL
MODEL      229
REMARK 921   NORMALIZED FREE ENERGY PREDICTED BY IDOCK:   -3.24 KCAL/MOL
REMARK 922        TOTAL FREE ENERGY PREDICTED BY IDOCK:   -5.41 KCAL/MOL
REMARK 923 INTER-LIGAND FREE ENERGY PREDICTED BY IDOCK:   -4.34 KCAL/MOL
REMARK 924 INTRA-LIGAND FREE ENERGY PREDICTED BY IDOCK:   -1.07 KCAL/MOL
REMARK 927      BINDING AFFINITY PREDICTED BY RF-SCORE:    0.00 PKD
ROOT
HETATM    1  C   UNL     1     -14.032   8.543  71.089  1.00  0.00    -0.122 C  
HETATM    2  C   UNL     1     -12.880   9.484  71.481  1.00  0.00    -0.377 C  
HETATM    3  C   UNL     1     -13.484  10.708  72.197  1.00  0.00    -0.237 C  
HETATM    4  C   UNL     1     -12.153   9.978  70.218  1.00  0.00    -0.226 C  
HETATM    5  N   UNL     1     -11.934   8.866  72.428  1.00  0.00    -0.309 NA 
HETATM    6  H   UNL     1     -12.394   8.702  73.324  1.00  0.00     0.000 HD 
ENDROOT
BRANCH   5   7
HETATM    7  C   UNL     1     -11.289   7.638  71.964  1.00  0.00    -0.278 C  
BRANCH   7   8
HETATM    8  C   UNL     1      -9.749   7.664  72.036  1.00  0.00    -0.166 C  
HETATM    9  O   UNL     1      -9.397   8.438  73.201  1.00  0.00    -0.237 OA 
HETATM   10  H   UNL     1      -8.448   8.454  73.245  1.00  0.00     0.000 HD 
BRANCH   8  11
HETATM   11  C   UNL     1      -9.074   8.301  70.816  1.00  0.00    -0.150 C  
BRANCH  11  12
HETATM   12  O   UNL     1      -8.442   7.361  69.940  1.00  0.00    -0.135 OA 
BRANCH  12  13
HETATM   13  C   UNL     1      -9.208   6.946  68.868  1.00  0.00    -0.132 A  
HETATM   14  C   UNL     1      -9.759   7.843  67.933  1.00  0.00    -0.184 A  
HETATM   15  C   UNL     1     -10.580   7.398  66.901  1.00  0.00    -0.375 A  
HETATM   16  C   UNL     1     -10.854   6.048  66.780  1.00  0.00    -0.356 A  
HETATM   17  C   UNL     1     -10.294   5.141  67.682  1.00  0.00    -0.173 A  
HETATM   18  C   UNL     1      -9.452   5.560  68.735  1.00  0.00    -0.163 A  
BRANCH  18  19
HETATM   19  C   UNL     1      -8.897   4.547  69.726  1.00  0.00    -0.129 C  
HETATM   20  C   UNL     1      -9.853   4.039  70.820  1.00  0.00    -0.233 C  
HETATM   21  C   UNL     1      -9.114   2.847  71.401  1.00  0.00    -0.176 C  
HETATM   22  C   UNL     1      -8.579   2.142  70.164  1.00  0.00    -0.098 C  
HETATM   23  C   UNL     1      -8.370   3.237  69.107  1.00  0.00    -0.085 C  
ENDBRANCH  18  19
ENDBRANCH  12  13
ENDBRANCH  11  12
ENDBRANCH   8  11
ENDBRANCH   7   8
ENDBRANCH   5   7
TORSDOF 6
ENDMDL
MODEL      230
REMARK 921   NORMALIZED FREE ENERGY PREDICTED BY IDOCK:   -3.23 KCAL/MOL
REMARK 922        TOTAL FREE ENERGY PREDICTED BY IDOCK:   -5.39 KCAL/MOL
REMARK 923 INTER-LIGAND FREE ENERGY PREDICTED BY IDOCK:   -4.60 KCAL/MOL
REMARK 924 INTRA-LIGAND FREE ENERGY PREDICTED BY IDOCK:   -0.79 KCAL/MOL
REMARK 927      BINDING AFFINITY PREDICTED BY RF-SCORE:    0.00 PKD
ROOT
HETATM    1  C   UNL     1      -8.515   8.218  68.130  1.00  0.00    -0.132 C  
HETATM    2  C   UNL     1      -7.423   8.533  67.094  1.00  0.00    -0.085 C  
HETATM    3  C   UNL     1      -7.707   7.700  65.829  1.00  0.00    -0.100 C  
HETATM    4  C   UNL     1      -6.045   8.119  67.642  1.00  0.00    -0.051 C  
HETATM    5  N   UNL     1      -7.421   9.947  66.676  1.00  0.00    -0.098 NA 
HETATM    6  H   UNL     1      -8.276  10.159  66.161  1.00  0.00     0.000 HD 
ENDROOT
BRANCH   5   7
HETATM    7  C   UNL     1      -7.229  10.922  67.749  1.00  0.00    -0.091 C  
BRANCH   7   8
HETATM    8  C   UNL     1      -6.348  12.127  67.362  1.00  0.00    -0.144 C  
HETATM    9  O   UNL     1      -5.218  12.124  68.258  1.00  0.00    -0.050 OA 
HETATM   10  H   UNL     1      -4.675  12.866  68.019  1.00  0.00     0.000 HD 
BRANCH   8  11
HETATM   11  C   UNL     1      -7.051  13.484  67.482  1.00  0.00    -0.148 C  
BRANCH  11  12
HETATM   12  O   UNL     1      -8.476  13.395  67.597  1.00  0.00    -0.161 OA 
BRANCH  12  13
HETATM   13  C   UNL     1      -9.123  14.588  67.853  1.00  0.00    -0.191 A  
HETATM   14  C   UNL     1      -8.653  15.522  68.795  1.00  0.00    -0.188 A  
HETATM   15  C   UNL     1      -9.362  16.686  69.077  1.00  0.00    -0.227 A  
HETATM   16  C   UNL     1     -10.549  16.940  68.412  1.00  0.00    -0.365 A  
HETATM   17  C   UNL     1     -11.016  16.037  67.455  1.00  0.00    -0.261 A  
HETATM   18  C   UNL     1     -10.316  14.852  67.142  1.00  0.00    -0.260 A  
BRANCH  18  19
HETATM   19  C   UNL     1     -10.880  13.870  66.126  1.00  0.00    -0.290 C  
HETATM   20  C   UNL     1     -12.373  13.513  66.249  1.00  0.00    -0.440 C  
HETATM   21  C   UNL     1     -12.669  12.806  64.939  1.00  0.00    -0.479 C  
HETATM   22  C   UNL     1     -11.951  13.672  63.914  1.00  0.00    -0.455 C  
HETATM   23  C   UNL     1     -10.760  14.302  64.651  1.00  0.00    -0.384 C  
ENDBRANCH  18  19
ENDBRANCH  12  13
ENDBRANCH  11  12
ENDBRANCH   8  11
ENDBRANCH   7   8
ENDBRANCH   5   7
TORSDOF 6
ENDMDL
MODEL      231
REMARK 921   NORMALIZED FREE ENERGY PREDICTED BY IDOCK:   -3.19 KCAL/MOL
REMARK 922        TOTAL FREE ENERGY PREDICTED BY IDOCK:   -5.35 KCAL/MOL
REMARK 923 INTER-LIGAND FREE ENERGY PREDICTED BY IDOCK:   -4.50 KCAL/MOL
REMARK 924 INTRA-LIGAND FREE ENERGY PREDICTED BY IDOCK:   -0.85 KCAL/MOL
REMARK 927      BINDING AFFINITY PREDICTED BY RF-SCORE:    0.00 PKD
ROOT
HETATM    1  C   UNL     1     -10.049   7.798  71.157  1.00  0.00    -0.206 C  
HETATM    2  C   UNL     1     -11.184   7.624  72.181  1.00  0.00    -0.284 C  
HETATM    3  C   UNL     1     -10.563   7.137  73.506  1.00  0.00    -0.416 C  
HETATM    4  C   UNL     1     -12.172   6.551  71.692  1.00  0.00    -0.353 C  
HETATM    5  N   UNL     1     -11.882   8.887  72.482  1.00  0.00    -0.222 NA 
HETATM    6  H   UNL     1     -11.251   9.528  72.964  1.00  0.00     0.000 HD 
ENDROOT
BRANCH   5   7
HETATM    7  C   UNL     1     -12.495   9.557  71.337  1.00  0.00    -0.362 C  
BRANCH   7   8
HETATM    8  C   UNL     1     -11.730  10.802  70.845  1.00  0.00    -0.234 C  
HETATM    9  O   UNL     1     -12.493  11.954  71.259  1.00  0.00    -0.312 OA 
HETATM   10  H   UNL     1     -12.022  12.720  70.955  1.00  0.00     0.000 HD 
BRANCH   8  11
HETATM   11  C   UNL     1     -11.550  10.868  69.324  1.00  0.00    -0.318 C  
BRANCH  11  12
HETATM   12  O   UNL     1     -10.234  11.249  68.906  1.00  0.00    -0.200 OA 
BRANCH  12  13
HETATM   13  C   UNL     1      -9.617  10.377  68.032  1.00  0.00    -0.143 A  
HETATM   14  C   UNL     1     -10.301   9.323  67.397  1.00  0.00    -0.327 A  
HETATM   15  C   UNL     1      -9.636   8.421  66.572  1.00  0.00    -0.304 A  
HETATM   16  C   UNL     1      -8.276   8.565  66.358  1.00  0.00    -0.108 A  
HETATM   17  C   UNL     1      -7.587   9.620  66.959  1.00  0.00    -0.095 A  
HETATM   18  C   UNL     1      -8.235  10.555  67.796  1.00  0.00    -0.107 A  
BRANCH  18  19
HETATM   19  C   UNL     1      -7.441  11.665  68.469  1.00  0.00    -0.113 C  
HETATM   20  C   UNL     1      -5.956  11.386  68.765  1.00  0.00    -0.043 C  
HETATM   21  C   UNL     1      -5.409  12.758  69.114  1.00  0.00    -0.069 C  
HETATM   22  C   UNL     1      -6.044  13.656  68.064  1.00  0.00    -0.138 C  
HETATM   23  C   UNL     1      -7.383  12.998  67.697  1.00  0.00    -0.147 C  
ENDBRANCH  18  19
ENDBRANCH  12  13
ENDBRANCH  11  12
ENDBRANCH   8  11
ENDBRANCH   7   8
ENDBRANCH   5   7
TORSDOF 6
ENDMDL
MODEL      232
REMARK 921   NORMALIZED FREE ENERGY PREDICTED BY IDOCK:   -3.19 KCAL/MOL
REMARK 922        TOTAL FREE ENERGY PREDICTED BY IDOCK:   -5.33 KCAL/MOL
REMARK 923 INTER-LIGAND FREE ENERGY PREDICTED BY IDOCK:   -4.53 KCAL/MOL
REMARK 924 INTRA-LIGAND FREE ENERGY PREDICTED BY IDOCK:   -0.81 KCAL/MOL
REMARK 927      BINDING AFFINITY PREDICTED BY RF-SCORE:    0.00 PKD
ROOT
HETATM    1  C   UNL     1     -10.040  14.818  66.522  1.00  0.00    -0.281 C  
HETATM    2  C   UNL     1     -11.304  14.056  66.954  1.00  0.00    -0.329 C  
HETATM    3  C   UNL     1     -12.339  14.159  65.817  1.00  0.00    -0.481 C  
HETATM    4  C   UNL     1     -11.906  14.707  68.212  1.00  0.00    -0.333 C  
HETATM    5  N   UNL     1     -11.058  12.618  67.171  1.00  0.00    -0.268 NA 
HETATM    6  H   UNL     1     -10.825  12.167  66.286  1.00  0.00     0.000 HD 
ENDROOT
BRANCH   5   7
HETATM    7  C   UNL     1     -10.049  12.295  68.178  1.00  0.00    -0.211 C  
BRANCH   7   8
HETATM    8  C   UNL     1     -10.340  11.009  68.979  1.00  0.00    -0.209 C  
HETATM    9  O   UNL     1      -9.113  10.644  69.644  1.00  0.00    -0.402 OA 
HETATM   10  H   UNL     1      -9.293   9.852  70.137  1.00  0.00     0.000 HD 
BRANCH   8  11
HETATM   11  C   UNL     1     -10.790   9.823  68.119  1.00  0.00    -0.214 C  
BRANCH  11  12
HETATM   12  O   UNL     1      -9.843   8.750  68.059  1.00  0.00    -0.157 OA 
BRANCH  12  13
HETATM   13  C   UNL     1      -9.280   8.529  66.818  1.00  0.00    -0.172 A  
HETATM   14  C   UNL     1      -9.158   9.539  65.846  1.00  0.00    -0.230 A  
HETATM   15  C   UNL     1      -8.645   9.268  64.581  1.00  0.00    -0.209 A  
HETATM   16  C   UNL     1      -8.233   7.984  64.271  1.00  0.00    -0.070 A  
HETATM   17  C   UNL     1      -8.322   6.975  65.233  1.00  0.00    -0.100 A  
HETATM   18  C   UNL     1      -8.831   7.221  66.527  1.00  0.00    -0.156 A  
BRANCH  18  19
HETATM   19  C   UNL     1      -8.954   6.086  67.534  1.00  0.00    -0.111 C  
HETATM   20  C   UNL     1      -9.844   4.893  67.141  1.00  0.00    -0.215 C  
HETATM   21  C   UNL     1      -9.492   3.841  68.177  1.00  0.00    -0.216 C  
HETATM   22  C   UNL     1      -7.977   3.944  68.265  1.00  0.00    -0.076 C  
HETATM   23  C   UNL     1      -7.629   5.400  67.922  1.00  0.00    -0.088 C  
ENDBRANCH  18  19
ENDBRANCH  12  13
ENDBRANCH  11  12
ENDBRANCH   8  11
ENDBRANCH   7   8
ENDBRANCH   5   7
TORSDOF 6
ENDMDL
MODEL      233
REMARK 921   NORMALIZED FREE ENERGY PREDICTED BY IDOCK:   -3.18 KCAL/MOL
REMARK 922        TOTAL FREE ENERGY PREDICTED BY IDOCK:   -5.33 KCAL/MOL
REMARK 923 INTER-LIGAND FREE ENERGY PREDICTED BY IDOCK:   -4.39 KCAL/MOL
REMARK 924 INTRA-LIGAND FREE ENERGY PREDICTED BY IDOCK:   -0.94 KCAL/MOL
REMARK 927      BINDING AFFINITY PREDICTED BY RF-SCORE:    0.00 PKD
ROOT
HETATM    1  C   UNL     1      -8.473   7.976  69.118  1.00  0.00    -0.136 C  
HETATM    2  C   UNL     1      -8.576   9.152  70.104  1.00  0.00    -0.182 C  
HETATM    3  C   UNL     1      -7.201   9.339  70.773  1.00  0.00    -0.126 C  
HETATM    4  C   UNL     1      -9.604   8.828  71.202  1.00  0.00    -0.309 C  
HETATM    5  N   UNL     1      -8.898  10.429  69.440  1.00  0.00    -0.292 NA 
HETATM    6  H   UNL     1      -8.124  10.715  68.841  1.00  0.00     0.000 HD 
ENDROOT
BRANCH   5   7
HETATM    7  C   UNL     1     -10.150  10.448  68.683  1.00  0.00    -0.176 C  
BRANCH   7   8
HETATM    8  C   UNL     1     -11.263  11.306  69.318  1.00  0.00    -0.272 C  
HETATM    9  O   UNL     1     -12.520  10.713  68.933  1.00  0.00    -0.791 OA 
HETATM   10  H   UNL     1     -13.205  11.242  69.324  1.00  0.00     0.000 HD 
BRANCH   8  11
HETATM   11  C   UNL     1     -11.264  12.770  68.861  1.00  0.00    -0.283 C  
BRANCH  11  12
HETATM   12  O   UNL     1     -10.208  13.099  67.951  1.00  0.00    -0.222 OA 
BRANCH  12  13
HETATM   13  C   UNL     1      -9.997  14.450  67.756  1.00  0.00    -0.226 A  
HETATM   14  C   UNL     1     -11.028  15.337  67.392  1.00  0.00    -0.321 A  
HETATM   15  C   UNL     1     -10.771  16.681  67.140  1.00  0.00    -0.202 A  
HETATM   16  C   UNL     1      -9.480  17.164  67.258  1.00  0.00    -0.245 A  
HETATM   17  C   UNL     1      -8.450  16.304  67.643  1.00  0.00    -0.178 A  
HETATM   18  C   UNL     1      -8.680  14.936  67.913  1.00  0.00    -0.164 A  
BRANCH  18  19
HETATM   19  C   UNL     1      -7.524  14.020  68.287  1.00  0.00    -0.123 C  
HETATM   20  C   UNL     1      -6.224  14.163  67.475  1.00  0.00     0.007 C  
HETATM   21  C   UNL     1      -5.216  13.375  68.291  1.00  0.00    -0.095 C  
HETATM   22  C   UNL     1      -5.529  13.797  69.719  1.00  0.00    -0.093 C  
HETATM   23  C   UNL     1      -7.025  14.145  69.741  1.00  0.00     0.041 C  
ENDBRANCH  18  19
ENDBRANCH  12  13
ENDBRANCH  11  12
ENDBRANCH   8  11
ENDBRANCH   7   8
ENDBRANCH   5   7
TORSDOF 6
ENDMDL
MODEL      234
REMARK 921   NORMALIZED FREE ENERGY PREDICTED BY IDOCK:   -3.17 KCAL/MOL
REMARK 922        TOTAL FREE ENERGY PREDICTED BY IDOCK:   -5.31 KCAL/MOL
REMARK 923 INTER-LIGAND FREE ENERGY PREDICTED BY IDOCK:   -5.00 KCAL/MOL
REMARK 924 INTRA-LIGAND FREE ENERGY PREDICTED BY IDOCK:   -0.32 KCAL/MOL
REMARK 927      BINDING AFFINITY PREDICTED BY RF-SCORE:    0.00 PKD
ROOT
HETATM    1  C   UNL     1     -10.260  13.746  67.297  1.00  0.00    -0.253 C  
HETATM    2  C   UNL     1     -10.866  12.340  67.148  1.00  0.00    -0.244 C  
HETATM    3  C   UNL     1     -11.378  12.190  65.702  1.00  0.00    -0.395 C  
HETATM    4  C   UNL     1     -12.066  12.182  68.099  1.00  0.00    -0.057 C  
HETATM    5  N   UNL     1      -9.880  11.265  67.360  1.00  0.00    -0.180 NA 
HETATM    6  H   UNL     1      -9.182  11.281  66.615  1.00  0.00     0.000 HD 
ENDROOT
BRANCH   5   7
HETATM    7  C   UNL     1      -9.218  11.264  68.664  1.00  0.00    -0.161 C  
BRANCH   7   8
HETATM    8  C   UNL     1      -9.568  10.053  69.552  1.00  0.00    -0.230 C  
HETATM    9  O   UNL     1      -8.575   9.998  70.597  1.00  0.00    -0.356 OA 
HETATM   10  H   UNL     1      -8.791   9.252  71.143  1.00  0.00     0.000 HD 
BRANCH   8  11
HETATM   11  C   UNL     1      -9.560   8.710  68.813  1.00  0.00    -0.156 C  
BRANCH  11  12
HETATM   12  O   UNL     1     -10.772   7.958  68.951  1.00  0.00    -0.179 OA 
BRANCH  12  13
HETATM   13  C   UNL     1     -10.748   6.974  69.919  1.00  0.00    -0.240 A  
HETATM   14  C   UNL     1     -11.229   7.179  71.226  1.00  0.00    -0.287 A  
HETATM   15  C   UNL     1     -11.132   6.187  72.197  1.00  0.00    -0.321 A  
HETATM   16  C   UNL     1     -10.563   4.968  71.873  1.00  0.00    -0.224 A  
HETATM   17  C   UNL     1     -10.106   4.738  70.575  1.00  0.00    -0.291 A  
HETATM   18  C   UNL     1     -10.196   5.722  69.566  1.00  0.00    -0.306 A  
BRANCH  18  19
HETATM   19  C   UNL     1      -9.645   5.450  68.174  1.00  0.00    -0.154 C  
HETATM   20  C   UNL     1      -9.055   4.052  67.913  1.00  0.00    -0.176 C  
HETATM   21  C   UNL     1      -8.912   4.012  66.403  1.00  0.00    -0.128 C  
HETATM   22  C   UNL     1     -10.216   4.629  65.920  1.00  0.00    -0.303 C  
HETATM   23  C   UNL     1     -10.656   5.606  67.020  1.00  0.00    -0.358 C  
ENDBRANCH  18  19
ENDBRANCH  12  13
ENDBRANCH  11  12
ENDBRANCH   8  11
ENDBRANCH   7   8
ENDBRANCH   5   7
TORSDOF 6
ENDMDL
MODEL      235
REMARK 921   NORMALIZED FREE ENERGY PREDICTED BY IDOCK:   -3.17 KCAL/MOL
REMARK 922        TOTAL FREE ENERGY PREDICTED BY IDOCK:   -5.31 KCAL/MOL
REMARK 923 INTER-LIGAND FREE ENERGY PREDICTED BY IDOCK:   -4.37 KCAL/MOL
REMARK 924 INTRA-LIGAND FREE ENERGY PREDICTED BY IDOCK:   -0.93 KCAL/MOL
REMARK 927      BINDING AFFINITY PREDICTED BY RF-SCORE:    0.00 PKD
ROOT
HETATM    1  C   UNL     1     -10.036   9.970  64.891  1.00  0.00    -0.286 C  
HETATM    2  C   UNL     1     -10.207  11.263  65.705  1.00  0.00    -0.251 C  
HETATM    3  C   UNL     1     -10.682  12.373  64.748  1.00  0.00    -0.332 C  
HETATM    4  C   UNL     1      -8.854  11.691  66.302  1.00  0.00    -0.164 C  
HETATM    5  N   UNL     1     -11.234  11.145  66.757  1.00  0.00    -0.312 NA 
HETATM    6  H   UNL     1     -12.155  11.032  66.334  1.00  0.00     0.000 HD 
ENDROOT
BRANCH   5   7
HETATM    7  C   UNL     1     -11.006  10.092  67.746  1.00  0.00    -0.277 C  
BRANCH   7   8
HETATM    8  C   UNL     1     -10.704  10.611  69.167  1.00  0.00    -0.228 C  
HETATM    9  O   UNL     1     -11.047  12.012  69.183  1.00  0.00    -0.235 OA 
HETATM   10  H   UNL     1     -10.861  12.331  70.058  1.00  0.00     0.000 HD 
BRANCH   8  11
HETATM   11  C   UNL     1      -9.237  10.472  69.587  1.00  0.00     0.039 C  
BRANCH  11  12
HETATM   12  O   UNL     1      -8.968   9.325  70.402  1.00  0.00    -0.200 OA 
BRANCH  12  13
HETATM   13  C   UNL     1      -8.608   8.183  69.714  1.00  0.00    -0.133 A  
HETATM   14  C   UNL     1      -7.658   8.187  68.675  1.00  0.00    -0.103 A  
HETATM   15  C   UNL     1      -7.366   7.031  67.958  1.00  0.00    -0.097 A  
HETATM   16  C   UNL     1      -8.010   5.848  68.276  1.00  0.00    -0.109 A  
HETATM   17  C   UNL     1      -8.935   5.821  69.321  1.00  0.00    -0.122 A  
HETATM   18  C   UNL     1      -9.249   6.975  70.071  1.00  0.00    -0.148 A  
BRANCH  18  19
HETATM   19  C   UNL     1     -10.296   6.916  71.174  1.00  0.00    -0.222 C  
HETATM   20  C   UNL     1     -11.771   6.848  70.738  1.00  0.00    -0.417 C  
HETATM   21  C   UNL     1     -12.495   6.477  72.019  1.00  0.00    -0.261 C  
HETATM   22  C   UNL     1     -11.601   5.400  72.615  1.00  0.00    -0.270 C  
HETATM   23  C   UNL     1     -10.177   5.716  72.135  1.00  0.00    -0.247 C  
ENDBRANCH  18  19
ENDBRANCH  12  13
ENDBRANCH  11  12
ENDBRANCH   8  11
ENDBRANCH   7   8
ENDBRANCH   5   7
TORSDOF 6
ENDMDL
MODEL      236
REMARK 921   NORMALIZED FREE ENERGY PREDICTED BY IDOCK:   -3.12 KCAL/MOL
REMARK 922        TOTAL FREE ENERGY PREDICTED BY IDOCK:   -5.25 KCAL/MOL
REMARK 923 INTER-LIGAND FREE ENERGY PREDICTED BY IDOCK:   -4.48 KCAL/MOL
REMARK 924 INTRA-LIGAND FREE ENERGY PREDICTED BY IDOCK:   -0.77 KCAL/MOL
REMARK 927      BINDING AFFINITY PREDICTED BY RF-SCORE:    0.00 PKD
ROOT
HETATM    1  C   UNL     1      -7.437   5.360  68.032  1.00  0.00    -0.077 C  
HETATM    2  C   UNL     1      -8.858   5.904  67.807  1.00  0.00    -0.109 C  
HETATM    3  C   UNL     1      -9.612   5.844  69.149  1.00  0.00    -0.166 C  
HETATM    4  C   UNL     1      -9.606   5.016  66.796  1.00  0.00    -0.164 C  
HETATM    5  N   UNL     1      -8.870   7.315  67.380  1.00  0.00    -0.120 NA 
HETATM    6  H   UNL     1      -8.526   7.911  68.133  1.00  0.00     0.000 HD 
ENDROOT
BRANCH   5   7
HETATM    7  C   UNL     1      -8.145   7.606  66.143  1.00  0.00    -0.118 C  
BRANCH   7   8
HETATM    8  C   UNL     1      -7.157   8.786  66.249  1.00  0.00    -0.082 C  
HETATM    9  O   UNL     1      -6.540   8.700  67.549  1.00  0.00    -0.057 OA 
HETATM   10  H   UNL     1      -5.932   9.426  67.614  1.00  0.00     0.000 HD 
BRANCH   8  11
HETATM   11  C   UNL     1      -7.813  10.166  66.121  1.00  0.00    -0.116 C  
BRANCH  11  12
HETATM   12  O   UNL     1      -8.365  10.667  67.343  1.00  0.00    -0.118 OA 
BRANCH  12  13
HETATM   13  C   UNL     1      -9.534  11.390  67.210  1.00  0.00    -0.167 A  
HETATM   14  C   UNL     1      -9.680  12.437  66.280  1.00  0.00    -0.253 A  
HETATM   15  C   UNL     1     -10.849  13.189  66.216  1.00  0.00    -0.292 A  
HETATM   16  C   UNL     1     -11.896  12.900  67.072  1.00  0.00    -0.437 A  
HETATM   17  C   UNL     1     -11.778  11.848  67.983  1.00  0.00    -0.382 A  
HETATM   18  C   UNL     1     -10.608  11.062  68.068  1.00  0.00    -0.241 A  
BRANCH  18  19
HETATM   19  C   UNL     1     -10.499   9.953  69.104  1.00  0.00    -0.235 C  
HETATM   20  C   UNL     1      -9.191   9.871  69.911  1.00  0.00    -0.245 C  
HETATM   21  C   UNL     1      -9.535   8.910  71.034  1.00  0.00    -0.318 C  
HETATM   22  C   UNL     1     -10.921   9.367  71.462  1.00  0.00    -0.429 C  
HETATM   23  C   UNL     1     -11.573   9.974  70.211  1.00  0.00    -0.354 C  
ENDBRANCH  18  19
ENDBRANCH  12  13
ENDBRANCH  11  12
ENDBRANCH   8  11
ENDBRANCH   7   8
ENDBRANCH   5   7
TORSDOF 6
ENDMDL
MODEL      237
REMARK 921   NORMALIZED FREE ENERGY PREDICTED BY IDOCK:   -3.10 KCAL/MOL
REMARK 922        TOTAL FREE ENERGY PREDICTED BY IDOCK:   -5.22 KCAL/MOL
REMARK 923 INTER-LIGAND FREE ENERGY PREDICTED BY IDOCK:   -4.43 KCAL/MOL
REMARK 924 INTRA-LIGAND FREE ENERGY PREDICTED BY IDOCK:   -0.79 KCAL/MOL
REMARK 927      BINDING AFFINITY PREDICTED BY RF-SCORE:    0.00 PKD
ROOT
HETATM    1  C   UNL     1     -12.152   8.307  72.089  1.00  0.00    -0.425 C  
HETATM    2  C   UNL     1     -11.070   7.216  72.144  1.00  0.00    -0.248 C  
HETATM    3  C   UNL     1     -11.744   5.893  72.559  1.00  0.00    -0.288 C  
HETATM    4  C   UNL     1     -10.018   7.573  73.209  1.00  0.00    -0.368 C  
HETATM    5  N   UNL     1     -10.435   6.972  70.835  1.00  0.00    -0.213 NA 
HETATM    6  H   UNL     1     -11.114   6.572  70.187  1.00  0.00     0.000 HD 
ENDROOT
BRANCH   5   7
HETATM    7  C   UNL     1      -9.784   8.131  70.225  1.00  0.00    -0.175 C  
BRANCH   7   8
HETATM    8  C   UNL     1     -10.524   8.702  68.998  1.00  0.00    -0.199 C  
HETATM    9  O   UNL     1      -9.604   8.643  67.889  1.00  0.00    -0.144 OA 
HETATM   10  H   UNL     1     -10.060   8.995  67.134  1.00  0.00     0.000 HD 
BRANCH   8  11
HETATM   11  C   UNL     1     -10.984  10.155  69.163  1.00  0.00    -0.230 C  
BRANCH  11  12
HETATM   12  O   UNL     1     -10.644  11.005  68.062  1.00  0.00    -0.184 OA 
BRANCH  12  13
HETATM   13  C   UNL     1     -10.409  12.326  68.386  1.00  0.00    -0.224 A  
HETATM   14  C   UNL     1     -11.436  13.210  68.769  1.00  0.00    -0.348 A  
HETATM   15  C   UNL     1     -11.176  14.553  69.027  1.00  0.00    -0.289 A  
HETATM   16  C   UNL     1      -9.882  15.031  68.918  1.00  0.00    -0.233 A  
HETATM   17  C   UNL     1      -8.848  14.163  68.565  1.00  0.00    -0.173 A  
HETATM   18  C   UNL     1      -9.078  12.794  68.303  1.00  0.00    -0.180 A  
BRANCH  18  19
HETATM   19  C   UNL     1      -7.933  11.888  67.877  1.00  0.00    -0.144 C  
HETATM   20  C   UNL     1      -6.666  12.569  67.328  1.00  0.00    -0.122 C  
HETATM   21  C   UNL     1      -5.646  11.446  67.315  1.00  0.00    -0.077 C  
HETATM   22  C   UNL     1      -5.884  10.754  68.649  1.00  0.00    -0.039 C  
HETATM   23  C   UNL     1      -7.367  10.973  68.982  1.00  0.00    -0.123 C  
ENDBRANCH  18  19
ENDBRANCH  12  13
ENDBRANCH  11  12
ENDBRANCH   8  11
ENDBRANCH   7   8
ENDBRANCH   5   7
TORSDOF 6
ENDMDL
MODEL      238
REMARK 921   NORMALIZED FREE ENERGY PREDICTED BY IDOCK:   -3.09 KCAL/MOL
REMARK 922        TOTAL FREE ENERGY PREDICTED BY IDOCK:   -5.21 KCAL/MOL
REMARK 923 INTER-LIGAND FREE ENERGY PREDICTED BY IDOCK:   -4.64 KCAL/MOL
REMARK 924 INTRA-LIGAND FREE ENERGY PREDICTED BY IDOCK:   -0.57 KCAL/MOL
REMARK 927      BINDING AFFINITY PREDICTED BY RF-SCORE:    0.00 PKD
ROOT
HETATM    1  C   UNL     1     -11.290   5.100  73.109  1.00  0.00    -0.385 C  
HETATM    2  C   UNL     1     -10.366   6.231  72.626  1.00  0.00    -0.199 C  
HETATM    3  C   UNL     1      -9.006   6.074  73.334  1.00  0.00    -0.129 C  
HETATM    4  C   UNL     1     -10.957   7.596  73.020  1.00  0.00    -0.457 C  
HETATM    5  N   UNL     1     -10.097   6.171  71.178  1.00  0.00    -0.187 NA 
HETATM    6  H   UNL     1      -9.551   5.337  70.959  1.00  0.00     0.000 HD 
ENDROOT
BRANCH   5   7
HETATM    7  C   UNL     1     -11.275   6.239  70.314  1.00  0.00    -0.388 C  
BRANCH   7   8
HETATM    8  C   UNL     1     -10.953   6.310  68.807  1.00  0.00    -0.352 C  
HETATM    9  O   UNL     1      -9.798   5.476  68.585  1.00  0.00    -0.130 OA 
HETATM   10  H   UNL     1      -9.600   5.520  67.658  1.00  0.00     0.000 HD 
BRANCH   8  11
HETATM   11  C   UNL     1     -10.630   7.720  68.301  1.00  0.00    -0.117 C  
BRANCH  11  12
HETATM   12  O   UNL     1     -10.071   8.585  69.296  1.00  0.00    -0.191 OA 
BRANCH  12  13
HETATM   13  C   UNL     1     -10.746   9.773  69.493  1.00  0.00    -0.233 A  
HETATM   14  C   UNL     1     -11.950   9.853  70.219  1.00  0.00    -0.209 A  
HETATM   15  C   UNL     1     -12.640  11.055  70.345  1.00  0.00    -0.349 A  
HETATM   16  C   UNL     1     -12.133  12.200  69.756  1.00  0.00    -0.306 A  
HETATM   17  C   UNL     1     -10.926  12.144  69.055  1.00  0.00    -0.255 A  
HETATM   18  C   UNL     1     -10.199  10.941  68.916  1.00  0.00    -0.213 A  
BRANCH  18  19
HETATM   19  C   UNL     1      -8.911  10.910  68.106  1.00  0.00    -0.137 C  
HETATM   20  C   UNL     1      -7.704  10.189  68.734  1.00  0.00    -0.088 C  
HETATM   21  C   UNL     1      -6.735  10.061  67.574  1.00  0.00    -0.072 C  
HETATM   22  C   UNL     1      -7.635   9.640  66.422  1.00  0.00    -0.101 C  
HETATM   23  C   UNL     1      -9.016  10.241  66.721  1.00  0.00    -0.147 C  
ENDBRANCH  18  19
ENDBRANCH  12  13
ENDBRANCH  11  12
ENDBRANCH   8  11
ENDBRANCH   7   8
ENDBRANCH   5   7
TORSDOF 6
ENDMDL
MODEL      239
REMARK 921   NORMALIZED FREE ENERGY PREDICTED BY IDOCK:   -3.09 KCAL/MOL
REMARK 922        TOTAL FREE ENERGY PREDICTED BY IDOCK:   -5.20 KCAL/MOL
REMARK 923 INTER-LIGAND FREE ENERGY PREDICTED BY IDOCK:   -4.54 KCAL/MOL
REMARK 924 INTRA-LIGAND FREE ENERGY PREDICTED BY IDOCK:   -0.67 KCAL/MOL
REMARK 927      BINDING AFFINITY PREDICTED BY RF-SCORE:    0.00 PKD
ROOT
HETATM    1  C   UNL     1     -12.762   8.985  72.243  1.00  0.00    -0.457 C  
HETATM    2  C   UNL     1     -11.712   8.003  71.696  1.00  0.00    -0.283 C  
HETATM    3  C   UNL     1     -12.221   6.570  71.944  1.00  0.00    -0.373 C  
HETATM    4  C   UNL     1     -10.384   8.179  72.454  1.00  0.00    -0.382 C  
HETATM    5  N   UNL     1     -11.511   8.133  70.241  1.00  0.00    -0.457 NA 
HETATM    6  H   UNL     1     -12.355   7.846  69.745  1.00  0.00     0.000 HD 
ENDROOT
BRANCH   5   7
HETATM    7  C   UNL     1     -11.084   9.453  69.779  1.00  0.00    -0.172 C  
BRANCH   7   8
HETATM    8  C   UNL     1     -10.606   9.488  68.313  1.00  0.00    -0.216 C  
HETATM    9  O   UNL     1     -11.544  10.307  67.586  1.00  0.00    -0.602 OA 
HETATM   10  H   UNL     1     -11.250  10.329  66.684  1.00  0.00     0.000 HD 
BRANCH   8  11
HETATM   11  C   UNL     1     -10.548   8.113  67.639  1.00  0.00    -0.188 C  
BRANCH  11  12
HETATM   12  O   UNL     1      -9.222   7.594  67.481  1.00  0.00    -0.131 OA 
BRANCH  12  13
HETATM   13  C   UNL     1      -9.074   6.645  66.489  1.00  0.00    -0.149 A  
HETATM   14  C   UNL     1      -9.417   5.292  66.672  1.00  0.00    -0.148 A  
HETATM   15  C   UNL     1      -9.195   4.348  65.674  1.00  0.00    -0.148 A  
HETATM   16  C   UNL     1      -8.636   4.743  64.472  1.00  0.00    -0.144 A  
HETATM   17  C   UNL     1      -8.314   6.085  64.263  1.00  0.00    -0.003 A  
HETATM   18  C   UNL     1      -8.533   7.068  65.253  1.00  0.00    -0.060 A  
BRANCH  18  19
HETATM   19  C   UNL     1      -8.127   8.514  65.006  1.00  0.00    -0.148 C  
HETATM   20  C   UNL     1      -6.721   8.937  65.469  1.00  0.00    -0.072 C  
HETATM   21  C   UNL     1      -6.526  10.284  64.797  1.00  0.00    -0.105 C  
HETATM   22  C   UNL     1      -7.064  10.047  63.394  1.00  0.00    -0.129 C  
HETATM   23  C   UNL     1      -8.143   8.962  63.531  1.00  0.00    -0.168 C  
ENDBRANCH  18  19
ENDBRANCH  12  13
ENDBRANCH  11  12
ENDBRANCH   8  11
ENDBRANCH   7   8
ENDBRANCH   5   7
TORSDOF 6
ENDMDL
MODEL      240
REMARK 921   NORMALIZED FREE ENERGY PREDICTED BY IDOCK:   -3.07 KCAL/MOL
REMARK 922        TOTAL FREE ENERGY PREDICTED BY IDOCK:   -5.18 KCAL/MOL
REMARK 923 INTER-LIGAND FREE ENERGY PREDICTED BY IDOCK:   -4.28 KCAL/MOL
REMARK 924 INTRA-LIGAND FREE ENERGY PREDICTED BY IDOCK:   -0.90 KCAL/MOL
REMARK 927      BINDING AFFINITY PREDICTED BY RF-SCORE:    0.00 PKD
ROOT
HETATM    1  C   UNL     1      -7.373  14.783  70.287  1.00  0.00     0.365 C  
HETATM    2  C   UNL     1      -5.976  14.141  70.348  1.00  0.00    -0.171 C  
HETATM    3  C   UNL     1      -5.275  14.640  71.627  1.00  0.00    -0.149 C  
HETATM    4  C   UNL     1      -5.139  14.590  69.136  1.00  0.00    -0.079 C  
HETATM    5  N   UNL     1      -6.025  12.671  70.440  1.00  0.00    -0.307 NA 
HETATM    6  H   UNL     1      -6.431  12.391  71.333  1.00  0.00     0.000 HD 
ENDROOT
BRANCH   5   7
HETATM    7  C   UNL     1      -6.714  11.992  69.343  1.00  0.00    -0.070 C  
BRANCH   7   8
HETATM    8  C   UNL     1      -6.533  10.461  69.330  1.00  0.00    -0.057 C  
HETATM    9  O   UNL     1      -6.077  10.104  68.010  1.00  0.00    -0.051 OA 
HETATM   10  H   UNL     1      -5.967   9.161  68.002  1.00  0.00     0.000 HD 
BRANCH   8  11
HETATM   11  C   UNL     1      -7.817   9.675  69.623  1.00  0.00    -0.129 C  
BRANCH  11  12
HETATM   12  O   UNL     1      -8.926  10.037  68.793  1.00  0.00    -0.132 OA 
BRANCH  12  13
HETATM   13  C   UNL     1     -10.108  10.285  69.462  1.00  0.00    -0.235 A  
HETATM   14  C   UNL     1     -10.452   9.640  70.665  1.00  0.00    -0.379 A  
HETATM   15  C   UNL     1     -11.680   9.865  71.281  1.00  0.00    -0.472 A  
HETATM   16  C   UNL     1     -12.579  10.747  70.710  1.00  0.00    -0.476 A  
HETATM   17  C   UNL     1     -12.243  11.416  69.532  1.00  0.00    -0.303 A  
HETATM   18  C   UNL     1     -11.003  11.215  68.886  1.00  0.00    -0.276 A  
BRANCH  18  19
HETATM   19  C   UNL     1     -10.691  11.928  67.579  1.00  0.00    -0.263 C  
HETATM   20  C   UNL     1     -11.820  12.004  66.534  1.00  0.00    -0.237 C  
HETATM   21  C   UNL     1     -11.302  13.024  65.538  1.00  0.00    -0.330 C  
HETATM   22  C   UNL     1     -10.722  14.110  66.432  1.00  0.00    -0.288 C  
HETATM   23  C   UNL     1     -10.263  13.403  67.716  1.00  0.00    -0.235 C  
ENDBRANCH  18  19
ENDBRANCH  12  13
ENDBRANCH  11  12
ENDBRANCH   8  11
ENDBRANCH   7   8
ENDBRANCH   5   7
TORSDOF 6
ENDMDL
MODEL      241
REMARK 921   NORMALIZED FREE ENERGY PREDICTED BY IDOCK:   -3.04 KCAL/MOL
REMARK 922        TOTAL FREE ENERGY PREDICTED BY IDOCK:   -5.14 KCAL/MOL
REMARK 923 INTER-LIGAND FREE ENERGY PREDICTED BY IDOCK:   -4.14 KCAL/MOL
REMARK 924 INTRA-LIGAND FREE ENERGY PREDICTED BY IDOCK:   -1.00 KCAL/MOL
REMARK 927      BINDING AFFINITY PREDICTED BY RF-SCORE:    0.00 PKD
ROOT
HETATM    1  C   UNL     1     -13.033  10.341  71.777  1.00  0.00    -0.574 C  
HETATM    2  C   UNL     1     -12.663   8.879  71.477  1.00  0.00    -0.335 C  
HETATM    3  C   UNL     1     -13.968   8.092  71.245  1.00  0.00    -0.261 C  
HETATM    4  C   UNL     1     -11.938   8.261  72.686  1.00  0.00    -0.360 C  
HETATM    5  N   UNL     1     -11.860   8.732  70.249  1.00  0.00    -0.466 NA 
HETATM    6  H   UNL     1     -12.418   8.986  69.434  1.00  0.00     0.000 HD 
ENDROOT
BRANCH   5   7
HETATM    7  C   UNL     1     -10.592   9.462  70.233  1.00  0.00    -0.250 C  
BRANCH   7   8
HETATM    8  C   UNL     1      -9.342   8.562  70.159  1.00  0.00    -0.161 C  
HETATM    9  O   UNL     1      -8.564   9.018  69.034  1.00  0.00    -0.130 OA 
HETATM   10  H   UNL     1      -7.794   8.464  68.989  1.00  0.00     0.000 HD 
BRANCH   8  11
HETATM   11  C   UNL     1      -9.651   7.074  69.956  1.00  0.00    -0.164 C  
BRANCH  11  12
HETATM   12  O   UNL     1      -9.886   6.707  68.592  1.00  0.00    -0.134 OA 
BRANCH  12  13
HETATM   13  C   UNL     1      -9.410   5.463  68.225  1.00  0.00    -0.114 A  
HETATM   14  C   UNL     1      -9.631   4.306  68.995  1.00  0.00    -0.240 A  
HETATM   15  C   UNL     1      -9.082   3.080  68.632  1.00  0.00    -0.212 A  
HETATM   16  C   UNL     1      -8.313   2.988  67.486  1.00  0.00    -0.092 A  
HETATM   17  C   UNL     1      -8.106   4.120  66.696  1.00  0.00    -0.101 A  
HETATM   18  C   UNL     1      -8.654   5.377  67.034  1.00  0.00    -0.109 A  
BRANCH  18  19
HETATM   19  C   UNL     1      -8.369   6.598  66.172  1.00  0.00    -0.130 C  
HETATM   20  C   UNL     1      -7.066   7.368  66.455  1.00  0.00    -0.074 C  
HETATM   21  C   UNL     1      -6.936   8.284  65.252  1.00  0.00    -0.066 C  
HETATM   22  C   UNL     1      -7.301   7.374  64.090  1.00  0.00    -0.091 C  
HETATM   23  C   UNL     1      -8.276   6.331  64.657  1.00  0.00    -0.080 C  
ENDBRANCH  18  19
ENDBRANCH  12  13
ENDBRANCH  11  12
ENDBRANCH   8  11
ENDBRANCH   7   8
ENDBRANCH   5   7
TORSDOF 6
ENDMDL
MODEL      242
REMARK 921   NORMALIZED FREE ENERGY PREDICTED BY IDOCK:   -3.03 KCAL/MOL
REMARK 922        TOTAL FREE ENERGY PREDICTED BY IDOCK:   -5.13 KCAL/MOL
REMARK 923 INTER-LIGAND FREE ENERGY PREDICTED BY IDOCK:   -3.85 KCAL/MOL
REMARK 924 INTRA-LIGAND FREE ENERGY PREDICTED BY IDOCK:   -1.28 KCAL/MOL
REMARK 927      BINDING AFFINITY PREDICTED BY RF-SCORE:    0.00 PKD
ROOT
HETATM    1  C   UNL     1      -6.028   8.048  70.260  1.00  0.00    -0.029 C  
HETATM    2  C   UNL     1      -6.788   9.212  70.918  1.00  0.00    -0.096 C  
HETATM    3  C   UNL     1      -5.907  10.473  70.827  1.00  0.00    -0.093 C  
HETATM    4  C   UNL     1      -7.034   8.905  72.406  1.00  0.00     0.123 C  
HETATM    5  N   UNL     1      -8.052   9.531  70.230  1.00  0.00    -0.169 NA 
HETATM    6  H   UNL     1      -7.859   9.897  69.297  1.00  0.00     0.000 HD 
ENDROOT
BRANCH   5   7
HETATM    7  C   UNL     1      -9.019   8.436  70.145  1.00  0.00    -0.142 C  
BRANCH   7   8
HETATM    8  C   UNL     1     -10.422   8.786  70.679  1.00  0.00    -0.210 C  
HETATM    9  O   UNL     1     -11.306   7.726  70.262  1.00  0.00    -0.374 OA 
HETATM   10  H   UNL     1     -12.170   7.942  70.591  1.00  0.00     0.000 HD 
BRANCH   8  11
HETATM   11  C   UNL     1     -10.982  10.112  70.151  1.00  0.00    -0.316 C  
BRANCH  11  12
HETATM   12  O   UNL     1     -10.699  10.356  68.768  1.00  0.00    -0.199 OA 
BRANCH  12  13
HETATM   13  C   UNL     1     -10.678  11.686  68.396  1.00  0.00    -0.217 A  
HETATM   14  C   UNL     1     -11.737  12.571  68.673  1.00  0.00    -0.368 A  
HETATM   15  C   UNL     1     -11.714  13.889  68.228  1.00  0.00    -0.396 A  
HETATM   16  C   UNL     1     -10.626  14.348  67.507  1.00  0.00    -0.265 A  
HETATM   17  C   UNL     1      -9.555  13.491  67.246  1.00  0.00    -0.235 A  
HETATM   18  C   UNL     1      -9.546  12.151  67.690  1.00  0.00    -0.190 A  
BRANCH  18  19
HETATM   19  C   UNL     1      -8.380  11.234  67.347  1.00  0.00    -0.137 C  
HETATM   20  C   UNL     1      -8.348  10.640  65.927  1.00  0.00    -0.161 C  
HETATM   21  C   UNL     1      -6.945  10.073  65.820  1.00  0.00    -0.112 C  
HETATM   22  C   UNL     1      -6.087  11.164  66.443  1.00  0.00    -0.137 C  
HETATM   23  C   UNL     1      -6.980  11.868  67.476  1.00  0.00    -0.123 C  
ENDBRANCH  18  19
ENDBRANCH  12  13
ENDBRANCH  11  12
ENDBRANCH   8  11
ENDBRANCH   7   8
ENDBRANCH   5   7
TORSDOF 6
ENDMDL
MODEL      243
REMARK 921   NORMALIZED FREE ENERGY PREDICTED BY IDOCK:   -3.02 KCAL/MOL
REMARK 922        TOTAL FREE ENERGY PREDICTED BY IDOCK:   -5.11 KCAL/MOL
REMARK 923 INTER-LIGAND FREE ENERGY PREDICTED BY IDOCK:   -4.80 KCAL/MOL
REMARK 924 INTRA-LIGAND FREE ENERGY PREDICTED BY IDOCK:   -0.31 KCAL/MOL
REMARK 927      BINDING AFFINITY PREDICTED BY RF-SCORE:    0.00 PKD
ROOT
HETATM    1  C   UNL     1      -9.978  14.557  65.768  1.00  0.00    -0.361 C  
HETATM    2  C   UNL     1     -10.962  13.395  65.549  1.00  0.00    -0.283 C  
HETATM    3  C   UNL     1     -11.138  13.197  64.031  1.00  0.00    -0.395 C  
HETATM    4  C   UNL     1     -12.334  13.747  66.150  1.00  0.00    -0.496 C  
HETATM    5  N   UNL     1     -10.463  12.115  66.086  1.00  0.00    -0.242 NA 
HETATM    6  H   UNL     1      -9.645  11.810  65.558  1.00  0.00     0.000 HD 
ENDROOT
BRANCH   5   7
HETATM    7  C   UNL     1     -10.166  12.105  67.518  1.00  0.00    -0.199 C  
BRANCH   7   8
HETATM    8  C   UNL     1     -10.926  11.026  68.316  1.00  0.00    -0.235 C  
HETATM    9  O   UNL     1     -10.431  11.081  69.670  1.00  0.00    -0.420 OA 
HETATM   10  H   UNL     1     -10.900  10.417  70.161  1.00  0.00     0.000 HD 
BRANCH   8  11
HETATM   11  C   UNL     1     -10.728   9.600  67.791  1.00  0.00    -0.257 C  
BRANCH  11  12
HETATM   12  O   UNL     1      -9.529   8.967  68.255  1.00  0.00    -0.145 OA 
BRANCH  12  13
HETATM   13  C   UNL     1      -9.711   7.761  68.903  1.00  0.00    -0.160 A  
HETATM   14  C   UNL     1     -10.911   7.028  68.825  1.00  0.00    -0.198 A  
HETATM   15  C   UNL     1     -11.086   5.849  69.541  1.00  0.00    -0.403 A  
HETATM   16  C   UNL     1     -10.059   5.375  70.339  1.00  0.00    -0.314 A  
HETATM   17  C   UNL     1      -8.853   6.075  70.407  1.00  0.00    -0.148 A  
HETATM   18  C   UNL     1      -8.643   7.271  69.687  1.00  0.00    -0.137 A  
BRANCH  18  19
HETATM   19  C   UNL     1      -7.331   8.030  69.821  1.00  0.00    -0.074 C  
HETATM   20  C   UNL     1      -6.556   8.329  68.525  1.00  0.00    -0.059 C  
HETATM   21  C   UNL     1      -5.517   9.342  68.968  1.00  0.00    -0.036 C  
HETATM   22  C   UNL     1      -6.312  10.275  69.868  1.00  0.00    -0.082 C  
HETATM   23  C   UNL     1      -7.436   9.423  70.475  1.00  0.00    -0.154 C  
ENDBRANCH  18  19
ENDBRANCH  12  13
ENDBRANCH  11  12
ENDBRANCH   8  11
ENDBRANCH   7   8
ENDBRANCH   5   7
TORSDOF 6
ENDMDL
MODEL      244
REMARK 921   NORMALIZED FREE ENERGY PREDICTED BY IDOCK:   -3.01 KCAL/MOL
REMARK 922        TOTAL FREE ENERGY PREDICTED BY IDOCK:   -5.10 KCAL/MOL
REMARK 923 INTER-LIGAND FREE ENERGY PREDICTED BY IDOCK:   -4.38 KCAL/MOL
REMARK 924 INTRA-LIGAND FREE ENERGY PREDICTED BY IDOCK:   -0.72 KCAL/MOL
REMARK 927      BINDING AFFINITY PREDICTED BY RF-SCORE:    0.00 PKD
ROOT
HETATM    1  C   UNL     1      -7.689   5.421  68.375  1.00  0.00    -0.081 C  
HETATM    2  C   UNL     1      -8.814   5.842  67.414  1.00  0.00    -0.106 C  
HETATM    3  C   UNL     1      -9.815   4.675  67.307  1.00  0.00    -0.218 C  
HETATM    4  C   UNL     1      -8.235   6.107  66.012  1.00  0.00    -0.127 C  
HETATM    5  N   UNL     1      -9.575   7.007  67.899  1.00  0.00    -0.124 NA 
HETATM    6  H   UNL     1     -10.092   6.759  68.743  1.00  0.00     0.000 HD 
ENDROOT
BRANCH   5   7
HETATM    7  C   UNL     1      -8.792   8.220  68.132  1.00  0.00    -0.139 C  
BRANCH   7   8
HETATM    8  C   UNL     1      -9.322   9.108  69.276  1.00  0.00    -0.157 C  
HETATM    9  O   UNL     1     -10.481   8.444  69.819  1.00  0.00    -0.214 OA 
HETATM   10  H   UNL     1     -10.807   8.991  70.523  1.00  0.00     0.000 HD 
BRANCH   8  11
HETATM   11  C   UNL     1      -9.739  10.516  68.835  1.00  0.00    -0.199 C  
BRANCH  11  12
HETATM   12  O   UNL     1     -10.832  10.540  67.910  1.00  0.00    -0.238 OA 
BRANCH  12  13
HETATM   13  C   UNL     1     -10.901  11.660  67.107  1.00  0.00    -0.261 A  
HETATM   14  C   UNL     1     -11.794  12.720  67.353  1.00  0.00    -0.404 A  
HETATM   15  C   UNL     1     -11.885  13.806  66.488  1.00  0.00    -0.438 A  
HETATM   16  C   UNL     1     -11.075  13.857  65.367  1.00  0.00    -0.310 A  
HETATM   17  C   UNL     1     -10.165  12.827  65.122  1.00  0.00    -0.297 A  
HETATM   18  C   UNL     1     -10.044  11.716  65.984  1.00  0.00    -0.259 A  
BRANCH  18  19
HETATM   19  C   UNL     1      -9.072  10.591  65.659  1.00  0.00    -0.209 C  
HETATM   20  C   UNL     1      -9.185   9.947  64.265  1.00  0.00    -0.317 C  
HETATM   21  C   UNL     1      -7.909   9.131  64.156  1.00  0.00    -0.128 C  
HETATM   22  C   UNL     1      -6.854  10.073  64.716  1.00  0.00    -0.133 C  
HETATM   23  C   UNL     1      -7.578  10.966  65.734  1.00  0.00    -0.018 C  
ENDBRANCH  18  19
ENDBRANCH  12  13
ENDBRANCH  11  12
ENDBRANCH   8  11
ENDBRANCH   7   8
ENDBRANCH   5   7
TORSDOF 6
ENDMDL
MODEL      245
REMARK 921   NORMALIZED FREE ENERGY PREDICTED BY IDOCK:   -2.99 KCAL/MOL
REMARK 922        TOTAL FREE ENERGY PREDICTED BY IDOCK:   -5.07 KCAL/MOL
REMARK 923 INTER-LIGAND FREE ENERGY PREDICTED BY IDOCK:   -4.52 KCAL/MOL
REMARK 924 INTRA-LIGAND FREE ENERGY PREDICTED BY IDOCK:   -0.56 KCAL/MOL
REMARK 927      BINDING AFFINITY PREDICTED BY RF-SCORE:    0.00 PKD
ROOT
HETATM    1  C   UNL     1      -9.168  10.202  69.230  1.00  0.00    -0.220 C  
HETATM    2  C   UNL     1      -9.131   9.616  67.808  1.00  0.00    -0.124 C  
HETATM    3  C   UNL     1      -8.479  10.658  66.877  1.00  0.00    -0.127 C  
HETATM    4  C   UNL     1     -10.563   9.356  67.309  1.00  0.00    -0.314 C  
HETATM    5  N   UNL     1      -8.309   8.396  67.714  1.00  0.00    -0.129 NA 
HETATM    6  H   UNL     1      -7.328   8.621  67.882  1.00  0.00     0.000 HD 
ENDROOT
BRANCH   5   7
HETATM    7  C   UNL     1      -8.722   7.289  68.577  1.00  0.00    -0.123 C  
BRANCH   7   8
HETATM    8  C   UNL     1      -7.575   6.345  68.991  1.00  0.00    -0.100 C  
HETATM    9  O   UNL     1      -7.381   5.420  67.902  1.00  0.00    -0.071 OA 
HETATM   10  H   UNL     1      -6.675   4.838  68.157  1.00  0.00     0.000 HD 
BRANCH   8  11
HETATM   11  C   UNL     1      -7.856   5.536  70.262  1.00  0.00    -0.093 C  
BRANCH  11  12
HETATM   12  O   UNL     1      -9.062   5.910  70.938  1.00  0.00    -0.147 OA 
BRANCH  12  13
HETATM   13  C   UNL     1      -9.539   4.987  71.848  1.00  0.00    -0.152 A  
HETATM   14  C   UNL     1      -8.913   3.746  72.073  1.00  0.00    -0.147 A  
HETATM   15  C   UNL     1      -9.455   2.811  72.949  1.00  0.00    -0.137 A  
HETATM   16  C   UNL     1     -10.626   3.106  73.625  1.00  0.00    -0.273 A  
HETATM   17  C   UNL     1     -11.245   4.342  73.435  1.00  0.00    -0.386 A  
HETATM   18  C   UNL     1     -10.716   5.315  72.557  1.00  0.00    -0.290 A  
BRANCH  18  19
HETATM   19  C   UNL     1     -11.444   6.633  72.341  1.00  0.00    -0.300 C  
HETATM   20  C   UNL     1     -10.701   7.920  72.746  1.00  0.00    -0.435 C  
HETATM   21  C   UNL     1     -11.538   9.017  72.114  1.00  0.00    -0.348 C  
HETATM   22  C   UNL     1     -11.846   8.458  70.733  1.00  0.00    -0.178 C  
HETATM   23  C   UNL     1     -11.857   6.930  70.886  1.00  0.00    -0.424 C  
ENDBRANCH  18  19
ENDBRANCH  12  13
ENDBRANCH  11  12
ENDBRANCH   8  11
ENDBRANCH   7   8
ENDBRANCH   5   7
TORSDOF 6
ENDMDL
MODEL      246
REMARK 921   NORMALIZED FREE ENERGY PREDICTED BY IDOCK:   -2.98 KCAL/MOL
REMARK 922        TOTAL FREE ENERGY PREDICTED BY IDOCK:   -5.05 KCAL/MOL
REMARK 923 INTER-LIGAND FREE ENERGY PREDICTED BY IDOCK:   -4.14 KCAL/MOL
REMARK 924 INTRA-LIGAND FREE ENERGY PREDICTED BY IDOCK:   -0.91 KCAL/MOL
REMARK 927      BINDING AFFINITY PREDICTED BY RF-SCORE:    0.00 PKD
ROOT
HETATM    1  C   UNL     1      -6.813   8.643  69.016  1.00  0.00    -0.056 C  
HETATM    2  C   UNL     1      -7.098   9.828  69.954  1.00  0.00    -0.108 C  
HETATM    3  C   UNL     1      -8.396  10.512  69.481  1.00  0.00    -0.075 C  
HETATM    4  C   UNL     1      -5.955  10.855  69.866  1.00  0.00    -0.089 C  
HETATM    5  N   UNL     1      -7.327   9.411  71.349  1.00  0.00    -0.326 NA 
HETATM    6  H   UNL     1      -8.189   8.870  71.415  1.00  0.00     0.000 HD 
ENDROOT
BRANCH   5   7
HETATM    7  C   UNL     1      -6.228   8.678  71.977  1.00  0.00    -0.072 C  
BRANCH   7   8
HETATM    8  C   UNL     1      -6.647   7.350  72.639  1.00  0.00    -0.059 C  
HETATM    9  O   UNL     1      -6.134   6.288  71.810  1.00  0.00    -0.039 OA 
HETATM   10  H   UNL     1      -6.393   5.470  72.218  1.00  0.00     0.000 HD 
BRANCH   8  11
HETATM   11  C   UNL     1      -8.163   7.166  72.772  1.00  0.00    -0.106 C  
BRANCH  11  12
HETATM   12  O   UNL     1      -8.842   6.987  71.523  1.00  0.00    -0.128 OA 
BRANCH  12  13
HETATM   13  C   UNL     1     -10.178   7.333  71.522  1.00  0.00    -0.193 A  
HETATM   14  C   UNL     1     -10.676   8.451  72.218  1.00  0.00    -0.417 A  
HETATM   15  C   UNL     1     -12.037   8.736  72.251  1.00  0.00    -0.423 A  
HETATM   16  C   UNL     1     -12.924   7.914  71.578  1.00  0.00    -0.338 A  
HETATM   17  C   UNL     1     -12.445   6.816  70.861  1.00  0.00    -0.270 A  
HETATM   18  C   UNL     1     -11.069   6.505  70.803  1.00  0.00    -0.354 A  
BRANCH  18  19
HETATM   19  C   UNL     1     -10.589   5.274  70.048  1.00  0.00    -0.300 C  
HETATM   20  C   UNL     1      -9.669   5.508  68.836  1.00  0.00    -0.193 C  
HETATM   21  C   UNL     1      -9.133   4.121  68.535  1.00  0.00    -0.182 C  
HETATM   22  C   UNL     1      -8.809   3.573  69.917  1.00  0.00    -0.150 C  
HETATM   23  C   UNL     1      -9.788   4.256  70.884  1.00  0.00    -0.259 C  
ENDBRANCH  18  19
ENDBRANCH  12  13
ENDBRANCH  11  12
ENDBRANCH   8  11
ENDBRANCH   7   8
ENDBRANCH   5   7
TORSDOF 6
ENDMDL
MODEL      247
REMARK 921   NORMALIZED FREE ENERGY PREDICTED BY IDOCK:   -2.96 KCAL/MOL
REMARK 922        TOTAL FREE ENERGY PREDICTED BY IDOCK:   -5.03 KCAL/MOL
REMARK 923 INTER-LIGAND FREE ENERGY PREDICTED BY IDOCK:   -4.34 KCAL/MOL
REMARK 924 INTRA-LIGAND FREE ENERGY PREDICTED BY IDOCK:   -0.69 KCAL/MOL
REMARK 927      BINDING AFFINITY PREDICTED BY RF-SCORE:    0.00 PKD
ROOT
HETATM    1  C   UNL     1      -5.601   8.316  69.714  1.00  0.00    -0.026 C  
HETATM    2  C   UNL     1      -6.414   9.459  70.346  1.00  0.00    -0.071 C  
HETATM    3  C   UNL     1      -5.446  10.347  71.152  1.00  0.00    -0.071 C  
HETATM    4  C   UNL     1      -7.460   8.884  71.318  1.00  0.00    -0.127 C  
HETATM    5  N   UNL     1      -7.050  10.332  69.342  1.00  0.00    -0.080 NA 
HETATM    6  H   UNL     1      -6.336  10.838  68.818  1.00  0.00     0.000 HD 
ENDROOT
BRANCH   5   7
HETATM    7  C   UNL     1      -7.970   9.667  68.420  1.00  0.00    -0.096 C  
BRANCH   7   8
HETATM    8  C   UNL     1      -9.242  10.477  68.099  1.00  0.00    -0.148 C  
HETATM    9  O   UNL     1      -9.303  11.557  69.053  1.00  0.00    -0.398 OA 
HETATM   10  H   UNL     1     -10.086  12.056  68.855  1.00  0.00     0.000 HD 
BRANCH   8  11
HETATM   11  C   UNL     1     -10.542   9.671  68.205  1.00  0.00    -0.225 C  
BRANCH  11  12
HETATM   12  O   UNL     1     -10.354   8.305  68.592  1.00  0.00    -0.206 OA 
BRANCH  12  13
HETATM   13  C   UNL     1     -10.723   8.002  69.888  1.00  0.00    -0.242 A  
HETATM   14  C   UNL     1     -11.422   8.905  70.711  1.00  0.00    -0.319 A  
HETATM   15  C   UNL     1     -11.723   8.594  72.034  1.00  0.00    -0.439 A  
HETATM   16  C   UNL     1     -11.339   7.370  72.552  1.00  0.00    -0.358 A  
HETATM   17  C   UNL     1     -10.669   6.452  71.742  1.00  0.00    -0.273 A  
HETATM   18  C   UNL     1     -10.356   6.735  70.394  1.00  0.00    -0.223 A  
BRANCH  18  19
HETATM   19  C   UNL     1      -9.584   5.727  69.555  1.00  0.00    -0.181 C  
HETATM   20  C   UNL     1      -9.568   4.269  70.048  1.00  0.00    -0.274 C  
HETATM   21  C   UNL     1      -9.020   3.506  68.857  1.00  0.00    -0.181 C  
HETATM   22  C   UNL     1      -9.755   4.133  67.682  1.00  0.00    -0.176 C  
HETATM   23  C   UNL     1     -10.058   5.581  68.095  1.00  0.00    -0.221 C  
ENDBRANCH  18  19
ENDBRANCH  12  13
ENDBRANCH  11  12
ENDBRANCH   8  11
ENDBRANCH   7   8
ENDBRANCH   5   7
TORSDOF 6
ENDMDL
MODEL      248
REMARK 921   NORMALIZED FREE ENERGY PREDICTED BY IDOCK:   -2.95 KCAL/MOL
REMARK 922        TOTAL FREE ENERGY PREDICTED BY IDOCK:   -5.02 KCAL/MOL
REMARK 923 INTER-LIGAND FREE ENERGY PREDICTED BY IDOCK:   -4.50 KCAL/MOL
REMARK 924 INTRA-LIGAND FREE ENERGY PREDICTED BY IDOCK:   -0.52 KCAL/MOL
REMARK 927      BINDING AFFINITY PREDICTED BY RF-SCORE:    0.00 PKD
ROOT
HETATM    1  C   UNL     1      -8.507  15.705  67.423  1.00  0.00    -0.191 C  
HETATM    2  C   UNL     1      -7.843  14.627  68.297  1.00  0.00    -0.128 C  
HETATM    3  C   UNL     1      -7.465  15.271  69.646  1.00  0.00    -0.181 C  
HETATM    4  C   UNL     1      -6.553  14.127  67.625  1.00  0.00    -0.173 C  
HETATM    5  N   UNL     1      -8.747  13.504  68.606  1.00  0.00    -0.353 NA 
HETATM    6  H   UNL     1      -9.512  13.825  69.200  1.00  0.00     0.000 HD 
ENDROOT
BRANCH   5   7
HETATM    7  C   UNL     1      -9.281  12.787  67.448  1.00  0.00    -0.193 C  
BRANCH   7   8
HETATM    8  C   UNL     1     -10.113  11.538  67.803  1.00  0.00    -0.182 C  
HETATM    9  O   UNL     1     -11.248  11.994  68.566  1.00  0.00    -0.216 OA 
HETATM   10  H   UNL     1     -11.760  11.225  68.784  1.00  0.00     0.000 HD 
BRANCH   8  11
HETATM   11  C   UNL     1      -9.358  10.499  68.640  1.00  0.00    -0.172 C  
BRANCH  11  12
HETATM   12  O   UNL     1     -10.191   9.466  69.179  1.00  0.00    -0.187 OA 
BRANCH  12  13
HETATM   13  C   UNL     1     -10.228   8.296  68.447  1.00  0.00    -0.209 A  
HETATM   14  C   UNL     1      -9.867   8.236  67.087  1.00  0.00    -0.281 A  
HETATM   15  C   UNL     1      -9.977   7.055  66.360  1.00  0.00    -0.077 A  
HETATM   16  C   UNL     1     -10.437   5.909  66.984  1.00  0.00    -0.341 A  
HETATM   17  C   UNL     1     -10.774   5.943  68.339  1.00  0.00    -0.323 A  
HETATM   18  C   UNL     1     -10.667   7.125  69.105  1.00  0.00    -0.216 A  
BRANCH  18  19
HETATM   19  C   UNL     1     -11.086   7.134  70.568  1.00  0.00    -0.299 C  
HETATM   20  C   UNL     1     -12.595   7.086  70.866  1.00  0.00    -0.273 C  
HETATM   21  C   UNL     1     -12.646   6.783  72.352  1.00  0.00     0.095 C  
HETATM   22  C   UNL     1     -11.582   5.708  72.517  1.00  0.00    -0.303 C  
HETATM   23  C   UNL     1     -10.540   5.970  71.419  1.00  0.00    -0.300 C  
ENDBRANCH  18  19
ENDBRANCH  12  13
ENDBRANCH  11  12
ENDBRANCH   8  11
ENDBRANCH   7   8
ENDBRANCH   5   7
TORSDOF 6
ENDMDL
MODEL      249
REMARK 921   NORMALIZED FREE ENERGY PREDICTED BY IDOCK:   -2.91 KCAL/MOL
REMARK 922        TOTAL FREE ENERGY PREDICTED BY IDOCK:   -4.97 KCAL/MOL
REMARK 923 INTER-LIGAND FREE ENERGY PREDICTED BY IDOCK:   -4.46 KCAL/MOL
REMARK 924 INTRA-LIGAND FREE ENERGY PREDICTED BY IDOCK:   -0.50 KCAL/MOL
REMARK 927      BINDING AFFINITY PREDICTED BY RF-SCORE:    0.00 PKD
ROOT
HETATM    1  C   UNL     1      -8.931   9.690  64.498  1.00  0.00    -0.278 C  
HETATM    2  C   UNL     1      -7.399   9.734  64.374  1.00  0.00    -0.132 C  
HETATM    3  C   UNL     1      -7.045  10.480  63.072  1.00  0.00    -0.020 C  
HETATM    4  C   UNL     1      -6.838   8.304  64.275  1.00  0.00    -0.066 C  
HETATM    5  N   UNL     1      -6.757  10.478  65.473  1.00  0.00    -0.224 NA 
HETATM    6  H   UNL     1      -7.007  11.466  65.419  1.00  0.00     0.000 HD 
ENDROOT
BRANCH   5   7
HETATM    7  C   UNL     1      -7.021   9.969  66.818  1.00  0.00    -0.089 C  
BRANCH   7   8
HETATM    8  C   UNL     1      -7.637  11.004  67.780  1.00  0.00    -0.099 C  
HETATM    9  O   UNL     1      -8.412  10.268  68.748  1.00  0.00    -0.114 OA 
HETATM   10  H   UNL     1      -8.792  10.906  69.340  1.00  0.00     0.000 HD 
BRANCH   8  11
HETATM   11  C   UNL     1      -8.561  12.021  67.099  1.00  0.00    -0.182 C  
BRANCH  11  12
HETATM   12  O   UNL     1      -9.073  13.028  67.980  1.00  0.00    -0.196 OA 
BRANCH  12  13
HETATM   13  C   UNL     1      -8.619  14.309  67.739  1.00  0.00    -0.177 A  
HETATM   14  C   UNL     1      -7.579  14.902  68.480  1.00  0.00    -0.121 A  
HETATM   15  C   UNL     1      -7.190  16.218  68.255  1.00  0.00    -0.141 A  
HETATM   16  C   UNL     1      -7.825  16.962  67.276  1.00  0.00    -0.204 A  
HETATM   17  C   UNL     1      -8.841  16.381  66.513  1.00  0.00    -0.316 A  
HETATM   18  C   UNL     1      -9.254  15.046  66.713  1.00  0.00    -0.280 A  
BRANCH  18  19
HETATM   19  C   UNL     1     -10.395  14.462  65.893  1.00  0.00    -0.327 C  
HETATM   20  C   UNL     1     -11.759  14.316  66.591  1.00  0.00    -0.417 C  
HETATM   21  C   UNL     1     -12.709  14.032  65.442  1.00  0.00    -0.499 C  
HETATM   22  C   UNL     1     -12.257  15.017  64.375  1.00  0.00    -0.353 C  
HETATM   23  C   UNL     1     -10.757  15.244  64.614  1.00  0.00    -0.226 C  
ENDBRANCH  18  19
ENDBRANCH  12  13
ENDBRANCH  11  12
ENDBRANCH   8  11
ENDBRANCH   7   8
ENDBRANCH   5   7
TORSDOF 6
ENDMDL
MODEL      250
REMARK 921   NORMALIZED FREE ENERGY PREDICTED BY IDOCK:   -2.91 KCAL/MOL
REMARK 922        TOTAL FREE ENERGY PREDICTED BY IDOCK:   -4.96 KCAL/MOL
REMARK 923 INTER-LIGAND FREE ENERGY PREDICTED BY IDOCK:   -4.63 KCAL/MOL
REMARK 924 INTRA-LIGAND FREE ENERGY PREDICTED BY IDOCK:   -0.33 KCAL/MOL
REMARK 927      BINDING AFFINITY PREDICTED BY RF-SCORE:    0.00 PKD
ROOT
HETATM    1  C   UNL     1     -12.626  13.946  65.976  1.00  0.00    -0.467 C  
HETATM    2  C   UNL     1     -11.428  13.237  65.321  1.00  0.00    -0.295 C  
HETATM    3  C   UNL     1     -10.578  14.301  64.599  1.00  0.00    -0.364 C  
HETATM    4  C   UNL     1     -11.925  12.227  64.272  1.00  0.00    -0.489 C  
HETATM    5  N   UNL     1     -10.542  12.586  66.303  1.00  0.00    -0.245 NA 
HETATM    6  H   UNL     1     -10.086  13.290  66.883  1.00  0.00     0.000 HD 
ENDROOT
BRANCH   5   7
HETATM    7  C   UNL     1     -11.173  11.574  67.149  1.00  0.00    -0.301 C  
BRANCH   7   8
HETATM    8  C   UNL     1     -10.803  11.674  68.643  1.00  0.00    -0.213 C  
HETATM    9  O   UNL     1     -10.284  13.003  68.857  1.00  0.00    -0.414 OA 
HETATM   10  H   UNL     1     -10.056  13.064  69.777  1.00  0.00     0.000 HD 
BRANCH   8  11
HETATM   11  C   UNL     1      -9.740  10.666  69.095  1.00  0.00    -0.189 C  
BRANCH  11  12
HETATM   12  O   UNL     1     -10.251   9.604  69.909  1.00  0.00    -0.212 OA 
BRANCH  12  13
HETATM   13  C   UNL     1     -10.080   8.333  69.397  1.00  0.00    -0.198 A  
HETATM   14  C   UNL     1      -9.039   8.002  68.510  1.00  0.00    -0.136 A  
HETATM   15  C   UNL     1      -8.933   6.728  67.961  1.00  0.00    -0.117 A  
HETATM   16  C   UNL     1      -9.860   5.759  68.299  1.00  0.00    -0.170 A  
HETATM   17  C   UNL     1     -10.884   6.062  69.198  1.00  0.00    -0.422 A  
HETATM   18  C   UNL     1     -11.015   7.343  69.778  1.00  0.00    -0.215 A  
BRANCH  18  19
HETATM   19  C   UNL     1     -12.171   7.649  70.719  1.00  0.00    -0.109 C  
HETATM   20  C   UNL     1     -11.824   7.908  72.196  1.00  0.00    -0.384 C  
HETATM   21  C   UNL     1     -13.110   8.485  72.759  1.00  0.00    -0.082 C  
HETATM   22  C   UNL     1     -13.552   9.454  71.673  1.00  0.00    -0.437 C  
HETATM   23  C   UNL     1     -13.013   8.887  70.352  1.00  0.00     0.827 C  
ENDBRANCH  18  19
ENDBRANCH  12  13
ENDBRANCH  11  12
ENDBRANCH   8  11
ENDBRANCH   7   8
ENDBRANCH   5   7
TORSDOF 6
ENDMDL
MODEL      251
REMARK 921   NORMALIZED FREE ENERGY PREDICTED BY IDOCK:   -2.91 KCAL/MOL
REMARK 922        TOTAL FREE ENERGY PREDICTED BY IDOCK:   -4.96 KCAL/MOL
REMARK 923 INTER-LIGAND FREE ENERGY PREDICTED BY IDOCK:   -4.23 KCAL/MOL
REMARK 924 INTRA-LIGAND FREE ENERGY PREDICTED BY IDOCK:   -0.73 KCAL/MOL
REMARK 927      BINDING AFFINITY PREDICTED BY RF-SCORE:    0.00 PKD
ROOT
HETATM    1  C   UNL     1     -12.438  12.651  64.949  1.00  0.00    -0.564 C  
HETATM    2  C   UNL     1     -10.922  12.699  64.690  1.00  0.00    -0.313 C  
HETATM    3  C   UNL     1     -10.488  14.177  64.661  1.00  0.00    -0.366 C  
HETATM    4  C   UNL     1     -10.604  12.078  63.318  1.00  0.00    -0.399 C  
HETATM    5  N   UNL     1     -10.139  12.050  65.757  1.00  0.00    -0.233 NA 
HETATM    6  H   UNL     1     -10.227  12.578  66.625  1.00  0.00     0.000 HD 
ENDROOT
BRANCH   5   7
HETATM    7  C   UNL     1     -10.445  10.640  65.997  1.00  0.00    -0.183 C  
BRANCH   7   8
HETATM    8  C   UNL     1     -10.901  10.325  67.435  1.00  0.00    -0.277 C  
HETATM    9  O   UNL     1     -11.955  11.257  67.754  1.00  0.00    -0.637 OA 
HETATM   10  H   UNL     1     -12.236  11.063  68.640  1.00  0.00     0.000 HD 
BRANCH   8  11
HETATM   11  C   UNL     1      -9.798  10.471  68.490  1.00  0.00    -0.168 C  
BRANCH  11  12
HETATM   12  O   UNL     1      -9.714  11.777  69.071  1.00  0.00    -0.042 OA 
BRANCH  12  13
HETATM   13  C   UNL     1      -8.751  12.604  68.529  1.00  0.00    -0.048 A  
HETATM   14  C   UNL     1      -7.424  12.188  68.313  1.00  0.00    -0.107 A  
HETATM   15  C   UNL     1      -6.460  13.065  67.824  1.00  0.00    -0.148 A  
HETATM   16  C   UNL     1      -6.811  14.372  67.532  1.00  0.00    -0.162 A  
HETATM   17  C   UNL     1      -8.129  14.794  67.715  1.00  0.00    -0.161 A  
HETATM   18  C   UNL     1      -9.131  13.926  68.203  1.00  0.00    -0.193 A  
BRANCH  18  19
HETATM   19  C   UNL     1     -10.546  14.435  68.432  1.00  0.00    -0.248 C  
HETATM   20  C   UNL     1     -10.827  15.154  69.764  1.00  0.00    -0.298 C  
HETATM   21  C   UNL     1     -12.181  15.798  69.533  1.00  0.00    -0.178 C  
HETATM   22  C   UNL     1     -12.055  16.362  68.126  1.00  0.00     0.809 C  
HETATM   23  C   UNL     1     -11.060  15.450  67.391  1.00  0.00    -0.311 C  
ENDBRANCH  18  19
ENDBRANCH  12  13
ENDBRANCH  11  12
ENDBRANCH   8  11
ENDBRANCH   7   8
ENDBRANCH   5   7
TORSDOF 6
ENDMDL
MODEL      252
REMARK 921   NORMALIZED FREE ENERGY PREDICTED BY IDOCK:   -2.89 KCAL/MOL
REMARK 922        TOTAL FREE ENERGY PREDICTED BY IDOCK:   -4.94 KCAL/MOL
REMARK 923 INTER-LIGAND FREE ENERGY PREDICTED BY IDOCK:   -4.25 KCAL/MOL
REMARK 924 INTRA-LIGAND FREE ENERGY PREDICTED BY IDOCK:   -0.69 KCAL/MOL
REMARK 927      BINDING AFFINITY PREDICTED BY RF-SCORE:    0.00 PKD
ROOT
HETATM    1  C   UNL     1      -7.638   5.671  69.082  1.00  0.00    -0.088 C  
HETATM    2  C   UNL     1      -6.862   6.379  70.206  1.00  0.00    -0.054 C  
HETATM    3  C   UNL     1      -5.669   5.486  70.600  1.00  0.00    -0.016 C  
HETATM    4  C   UNL     1      -7.764   6.547  71.441  1.00  0.00    -0.099 C  
HETATM    5  N   UNL     1      -6.298   7.674  69.784  1.00  0.00    -0.030 NA 
HETATM    6  H   UNL     1      -5.574   7.527  69.080  1.00  0.00     0.000 HD 
ENDROOT
BRANCH   5   7
HETATM    7  C   UNL     1      -7.268   8.658  69.305  1.00  0.00    -0.063 C  
BRANCH   7   8
HETATM    8  C   UNL     1      -6.894   9.315  67.961  1.00  0.00    -0.068 C  
HETATM    9  O   UNL     1      -6.531  10.681  68.249  1.00  0.00    -0.057 OA 
HETATM   10  H   UNL     1      -6.301  11.085  67.421  1.00  0.00     0.000 HD 
BRANCH   8  11
HETATM   11  C   UNL     1      -8.031   9.329  66.932  1.00  0.00    -0.105 C  
BRANCH  11  12
HETATM   12  O   UNL     1      -8.906  10.457  67.042  1.00  0.00    -0.136 OA 
BRANCH  12  13
HETATM   13  C   UNL     1      -9.489  10.870  65.861  1.00  0.00    -0.207 A  
HETATM   14  C   UNL     1      -9.386  10.137  64.663  1.00  0.00    -0.334 A  
HETATM   15  C   UNL     1      -9.930  10.613  63.474  1.00  0.00    -0.347 A  
HETATM   16  C   UNL     1     -10.598  11.825  63.465  1.00  0.00    -0.499 A  
HETATM   17  C   UNL     1     -10.733  12.552  64.649  1.00  0.00    -0.341 A  
HETATM   18  C   UNL     1     -10.198  12.093  65.873  1.00  0.00    -0.272 A  
BRANCH  18  19
HETATM   19  C   UNL     1     -10.327  12.935  67.133  1.00  0.00    -0.239 C  
HETATM   20  C   UNL     1     -10.047  14.443  67.002  1.00  0.00    -0.256 C  
HETATM   21  C   UNL     1     -10.570  15.008  68.310  1.00  0.00    -0.247 C  
HETATM   22  C   UNL     1     -11.887  14.271  68.498  1.00  0.00    -0.382 C  
HETATM   23  C   UNL     1     -11.714  12.910  67.806  1.00  0.00    -0.412 C  
ENDBRANCH  18  19
ENDBRANCH  12  13
ENDBRANCH  11  12
ENDBRANCH   8  11
ENDBRANCH   7   8
ENDBRANCH   5   7
TORSDOF 6
ENDMDL
MODEL      253
REMARK 921   NORMALIZED FREE ENERGY PREDICTED BY IDOCK:   -2.89 KCAL/MOL
REMARK 922        TOTAL FREE ENERGY PREDICTED BY IDOCK:   -4.94 KCAL/MOL
REMARK 923 INTER-LIGAND FREE ENERGY PREDICTED BY IDOCK:   -4.43 KCAL/MOL
REMARK 924 INTRA-LIGAND FREE ENERGY PREDICTED BY IDOCK:   -0.51 KCAL/MOL
REMARK 927      BINDING AFFINITY PREDICTED BY RF-SCORE:    0.00 PKD
ROOT
HETATM    1  C   UNL     1     -10.312  14.666  65.794  1.00  0.00    -0.349 C  
HETATM    2  C   UNL     1     -11.077  13.471  66.388  1.00  0.00    -0.302 C  
HETATM    3  C   UNL     1     -12.528  13.526  65.870  1.00  0.00    -0.484 C  
HETATM    4  C   UNL     1     -11.112  13.580  67.922  1.00  0.00    -0.288 C  
HETATM    5  N   UNL     1     -10.527  12.171  65.963  1.00  0.00    -0.241 NA 
HETATM    6  H   UNL     1     -10.669  12.043  64.961  1.00  0.00     0.000 HD 
ENDROOT
BRANCH   5   7
HETATM    7  C   UNL     1      -9.124  11.938  66.303  1.00  0.00    -0.188 C  
BRANCH   7   8
HETATM    8  C   UNL     1      -8.827  10.523  66.838  1.00  0.00    -0.137 C  
HETATM    9  O   UNL     1      -7.404  10.320  66.719  1.00  0.00    -0.100 OA 
HETATM   10  H   UNL     1      -7.222   9.448  67.049  1.00  0.00     0.000 HD 
BRANCH   8  11
HETATM   11  C   UNL     1      -9.537   9.400  66.072  1.00  0.00    -0.261 C  
BRANCH  11  12
HETATM   12  O   UNL     1     -10.649   8.828  66.771  1.00  0.00    -0.258 OA 
BRANCH  12  13
HETATM   13  C   UNL     1     -10.323   8.067  67.876  1.00  0.00    -0.222 A  
HETATM   14  C   UNL     1     -10.352   8.577  69.188  1.00  0.00    -0.227 A  
HETATM   15  C   UNL     1      -9.956   7.803  70.274  1.00  0.00    -0.189 A  
HETATM   16  C   UNL     1      -9.535   6.501  70.068  1.00  0.00    -0.163 A  
HETATM   17  C   UNL     1      -9.526   5.970  68.777  1.00  0.00    -0.137 A  
HETATM   18  C   UNL     1      -9.928   6.728  67.655  1.00  0.00    -0.171 A  
BRANCH  18  19
HETATM   19  C   UNL     1      -9.862   6.129  66.258  1.00  0.00    -0.081 C  
HETATM   20  C   UNL     1      -8.511   5.541  65.810  1.00  0.00    -0.134 C  
HETATM   21  C   UNL     1      -8.870   4.764  64.557  1.00  0.00    -0.147 C  
HETATM   22  C   UNL     1     -10.161   4.061  64.949  1.00  0.00    -0.211 C  
HETATM   23  C   UNL     1     -10.838   4.966  65.989  1.00  0.00    -0.137 C  
ENDBRANCH  18  19
ENDBRANCH  12  13
ENDBRANCH  11  12
ENDBRANCH   8  11
ENDBRANCH   7   8
ENDBRANCH   5   7
TORSDOF 6
ENDMDL
MODEL      254
REMARK 921   NORMALIZED FREE ENERGY PREDICTED BY IDOCK:   -2.89 KCAL/MOL
REMARK 922        TOTAL FREE ENERGY PREDICTED BY IDOCK:   -4.93 KCAL/MOL
REMARK 923 INTER-LIGAND FREE ENERGY PREDICTED BY IDOCK:   -4.50 KCAL/MOL
REMARK 924 INTRA-LIGAND FREE ENERGY PREDICTED BY IDOCK:   -0.43 KCAL/MOL
REMARK 927      BINDING AFFINITY PREDICTED BY RF-SCORE:    0.00 PKD
ROOT
HETATM    1  C   UNL     1      -8.671   6.913  65.341  1.00  0.00     0.010 C  
HETATM    2  C   UNL     1      -8.741   5.491  65.923  1.00  0.00    -0.145 C  
HETATM    3  C   UNL     1      -8.077   4.529  64.918  1.00  0.00    -0.100 C  
HETATM    4  C   UNL     1     -10.210   5.065  66.097  1.00  0.00    -0.288 C  
HETATM    5  N   UNL     1      -7.999   5.354  67.190  1.00  0.00    -0.101 NA 
HETATM    6  H   UNL     1      -6.999   5.472  67.023  1.00  0.00     0.000 HD 
ENDROOT
BRANCH   5   7
HETATM    7  C   UNL     1      -8.432   6.236  68.273  1.00  0.00    -0.114 C  
BRANCH   7   8
HETATM    8  C   UNL     1      -7.587   7.517  68.425  1.00  0.00    -0.114 C  
HETATM    9  O   UNL     1      -6.206   7.128  68.271  1.00  0.00    -0.032 OA 
HETATM   10  H   UNL     1      -5.686   7.917  68.365  1.00  0.00     0.000 HD 
BRANCH   8  11
HETATM   11  C   UNL     1      -7.740   8.212  69.783  1.00  0.00    -0.100 C  
BRANCH  11  12
HETATM   12  O   UNL     1      -8.565   9.383  69.751  1.00  0.00    -0.143 OA 
BRANCH  12  13
HETATM   13  C   UNL     1      -9.741   9.295  70.468  1.00  0.00    -0.260 A  
HETATM   14  C   UNL     1      -9.829   8.642  71.712  1.00  0.00    -0.365 A  
HETATM   15  C   UNL     1     -11.043   8.515  72.379  1.00  0.00    -0.397 A  
HETATM   16  C   UNL     1     -12.190   9.050  71.819  1.00  0.00    -0.434 A  
HETATM   17  C   UNL     1     -12.117   9.725  70.598  1.00  0.00    -0.311 A  
HETATM   18  C   UNL     1     -10.898   9.876  69.901  1.00  0.00    -0.316 A  
BRANCH  18  19
HETATM   19  C   UNL     1     -10.866  10.579  68.551  1.00  0.00    -0.275 C  
HETATM   20  C   UNL     1      -9.849  11.722  68.379  1.00  0.00    -0.199 C  
HETATM   21  C   UNL     1      -9.852  11.965  66.881  1.00  0.00    -0.217 C  
HETATM   22  C   UNL     1      -9.847  10.557  66.306  1.00  0.00    -0.269 C  
HETATM   23  C   UNL     1     -10.559   9.674  67.341  1.00  0.00    -0.333 C  
ENDBRANCH  18  19
ENDBRANCH  12  13
ENDBRANCH  11  12
ENDBRANCH   8  11
ENDBRANCH   7   8
ENDBRANCH   5   7
TORSDOF 6
ENDMDL
MODEL      255
REMARK 921   NORMALIZED FREE ENERGY PREDICTED BY IDOCK:   -2.88 KCAL/MOL
REMARK 922        TOTAL FREE ENERGY PREDICTED BY IDOCK:   -4.92 KCAL/MOL
REMARK 923 INTER-LIGAND FREE ENERGY PREDICTED BY IDOCK:   -4.09 KCAL/MOL
REMARK 924 INTRA-LIGAND FREE ENERGY PREDICTED BY IDOCK:   -0.83 KCAL/MOL
REMARK 927      BINDING AFFINITY PREDICTED BY RF-SCORE:    0.00 PKD
ROOT
HETATM    1  C   UNL     1     -11.544   5.831  72.205  1.00  0.00    -0.300 C  
HETATM    2  C   UNL     1     -11.200   7.245  71.708  1.00  0.00    -0.247 C  
HETATM    3  C   UNL     1     -10.276   7.907  72.749  1.00  0.00    -0.380 C  
HETATM    4  C   UNL     1     -12.482   8.089  71.599  1.00  0.00    -0.347 C  
HETATM    5  N   UNL     1     -10.461   7.240  70.432  1.00  0.00    -0.216 NA 
HETATM    6  H   UNL     1      -9.538   6.826  70.566  1.00  0.00     0.000 HD 
ENDROOT
BRANCH   5   7
HETATM    7  C   UNL     1     -11.142   6.592  69.312  1.00  0.00    -0.334 C  
BRANCH   7   8
HETATM    8  C   UNL     1     -10.214   6.209  68.141  1.00  0.00    -0.175 C  
HETATM    9  O   UNL     1     -10.242   4.771  68.036  1.00  0.00    -0.092 OA 
HETATM   10  H   UNL     1      -9.671   4.536  67.315  1.00  0.00     0.000 HD 
BRANCH   8  11
HETATM   11  C   UNL     1      -8.757   6.648  68.326  1.00  0.00    -0.118 C  
BRANCH  11  12
HETATM   12  O   UNL     1      -8.589   8.059  68.507  1.00  0.00    -0.127 OA 
BRANCH  12  13
HETATM   13  C   UNL     1      -7.799   8.685  67.564  1.00  0.00    -0.102 A  
HETATM   14  C   UNL     1      -6.661   8.079  67.000  1.00  0.00    -0.057 A  
HETATM   15  C   UNL     1      -5.848   8.762  66.099  1.00  0.00    -0.047 A  
HETATM   16  C   UNL     1      -6.168  10.059  65.739  1.00  0.00    -0.092 A  
HETATM   17  C   UNL     1      -7.308  10.666  66.269  1.00  0.00    -0.137 A  
HETATM   18  C   UNL     1      -8.156   9.997  67.179  1.00  0.00    -0.117 A  
BRANCH  18  19
HETATM   19  C   UNL     1      -9.364  10.708  67.769  1.00  0.00    -0.154 C  
HETATM   20  C   UNL     1     -10.754  10.164  67.389  1.00  0.00    -0.336 C  
HETATM   21  C   UNL     1     -11.679  10.859  68.371  1.00  0.00    -0.290 C  
HETATM   22  C   UNL     1     -10.917  10.763  69.684  1.00  0.00    -0.320 C  
HETATM   23  C   UNL     1      -9.427  10.737  69.310  1.00  0.00    -0.103 C  
ENDBRANCH  18  19
ENDBRANCH  12  13
ENDBRANCH  11  12
ENDBRANCH   8  11
ENDBRANCH   7   8
ENDBRANCH   5   7
TORSDOF 6
ENDMDL
MODEL      256
REMARK 921   NORMALIZED FREE ENERGY PREDICTED BY IDOCK:   -2.87 KCAL/MOL
REMARK 922        TOTAL FREE ENERGY PREDICTED BY IDOCK:   -4.91 KCAL/MOL
REMARK 923 INTER-LIGAND FREE ENERGY PREDICTED BY IDOCK:   -4.12 KCAL/MOL
REMARK 924 INTRA-LIGAND FREE ENERGY PREDICTED BY IDOCK:   -0.79 KCAL/MOL
REMARK 927      BINDING AFFINITY PREDICTED BY RF-SCORE:    0.00 PKD
ROOT
HETATM    1  C   UNL     1      -7.163  18.915  66.660  1.00  0.00    -0.231 C  
HETATM    2  C   UNL     1      -8.488  18.555  67.355  1.00  0.00    -0.257 C  
HETATM    3  C   UNL     1      -9.641  19.161  66.531  1.00  0.00    -0.399 C  
HETATM    4  C   UNL     1      -8.527  19.175  68.763  1.00  0.00    -0.376 C  
HETATM    5  N   UNL     1      -8.728  17.102  67.410  1.00  0.00    -0.202 NA 
HETATM    6  H   UNL     1      -8.870  16.735  66.469  1.00  0.00     0.000 HD 
ENDROOT
BRANCH   5   7
HETATM    7  C   UNL     1      -7.704  16.319  68.102  1.00  0.00    -0.157 C  
BRANCH   7   8
HETATM    8  C   UNL     1      -8.227  15.516  69.310  1.00  0.00    -0.255 C  
HETATM    9  O   UNL     1      -7.397  14.342  69.423  1.00  0.00    -0.265 OA 
HETATM   10  H   UNL     1      -7.720  13.847  70.167  1.00  0.00     0.000 HD 
BRANCH   8  11
HETATM   11  C   UNL     1      -9.685  15.061  69.177  1.00  0.00    -0.212 C  
BRANCH  11  12
HETATM   12  O   UNL     1      -9.874  13.649  69.331  1.00  0.00     0.319 OA 
BRANCH  12  13
HETATM   13  C   UNL     1     -10.559  13.030  68.304  1.00  0.00    -0.247 A  
HETATM   14  C   UNL     1     -11.035  13.726  67.177  1.00  0.00    -0.299 A  
HETATM   15  C   UNL     1     -11.778  13.086  66.191  1.00  0.00    -0.445 A  
HETATM   16  C   UNL     1     -12.049  11.734  66.310  1.00  0.00     0.477 A  
HETATM   17  C   UNL     1     -11.562  11.022  67.408  1.00  0.00    -0.105 A  
HETATM   18  C   UNL     1     -10.799  11.642  68.421  1.00  0.00    -0.257 A  
BRANCH  18  19
HETATM   19  C   UNL     1     -10.324  10.843  69.626  1.00  0.00    -0.080 C  
HETATM   20  C   UNL     1     -11.307   9.818  70.219  1.00  0.00    -0.333 C  
HETATM   21  C   UNL     1     -10.433   8.999  71.151  1.00  0.00    -0.363 C  
HETATM   22  C   UNL     1      -9.170   8.782  70.332  1.00  0.00    -0.204 C  
HETATM   23  C   UNL     1      -9.055   9.997  69.399  1.00  0.00    -0.228 C  
ENDBRANCH  18  19
ENDBRANCH  12  13
ENDBRANCH  11  12
ENDBRANCH   8  11
ENDBRANCH   7   8
ENDBRANCH   5   7
TORSDOF 6
ENDMDL
MODEL      257
REMARK 921   NORMALIZED FREE ENERGY PREDICTED BY IDOCK:   -2.87 KCAL/MOL
REMARK 922        TOTAL FREE ENERGY PREDICTED BY IDOCK:   -4.91 KCAL/MOL
REMARK 923 INTER-LIGAND FREE ENERGY PREDICTED BY IDOCK:   -5.38 KCAL/MOL
REMARK 924 INTRA-LIGAND FREE ENERGY PREDICTED BY IDOCK:    0.48 KCAL/MOL
REMARK 927      BINDING AFFINITY PREDICTED BY RF-SCORE:    0.00 PKD
ROOT
HETATM    1  C   UNL     1      -7.334  14.080  69.876  1.00  0.00     0.423 C  
HETATM    2  C   UNL     1      -6.873  13.730  68.451  1.00  0.00    -0.101 C  
HETATM    3  C   UNL     1      -5.336  13.841  68.404  1.00  0.00    -0.100 C  
HETATM    4  C   UNL     1      -7.458  14.738  67.447  1.00  0.00    -0.221 C  
HETATM    5  N   UNL     1      -7.207  12.346  68.066  1.00  0.00    -0.094 NA 
HETATM    6  H   UNL     1      -6.675  11.687  68.634  1.00  0.00     0.000 HD 
ENDROOT
BRANCH   5   7
HETATM    7  C   UNL     1      -8.629  12.006  68.106  1.00  0.00    -0.173 C  
BRANCH   7   8
HETATM    8  C   UNL     1      -9.173  11.393  66.800  1.00  0.00    -0.177 C  
HETATM    9  O   UNL     1      -9.314  12.475  65.857  1.00  0.00    -0.409 OA 
HETATM   10  H   UNL     1      -9.649  12.097  65.052  1.00  0.00     0.000 HD 
BRANCH   8  11
HETATM   11  C   UNL     1     -10.535  10.706  66.948  1.00  0.00    -0.249 C  
BRANCH  11  12
HETATM   12  O   UNL     1     -11.603  11.595  67.297  1.00  0.00    -0.484 OA 
BRANCH  12  13
HETATM   13  C   UNL     1     -11.835  12.619  66.401  1.00  0.00    -0.402 A  
HETATM   14  C   UNL     1     -12.231  12.392  65.070  1.00  0.00    -0.465 A  
HETATM   15  C   UNL     1     -12.394  13.444  64.173  1.00  0.00    -0.395 A  
HETATM   16  C   UNL     1     -12.174  14.743  64.597  1.00  0.00    -0.405 A  
HETATM   17  C   UNL     1     -11.806  14.988  65.921  1.00  0.00    -0.021 A  
HETATM   18  C   UNL     1     -11.640  13.943  66.856  1.00  0.00    -0.400 A  
BRANCH  18  19
HETATM   19  C   UNL     1     -11.195  14.247  68.279  1.00  0.00    -0.298 C  
HETATM   20  C   UNL     1     -10.966  15.725  68.642  1.00  0.00    -0.307 C  
HETATM   21  C   UNL     1     -10.862  15.698  70.156  1.00  0.00    -0.356 C  
HETATM   22  C   UNL     1     -11.985  14.754  70.559  1.00  0.00    -0.373 C  
HETATM   23  C   UNL     1     -12.157  13.775  69.388  1.00  0.00    -0.377 C  
ENDBRANCH  18  19
ENDBRANCH  12  13
ENDBRANCH  11  12
ENDBRANCH   8  11
ENDBRANCH   7   8
ENDBRANCH   5   7
TORSDOF 6
ENDMDL
MODEL      258
REMARK 921   NORMALIZED FREE ENERGY PREDICTED BY IDOCK:   -2.87 KCAL/MOL
REMARK 922        TOTAL FREE ENERGY PREDICTED BY IDOCK:   -4.91 KCAL/MOL
REMARK 923 INTER-LIGAND FREE ENERGY PREDICTED BY IDOCK:   -4.26 KCAL/MOL
REMARK 924 INTRA-LIGAND FREE ENERGY PREDICTED BY IDOCK:   -0.65 KCAL/MOL
REMARK 927      BINDING AFFINITY PREDICTED BY RF-SCORE:    0.00 PKD
ROOT
HETATM    1  C   UNL     1     -11.868   5.616  72.639  1.00  0.00    -0.192 C  
HETATM    2  C   UNL     1     -11.433   6.976  72.067  1.00  0.00    -0.271 C  
HETATM    3  C   UNL     1     -10.484   7.641  73.083  1.00  0.00    -0.433 C  
HETATM    4  C   UNL     1     -12.660   7.887  71.889  1.00  0.00    -0.348 C  
HETATM    5  N   UNL     1     -10.680   6.851  70.806  1.00  0.00    -0.227 NA 
HETATM    6  H   UNL     1      -9.785   6.392  70.977  1.00  0.00     0.000 HD 
ENDROOT
BRANCH   5   7
HETATM    7  C   UNL     1     -11.385   6.181  69.713  1.00  0.00    -0.382 C  
BRANCH   7   8
HETATM    8  C   UNL     1     -10.513   5.901  68.472  1.00  0.00    -0.238 C  
HETATM    9  O   UNL     1      -9.627   4.818  68.818  1.00  0.00    -0.141 OA 
HETATM   10  H   UNL     1      -9.090   4.647  68.054  1.00  0.00     0.000 HD 
BRANCH   8  11
HETATM   11  C   UNL     1      -9.661   7.094  68.023  1.00  0.00    -0.134 C  
BRANCH  11  12
HETATM   12  O   UNL     1      -9.301   7.066  66.637  1.00  0.00    -0.154 OA 
BRANCH  12  13
HETATM   13  C   UNL     1      -9.275   8.296  66.010  1.00  0.00    -0.166 A  
HETATM   14  C   UNL     1     -10.152   9.344  66.350  1.00  0.00    -0.332 A  
HETATM   15  C   UNL     1     -10.144  10.549  65.655  1.00  0.00    -0.333 A  
HETATM   16  C   UNL     1      -9.250  10.732  64.615  1.00  0.00    -0.249 A  
HETATM   17  C   UNL     1      -8.355   9.714  64.281  1.00  0.00    -0.169 A  
HETATM   18  C   UNL     1      -8.334   8.482  64.972  1.00  0.00    -0.175 A  
BRANCH  18  19
HETATM   19  C   UNL     1      -7.375   7.379  64.550  1.00  0.00    -0.087 C  
HETATM   20  C   UNL     1      -7.877   6.378  63.493  1.00  0.00    -0.110 C  
HETATM   21  C   UNL     1      -6.612   5.650  63.076  1.00  0.00    -0.028 C  
HETATM   22  C   UNL     1      -5.596   6.776  62.953  1.00  0.00    -0.032 C  
HETATM   23  C   UNL     1      -6.039   7.859  63.947  1.00  0.00    -0.058 C  
ENDBRANCH  18  19
ENDBRANCH  12  13
ENDBRANCH  11  12
ENDBRANCH   8  11
ENDBRANCH   7   8
ENDBRANCH   5   7
TORSDOF 6
ENDMDL
MODEL      259
REMARK 921   NORMALIZED FREE ENERGY PREDICTED BY IDOCK:   -2.86 KCAL/MOL
REMARK 922        TOTAL FREE ENERGY PREDICTED BY IDOCK:   -4.90 KCAL/MOL
REMARK 923 INTER-LIGAND FREE ENERGY PREDICTED BY IDOCK:   -4.17 KCAL/MOL
REMARK 924 INTRA-LIGAND FREE ENERGY PREDICTED BY IDOCK:   -0.73 KCAL/MOL
REMARK 927      BINDING AFFINITY PREDICTED BY RF-SCORE:    0.00 PKD
ROOT
HETATM    1  C   UNL     1      -9.652  16.566  66.881  1.00  0.00    -0.253 C  
HETATM    2  C   UNL     1      -9.864  15.410  67.873  1.00  0.00    -0.219 C  
HETATM    3  C   UNL     1     -10.496  15.988  69.154  1.00  0.00    -0.251 C  
HETATM    4  C   UNL     1      -8.509  14.783  68.247  1.00  0.00    -0.151 C  
HETATM    5  N   UNL     1     -10.797  14.387  67.367  1.00  0.00    -0.287 NA 
HETATM    6  H   UNL     1     -11.736  14.779  67.287  1.00  0.00     0.000 HD 
ENDROOT
BRANCH   5   7
HETATM    7  C   UNL     1     -10.413  13.750  66.107  1.00  0.00    -0.297 C  
BRANCH   7   8
HETATM    8  C   UNL     1     -10.476  12.209  66.130  1.00  0.00    -0.248 C  
HETATM    9  O   UNL     1     -11.865  11.844  66.005  1.00  0.00    -0.497 OA 
HETATM   10  H   UNL     1     -11.903  10.896  66.020  1.00  0.00     0.000 HD 
BRANCH   8  11
HETATM   11  C   UNL     1      -9.929  11.578  67.416  1.00  0.00    -0.190 C  
BRANCH  11  12
HETATM   12  O   UNL     1      -9.939  10.146  67.414  1.00  0.00    -0.179 OA 
BRANCH  12  13
HETATM   13  C   UNL     1      -9.232   9.549  68.440  1.00  0.00    -0.130 A  
HETATM   14  C   UNL     1      -8.564  10.288  69.435  1.00  0.00    -0.167 A  
HETATM   15  C   UNL     1      -7.807   9.658  70.418  1.00  0.00    -0.181 A  
HETATM   16  C   UNL     1      -7.714   8.278  70.429  1.00  0.00    -0.084 A  
HETATM   17  C   UNL     1      -8.392   7.528  69.466  1.00  0.00    -0.131 A  
HETATM   18  C   UNL     1      -9.174   8.137  68.460  1.00  0.00    -0.136 A  
BRANCH  18  19
HETATM   19  C   UNL     1      -9.861   7.289  67.400  1.00  0.00    -0.206 C  
HETATM   20  C   UNL     1      -8.956   6.549  66.398  1.00  0.00    -0.158 C  
HETATM   21  C   UNL     1      -9.907   5.577  65.724  1.00  0.00     0.044 C  
HETATM   22  C   UNL     1     -10.724   5.037  66.888  1.00  0.00    -0.072 C  
HETATM   23  C   UNL     1     -10.758   6.157  67.939  1.00  0.00    -0.374 C  
ENDBRANCH  18  19
ENDBRANCH  12  13
ENDBRANCH  11  12
ENDBRANCH   8  11
ENDBRANCH   7   8
ENDBRANCH   5   7
TORSDOF 6
ENDMDL
MODEL      260
REMARK 921   NORMALIZED FREE ENERGY PREDICTED BY IDOCK:   -2.86 KCAL/MOL
REMARK 922        TOTAL FREE ENERGY PREDICTED BY IDOCK:   -4.90 KCAL/MOL
REMARK 923 INTER-LIGAND FREE ENERGY PREDICTED BY IDOCK:   -3.90 KCAL/MOL
REMARK 924 INTRA-LIGAND FREE ENERGY PREDICTED BY IDOCK:   -1.00 KCAL/MOL
REMARK 927      BINDING AFFINITY PREDICTED BY RF-SCORE:    0.00 PKD
ROOT
HETATM    1  C   UNL     1      -8.103   8.025  73.631  1.00  0.00    -0.263 C  
HETATM    2  C   UNL     1      -8.372   7.216  72.351  1.00  0.00    -0.108 C  
HETATM    3  C   UNL     1      -8.196   5.721  72.683  1.00  0.00    -0.112 C  
HETATM    4  C   UNL     1      -7.346   7.591  71.267  1.00  0.00    -0.078 C  
HETATM    5  N   UNL     1      -9.750   7.376  71.851  1.00  0.00    -0.155 NA 
HETATM    6  H   UNL     1     -10.411   6.965  72.511  1.00  0.00     0.000 HD 
ENDROOT
BRANCH   5   7
HETATM    7  C   UNL     1     -10.150   8.746  71.533  1.00  0.00    -0.301 C  
BRANCH   7   8
HETATM    8  C   UNL     1     -10.571   8.960  70.065  1.00  0.00    -0.220 C  
HETATM    9  O   UNL     1     -11.897   9.528  70.088  1.00  0.00    -0.453 OA 
HETATM   10  H   UNL     1     -12.156   9.659  69.184  1.00  0.00     0.000 HD 
BRANCH   8  11
HETATM   11  C   UNL     1     -10.615   7.674  69.231  1.00  0.00    -0.201 C  
BRANCH  11  12
HETATM   12  O   UNL     1      -9.326   7.190  68.835  1.00  0.00    -0.141 OA 
BRANCH  12  13
HETATM   13  C   UNL     1      -9.338   6.211  67.861  1.00  0.00    -0.113 A  
HETATM   14  C   UNL     1      -9.729   4.884  68.120  1.00  0.00    -0.202 A  
HETATM   15  C   UNL     1      -9.667   3.906  67.132  1.00  0.00    -0.182 A  
HETATM   16  C   UNL     1      -9.224   4.241  65.865  1.00  0.00    -0.145 A  
HETATM   17  C   UNL     1      -8.858   5.558  65.584  1.00  0.00    -0.154 A  
HETATM   18  C   UNL     1      -8.916   6.575  66.562  1.00  0.00    -0.152 A  
BRANCH  18  19
HETATM   19  C   UNL     1      -8.466   7.990  66.230  1.00  0.00    -0.138 C  
HETATM   20  C   UNL     1      -7.538   8.164  65.014  1.00  0.00    -0.096 C  
HETATM   21  C   UNL     1      -7.554   9.663  64.776  1.00  0.00    -0.122 C  
HETATM   22  C   UNL     1      -9.024  10.018  64.944  1.00  0.00    -0.241 C  
HETATM   23  C   UNL     1      -9.599   8.992  65.931  1.00  0.00    -0.317 C  
ENDBRANCH  18  19
ENDBRANCH  12  13
ENDBRANCH  11  12
ENDBRANCH   8  11
ENDBRANCH   7   8
ENDBRANCH   5   7
TORSDOF 6
ENDMDL
MODEL      261
REMARK 921   NORMALIZED FREE ENERGY PREDICTED BY IDOCK:   -2.82 KCAL/MOL
REMARK 922        TOTAL FREE ENERGY PREDICTED BY IDOCK:   -4.84 KCAL/MOL
REMARK 923 INTER-LIGAND FREE ENERGY PREDICTED BY IDOCK:   -3.97 KCAL/MOL
REMARK 924 INTRA-LIGAND FREE ENERGY PREDICTED BY IDOCK:   -0.87 KCAL/MOL
REMARK 927      BINDING AFFINITY PREDICTED BY RF-SCORE:    0.00 PKD
ROOT
HETATM    1  C   UNL     1      -5.278   7.525  70.420  1.00  0.00    -0.023 C  
HETATM    2  C   UNL     1      -5.876   8.763  71.110  1.00  0.00    -0.042 C  
HETATM    3  C   UNL     1      -5.128   8.978  72.441  1.00  0.00    -0.058 C  
HETATM    4  C   UNL     1      -7.362   8.519  71.429  1.00  0.00    -0.104 C  
HETATM    5  N   UNL     1      -5.700   9.998  70.324  1.00  0.00    -0.049 NA 
HETATM    6  H   UNL     1      -4.710  10.238  70.268  1.00  0.00     0.000 HD 
ENDROOT
BRANCH   5   7
HETATM    7  C   UNL     1      -6.287   9.982  68.985  1.00  0.00    -0.044 C  
BRANCH   7   8
HETATM    8  C   UNL     1      -7.144  11.220  68.652  1.00  0.00    -0.093 C  
HETATM    9  O   UNL     1      -7.082  12.092  69.799  1.00  0.00    -0.336 OA 
HETATM   10  H   UNL     1      -7.611  12.854  69.594  1.00  0.00     0.000 HD 
BRANCH   8  11
HETATM   11  C   UNL     1      -8.618  10.905  68.369  1.00  0.00    -0.146 C  
BRANCH  11  12
HETATM   12  O   UNL     1      -9.127   9.783  69.098  1.00  0.00    -0.146 OA 
BRANCH  12  13
HETATM   13  C   UNL     1      -9.514   8.704  68.328  1.00  0.00    -0.141 A  
HETATM   14  C   UNL     1      -9.090   8.527  66.997  1.00  0.00    -0.170 A  
HETATM   15  C   UNL     1      -9.549   7.464  66.226  1.00  0.00    -0.119 A  
HETATM   16  C   UNL     1     -10.433   6.552  66.777  1.00  0.00    -0.300 A  
HETATM   17  C   UNL     1     -10.844   6.698  68.103  1.00  0.00    -0.334 A  
HETATM   18  C   UNL     1     -10.390   7.762  68.913  1.00  0.00    -0.224 A  
BRANCH  18  19
HETATM   19  C   UNL     1     -10.895   7.913  70.341  1.00  0.00    -0.244 C  
HETATM   20  C   UNL     1     -11.819   9.108  70.636  1.00  0.00    -0.222 C  
HETATM   21  C   UNL     1     -12.381   8.782  72.007  1.00  0.00    -0.444 C  
HETATM   22  C   UNL     1     -12.705   7.299  71.899  1.00  0.00    -0.312 C  
HETATM   23  C   UNL     1     -11.708   6.720  70.884  1.00  0.00    -0.424 C  
ENDBRANCH  18  19
ENDBRANCH  12  13
ENDBRANCH  11  12
ENDBRANCH   8  11
ENDBRANCH   7   8
ENDBRANCH   5   7
TORSDOF 6
ENDMDL
MODEL      262
REMARK 921   NORMALIZED FREE ENERGY PREDICTED BY IDOCK:   -2.79 KCAL/MOL
REMARK 922        TOTAL FREE ENERGY PREDICTED BY IDOCK:   -4.80 KCAL/MOL
REMARK 923 INTER-LIGAND FREE ENERGY PREDICTED BY IDOCK:   -4.50 KCAL/MOL
REMARK 924 INTRA-LIGAND FREE ENERGY PREDICTED BY IDOCK:   -0.30 KCAL/MOL
REMARK 927      BINDING AFFINITY PREDICTED BY RF-SCORE:    0.00 PKD
ROOT
HETATM    1  C   UNL     1      -9.059  11.769  67.119  1.00  0.00    -0.175 C  
HETATM    2  C   UNL     1     -10.306  10.942  66.761  1.00  0.00    -0.241 C  
HETATM    3  C   UNL     1     -10.743  11.328  65.334  1.00  0.00    -0.291 C  
HETATM    4  C   UNL     1     -11.456  11.284  67.724  1.00  0.00    -0.350 C  
HETATM    5  N   UNL     1     -10.045   9.491  66.744  1.00  0.00    -0.231 NA 
HETATM    6  H   UNL     1      -9.406   9.260  65.983  1.00  0.00     0.000 HD 
ENDROOT
BRANCH   5   7
HETATM    7  C   UNL     1      -9.552   8.924  67.999  1.00  0.00    -0.148 C  
BRANCH   7   8
HETATM    8  C   UNL     1      -8.041   8.617  68.008  1.00  0.00    -0.111 C  
HETATM    9  O   UNL     1      -7.728   8.021  66.732  1.00  0.00    -0.095 OA 
HETATM   10  H   UNL     1      -6.797   7.832  66.738  1.00  0.00     0.000 HD 
BRANCH   8  11
HETATM   11  C   UNL     1      -7.604   7.646  69.111  1.00  0.00    -0.100 C  
BRANCH  11  12
HETATM   12  O   UNL     1      -8.683   7.136  69.902  1.00  0.00    -0.140 OA 
BRANCH  12  13
HETATM   13  C   UNL     1      -8.741   5.761  70.005  1.00  0.00    -0.132 A  
HETATM   14  C   UNL     1      -7.814   4.910  69.374  1.00  0.00    -0.071 A  
HETATM   15  C   UNL     1      -7.938   3.526  69.444  1.00  0.00    -0.057 A  
HETATM   16  C   UNL     1      -8.985   2.968  70.156  1.00  0.00    -0.170 A  
HETATM   17  C   UNL     1      -9.898   3.797  70.811  1.00  0.00    -0.173 A  
HETATM   18  C   UNL     1      -9.796   5.205  70.765  1.00  0.00    -0.270 A  
BRANCH  18  19
HETATM   19  C   UNL     1     -10.836   6.076  71.453  1.00  0.00    -0.328 C  
HETATM   20  C   UNL     1     -10.323   7.113  72.468  1.00  0.00    -0.237 C  
HETATM   21  C   UNL     1     -11.535   7.996  72.705  1.00  0.00    -0.465 C  
HETATM   22  C   UNL     1     -12.092   8.192  71.303  1.00  0.00    -0.313 C  
HETATM   23  C   UNL     1     -11.709   6.932  70.513  1.00  0.00    -0.401 C  
ENDBRANCH  18  19
ENDBRANCH  12  13
ENDBRANCH  11  12
ENDBRANCH   8  11
ENDBRANCH   7   8
ENDBRANCH   5   7
TORSDOF 6
ENDMDL
MODEL      263
REMARK 921   NORMALIZED FREE ENERGY PREDICTED BY IDOCK:   -2.77 KCAL/MOL
REMARK 922        TOTAL FREE ENERGY PREDICTED BY IDOCK:   -4.77 KCAL/MOL
REMARK 923 INTER-LIGAND FREE ENERGY PREDICTED BY IDOCK:   -4.09 KCAL/MOL
REMARK 924 INTRA-LIGAND FREE ENERGY PREDICTED BY IDOCK:   -0.69 KCAL/MOL
REMARK 927      BINDING AFFINITY PREDICTED BY RF-SCORE:    0.00 PKD
ROOT
HETATM    1  C   UNL     1      -7.586   4.415  71.991  1.00  0.00    -0.080 C  
HETATM    2  C   UNL     1      -8.614   5.083  71.062  1.00  0.00    -0.123 C  
HETATM    3  C   UNL     1      -9.987   4.432  71.319  1.00  0.00    -0.245 C  
HETATM    4  C   UNL     1      -8.232   4.834  69.592  1.00  0.00    -0.072 C  
HETATM    5  N   UNL     1      -8.775   6.524  71.329  1.00  0.00    -0.130 NA 
HETATM    6  H   UNL     1      -9.191   6.665  72.249  1.00  0.00     0.000 HD 
ENDROOT
BRANCH   5   7
HETATM    7  C   UNL     1      -7.560   7.329  71.203  1.00  0.00    -0.080 C  
BRANCH   7   8
HETATM    8  C   UNL     1      -7.738   8.625  70.387  1.00  0.00    -0.081 C  
HETATM    9  O   UNL     1      -7.408   9.721  71.264  1.00  0.00    -0.290 OA 
HETATM   10  H   UNL     1      -7.519  10.519  70.761  1.00  0.00     0.000 HD 
BRANCH   8  11
HETATM   11  C   UNL     1      -9.161   8.844  69.861  1.00  0.00    -0.166 C  
BRANCH  11  12
HETATM   12  O   UNL     1      -9.395  10.156  69.334  1.00  0.00    -0.201 OA 
BRANCH  12  13
HETATM   13  C   UNL     1      -9.370  10.252  67.957  1.00  0.00    -0.138 A  
HETATM   14  C   UNL     1      -8.918   9.208  67.128  1.00  0.00    -0.137 A  
HETATM   15  C   UNL     1      -8.845   9.360  65.747  1.00  0.00    -0.204 A  
HETATM   16  C   UNL     1      -9.235  10.555  65.170  1.00  0.00    -0.243 A  
HETATM   17  C   UNL     1      -9.712  11.592  65.974  1.00  0.00    -0.253 A  
HETATM   18  C   UNL     1      -9.804  11.466  67.378  1.00  0.00    -0.199 A  
BRANCH  18  19
HETATM   19  C   UNL     1     -10.286  12.634  68.225  1.00  0.00    -0.240 C  
HETATM   20  C   UNL     1      -9.544  13.973  68.061  1.00  0.00    -0.217 C  
HETATM   21  C   UNL     1     -10.453  14.962  68.769  1.00  0.00    -0.242 C  
HETATM   22  C   UNL     1     -11.839  14.548  68.299  1.00  0.00    -0.347 C  
HETATM   23  C   UNL     1     -11.758  13.040  68.015  1.00  0.00    -0.397 C  
ENDBRANCH  18  19
ENDBRANCH  12  13
ENDBRANCH  11  12
ENDBRANCH   8  11
ENDBRANCH   7   8
ENDBRANCH   5   7
TORSDOF 6
ENDMDL
MODEL      264
REMARK 921   NORMALIZED FREE ENERGY PREDICTED BY IDOCK:   -2.77 KCAL/MOL
REMARK 922        TOTAL FREE ENERGY PREDICTED BY IDOCK:   -4.77 KCAL/MOL
REMARK 923 INTER-LIGAND FREE ENERGY PREDICTED BY IDOCK:   -3.94 KCAL/MOL
REMARK 924 INTRA-LIGAND FREE ENERGY PREDICTED BY IDOCK:   -0.83 KCAL/MOL
REMARK 927      BINDING AFFINITY PREDICTED BY RF-SCORE:    0.00 PKD
ROOT
HETATM    1  C   UNL     1      -9.292   4.321  64.164  1.00  0.00    -0.145 C  
HETATM    2  C   UNL     1      -8.375   4.003  65.357  1.00  0.00    -0.109 C  
HETATM    3  C   UNL     1      -6.986   3.624  64.806  1.00  0.00    -0.050 C  
HETATM    4  C   UNL     1      -8.927   2.797  66.137  1.00  0.00    -0.145 C  
HETATM    5  N   UNL     1      -8.173   5.161  66.248  1.00  0.00    -0.108 NA 
HETATM    6  H   UNL     1      -7.650   5.889  65.761  1.00  0.00     0.000 HD 
ENDROOT
BRANCH   5   7
HETATM    7  C   UNL     1      -9.388   5.725  66.835  1.00  0.00    -0.127 C  
BRANCH   7   8
HETATM    8  C   UNL     1      -9.301   5.978  68.353  1.00  0.00    -0.119 C  
HETATM    9  O   UNL     1      -7.998   5.531  68.779  1.00  0.00    -0.093 OA 
HETATM   10  H   UNL     1      -7.945   5.687  69.714  1.00  0.00     0.000 HD 
BRANCH   8  11
HETATM   11  C   UNL     1     -10.357   5.230  69.175  1.00  0.00    -0.194 C  
BRANCH  11  12
HETATM   12  O   UNL     1     -10.201   5.369  70.592  1.00  0.00    -0.219 OA 
BRANCH  12  13
HETATM   13  C   UNL     1     -10.946   6.377  71.172  1.00  0.00    -0.275 A  
HETATM   14  C   UNL     1     -12.231   6.732  70.718  1.00  0.00    -0.353 A  
HETATM   15  C   UNL     1     -12.929   7.795  71.281  1.00  0.00    -0.257 A  
HETATM   16  C   UNL     1     -12.360   8.515  72.317  1.00  0.00    -0.450 A  
HETATM   17  C   UNL     1     -11.098   8.159  72.798  1.00  0.00    -0.407 A  
HETATM   18  C   UNL     1     -10.367   7.081  72.251  1.00  0.00    -0.216 A  
BRANCH  18  19
HETATM   19  C   UNL     1      -8.975   6.753  72.771  1.00  0.00    -0.139 C  
HETATM   20  C   UNL     1      -7.780   7.339  71.998  1.00  0.00    -0.089 C  
HETATM   21  C   UNL     1      -6.611   7.105  72.937  1.00  0.00    -0.064 C  
HETATM   22  C   UNL     1      -7.181   7.491  74.293  1.00  0.00    -0.137 C  
HETATM   23  C   UNL     1      -8.688   7.200  74.219  1.00  0.00    -0.242 C  
ENDBRANCH  18  19
ENDBRANCH  12  13
ENDBRANCH  11  12
ENDBRANCH   8  11
ENDBRANCH   7   8
ENDBRANCH   5   7
TORSDOF 6
ENDMDL
MODEL      265
REMARK 921   NORMALIZED FREE ENERGY PREDICTED BY IDOCK:   -2.74 KCAL/MOL
REMARK 922        TOTAL FREE ENERGY PREDICTED BY IDOCK:   -4.73 KCAL/MOL
REMARK 923 INTER-LIGAND FREE ENERGY PREDICTED BY IDOCK:   -3.60 KCAL/MOL
REMARK 924 INTRA-LIGAND FREE ENERGY PREDICTED BY IDOCK:   -1.13 KCAL/MOL
REMARK 927      BINDING AFFINITY PREDICTED BY RF-SCORE:    0.00 PKD
ROOT
HETATM    1  C   UNL     1     -13.849   9.300  71.617  1.00  0.00    -0.366 C  
HETATM    2  C   UNL     1     -12.505   9.972  71.287  1.00  0.00    -0.392 C  
HETATM    3  C   UNL     1     -12.565  11.431  71.779  1.00  0.00    -0.241 C  
HETATM    4  C   UNL     1     -12.286   9.987  69.764  1.00  0.00     0.196 C  
HETATM    5  N   UNL     1     -11.366   9.341  71.978  1.00  0.00    -0.284 NA 
HETATM    6  H   UNL     1     -11.442   9.490  72.985  1.00  0.00     0.000 HD 
ENDROOT
BRANCH   5   7
HETATM    7  C   UNL     1     -11.166   7.919  71.698  1.00  0.00    -0.251 C  
BRANCH   7   8
HETATM    8  C   UNL     1      -9.762   7.568  71.167  1.00  0.00    -0.162 C  
HETATM    9  O   UNL     1      -9.182   6.636  72.103  1.00  0.00    -0.140 OA 
HETATM   10  H   UNL     1      -8.317   6.420  71.776  1.00  0.00     0.000 HD 
BRANCH   8  11
HETATM   11  C   UNL     1      -8.819   8.770  71.043  1.00  0.00    -0.211 C  
BRANCH  11  12
HETATM   12  O   UNL     1      -8.940   9.483  69.806  1.00  0.00    -0.167 OA 
BRANCH  12  13
HETATM   13  C   UNL     1      -8.004   9.160  68.845  1.00  0.00    -0.099 A  
HETATM   14  C   UNL     1      -7.041   8.149  69.028  1.00  0.00    -0.062 A  
HETATM   15  C   UNL     1      -6.070   7.891  68.065  1.00  0.00    -0.046 A  
HETATM   16  C   UNL     1      -6.052   8.632  66.897  1.00  0.00    -0.058 A  
HETATM   17  C   UNL     1      -7.016   9.620  66.687  1.00  0.00    -0.085 A  
HETATM   18  C   UNL     1      -8.018   9.901  67.641  1.00  0.00    -0.109 A  
BRANCH  18  19
HETATM   19  C   UNL     1      -9.024  11.016  67.396  1.00  0.00    -0.141 C  
HETATM   20  C   UNL     1      -8.576  12.180  66.493  1.00  0.00    -0.070 C  
HETATM   21  C   UNL     1      -9.873  12.912  66.201  1.00  0.00    -0.270 C  
HETATM   22  C   UNL     1     -10.849  11.779  65.925  1.00  0.00    -0.339 C  
HETATM   23  C   UNL     1     -10.351  10.579  66.744  1.00  0.00    -0.301 C  
ENDBRANCH  18  19
ENDBRANCH  12  13
ENDBRANCH  11  12
ENDBRANCH   8  11
ENDBRANCH   7   8
ENDBRANCH   5   7
TORSDOF 6
ENDMDL
MODEL      266
REMARK 921   NORMALIZED FREE ENERGY PREDICTED BY IDOCK:   -2.74 KCAL/MOL
REMARK 922        TOTAL FREE ENERGY PREDICTED BY IDOCK:   -4.73 KCAL/MOL
REMARK 923 INTER-LIGAND FREE ENERGY PREDICTED BY IDOCK:   -3.98 KCAL/MOL
REMARK 924 INTRA-LIGAND FREE ENERGY PREDICTED BY IDOCK:   -0.75 KCAL/MOL
REMARK 927      BINDING AFFINITY PREDICTED BY RF-SCORE:    0.00 PKD
ROOT
HETATM    1  C   UNL     1     -12.314   6.768  71.696  1.00  0.00    -0.409 C  
HETATM    2  C   UNL     1     -11.062   5.977  72.110  1.00  0.00    -0.279 C  
HETATM    3  C   UNL     1     -11.499   4.859  73.077  1.00  0.00    -0.327 C  
HETATM    4  C   UNL     1     -10.080   6.898  72.856  1.00  0.00    -0.212 C  
HETATM    5  N   UNL     1     -10.401   5.313  70.971  1.00  0.00    -0.233 NA 
HETATM    6  H   UNL     1     -11.006   4.583  70.595  1.00  0.00     0.000 HD 
ENDROOT
BRANCH   5   7
HETATM    7  C   UNL     1      -9.960   6.200  69.895  1.00  0.00    -0.172 C  
BRANCH   7   8
HETATM    8  C   UNL     1     -10.648   5.944  68.539  1.00  0.00    -0.252 C  
HETATM    9  O   UNL     1      -9.862   4.948  67.852  1.00  0.00    -0.151 OA 
HETATM   10  H   UNL     1     -10.286   4.791  67.017  1.00  0.00     0.000 HD 
BRANCH   8  11
HETATM   11  C   UNL     1     -10.744   7.182  67.640  1.00  0.00    -0.244 C  
BRANCH  11  12
HETATM   12  O   UNL     1      -9.956   8.291  68.087  1.00  0.00    -0.177 OA 
BRANCH  12  13
HETATM   13  C   UNL     1      -9.287   8.978  67.093  1.00  0.00    -0.147 A  
HETATM   14  C   UNL     1      -9.885   9.315  65.865  1.00  0.00    -0.335 A  
HETATM   15  C   UNL     1      -9.164   9.951  64.859  1.00  0.00    -0.301 A  
HETATM   16  C   UNL     1      -7.835  10.271  65.069  1.00  0.00    -0.133 A  
HETATM   17  C   UNL     1      -7.232   9.969  66.291  1.00  0.00    -0.106 A  
HETATM   18  C   UNL     1      -7.939   9.330  67.334  1.00  0.00    -0.106 A  
BRANCH  18  19
HETATM   19  C   UNL     1      -7.236   8.976  68.636  1.00  0.00    -0.072 C  
HETATM   20  C   UNL     1      -5.697   9.021  68.638  1.00  0.00    -0.041 C  
HETATM   21  C   UNL     1      -5.350   8.945  70.113  1.00  0.00    -0.028 C  
HETATM   22  C   UNL     1      -6.356   9.891  70.750  1.00  0.00    -0.086 C  
HETATM   23  C   UNL     1      -7.597   9.862  69.845  1.00  0.00    -0.167 C  
ENDBRANCH  18  19
ENDBRANCH  12  13
ENDBRANCH  11  12
ENDBRANCH   8  11
ENDBRANCH   7   8
ENDBRANCH   5   7
TORSDOF 6
ENDMDL
MODEL      267
REMARK 921   NORMALIZED FREE ENERGY PREDICTED BY IDOCK:   -2.71 KCAL/MOL
REMARK 922        TOTAL FREE ENERGY PREDICTED BY IDOCK:   -4.69 KCAL/MOL
REMARK 923 INTER-LIGAND FREE ENERGY PREDICTED BY IDOCK:   -4.52 KCAL/MOL
REMARK 924 INTRA-LIGAND FREE ENERGY PREDICTED BY IDOCK:   -0.17 KCAL/MOL
REMARK 927      BINDING AFFINITY PREDICTED BY RF-SCORE:    0.00 PKD
ROOT
HETATM    1  C   UNL     1      -8.412   5.778  64.898  1.00  0.00    -0.103 C  
HETATM    2  C   UNL     1      -9.311   4.575  65.230  1.00  0.00    -0.160 C  
HETATM    3  C   UNL     1      -9.676   3.871  63.908  1.00  0.00    -0.164 C  
HETATM    4  C   UNL     1     -10.613   5.058  65.892  1.00  0.00    -0.234 C  
HETATM    5  N   UNL     1      -8.633   3.569  66.069  1.00  0.00    -0.113 NA 
HETATM    6  H   UNL     1      -7.872   3.134  65.547  1.00  0.00     0.000 HD 
ENDROOT
BRANCH   5   7
HETATM    7  C   UNL     1      -8.142   4.052  67.359  1.00  0.00    -0.091 C  
BRANCH   7   8
HETATM    8  C   UNL     1      -8.896   3.484  68.579  1.00  0.00    -0.116 C  
HETATM    9  O   UNL     1      -9.777   2.455  68.084  1.00  0.00    -0.274 OA 
HETATM   10  H   UNL     1     -10.242   2.106  68.835  1.00  0.00     0.000 HD 
BRANCH   8  11
HETATM   11  C   UNL     1      -9.741   4.518  69.331  1.00  0.00    -0.202 C  
BRANCH  11  12
HETATM   12  O   UNL     1      -9.273   4.805  70.654  1.00  0.00    -0.122 OA 
BRANCH  12  13
HETATM   13  C   UNL     1      -9.844   4.051  71.659  1.00  0.00    -0.183 A  
HETATM   14  C   UNL     1      -9.621   2.667  71.794  1.00  0.00    -0.217 A  
HETATM   15  C   UNL     1     -10.263   1.923  72.779  1.00  0.00    -0.211 A  
HETATM   16  C   UNL     1     -11.131   2.553  73.655  1.00  0.00    -0.318 A  
HETATM   17  C   UNL     1     -11.343   3.929  73.552  1.00  0.00    -0.261 A  
HETATM   18  C   UNL     1     -10.701   4.712  72.568  1.00  0.00    -0.217 A  
BRANCH  18  19
HETATM   19  C   UNL     1     -10.992   6.202  72.459  1.00  0.00    -0.296 C  
HETATM   20  C   UNL     1      -9.787   7.141  72.270  1.00  0.00    -0.174 C  
HETATM   21  C   UNL     1     -10.432   8.458  71.879  1.00  0.00    -0.366 C  
HETATM   22  C   UNL     1     -11.505   8.032  70.889  1.00  0.00    -0.291 C  
HETATM   23  C   UNL     1     -11.920   6.611  71.298  1.00  0.00    -0.409 C  
ENDBRANCH  18  19
ENDBRANCH  12  13
ENDBRANCH  11  12
ENDBRANCH   8  11
ENDBRANCH   7   8
ENDBRANCH   5   7
TORSDOF 6
ENDMDL
MODEL      268
REMARK 921   NORMALIZED FREE ENERGY PREDICTED BY IDOCK:   -2.67 KCAL/MOL
REMARK 922        TOTAL FREE ENERGY PREDICTED BY IDOCK:   -4.64 KCAL/MOL
REMARK 923 INTER-LIGAND FREE ENERGY PREDICTED BY IDOCK:   -4.42 KCAL/MOL
REMARK 924 INTRA-LIGAND FREE ENERGY PREDICTED BY IDOCK:   -0.22 KCAL/MOL
REMARK 927      BINDING AFFINITY PREDICTED BY RF-SCORE:    0.00 PKD
ROOT
HETATM    1  C   UNL     1      -9.498  10.604  62.498  1.00  0.00    -0.289 C  
HETATM    2  C   UNL     1      -8.315   9.894  63.178  1.00  0.00    -0.166 C  
HETATM    3  C   UNL     1      -7.012  10.423  62.547  1.00  0.00    -0.142 C  
HETATM    4  C   UNL     1      -8.393   8.379  62.919  1.00  0.00    -0.117 C  
HETATM    5  N   UNL     1      -8.230  10.179  64.622  1.00  0.00    -0.160 NA 
HETATM    6  H   UNL     1      -8.007  11.163  64.771  1.00  0.00     0.000 HD 
ENDROOT
BRANCH   5   7
HETATM    7  C   UNL     1      -9.406   9.809  65.409  1.00  0.00    -0.252 C  
BRANCH   7   8
HETATM    8  C   UNL     1      -9.122   8.794  66.535  1.00  0.00    -0.162 C  
HETATM    9  O   UNL     1      -9.554   7.504  66.055  1.00  0.00    -0.417 OA 
HETATM   10  H   UNL     1      -9.379   6.880  66.749  1.00  0.00     0.000 HD 
BRANCH   8  11
HETATM   11  C   UNL     1      -9.860   9.089  67.846  1.00  0.00    -0.171 C  
BRANCH  11  12
HETATM   12  O   UNL     1      -9.063   8.903  69.021  1.00  0.00    -0.136 OA 
BRANCH  12  13
HETATM   13  C   UNL     1      -9.085   7.630  69.554  1.00  0.00    -0.146 A  
HETATM   14  C   UNL     1      -8.286   6.582  69.059  1.00  0.00    -0.116 A  
HETATM   15  C   UNL     1      -8.379   5.294  69.576  1.00  0.00    -0.095 A  
HETATM   16  C   UNL     1      -9.266   5.034  70.606  1.00  0.00    -0.195 A  
HETATM   17  C   UNL     1     -10.047   6.066  71.127  1.00  0.00    -0.241 A  
HETATM   18  C   UNL     1      -9.970   7.386  70.628  1.00  0.00    -0.186 A  
BRANCH  18  19
HETATM   19  C   UNL     1     -10.871   8.475  71.192  1.00  0.00    -0.298 C  
HETATM   20  C   UNL     1     -12.034   8.954  70.304  1.00  0.00     0.205 C  
HETATM   21  C   UNL     1     -12.890   9.764  71.260  1.00  0.00    -0.472 C  
HETATM   22  C   UNL     1     -12.907   8.904  72.514  1.00  0.00    -0.401 C  
HETATM   23  C   UNL     1     -11.583   8.126  72.514  1.00  0.00    -0.468 C  
ENDBRANCH  18  19
ENDBRANCH  12  13
ENDBRANCH  11  12
ENDBRANCH   8  11
ENDBRANCH   7   8
ENDBRANCH   5   7
TORSDOF 6
ENDMDL
MODEL      269
REMARK 921   NORMALIZED FREE ENERGY PREDICTED BY IDOCK:   -2.66 KCAL/MOL
REMARK 922        TOTAL FREE ENERGY PREDICTED BY IDOCK:   -4.63 KCAL/MOL
REMARK 923 INTER-LIGAND FREE ENERGY PREDICTED BY IDOCK:   -3.46 KCAL/MOL
REMARK 924 INTRA-LIGAND FREE ENERGY PREDICTED BY IDOCK:   -1.17 KCAL/MOL
REMARK 927      BINDING AFFINITY PREDICTED BY RF-SCORE:    0.00 PKD
ROOT
HETATM    1  C   UNL     1      -8.756   7.957  70.253  1.00  0.00    -0.138 C  
HETATM    2  C   UNL     1     -10.109   8.306  70.895  1.00  0.00    -0.190 C  
HETATM    3  C   UNL     1      -9.901   8.425  72.417  1.00  0.00    -0.378 C  
HETATM    4  C   UNL     1     -11.120   7.174  70.636  1.00  0.00    -0.294 C  
HETATM    5  N   UNL     1     -10.642   9.603  70.439  1.00  0.00    -0.273 NA 
HETATM    6  H   UNL     1     -10.044  10.361  70.769  1.00  0.00     0.000 HD 
ENDROOT
BRANCH   5   7
HETATM    7  C   UNL     1     -10.855   9.726  68.997  1.00  0.00    -0.199 C  
BRANCH   7   8
HETATM    8  C   UNL     1      -9.843  10.643  68.282  1.00  0.00    -0.163 C  
HETATM    9  O   UNL     1     -10.503  11.906  68.064  1.00  0.00    -0.196 OA 
HETATM   10  H   UNL     1      -9.880  12.471  67.623  1.00  0.00     0.000 HD 
BRANCH   8  11
HETATM   11  C   UNL     1      -9.364  10.112  66.926  1.00  0.00    -0.158 C  
BRANCH  11  12
HETATM   12  O   UNL     1      -8.421   9.037  67.018  1.00  0.00    -0.118 OA 
BRANCH  12  13
HETATM   13  C   UNL     1      -8.249   8.303  65.862  1.00  0.00    -0.119 A  
HETATM   14  C   UNL     1      -7.958   8.895  64.619  1.00  0.00    -0.132 A  
HETATM   15  C   UNL     1      -7.854   8.133  63.460  1.00  0.00    -0.152 A  
HETATM   16  C   UNL     1      -8.027   6.761  63.527  1.00  0.00    -0.067 A  
HETATM   17  C   UNL     1      -8.290   6.154  64.756  1.00  0.00    -0.070 A  
HETATM   18  C   UNL     1      -8.394   6.900  65.950  1.00  0.00    -0.137 A  
BRANCH  18  19
HETATM   19  C   UNL     1      -8.726   6.207  67.264  1.00  0.00    -0.108 C  
HETATM   20  C   UNL     1      -9.880   5.188  67.248  1.00  0.00    -0.191 C  
HETATM   21  C   UNL     1      -9.730   4.472  68.578  1.00  0.00    -0.198 C  
HETATM   22  C   UNL     1      -8.228   4.248  68.675  1.00  0.00    -0.087 C  
HETATM   23  C   UNL     1      -7.575   5.397  67.894  1.00  0.00    -0.088 C  
ENDBRANCH  18  19
ENDBRANCH  12  13
ENDBRANCH  11  12
ENDBRANCH   8  11
ENDBRANCH   7   8
ENDBRANCH   5   7
TORSDOF 6
ENDMDL
MODEL      270
REMARK 921   NORMALIZED FREE ENERGY PREDICTED BY IDOCK:   -2.65 KCAL/MOL
REMARK 922        TOTAL FREE ENERGY PREDICTED BY IDOCK:   -4.62 KCAL/MOL
REMARK 923 INTER-LIGAND FREE ENERGY PREDICTED BY IDOCK:   -4.80 KCAL/MOL
REMARK 924 INTRA-LIGAND FREE ENERGY PREDICTED BY IDOCK:    0.18 KCAL/MOL
REMARK 927      BINDING AFFINITY PREDICTED BY RF-SCORE:    0.00 PKD
ROOT
HETATM    1  C   UNL     1     -10.381  14.192  67.033  1.00  0.00    -0.267 C  
HETATM    2  C   UNL     1     -10.854  13.360  65.829  1.00  0.00    -0.275 C  
HETATM    3  C   UNL     1     -11.157  14.326  64.667  1.00  0.00    -0.371 C  
HETATM    4  C   UNL     1     -12.153  12.614  66.183  1.00  0.00    -0.399 C  
HETATM    5  N   UNL     1      -9.825  12.424  65.341  1.00  0.00    -0.389 NA 
HETATM    6  H   UNL     1      -9.038  12.943  64.950  1.00  0.00     0.000 HD 
ENDROOT
BRANCH   5   7
HETATM    7  C   UNL     1      -9.343  11.449  66.319  1.00  0.00    -0.212 C  
BRANCH   7   8
HETATM    8  C   UNL     1     -10.213  10.181  66.433  1.00  0.00    -0.221 C  
HETATM    9  O   UNL     1     -10.672  10.110  67.799  1.00  0.00    -0.237 OA 
HETATM   10  H   UNL     1     -11.208   9.329  67.869  1.00  0.00     0.000 HD 
BRANCH   8  11
HETATM   11  C   UNL     1      -9.472   8.879  66.109  1.00  0.00    -0.251 C  
BRANCH  11  12
HETATM   12  O   UNL     1      -9.038   8.150  67.263  1.00  0.00    -0.134 OA 
BRANCH  12  13
HETATM   13  C   UNL     1      -9.201   6.781  67.191  1.00  0.00    -0.134 A  
HETATM   14  C   UNL     1      -9.242   6.081  65.970  1.00  0.00    -0.129 A  
HETATM   15  C   UNL     1      -9.473   4.710  65.930  1.00  0.00    -0.174 A  
HETATM   16  C   UNL     1      -9.654   4.012  67.111  1.00  0.00    -0.231 A  
HETATM   17  C   UNL     1      -9.589   4.685  68.332  1.00  0.00    -0.212 A  
HETATM   18  C   UNL     1      -9.350   6.075  68.407  1.00  0.00    -0.120 A  
BRANCH  18  19
HETATM   19  C   UNL     1      -9.332   6.782  69.754  1.00  0.00    -0.145 C  
HETATM   20  C   UNL     1      -8.376   7.980  69.906  1.00  0.00    -0.121 C  
HETATM   21  C   UNL     1      -8.835   8.627  71.199  1.00  0.00    -0.249 C  
HETATM   22  C   UNL     1     -10.351   8.595  71.078  1.00  0.00    -0.275 C  
HETATM   23  C   UNL     1     -10.681   7.371  70.210  1.00  0.00    -0.250 C  
ENDBRANCH  18  19
ENDBRANCH  12  13
ENDBRANCH  11  12
ENDBRANCH   8  11
ENDBRANCH   7   8
ENDBRANCH   5   7
TORSDOF 6
ENDMDL
MODEL      271
REMARK 921   NORMALIZED FREE ENERGY PREDICTED BY IDOCK:   -2.65 KCAL/MOL
REMARK 922        TOTAL FREE ENERGY PREDICTED BY IDOCK:   -4.61 KCAL/MOL
REMARK 923 INTER-LIGAND FREE ENERGY PREDICTED BY IDOCK:   -4.17 KCAL/MOL
REMARK 924 INTRA-LIGAND FREE ENERGY PREDICTED BY IDOCK:   -0.44 KCAL/MOL
REMARK 927      BINDING AFFINITY PREDICTED BY RF-SCORE:    0.00 PKD
ROOT
HETATM    1  C   UNL     1     -11.694   6.674  71.690  1.00  0.00    -0.362 C  
HETATM    2  C   UNL     1     -10.241   6.167  71.690  1.00  0.00    -0.198 C  
HETATM    3  C   UNL     1     -10.269   4.634  71.846  1.00  0.00    -0.254 C  
HETATM    4  C   UNL     1      -9.479   6.758  72.889  1.00  0.00    -0.156 C  
HETATM    5  N   UNL     1      -9.537   6.448  70.426  1.00  0.00    -0.165 NA 
HETATM    6  H   UNL     1      -9.954   5.910  69.666  1.00  0.00     0.000 HD 
ENDROOT
BRANCH   5   7
HETATM    7  C   UNL     1      -9.453   7.860  70.051  1.00  0.00    -0.157 C  
BRANCH   7   8
HETATM    8  C   UNL     1      -8.045   8.322  69.625  1.00  0.00    -0.116 C  
HETATM    9  O   UNL     1      -7.890   9.677  70.093  1.00  0.00    -0.141 OA 
HETATM   10  H   UNL     1      -7.023   9.961  69.831  1.00  0.00     0.000 HD 
BRANCH   8  11
HETATM   11  C   UNL     1      -7.811   8.307  68.110  1.00  0.00    -0.118 C  
BRANCH  11  12
HETATM   12  O   UNL     1      -9.012   8.232  67.334  1.00  0.00    -0.132 OA 
BRANCH  12  13
HETATM   13  C   UNL     1      -8.870   8.541  65.996  1.00  0.00    -0.173 A  
HETATM   14  C   UNL     1      -8.160   7.724  65.096  1.00  0.00    -0.137 A  
HETATM   15  C   UNL     1      -7.980   8.096  63.767  1.00  0.00    -0.137 A  
HETATM   16  C   UNL     1      -8.517   9.288  63.313  1.00  0.00    -0.204 A  
HETATM   17  C   UNL     1      -9.247  10.097  64.185  1.00  0.00    -0.314 A  
HETATM   18  C   UNL     1      -9.453   9.744  65.536  1.00  0.00    -0.324 A  
BRANCH  18  19
HETATM   19  C   UNL     1     -10.216  10.674  66.468  1.00  0.00    -0.288 C  
HETATM   20  C   UNL     1     -11.192  10.024  67.465  1.00  0.00    -0.052 C  
HETATM   21  C   UNL     1     -11.516  11.156  68.422  1.00  0.00    -0.377 C  
HETATM   22  C   UNL     1     -10.158  11.800  68.661  1.00  0.00    -0.198 C  
HETATM   23  C   UNL     1      -9.342  11.556  67.383  1.00  0.00    -0.168 C  
ENDBRANCH  18  19
ENDBRANCH  12  13
ENDBRANCH  11  12
ENDBRANCH   8  11
ENDBRANCH   7   8
ENDBRANCH   5   7
TORSDOF 6
ENDMDL
MODEL      272
REMARK 921   NORMALIZED FREE ENERGY PREDICTED BY IDOCK:   -2.64 KCAL/MOL
REMARK 922        TOTAL FREE ENERGY PREDICTED BY IDOCK:   -4.60 KCAL/MOL
REMARK 923 INTER-LIGAND FREE ENERGY PREDICTED BY IDOCK:   -3.02 KCAL/MOL
REMARK 924 INTRA-LIGAND FREE ENERGY PREDICTED BY IDOCK:   -1.58 KCAL/MOL
REMARK 927      BINDING AFFINITY PREDICTED BY RF-SCORE:    0.00 PKD
ROOT
HETATM    1  C   UNL     1      -6.054   9.744  70.955  1.00  0.00    -0.089 C  
HETATM    2  C   UNL     1      -6.735   9.537  69.591  1.00  0.00    -0.054 C  
HETATM    3  C   UNL     1      -5.641   9.524  68.506  1.00  0.00    -0.040 C  
HETATM    4  C   UNL     1      -7.689  10.708  69.297  1.00  0.00    -0.142 C  
HETATM    5  N   UNL     1      -7.439   8.245  69.494  1.00  0.00    -0.084 NA 
HETATM    6  H   UNL     1      -6.767   7.478  69.519  1.00  0.00     0.000 HD 
ENDROOT
BRANCH   5   7
HETATM    7  C   UNL     1      -8.489   8.022  70.487  1.00  0.00    -0.125 C  
BRANCH   7   8
HETATM    8  C   UNL     1      -9.780   7.400  69.919  1.00  0.00    -0.171 C  
HETATM    9  O   UNL     1      -9.411   6.138  69.326  1.00  0.00    -0.133 OA 
HETATM   10  H   UNL     1     -10.207   5.755  68.976  1.00  0.00     0.000 HD 
BRANCH   8  11
HETATM   11  C   UNL     1     -10.466   8.252  68.844  1.00  0.00    -0.191 C  
BRANCH  11  12
HETATM   12  O   UNL     1      -9.834   8.194  67.560  1.00  0.00    -0.155 OA 
BRANCH  12  13
HETATM   13  C   UNL     1      -9.907   9.353  66.814  1.00  0.00    -0.218 A  
HETATM   14  C   UNL     1     -10.868  10.354  67.054  1.00  0.00    -0.269 A  
HETATM   15  C   UNL     1     -10.957  11.481  66.242  1.00  0.00    -0.328 A  
HETATM   16  C   UNL     1     -10.079  11.632  65.184  1.00  0.00    -0.304 A  
HETATM   17  C   UNL     1      -9.103  10.662  64.947  1.00  0.00    -0.231 A  
HETATM   18  C   UNL     1      -8.983   9.511  65.757  1.00  0.00    -0.219 A  
BRANCH  18  19
HETATM   19  C   UNL     1      -7.935   8.454  65.441  1.00  0.00    -0.122 C  
HETATM   20  C   UNL     1      -8.395   7.232  64.626  1.00  0.00     0.048 C  
HETATM   21  C   UNL     1      -7.089   6.573  64.221  1.00  0.00    -0.060 C  
HETATM   22  C   UNL     1      -6.225   7.756  63.807  1.00  0.00    -0.058 C  
HETATM   23  C   UNL     1      -6.715   8.951  64.638  1.00  0.00    -0.073 C  
ENDBRANCH  18  19
ENDBRANCH  12  13
ENDBRANCH  11  12
ENDBRANCH   8  11
ENDBRANCH   7   8
ENDBRANCH   5   7
TORSDOF 6
ENDMDL
MODEL      273
REMARK 921   NORMALIZED FREE ENERGY PREDICTED BY IDOCK:   -2.64 KCAL/MOL
REMARK 922        TOTAL FREE ENERGY PREDICTED BY IDOCK:   -4.60 KCAL/MOL
REMARK 923 INTER-LIGAND FREE ENERGY PREDICTED BY IDOCK:   -4.04 KCAL/MOL
REMARK 924 INTRA-LIGAND FREE ENERGY PREDICTED BY IDOCK:   -0.56 KCAL/MOL
REMARK 927      BINDING AFFINITY PREDICTED BY RF-SCORE:    0.00 PKD
ROOT
HETATM    1  C   UNL     1      -9.986  16.963  67.222  1.00  0.00    -0.277 C  
HETATM    2  C   UNL     1     -10.228  15.884  68.292  1.00  0.00    -0.227 C  
HETATM    3  C   UNL     1     -10.869  16.561  69.519  1.00  0.00    -0.315 C  
HETATM    4  C   UNL     1      -8.887  15.269  68.729  1.00  0.00    -0.192 C  
HETATM    5  N   UNL     1     -11.168  14.839  67.848  1.00  0.00    -0.293 NA 
HETATM    6  H   UNL     1     -12.100  15.237  67.727  1.00  0.00     0.000 HD 
ENDROOT
BRANCH   5   7
HETATM    7  C   UNL     1     -10.776  14.108  66.643  1.00  0.00    -0.289 C  
BRANCH   7   8
HETATM    8  C   UNL     1     -10.840  12.574  66.783  1.00  0.00    -0.249 C  
HETATM    9  O   UNL     1     -10.494  12.263  68.148  1.00  0.00    -0.204 OA 
HETATM   10  H   UNL     1     -10.533  11.318  68.234  1.00  0.00     0.000 HD 
BRANCH   8  11
HETATM   11  C   UNL     1      -9.875  11.819  65.861  1.00  0.00    -0.238 C  
BRANCH  11  12
HETATM   12  O   UNL     1      -9.691  10.442  66.209  1.00  0.00    -0.187 OA 
BRANCH  12  13
HETATM   13  C   UNL     1      -8.894   9.717  65.345  1.00  0.00    -0.171 A  
HETATM   14  C   UNL     1      -8.651  10.115  64.017  1.00  0.00    -0.197 A  
HETATM   15  C   UNL     1      -7.896   9.329  63.152  1.00  0.00    -0.135 A  
HETATM   16  C   UNL     1      -7.362   8.135  63.604  1.00  0.00    -0.105 A  
HETATM   17  C   UNL     1      -7.571   7.737  64.926  1.00  0.00    -0.102 A  
HETATM   18  C   UNL     1      -8.326   8.517  65.830  1.00  0.00    -0.144 A  
BRANCH  18  19
HETATM   19  C   UNL     1      -8.570   8.028  67.250  1.00  0.00    -0.124 C  
HETATM   20  C   UNL     1      -9.994   7.553  67.594  1.00  0.00    -0.219 C  
HETATM   21  C   UNL     1      -9.812   6.851  68.928  1.00  0.00    -0.147 C  
HETATM   22  C   UNL     1      -8.537   6.048  68.719  1.00  0.00    -0.112 C  
HETATM   23  C   UNL     1      -7.703   6.834  67.697  1.00  0.00    -0.111 C  
ENDBRANCH  18  19
ENDBRANCH  12  13
ENDBRANCH  11  12
ENDBRANCH   8  11
ENDBRANCH   7   8
ENDBRANCH   5   7
TORSDOF 6
ENDMDL
MODEL      274
REMARK 921   NORMALIZED FREE ENERGY PREDICTED BY IDOCK:   -2.62 KCAL/MOL
REMARK 922        TOTAL FREE ENERGY PREDICTED BY IDOCK:   -4.57 KCAL/MOL
REMARK 923 INTER-LIGAND FREE ENERGY PREDICTED BY IDOCK:   -3.27 KCAL/MOL
REMARK 924 INTRA-LIGAND FREE ENERGY PREDICTED BY IDOCK:   -1.30 KCAL/MOL
REMARK 927      BINDING AFFINITY PREDICTED BY RF-SCORE:    0.00 PKD
ROOT
HETATM    1  C   UNL     1      -8.967   7.973  73.577  1.00  0.00    -0.327 C  
HETATM    2  C   UNL     1      -8.299   7.666  72.226  1.00  0.00    -0.108 C  
HETATM    3  C   UNL     1      -7.848   6.193  72.238  1.00  0.00    -0.101 C  
HETATM    4  C   UNL     1      -7.052   8.549  72.044  1.00  0.00    -0.104 C  
HETATM    5  N   UNL     1      -9.221   7.815  71.085  1.00  0.00    -0.145 NA 
HETATM    6  H   UNL     1      -9.952   7.104  71.132  1.00  0.00     0.000 HD 
ENDROOT
BRANCH   5   7
HETATM    7  C   UNL     1      -9.822   9.139  70.927  1.00  0.00    -0.291 C  
BRANCH   7   8
HETATM    8  C   UNL     1      -9.457   9.848  69.607  1.00  0.00    -0.231 C  
HETATM    9  O   UNL     1     -10.699  10.198  68.963  1.00  0.00    -0.201 OA 
HETATM   10  H   UNL     1     -10.474  10.634  68.150  1.00  0.00     0.000 HD 
BRANCH   8  11
HETATM   11  C   UNL     1      -8.639   8.988  68.637  1.00  0.00    -0.129 C  
BRANCH  11  12
HETATM   12  O   UNL     1      -9.398   7.964  67.982  1.00  0.00    -0.144 OA 
BRANCH  12  13
HETATM   13  C   UNL     1      -8.838   7.467  66.822  1.00  0.00    -0.137 A  
HETATM   14  C   UNL     1      -8.528   8.280  65.716  1.00  0.00    -0.164 A  
HETATM   15  C   UNL     1      -8.025   7.738  64.537  1.00  0.00    -0.135 A  
HETATM   16  C   UNL     1      -7.812   6.374  64.449  1.00  0.00    -0.115 A  
HETATM   17  C   UNL     1      -8.089   5.555  65.545  1.00  0.00    -0.120 A  
HETATM   18  C   UNL     1      -8.594   6.076  66.757  1.00  0.00    -0.110 A  
BRANCH  18  19
HETATM   19  C   UNL     1      -8.927   5.147  67.915  1.00  0.00    -0.115 C  
HETATM   20  C   UNL     1      -9.501   3.763  67.562  1.00  0.00    -0.237 C  
HETATM   21  C   UNL     1      -9.408   3.003  68.872  1.00  0.00    -0.228 C  
HETATM   22  C   UNL     1      -8.030   3.387  69.391  1.00  0.00    -0.057 C  
HETATM   23  C   UNL     1      -7.744   4.791  68.838  1.00  0.00    -0.072 C  
ENDBRANCH  18  19
ENDBRANCH  12  13
ENDBRANCH  11  12
ENDBRANCH   8  11
ENDBRANCH   7   8
ENDBRANCH   5   7
TORSDOF 6
ENDMDL
MODEL      275
REMARK 921   NORMALIZED FREE ENERGY PREDICTED BY IDOCK:   -2.60 KCAL/MOL
REMARK 922        TOTAL FREE ENERGY PREDICTED BY IDOCK:   -4.55 KCAL/MOL
REMARK 923 INTER-LIGAND FREE ENERGY PREDICTED BY IDOCK:   -4.20 KCAL/MOL
REMARK 924 INTRA-LIGAND FREE ENERGY PREDICTED BY IDOCK:   -0.35 KCAL/MOL
REMARK 927      BINDING AFFINITY PREDICTED BY RF-SCORE:    0.00 PKD
ROOT
HETATM    1  C   UNL     1     -12.532   9.911  71.403  1.00  0.00    -0.495 C  
HETATM    2  C   UNL     1     -12.272   8.394  71.400  1.00  0.00    -0.302 C  
HETATM    3  C   UNL     1     -13.613   7.678  71.655  1.00  0.00    -0.431 C  
HETATM    4  C   UNL     1     -11.306   8.025  72.539  1.00  0.00    -0.469 C  
HETATM    5  N   UNL     1     -11.772   7.903  70.103  1.00  0.00    -0.466 NA 
HETATM    6  H   UNL     1     -12.495   8.000  69.390  1.00  0.00     0.000 HD 
ENDROOT
BRANCH   5   7
HETATM    7  C   UNL     1     -10.525   8.509  69.636  1.00  0.00    -0.221 C  
BRANCH   7   8
HETATM    8  C   UNL     1      -9.334   7.533  69.558  1.00  0.00    -0.153 C  
HETATM    9  O   UNL     1      -8.251   8.135  70.295  1.00  0.00    -0.116 OA 
HETATM   10  H   UNL     1      -7.517   7.534  70.246  1.00  0.00     0.000 HD 
BRANCH   8  11
HETATM   11  C   UNL     1      -8.847   7.251  68.132  1.00  0.00    -0.126 C  
BRANCH  11  12
HETATM   12  O   UNL     1      -7.971   6.122  68.026  1.00  0.00    -0.108 OA 
BRANCH  12  13
HETATM   13  C   UNL     1      -8.194   5.303  66.937  1.00  0.00    -0.108 A  
HETATM   14  C   UNL     1      -8.227   5.785  65.615  1.00  0.00    -0.128 A  
HETATM   15  C   UNL     1      -8.518   4.945  64.545  1.00  0.00    -0.144 A  
HETATM   16  C   UNL     1      -8.769   3.605  64.778  1.00  0.00    -0.114 A  
HETATM   17  C   UNL     1      -8.715   3.104  66.080  1.00  0.00    -0.129 A  
HETATM   18  C   UNL     1      -8.415   3.930  67.186  1.00  0.00    -0.100 A  
BRANCH  18  19
HETATM   19  C   UNL     1      -8.410   3.356  68.595  1.00  0.00    -0.090 C  
HETATM   20  C   UNL     1      -7.179   3.657  69.470  1.00  0.00    -0.045 C  
HETATM   21  C   UNL     1      -7.630   3.240  70.858  1.00  0.00    -0.040 C  
HETATM   22  C   UNL     1      -9.045   3.794  70.937  1.00  0.00    -0.180 C  
HETATM   23  C   UNL     1      -9.578   3.805  69.496  1.00  0.00    -0.230 C  
ENDBRANCH  18  19
ENDBRANCH  12  13
ENDBRANCH  11  12
ENDBRANCH   8  11
ENDBRANCH   7   8
ENDBRANCH   5   7
TORSDOF 6
ENDMDL
MODEL      276
REMARK 921   NORMALIZED FREE ENERGY PREDICTED BY IDOCK:   -2.58 KCAL/MOL
REMARK 922        TOTAL FREE ENERGY PREDICTED BY IDOCK:   -4.52 KCAL/MOL
REMARK 923 INTER-LIGAND FREE ENERGY PREDICTED BY IDOCK:   -3.79 KCAL/MOL
REMARK 924 INTRA-LIGAND FREE ENERGY PREDICTED BY IDOCK:   -0.72 KCAL/MOL
REMARK 927      BINDING AFFINITY PREDICTED BY RF-SCORE:    0.00 PKD
ROOT
HETATM    1  C   UNL     1      -7.584   4.381  72.014  1.00  0.00    -0.080 C  
HETATM    2  C   UNL     1      -8.693   5.143  71.268  1.00  0.00    -0.128 C  
HETATM    3  C   UNL     1     -10.020   4.390  71.484  1.00  0.00    -0.250 C  
HETATM    4  C   UNL     1      -8.392   5.163  69.759  1.00  0.00    -0.093 C  
HETATM    5  N   UNL     1      -8.895   6.510  71.784  1.00  0.00    -0.138 NA 
HETATM    6  H   UNL     1      -9.260   6.473  72.736  1.00  0.00     0.000 HD 
ENDROOT
BRANCH   5   7
HETATM    7  C   UNL     1      -7.723   7.384  71.732  1.00  0.00    -0.086 C  
BRANCH   7   8
HETATM    8  C   UNL     1      -8.036   8.842  71.340  1.00  0.00    -0.133 C  
HETATM    9  O   UNL     1      -9.406   9.091  71.713  1.00  0.00    -0.303 OA 
HETATM   10  H   UNL     1      -9.599   9.989  71.472  1.00  0.00     0.000 HD 
BRANCH   8  11
HETATM   11  C   UNL     1      -7.886   9.136  69.843  1.00  0.00    -0.091 C  
BRANCH  11  12
HETATM   12  O   UNL     1      -8.595  10.299  69.402  1.00  0.00    -0.158 OA 
BRANCH  12  13
HETATM   13  C   UNL     1      -7.808  11.306  68.878  1.00  0.00    -0.114 A  
HETATM   14  C   UNL     1      -6.421  11.385  69.104  1.00  0.00    -0.085 A  
HETATM   15  C   UNL     1      -5.668  12.448  68.616  1.00  0.00    -0.054 A  
HETATM   16  C   UNL     1      -6.287  13.445  67.883  1.00  0.00    -0.151 A  
HETATM   17  C   UNL     1      -7.657  13.369  67.626  1.00  0.00    -0.177 A  
HETATM   18  C   UNL     1      -8.447  12.300  68.102  1.00  0.00    -0.176 A  
BRANCH  18  19
HETATM   19  C   UNL     1      -9.946  12.274  67.840  1.00  0.00    -0.202 C  
HETATM   20  C   UNL     1     -10.665  13.633  67.744  1.00  0.00    -0.255 C  
HETATM   21  C   UNL     1     -12.021  13.267  67.169  1.00  0.00    -0.400 C  
HETATM   22  C   UNL     1     -11.671  12.267  66.078  1.00  0.00    -0.451 C  
HETATM   23  C   UNL     1     -10.378  11.575  66.535  1.00  0.00    -0.269 C  
ENDBRANCH  18  19
ENDBRANCH  12  13
ENDBRANCH  11  12
ENDBRANCH   8  11
ENDBRANCH   7   8
ENDBRANCH   5   7
TORSDOF 6
ENDMDL
MODEL      277
REMARK 921   NORMALIZED FREE ENERGY PREDICTED BY IDOCK:   -2.56 KCAL/MOL
REMARK 922        TOTAL FREE ENERGY PREDICTED BY IDOCK:   -4.49 KCAL/MOL
REMARK 923 INTER-LIGAND FREE ENERGY PREDICTED BY IDOCK:   -3.23 KCAL/MOL
REMARK 924 INTRA-LIGAND FREE ENERGY PREDICTED BY IDOCK:   -1.26 KCAL/MOL
REMARK 927      BINDING AFFINITY PREDICTED BY RF-SCORE:    0.00 PKD
ROOT
HETATM    1  C   UNL     1      -7.321   4.724  67.051  1.00  0.00    -0.081 C  
HETATM    2  C   UNL     1      -8.106   3.872  68.063  1.00  0.00    -0.088 C  
HETATM    3  C   UNL     1      -7.124   3.389  69.148  1.00  0.00    -0.049 C  
HETATM    4  C   UNL     1      -8.694   2.635  67.362  1.00  0.00    -0.137 C  
HETATM    5  N   UNL     1      -9.159   4.635  68.758  1.00  0.00    -0.109 NA 
HETATM    6  H   UNL     1      -8.738   5.347  69.355  1.00  0.00     0.000 HD 
ENDROOT
BRANCH   5   7
HETATM    7  C   UNL     1     -10.172   5.243  67.895  1.00  0.00    -0.145 C  
BRANCH   7   8
HETATM    8  C   UNL     1     -10.545   6.690  68.275  1.00  0.00    -0.241 C  
HETATM    9  O   UNL     1     -11.710   6.614  69.121  1.00  0.00    -0.629 OA 
HETATM   10  H   UNL     1     -11.940   7.506  69.354  1.00  0.00     0.000 HD 
BRANCH   8  11
HETATM   11  C   UNL     1     -10.879   7.587  67.077  1.00  0.00    -0.194 C  
BRANCH  11  12
HETATM   12  O   UNL     1      -9.741   7.959  66.290  1.00  0.00    -0.188 OA 
BRANCH  12  13
HETATM   13  C   UNL     1      -9.365   9.283  66.386  1.00  0.00    -0.192 A  
HETATM   14  C   UNL     1     -10.130  10.334  65.845  1.00  0.00    -0.319 A  
HETATM   15  C   UNL     1      -9.691  11.653  65.902  1.00  0.00    -0.260 A  
HETATM   16  C   UNL     1      -8.484  11.946  66.511  1.00  0.00    -0.097 A  
HETATM   17  C   UNL     1      -7.725  10.919  67.076  1.00  0.00    -0.129 A  
HETATM   18  C   UNL     1      -8.146   9.572  67.041  1.00  0.00    -0.113 A  
BRANCH  18  19
HETATM   19  C   UNL     1      -7.270   8.475  67.628  1.00  0.00    -0.084 C  
HETATM   20  C   UNL     1      -5.750   8.609  67.427  1.00  0.00    -0.039 C  
HETATM   21  C   UNL     1      -5.181   7.575  68.381  1.00  0.00    -0.025 C  
HETATM   22  C   UNL     1      -6.023   7.768  69.634  1.00  0.00    -0.027 C  
HETATM   23  C   UNL     1      -7.389   8.279  69.153  1.00  0.00    -0.081 C  
ENDBRANCH  18  19
ENDBRANCH  12  13
ENDBRANCH  11  12
ENDBRANCH   8  11
ENDBRANCH   7   8
ENDBRANCH   5   7
TORSDOF 6
ENDMDL
MODEL      278
REMARK 921   NORMALIZED FREE ENERGY PREDICTED BY IDOCK:   -2.53 KCAL/MOL
REMARK 922        TOTAL FREE ENERGY PREDICTED BY IDOCK:   -4.45 KCAL/MOL
REMARK 923 INTER-LIGAND FREE ENERGY PREDICTED BY IDOCK:   -4.08 KCAL/MOL
REMARK 924 INTRA-LIGAND FREE ENERGY PREDICTED BY IDOCK:   -0.37 KCAL/MOL
REMARK 927      BINDING AFFINITY PREDICTED BY RF-SCORE:    0.00 PKD
ROOT
HETATM    1  C   UNL     1     -13.014  10.325  71.773  1.00  0.00    -0.574 C  
HETATM    2  C   UNL     1     -12.625   8.850  71.573  1.00  0.00    -0.331 C  
HETATM    3  C   UNL     1     -13.920   8.034  71.393  1.00  0.00    -0.367 C  
HETATM    4  C   UNL     1     -11.897   8.325  72.822  1.00  0.00    -0.273 C  
HETATM    5  N   UNL     1     -11.817   8.631  70.359  1.00  0.00    -0.475 NA 
HETATM    6  H   UNL     1     -12.377   8.823  69.528  1.00  0.00     0.000 HD 
ENDROOT
BRANCH   5   7
HETATM    7  C   UNL     1     -10.559   9.374  70.297  1.00  0.00    -0.250 C  
BRANCH   7   8
HETATM    8  C   UNL     1      -9.298   8.487  70.288  1.00  0.00    -0.162 C  
HETATM    9  O   UNL     1      -8.541   8.847  69.114  1.00  0.00    -0.130 OA 
HETATM   10  H   UNL     1      -7.765   8.300  69.108  1.00  0.00     0.000 HD 
BRANCH   8  11
HETATM   11  C   UNL     1      -9.589   6.983  70.228  1.00  0.00    -0.168 C  
BRANCH  11  12
HETATM   12  O   UNL     1      -8.437   6.156  70.430  1.00  0.00    -0.129 OA 
BRANCH  12  13
HETATM   13  C   UNL     1      -8.614   5.103  71.306  1.00  0.00    -0.127 A  
HETATM   14  C   UNL     1      -9.607   4.121  71.127  1.00  0.00    -0.249 A  
HETATM   15  C   UNL     1      -9.801   3.109  72.061  1.00  0.00    -0.241 A  
HETATM   16  C   UNL     1      -8.997   3.054  73.186  1.00  0.00    -0.092 A  
HETATM   17  C   UNL     1      -7.990   4.004  73.367  1.00  0.00    -0.089 A  
HETATM   18  C   UNL     1      -7.764   5.039  72.433  1.00  0.00    -0.096 A  
BRANCH  18  19
HETATM   19  C   UNL     1      -6.686   6.083  72.687  1.00  0.00    -0.069 C  
HETATM   20  C   UNL     1      -5.929   6.623  71.460  1.00  0.00    -0.037 C  
HETATM   21  C   UNL     1      -5.196   7.833  72.010  1.00  0.00    -0.035 C  
HETATM   22  C   UNL     1      -6.247   8.501  72.882  1.00  0.00    -0.095 C  
HETATM   23  C   UNL     1      -7.166   7.375  73.378  1.00  0.00    -0.089 C  
ENDBRANCH  18  19
ENDBRANCH  12  13
ENDBRANCH  11  12
ENDBRANCH   8  11
ENDBRANCH   7   8
ENDBRANCH   5   7
TORSDOF 6
ENDMDL
MODEL      279
REMARK 921   NORMALIZED FREE ENERGY PREDICTED BY IDOCK:   -2.50 KCAL/MOL
REMARK 922        TOTAL FREE ENERGY PREDICTED BY IDOCK:   -4.40 KCAL/MOL
REMARK 923 INTER-LIGAND FREE ENERGY PREDICTED BY IDOCK:   -4.08 KCAL/MOL
REMARK 924 INTRA-LIGAND FREE ENERGY PREDICTED BY IDOCK:   -0.33 KCAL/MOL
REMARK 927      BINDING AFFINITY PREDICTED BY RF-SCORE:    0.00 PKD
ROOT
HETATM    1  C   UNL     1     -10.643   4.241  73.199  1.00  0.00    -0.270 C  
HETATM    2  C   UNL     1      -9.823   5.542  73.218  1.00  0.00    -0.164 C  
HETATM    3  C   UNL     1      -8.381   5.194  73.637  1.00  0.00    -0.109 C  
HETATM    4  C   UNL     1     -10.404   6.514  74.261  1.00  0.00    -0.309 C  
HETATM    5  N   UNL     1      -9.734   6.182  71.893  1.00  0.00    -0.154 NA 
HETATM    6  H   UNL     1      -9.194   5.595  71.258  1.00  0.00     0.000 HD 
ENDROOT
BRANCH   5   7
HETATM    7  C   UNL     1     -11.012   6.540  71.278  1.00  0.00    -0.262 C  
BRANCH   7   8
HETATM    8  C   UNL     1     -11.015   6.477  69.737  1.00  0.00    -0.338 C  
HETATM    9  O   UNL     1     -10.707   5.116  69.373  1.00  0.00    -0.166 OA 
HETATM   10  H   UNL     1     -10.708   5.077  68.424  1.00  0.00     0.000 HD 
BRANCH   8  11
HETATM   11  C   UNL     1      -9.985   7.396  69.070  1.00  0.00    -0.176 C  
BRANCH  11  12
HETATM   12  O   UNL     1     -10.475   8.078  67.910  1.00  0.00    -0.219 OA 
BRANCH  12  13
HETATM   13  C   UNL     1      -9.720   7.912  66.765  1.00  0.00    -0.234 A  
HETATM   14  C   UNL     1      -9.383   6.646  66.251  1.00  0.00    -0.144 A  
HETATM   15  C   UNL     1      -8.566   6.513  65.132  1.00  0.00     0.004 A  
HETATM   16  C   UNL     1      -8.082   7.645  64.502  1.00  0.00    -0.098 A  
HETATM   17  C   UNL     1      -8.427   8.909  64.982  1.00  0.00    -0.194 A  
HETATM   18  C   UNL     1      -9.259   9.077  66.111  1.00  0.00    -0.272 A  
BRANCH  18  19
HETATM   19  C   UNL     1      -9.577  10.471  66.632  1.00  0.00    -0.210 C  
HETATM   20  C   UNL     1     -11.063  10.837  66.798  1.00  0.00    -0.153 C  
HETATM   21  C   UNL     1     -11.017  12.114  67.616  1.00  0.00    -0.289 C  
HETATM   22  C   UNL     1      -9.961  11.808  68.668  1.00  0.00    -0.181 C  
HETATM   23  C   UNL     1      -8.993  10.807  68.019  1.00  0.00    -0.139 C  
ENDBRANCH  18  19
ENDBRANCH  12  13
ENDBRANCH  11  12
ENDBRANCH   8  11
ENDBRANCH   7   8
ENDBRANCH   5   7
TORSDOF 6
ENDMDL
MODEL      280
REMARK 921   NORMALIZED FREE ENERGY PREDICTED BY IDOCK:   -2.45 KCAL/MOL
REMARK 922        TOTAL FREE ENERGY PREDICTED BY IDOCK:   -4.34 KCAL/MOL
REMARK 923 INTER-LIGAND FREE ENERGY PREDICTED BY IDOCK:   -4.05 KCAL/MOL
REMARK 924 INTRA-LIGAND FREE ENERGY PREDICTED BY IDOCK:   -0.29 KCAL/MOL
REMARK 927      BINDING AFFINITY PREDICTED BY RF-SCORE:    0.00 PKD
ROOT
HETATM    1  C   UNL     1      -9.911  16.472  66.735  1.00  0.00    -0.281 C  
HETATM    2  C   UNL     1     -10.014  15.598  67.996  1.00  0.00    -0.222 C  
HETATM    3  C   UNL     1     -11.080  16.216  68.922  1.00  0.00    -0.347 C  
HETATM    4  C   UNL     1      -8.670  15.598  68.746  1.00  0.00    -0.197 C  
HETATM    5  N   UNL     1     -10.456  14.222  67.705  1.00  0.00    -0.247 NA 
HETATM    6  H   UNL     1     -11.418  14.228  67.367  1.00  0.00     0.000 HD 
ENDROOT
BRANCH   5   7
HETATM    7  C   UNL     1      -9.607  13.469  66.782  1.00  0.00    -0.267 C  
BRANCH   7   8
HETATM    8  C   UNL     1      -9.351  12.008  67.203  1.00  0.00    -0.187 C  
HETATM    9  O   UNL     1     -10.639  11.367  67.299  1.00  0.00    -0.207 OA 
HETATM   10  H   UNL     1     -10.481  10.468  67.559  1.00  0.00     0.000 HD 
BRANCH   8  11
HETATM   11  C   UNL     1      -8.640  11.859  68.553  1.00  0.00    -0.110 C  
BRANCH  11  12
HETATM   12  O   UNL     1      -8.622  10.520  69.061  1.00  0.00    -0.144 OA 
BRANCH  12  13
HETATM   13  C   UNL     1      -7.575  10.226  69.912  1.00  0.00    -0.143 A  
HETATM   14  C   UNL     1      -6.336  10.891  69.854  1.00  0.00    -0.132 A  
HETATM   15  C   UNL     1      -5.280  10.527  70.683  1.00  0.00    -0.071 A  
HETATM   16  C   UNL     1      -5.448   9.498  71.593  1.00  0.00    -0.073 A  
HETATM   17  C   UNL     1      -6.679   8.845  71.682  1.00  0.00    -0.067 A  
HETATM   18  C   UNL     1      -7.772   9.196  70.860  1.00  0.00    -0.152 A  
BRANCH  18  19
HETATM   19  C   UNL     1      -9.084   8.431  70.955  1.00  0.00    -0.190 C  
HETATM   20  C   UNL     1     -10.361   9.254  71.203  1.00  0.00    -0.392 C  
HETATM   21  C   UNL     1     -11.474   8.262  70.919  1.00  0.00    -0.296 C  
HETATM   22  C   UNL     1     -10.993   7.561  69.659  1.00  0.00    -0.164 C  
HETATM   23  C   UNL     1      -9.458   7.602  69.709  1.00  0.00    -0.156 C  
ENDBRANCH  18  19
ENDBRANCH  12  13
ENDBRANCH  11  12
ENDBRANCH   8  11
ENDBRANCH   7   8
ENDBRANCH   5   7
TORSDOF 6
ENDMDL
MODEL      281
REMARK 921   NORMALIZED FREE ENERGY PREDICTED BY IDOCK:   -2.42 KCAL/MOL
REMARK 922        TOTAL FREE ENERGY PREDICTED BY IDOCK:   -4.29 KCAL/MOL
REMARK 923 INTER-LIGAND FREE ENERGY PREDICTED BY IDOCK:   -4.74 KCAL/MOL
REMARK 924 INTRA-LIGAND FREE ENERGY PREDICTED BY IDOCK:    0.44 KCAL/MOL
REMARK 927      BINDING AFFINITY PREDICTED BY RF-SCORE:    0.00 PKD
ROOT
HETATM    1  C   UNL     1      -9.725  11.728  64.416  1.00  0.00    -0.166 C  
HETATM    2  C   UNL     1      -8.829  10.661  65.068  1.00  0.00    -0.197 C  
HETATM    3  C   UNL     1      -7.464  10.678  64.353  1.00  0.00     0.200 C  
HETATM    4  C   UNL     1      -9.452   9.266  64.879  1.00  0.00    -0.051 C  
HETATM    5  N   UNL     1      -8.562  10.931  66.493  1.00  0.00    -0.151 NA 
HETATM    6  H   UNL     1      -7.997  11.775  66.588  1.00  0.00     0.000 HD 
ENDROOT
BRANCH   5   7
HETATM    7  C   UNL     1      -9.743  11.021  67.351  1.00  0.00    -0.168 C  
BRANCH   7   8
HETATM    8  C   UNL     1      -9.868   9.881  68.381  1.00  0.00    -0.151 C  
HETATM    9  O   UNL     1     -10.954   9.039  67.945  1.00  0.00    -0.488 OA 
HETATM   10  H   UNL     1     -11.030   8.337  68.580  1.00  0.00     0.000 HD 
BRANCH   8  11
HETATM   11  C   UNL     1     -10.172  10.355  69.807  1.00  0.00    -0.184 C  
BRANCH  11  12
HETATM   12  O   UNL     1     -10.260   9.297  70.769  1.00  0.00    -0.241 OA 
BRANCH  12  13
HETATM   13  C   UNL     1     -11.542   8.903  71.096  1.00  0.00    -0.300 A  
HETATM   14  C   UNL     1     -12.618   9.806  71.186  1.00  0.00    -0.438 A  
HETATM   15  C   UNL     1     -13.884   9.387  71.582  1.00  0.00    -0.329 A  
HETATM   16  C   UNL     1     -14.100   8.054  71.884  1.00  0.00    -0.482 A  
HETATM   17  C   UNL     1     -13.051   7.140  71.774  1.00  0.00    -0.363 A  
HETATM   18  C   UNL     1     -11.756   7.533  71.369  1.00  0.00    -0.310 A  
BRANCH  18  19
HETATM   19  C   UNL     1     -10.627   6.514  71.306  1.00  0.00    -0.268 C  
HETATM   20  C   UNL     1     -10.873   5.245  70.469  1.00  0.00    -0.119 C  
HETATM   21  C   UNL     1      -9.489   4.634  70.352  1.00  0.00    -0.241 C  
HETATM   22  C   UNL     1      -8.607   5.840  70.063  1.00  0.00    -0.128 C  
HETATM   23  C   UNL     1      -9.295   7.039  70.733  1.00  0.00    -0.161 C  
ENDBRANCH  18  19
ENDBRANCH  12  13
ENDBRANCH  11  12
ENDBRANCH   8  11
ENDBRANCH   7   8
ENDBRANCH   5   7
TORSDOF 6
ENDMDL
MODEL      282
REMARK 921   NORMALIZED FREE ENERGY PREDICTED BY IDOCK:   -2.41 KCAL/MOL
REMARK 922        TOTAL FREE ENERGY PREDICTED BY IDOCK:   -4.29 KCAL/MOL
REMARK 923 INTER-LIGAND FREE ENERGY PREDICTED BY IDOCK:   -3.29 KCAL/MOL
REMARK 924 INTRA-LIGAND FREE ENERGY PREDICTED BY IDOCK:   -1.00 KCAL/MOL
REMARK 927      BINDING AFFINITY PREDICTED BY RF-SCORE:    0.00 PKD
ROOT
HETATM    1  C   UNL     1      -8.058   4.678  72.465  1.00  0.00    -0.103 C  
HETATM    2  C   UNL     1      -9.453   4.133  72.818  1.00  0.00    -0.125 C  
HETATM    3  C   UNL     1      -9.350   3.388  74.163  1.00  0.00    -0.109 C  
HETATM    4  C   UNL     1      -9.910   3.128  71.746  1.00  0.00    -0.229 C  
HETATM    5  N   UNL     1     -10.453   5.200  73.002  1.00  0.00    -0.194 NA 
HETATM    6  H   UNL     1     -10.223   5.756  73.826  1.00  0.00     0.000 HD 
ENDROOT
BRANCH   5   7
HETATM    7  C   UNL     1     -10.661   6.077  71.849  1.00  0.00    -0.226 C  
BRANCH   7   8
HETATM    8  C   UNL     1     -10.808   7.570  72.206  1.00  0.00    -0.258 C  
HETATM    9  O   UNL     1     -11.796   7.655  73.253  1.00  0.00    -0.631 OA 
HETATM   10  H   UNL     1     -11.887   8.574  73.472  1.00  0.00     0.000 HD 
BRANCH   8  11
HETATM   11  C   UNL     1     -11.270   8.451  71.039  1.00  0.00    -0.266 C  
BRANCH  11  12
HETATM   12  O   UNL     1     -10.200   9.061  70.308  1.00  0.00    -0.182 OA 
BRANCH  12  13
HETATM   13  C   UNL     1      -9.409   8.192  69.583  1.00  0.00    -0.159 A  
HETATM   14  C   UNL     1      -9.912   7.401  68.533  1.00  0.00    -0.172 A  
HETATM   15  C   UNL     1      -9.104   6.487  67.864  1.00  0.00    -0.113 A  
HETATM   16  C   UNL     1      -7.775   6.357  68.226  1.00  0.00    -0.104 A  
HETATM   17  C   UNL     1      -7.252   7.153  69.248  1.00  0.00    -0.085 A  
HETATM   18  C   UNL     1      -8.046   8.094  69.941  1.00  0.00    -0.115 A  
BRANCH  18  19
HETATM   19  C   UNL     1      -7.452   8.911  71.079  1.00  0.00    -0.124 C  
HETATM   20  C   UNL     1      -6.883   8.133  72.279  1.00  0.00    -0.089 C  
HETATM   21  C   UNL     1      -6.105   9.190  73.041  1.00  0.00     0.121 C  
HETATM   22  C   UNL     1      -5.384   9.946  71.934  1.00  0.00    -0.027 C  
HETATM   23  C   UNL     1      -6.277   9.831  70.690  1.00  0.00    -0.095 C  
ENDBRANCH  18  19
ENDBRANCH  12  13
ENDBRANCH  11  12
ENDBRANCH   8  11
ENDBRANCH   7   8
ENDBRANCH   5   7
TORSDOF 6
ENDMDL
MODEL      283
REMARK 921   NORMALIZED FREE ENERGY PREDICTED BY IDOCK:   -2.40 KCAL/MOL
REMARK 922        TOTAL FREE ENERGY PREDICTED BY IDOCK:   -4.27 KCAL/MOL
REMARK 923 INTER-LIGAND FREE ENERGY PREDICTED BY IDOCK:   -3.53 KCAL/MOL
REMARK 924 INTRA-LIGAND FREE ENERGY PREDICTED BY IDOCK:   -0.74 KCAL/MOL
REMARK 927      BINDING AFFINITY PREDICTED BY RF-SCORE:    0.00 PKD
ROOT
HETATM    1  C   UNL     1      -7.448   3.944  69.439  1.00  0.00    -0.053 C  
HETATM    2  C   UNL     1      -8.813   3.245  69.551  1.00  0.00    -0.090 C  
HETATM    3  C   UNL     1      -8.661   2.049  70.511  1.00  0.00    -0.115 C  
HETATM    4  C   UNL     1      -9.241   2.705  68.175  1.00  0.00    -0.255 C  
HETATM    5  N   UNL     1      -9.856   4.116  70.124  1.00  0.00    -0.209 NA 
HETATM    6  H   UNL     1      -9.639   4.326  71.099  1.00  0.00     0.000 HD 
ENDROOT
BRANCH   5   7
HETATM    7  C   UNL     1     -10.116   5.355  69.392  1.00  0.00    -0.234 C  
BRANCH   7   8
HETATM    8  C   UNL     1     -10.349   6.586  70.291  1.00  0.00    -0.201 C  
HETATM    9  O   UNL     1     -11.500   6.295  71.109  1.00  0.00    -0.310 OA 
HETATM   10  H   UNL     1     -11.644   7.054  71.662  1.00  0.00     0.000 HD 
BRANCH   8  11
HETATM   11  C   UNL     1     -10.625   7.883  69.520  1.00  0.00    -0.219 C  
BRANCH  11  12
HETATM   12  O   UNL     1      -9.788   8.980  69.904  1.00  0.00    -0.171 OA 
BRANCH  12  13
HETATM   13  C   UNL     1      -8.755   9.266  69.034  1.00  0.00    -0.135 A  
HETATM   14  C   UNL     1      -7.592   8.477  68.946  1.00  0.00    -0.096 A  
HETATM   15  C   UNL     1      -6.540   8.828  68.106  1.00  0.00    -0.061 A  
HETATM   16  C   UNL     1      -6.638   9.970  67.330  1.00  0.00    -0.069 A  
HETATM   17  C   UNL     1      -7.794  10.750  67.385  1.00  0.00    -0.111 A  
HETATM   18  C   UNL     1      -8.881  10.416  68.222  1.00  0.00    -0.135 A  
BRANCH  18  19
HETATM   19  C   UNL     1     -10.107  11.316  68.289  1.00  0.00    -0.198 C  
HETATM   20  C   UNL     1      -9.927  12.700  68.939  1.00  0.00     0.090 C  
HETATM   21  C   UNL     1     -11.200  13.432  68.554  1.00  0.00    -0.316 C  
HETATM   22  C   UNL     1     -11.381  13.055  67.091  1.00  0.00    -0.348 C  
HETATM   23  C   UNL     1     -10.744  11.666  66.929  1.00  0.00    -0.295 C  
ENDBRANCH  18  19
ENDBRANCH  12  13
ENDBRANCH  11  12
ENDBRANCH   8  11
ENDBRANCH   7   8
ENDBRANCH   5   7
TORSDOF 6
ENDMDL
MODEL      284
REMARK 921   NORMALIZED FREE ENERGY PREDICTED BY IDOCK:   -2.34 KCAL/MOL
REMARK 922        TOTAL FREE ENERGY PREDICTED BY IDOCK:   -4.19 KCAL/MOL
REMARK 923 INTER-LIGAND FREE ENERGY PREDICTED BY IDOCK:   -3.56 KCAL/MOL
REMARK 924 INTRA-LIGAND FREE ENERGY PREDICTED BY IDOCK:   -0.63 KCAL/MOL
REMARK 927      BINDING AFFINITY PREDICTED BY RF-SCORE:    0.00 PKD
ROOT
HETATM    1  C   UNL     1      -5.378   8.241  70.977  1.00  0.00    -0.029 C  
HETATM    2  C   UNL     1      -6.609   7.395  70.610  1.00  0.00    -0.043 C  
HETATM    3  C   UNL     1      -6.187   6.377  69.533  1.00  0.00    -0.034 C  
HETATM    4  C   UNL     1      -7.707   8.294  70.016  1.00  0.00    -0.095 C  
HETATM    5  N   UNL     1      -7.125   6.613  71.749  1.00  0.00    -0.075 NA 
HETATM    6  H   UNL     1      -6.446   5.902  72.021  1.00  0.00     0.000 HD 
ENDROOT
BRANCH   5   7
HETATM    7  C   UNL     1      -7.527   7.393  72.919  1.00  0.00    -0.077 C  
BRANCH   7   8
HETATM    8  C   UNL     1      -8.953   7.092  73.423  1.00  0.00    -0.142 C  
HETATM    9  O   UNL     1      -9.213   5.702  73.138  1.00  0.00    -0.133 OA 
HETATM   10  H   UNL     1     -10.091   5.517  73.449  1.00  0.00     0.000 HD 
BRANCH   8  11
HETATM   11  C   UNL     1     -10.046   7.931  72.752  1.00  0.00    -0.300 C  
BRANCH  11  12
HETATM   12  O   UNL     1     -11.059   7.158  72.099  1.00  0.00    -0.234 OA 
BRANCH  12  13
HETATM   13  C   UNL     1     -10.997   7.149  70.719  1.00  0.00    -0.252 A  
HETATM   14  C   UNL     1     -10.639   6.006  69.980  1.00  0.00    -0.340 A  
HETATM   15  C   UNL     1     -10.523   6.048  68.594  1.00  0.00    -0.297 A  
HETATM   16  C   UNL     1     -10.775   7.231  67.922  1.00  0.00    -0.239 A  
HETATM   17  C   UNL     1     -11.157   8.367  68.637  1.00  0.00     0.299 A  
HETATM   18  C   UNL     1     -11.291   8.355  70.043  1.00  0.00    -0.003 A  
BRANCH  18  19
HETATM   19  C   UNL     1     -11.666   9.626  70.792  1.00  0.00    -0.390 C  
HETATM   20  C   UNL     1     -11.789  10.918  69.964  1.00  0.00    -0.428 C  
HETATM   21  C   UNL     1     -12.472  11.878  70.920  1.00  0.00    -0.397 C  
HETATM   22  C   UNL     1     -13.554  11.016  71.554  1.00  0.00     0.115 C  
HETATM   23  C   UNL     1     -13.013   9.579  71.540  1.00  0.00    -0.471 C  
ENDBRANCH  18  19
ENDBRANCH  12  13
ENDBRANCH  11  12
ENDBRANCH   8  11
ENDBRANCH   7   8
ENDBRANCH   5   7
TORSDOF 6
ENDMDL
MODEL      285
REMARK 921   NORMALIZED FREE ENERGY PREDICTED BY IDOCK:   -2.34 KCAL/MOL
REMARK 922        TOTAL FREE ENERGY PREDICTED BY IDOCK:   -4.19 KCAL/MOL
REMARK 923 INTER-LIGAND FREE ENERGY PREDICTED BY IDOCK:   -3.87 KCAL/MOL
REMARK 924 INTRA-LIGAND FREE ENERGY PREDICTED BY IDOCK:   -0.32 KCAL/MOL
REMARK 927      BINDING AFFINITY PREDICTED BY RF-SCORE:    0.00 PKD
ROOT
HETATM    1  C   UNL     1     -11.603   5.927  72.336  1.00  0.00    -0.341 C  
HETATM    2  C   UNL     1     -11.077   7.190  71.633  1.00  0.00    -0.235 C  
HETATM    3  C   UNL     1     -10.081   7.887  72.582  1.00  0.00    -0.343 C  
HETATM    4  C   UNL     1     -12.238   8.162  71.359  1.00  0.00    -0.324 C  
HETATM    5  N   UNL     1     -10.337   6.889  70.394  1.00  0.00    -0.199 NA 
HETATM    6  H   UNL     1      -9.476   6.388  70.615  1.00  0.00     0.000 HD 
ENDROOT
BRANCH   5   7
HETATM    7  C   UNL     1     -11.088   6.163  69.371  1.00  0.00    -0.409 C  
BRANCH   7   8
HETATM    8  C   UNL     1     -10.269   5.807  68.114  1.00  0.00    -0.190 C  
HETATM    9  O   UNL     1      -8.985   5.335  68.570  1.00  0.00    -0.107 OA 
HETATM   10  H   UNL     1      -8.481   5.117  67.796  1.00  0.00     0.000 HD 
BRANCH   8  11
HETATM   11  C   UNL     1     -10.035   6.987  67.163  1.00  0.00    -0.189 C  
BRANCH  11  12
HETATM   12  O   UNL     1      -8.697   7.076  66.659  1.00  0.00    -0.118 OA 
BRANCH  12  13
HETATM   13  C   UNL     1      -8.551   7.809  65.498  1.00  0.00    -0.105 A  
HETATM   14  C   UNL     1      -8.877   9.176  65.415  1.00  0.00    -0.236 A  
HETATM   15  C   UNL     1      -8.780   9.871  64.213  1.00  0.00    -0.229 A  
HETATM   16  C   UNL     1      -8.343   9.214  63.077  1.00  0.00    -0.196 A  
HETATM   17  C   UNL     1      -7.990   7.865  63.148  1.00  0.00    -0.130 A  
HETATM   18  C   UNL     1      -8.071   7.134  64.353  1.00  0.00    -0.056 A  
BRANCH  18  19
HETATM   19  C   UNL     1      -7.721   5.653  64.381  1.00  0.00    -0.097 C  
HETATM   20  C   UNL     1      -6.846   5.161  65.548  1.00  0.00    -0.061 C  
HETATM   21  C   UNL     1      -6.963   3.650  65.456  1.00  0.00    -0.061 C  
HETATM   22  C   UNL     1      -8.445   3.439  65.187  1.00  0.00    -0.099 C  
HETATM   23  C   UNL     1      -8.923   4.690  64.435  1.00  0.00    -0.142 C  
ENDBRANCH  18  19
ENDBRANCH  12  13
ENDBRANCH  11  12
ENDBRANCH   8  11
ENDBRANCH   7   8
ENDBRANCH   5   7
TORSDOF 6
ENDMDL
MODEL      286
REMARK 921   NORMALIZED FREE ENERGY PREDICTED BY IDOCK:   -2.32 KCAL/MOL
REMARK 922        TOTAL FREE ENERGY PREDICTED BY IDOCK:   -4.16 KCAL/MOL
REMARK 923 INTER-LIGAND FREE ENERGY PREDICTED BY IDOCK:   -3.68 KCAL/MOL
REMARK 924 INTRA-LIGAND FREE ENERGY PREDICTED BY IDOCK:   -0.48 KCAL/MOL
REMARK 927      BINDING AFFINITY PREDICTED BY RF-SCORE:    0.00 PKD
ROOT
HETATM    1  C   UNL     1     -11.844   5.592  72.545  1.00  0.00    -0.158 C  
HETATM    2  C   UNL     1     -11.175   6.935  72.207  1.00  0.00    -0.263 C  
HETATM    3  C   UNL     1     -10.178   7.271  73.333  1.00  0.00    -0.394 C  
HETATM    4  C   UNL     1     -12.234   8.050  72.155  1.00  0.00    -0.377 C  
HETATM    5  N   UNL     1     -10.397   6.887  70.955  1.00  0.00    -0.204 NA 
HETATM    6  H   UNL     1      -9.594   6.267  71.067  1.00  0.00     0.000 HD 
ENDROOT
BRANCH   5   7
HETATM    7  C   UNL     1     -11.150   6.518  69.757  1.00  0.00    -0.370 C  
BRANCH   7   8
HETATM    8  C   UNL     1     -10.273   6.185  68.533  1.00  0.00    -0.185 C  
HETATM    9  O   UNL     1      -9.857   4.812  68.678  1.00  0.00    -0.161 OA 
HETATM   10  H   UNL     1      -9.317   4.607  67.925  1.00  0.00     0.000 HD 
BRANCH   8  11
HETATM   11  C   UNL     1      -9.018   7.055  68.405  1.00  0.00    -0.122 C  
BRANCH  11  12
HETATM   12  O   UNL     1      -9.277   8.463  68.440  1.00  0.00    -0.136 OA 
BRANCH  12  13
HETATM   13  C   UNL     1      -8.330   9.221  69.100  1.00  0.00    -0.127 A  
HETATM   14  C   UNL     1      -7.931   8.957  70.424  1.00  0.00    -0.120 A  
HETATM   15  C   UNL     1      -7.022   9.779  71.083  1.00  0.00     0.189 A  
HETATM   16  C   UNL     1      -6.488  10.873  70.426  1.00  0.00    -0.040 A  
HETATM   17  C   UNL     1      -6.852  11.134  69.103  1.00  0.00    -0.102 A  
HETATM   18  C   UNL     1      -7.766  10.315  68.405  1.00  0.00    -0.093 A  
BRANCH  18  19
HETATM   19  C   UNL     1      -8.173  10.658  66.979  1.00  0.00    -0.124 C  
HETATM   20  C   UNL     1      -8.154   9.514  65.949  1.00  0.00    -0.115 C  
HETATM   21  C   UNL     1      -8.902  10.100  64.766  1.00  0.00    -0.219 C  
HETATM   22  C   UNL     1     -10.079  10.806  65.422  1.00  0.00    -0.347 C  
HETATM   23  C   UNL     1      -9.596  11.229  66.817  1.00  0.00    -0.214 C  
ENDBRANCH  18  19
ENDBRANCH  12  13
ENDBRANCH  11  12
ENDBRANCH   8  11
ENDBRANCH   7   8
ENDBRANCH   5   7
TORSDOF 6
ENDMDL
MODEL      287
REMARK 921   NORMALIZED FREE ENERGY PREDICTED BY IDOCK:   -2.27 KCAL/MOL
REMARK 922        TOTAL FREE ENERGY PREDICTED BY IDOCK:   -4.10 KCAL/MOL
REMARK 923 INTER-LIGAND FREE ENERGY PREDICTED BY IDOCK:   -2.68 KCAL/MOL
REMARK 924 INTRA-LIGAND FREE ENERGY PREDICTED BY IDOCK:   -1.42 KCAL/MOL
REMARK 927      BINDING AFFINITY PREDICTED BY RF-SCORE:    0.00 PKD
ROOT
HETATM    1  C   UNL     1      -9.148   8.005  70.460  1.00  0.00    -0.153 C  
HETATM    2  C   UNL     1      -9.010   6.497  70.189  1.00  0.00    -0.155 C  
HETATM    3  C   UNL     1      -9.550   5.738  71.417  1.00  0.00    -0.188 C  
HETATM    4  C   UNL     1      -7.526   6.129  70.013  1.00  0.00    -0.087 C  
HETATM    5  N   UNL     1      -9.806   6.048  69.032  1.00  0.00    -0.142 NA 
HETATM    6  H   UNL     1     -10.801   6.141  69.236  1.00  0.00     0.000 HD 
ENDROOT
BRANCH   5   7
HETATM    7  C   UNL     1      -9.494   6.699  67.761  1.00  0.00    -0.120 C  
BRANCH   7   8
HETATM    8  C   UNL     1     -10.544   6.470  66.655  1.00  0.00    -0.171 C  
HETATM    9  O   UNL     1     -11.839   6.608  67.273  1.00  0.00    -0.450 OA 
HETATM   10  H   UNL     1     -12.486   6.466  66.592  1.00  0.00     0.000 HD 
BRANCH   8  11
HETATM   11  C   UNL     1     -10.471   5.086  65.998  1.00  0.00    -0.242 C  
BRANCH  11  12
HETATM   12  O   UNL     1      -9.826   4.091  66.801  1.00  0.00    -0.217 OA 
BRANCH  12  13
HETATM   13  C   UNL     1      -8.945   3.269  66.127  1.00  0.00    -0.147 A  
HETATM   14  C   UNL     1      -9.048   3.011  64.746  1.00  0.00    -0.142 A  
HETATM   15  C   UNL     1      -8.184   2.126  64.109  1.00  0.00    -0.081 A  
HETATM   16  C   UNL     1      -7.194   1.493  64.839  1.00  0.00    -0.048 A  
HETATM   17  C   UNL     1      -7.060   1.757  66.203  1.00  0.00    -0.051 A  
HETATM   18  C   UNL     1      -7.917   2.655  66.877  1.00  0.00    -0.076 A  
BRANCH  18  19
HETATM   19  C   UNL     1      -7.769   2.882  68.374  1.00  0.00    -0.055 C  
HETATM   20  C   UNL     1      -8.275   1.767  69.308  1.00  0.00    -0.064 C  
HETATM   21  C   UNL     1      -7.695   2.153  70.656  1.00  0.00    -0.039 C  
HETATM   22  C   UNL     1      -6.273   2.568  70.309  1.00  0.00    -0.024 C  
HETATM   23  C   UNL     1      -6.326   3.103  68.870  1.00  0.00    -0.029 C  
ENDBRANCH  18  19
ENDBRANCH  12  13
ENDBRANCH  11  12
ENDBRANCH   8  11
ENDBRANCH   7   8
ENDBRANCH   5   7
TORSDOF 6
ENDMDL
MODEL      288
REMARK 921   NORMALIZED FREE ENERGY PREDICTED BY IDOCK:   -2.25 KCAL/MOL
REMARK 922        TOTAL FREE ENERGY PREDICTED BY IDOCK:   -4.07 KCAL/MOL
REMARK 923 INTER-LIGAND FREE ENERGY PREDICTED BY IDOCK:   -3.79 KCAL/MOL
REMARK 924 INTRA-LIGAND FREE ENERGY PREDICTED BY IDOCK:   -0.28 KCAL/MOL
REMARK 927      BINDING AFFINITY PREDICTED BY RF-SCORE:    0.00 PKD
ROOT
HETATM    1  C   UNL     1      -5.384   8.435  70.938  1.00  0.00    -0.028 C  
HETATM    2  C   UNL     1      -5.909   7.529  69.811  1.00  0.00    -0.024 C  
HETATM    3  C   UNL     1      -5.148   7.885  68.518  1.00  0.00    -0.027 C  
HETATM    4  C   UNL     1      -7.406   7.797  69.575  1.00  0.00    -0.088 C  
HETATM    5  N   UNL     1      -5.661   6.098  70.065  1.00  0.00    -0.013 NA 
HETATM    6  H   UNL     1      -4.659   5.909  70.047  1.00  0.00     0.000 HD 
ENDROOT
BRANCH   5   7
HETATM    7  C   UNL     1      -6.249   5.565  71.293  1.00  0.00    -0.034 C  
BRANCH   7   8
HETATM    8  C   UNL     1      -7.380   4.542  71.064  1.00  0.00    -0.051 C  
HETATM    9  O   UNL     1      -7.233   4.050  69.716  1.00  0.00    -0.042 OA 
HETATM   10  H   UNL     1      -7.930   3.421  69.575  1.00  0.00     0.000 HD 
BRANCH   8  11
HETATM   11  C   UNL     1      -8.791   5.124  71.210  1.00  0.00    -0.135 C  
BRANCH  11  12
HETATM   12  O   UNL     1      -9.795   4.414  70.475  1.00  0.00    -0.202 OA 
BRANCH  12  13
HETATM   13  C   UNL     1     -10.216   5.025  69.311  1.00  0.00    -0.174 A  
HETATM   14  C   UNL     1      -9.844   4.566  68.033  1.00  0.00    -0.154 A  
HETATM   15  C   UNL     1     -10.231   5.241  66.880  1.00  0.00    -0.279 A  
HETATM   16  C   UNL     1     -11.008   6.381  66.985  1.00  0.00    -0.463 A  
HETATM   17  C   UNL     1     -11.409   6.835  68.243  1.00  0.00    -0.022 A  
HETATM   18  C   UNL     1     -11.037   6.168  69.430  1.00  0.00    -0.479 A  
BRANCH  18  19
HETATM   19  C   UNL     1     -11.456   6.719  70.786  1.00  0.00    -0.392 C  
HETATM   20  C   UNL     1     -10.680   7.938  71.318  1.00  0.00    -0.257 C  
HETATM   21  C   UNL     1     -11.535   8.413  72.478  1.00  0.00    -0.422 C  
HETATM   22  C   UNL     1     -12.948   8.319  71.923  1.00  0.00    -0.371 C  
HETATM   23  C   UNL     1     -12.922   7.186  70.886  1.00  0.00    -0.132 C  
ENDBRANCH  18  19
ENDBRANCH  12  13
ENDBRANCH  11  12
ENDBRANCH   8  11
ENDBRANCH   7   8
ENDBRANCH   5   7
TORSDOF 6
ENDMDL
MODEL      289
REMARK 921   NORMALIZED FREE ENERGY PREDICTED BY IDOCK:   -2.06 KCAL/MOL
REMARK 922        TOTAL FREE ENERGY PREDICTED BY IDOCK:   -3.81 KCAL/MOL
REMARK 923 INTER-LIGAND FREE ENERGY PREDICTED BY IDOCK:   -3.37 KCAL/MOL
REMARK 924 INTRA-LIGAND FREE ENERGY PREDICTED BY IDOCK:   -0.45 KCAL/MOL
REMARK 927      BINDING AFFINITY PREDICTED BY RF-SCORE:    0.00 PKD
ROOT
HETATM    1  C   UNL     1      -5.380   8.173  69.834  1.00  0.00    -0.023 C  
HETATM    2  C   UNL     1      -6.240   9.023  70.784  1.00  0.00    -0.048 C  
HETATM    3  C   UNL     1      -5.362  10.167  71.330  1.00  0.00    -0.081 C  
HETATM    4  C   UNL     1      -6.708   8.169  71.975  1.00  0.00    -0.073 C  
HETATM    5  N   UNL     1      -7.385   9.657  70.107  1.00  0.00    -0.121 NA 
HETATM    6  H   UNL     1      -7.054  10.351  69.436  1.00  0.00     0.000 HD 
ENDROOT
BRANCH   5   7
HETATM    7  C   UNL     1      -8.321   8.740  69.457  1.00  0.00    -0.119 C  
BRANCH   7   8
HETATM    8  C   UNL     1      -9.804   9.133  69.608  1.00  0.00    -0.180 C  
HETATM    9  O   UNL     1      -9.886  10.035  70.730  1.00  0.00    -0.314 OA 
HETATM   10  H   UNL     1     -10.800  10.277  70.823  1.00  0.00     0.000 HD 
BRANCH   8  11
HETATM   11  C   UNL     1     -10.743   7.951  69.874  1.00  0.00    -0.244 C  
BRANCH  11  12
HETATM   12  O   UNL     1     -10.078   6.687  69.973  1.00  0.00    -0.174 OA 
BRANCH  12  13
HETATM   13  C   UNL     1     -10.105   5.913  68.830  1.00  0.00    -0.172 A  
HETATM   14  C   UNL     1     -10.702   6.347  67.631  1.00  0.00    -0.387 A  
HETATM   15  C   UNL     1     -10.770   5.519  66.515  1.00  0.00    -0.309 A  
HETATM   16  C   UNL     1     -10.233   4.245  66.576  1.00  0.00    -0.061 A  
HETATM   17  C   UNL     1      -9.614   3.808  67.748  1.00  0.00    -0.193 A  
HETATM   18  C   UNL     1      -9.522   4.628  68.895  1.00  0.00    -0.218 A  
BRANCH  18  19
HETATM   19  C   UNL     1      -8.880   4.100  70.169  1.00  0.00    -0.133 C  
HETATM   20  C   UNL     1      -7.733   4.930  70.774  1.00  0.00    -0.070 C  
HETATM   21  C   UNL     1      -7.557   4.325  72.154  1.00  0.00    -0.079 C  
HETATM   22  C   UNL     1      -8.989   4.142  72.632  1.00  0.00    -0.124 C  
HETATM   23  C   UNL     1      -9.834   3.926  71.368  1.00  0.00    -0.243 C  
ENDBRANCH  18  19
ENDBRANCH  12  13
ENDBRANCH  11  12
ENDBRANCH   8  11
ENDBRANCH   7   8
ENDBRANCH   5   7
TORSDOF 6
ENDMDL
MODEL      290
REMARK 921   NORMALIZED FREE ENERGY PREDICTED BY IDOCK:   -2.06 KCAL/MOL
REMARK 922        TOTAL FREE ENERGY PREDICTED BY IDOCK:   -3.81 KCAL/MOL
REMARK 923 INTER-LIGAND FREE ENERGY PREDICTED BY IDOCK:   -2.68 KCAL/MOL
REMARK 924 INTRA-LIGAND FREE ENERGY PREDICTED BY IDOCK:   -1.13 KCAL/MOL
REMARK 927      BINDING AFFINITY PREDICTED BY RF-SCORE:    0.00 PKD
ROOT
HETATM    1  C   UNL     1      -8.962  16.528  65.757  1.00  0.00    -0.006 C  
HETATM    2  C   UNL     1      -8.304  17.224  66.961  1.00  0.00    -0.208 C  
HETATM    3  C   UNL     1      -9.416  17.883  67.800  1.00  0.00    -0.263 C  
HETATM    4  C   UNL     1      -7.352  18.330  66.472  1.00  0.00    -0.264 C  
HETATM    5  N   UNL     1      -7.604  16.282  67.854  1.00  0.00    -0.134 NA 
HETATM    6  H   UNL     1      -8.278  15.662  68.304  1.00  0.00     0.000 HD 
ENDROOT
BRANCH   5   7
HETATM    7  C   UNL     1      -6.539  15.496  67.232  1.00  0.00    -0.054 C  
BRANCH   7   8
HETATM    8  C   UNL     1      -6.192  14.193  67.980  1.00  0.00    -0.145 C  
HETATM    9  O   UNL     1      -5.224  13.492  67.173  1.00  0.00    -0.291 OA 
HETATM   10  H   UNL     1      -5.011  12.690  67.634  1.00  0.00     0.000 HD 
BRANCH   8  11
HETATM   11  C   UNL     1      -7.390  13.263  68.208  1.00  0.00    -0.113 C  
BRANCH  11  12
HETATM   12  O   UNL     1      -8.339  13.258  67.135  1.00  0.00    -0.180 OA 
BRANCH  12  13
HETATM   13  C   UNL     1      -9.115  12.120  67.038  1.00  0.00    -0.198 A  
HETATM   14  C   UNL     1      -8.667  10.945  66.406  1.00  0.00    -0.174 A  
HETATM   15  C   UNL     1      -9.497   9.836  66.268  1.00  0.00    -0.250 A  
HETATM   16  C   UNL     1     -10.785   9.881  66.770  1.00  0.00    -0.154 A  
HETATM   17  C   UNL     1     -11.237  11.029  67.424  1.00  0.00    -0.355 A  
HETATM   18  C   UNL     1     -10.417  12.167  67.586  1.00  0.00    -0.225 A  
BRANCH  18  19
HETATM   19  C   UNL     1     -10.960  13.416  68.264  1.00  0.00    -0.282 C  
HETATM   20  C   UNL     1     -12.463  13.706  68.102  1.00  0.00     0.299 C  
HETATM   21  C   UNL     1     -12.721  14.789  69.134  1.00  0.00     0.325 C  
HETATM   22  C   UNL     1     -11.944  14.297  70.346  1.00  0.00    -0.402 C  
HETATM   23  C   UNL     1     -10.771  13.474  69.793  1.00  0.00     0.396 C  
ENDBRANCH  18  19
ENDBRANCH  12  13
ENDBRANCH  11  12
ENDBRANCH   8  11
ENDBRANCH   7   8
ENDBRANCH   5   7
TORSDOF 6
ENDMDL
MODEL      291
REMARK 921   NORMALIZED FREE ENERGY PREDICTED BY IDOCK:   -1.99 KCAL/MOL
REMARK 922        TOTAL FREE ENERGY PREDICTED BY IDOCK:   -3.72 KCAL/MOL
REMARK 923 INTER-LIGAND FREE ENERGY PREDICTED BY IDOCK:   -2.98 KCAL/MOL
REMARK 924 INTRA-LIGAND FREE ENERGY PREDICTED BY IDOCK:   -0.74 KCAL/MOL
REMARK 927      BINDING AFFINITY PREDICTED BY RF-SCORE:    0.00 PKD
ROOT
HETATM    1  C   UNL     1      -9.506  16.465  66.944  1.00  0.00    -0.249 C  
HETATM    2  C   UNL     1      -9.411  15.475  68.117  1.00  0.00    -0.197 C  
HETATM    3  C   UNL     1     -10.226  16.047  69.294  1.00  0.00    -0.249 C  
HETATM    4  C   UNL     1      -7.947  15.337  68.571  1.00  0.00    -0.141 C  
HETATM    5  N   UNL     1      -9.993  14.157  67.803  1.00  0.00    -0.231 NA 
HETATM    6  H   UNL     1     -11.001  14.243  67.672  1.00  0.00     0.000 HD 
ENDROOT
BRANCH   5   7
HETATM    7  C   UNL     1      -9.399  13.461  66.661  1.00  0.00    -0.241 C  
BRANCH   7   8
HETATM    8  C   UNL     1      -9.174  11.952  66.885  1.00  0.00    -0.193 C  
HETATM    9  O   UNL     1     -10.478  11.348  67.003  1.00  0.00    -0.217 OA 
HETATM   10  H   UNL     1     -10.339  10.418  67.141  1.00  0.00     0.000 HD 
BRANCH   8  11
HETATM   11  C   UNL     1      -8.374  11.618  68.149  1.00  0.00    -0.154 C  
BRANCH  11  12
HETATM   12  O   UNL     1      -8.245  10.214  68.405  1.00  0.00    -0.107 OA 
BRANCH  12  13
HETATM   13  C   UNL     1      -7.341   9.875  69.392  1.00  0.00    -0.091 A  
HETATM   14  C   UNL     1      -6.579  10.832  70.089  1.00  0.00    -0.144 A  
HETATM   15  C   UNL     1      -5.630  10.453  71.033  1.00  0.00    -0.075 A  
HETATM   16  C   UNL     1      -5.435   9.111  71.306  1.00  0.00    -0.047 A  
HETATM   17  C   UNL     1      -6.201   8.150  70.643  1.00  0.00    -0.036 A  
HETATM   18  C   UNL     1      -7.176   8.502  69.685  1.00  0.00    -0.052 A  
BRANCH  18  19
HETATM   19  C   UNL     1      -7.959   7.424  68.951  1.00  0.00    -0.126 C  
HETATM   20  C   UNL     1      -7.167   6.500  68.008  1.00  0.00    -0.088 C  
HETATM   21  C   UNL     1      -8.149   5.381  67.713  1.00  0.00    -0.100 C  
HETATM   22  C   UNL     1      -8.760   5.095  69.077  1.00  0.00    -0.101 C  
HETATM   23  C   UNL     1      -8.706   6.420  69.852  1.00  0.00    -0.142 C  
ENDBRANCH  18  19
ENDBRANCH  12  13
ENDBRANCH  11  12
ENDBRANCH   8  11
ENDBRANCH   7   8
ENDBRANCH   5   7
TORSDOF 6
ENDMDL
MODEL      292
REMARK 921   NORMALIZED FREE ENERGY PREDICTED BY IDOCK:   -1.95 KCAL/MOL
REMARK 922        TOTAL FREE ENERGY PREDICTED BY IDOCK:   -3.66 KCAL/MOL
REMARK 923 INTER-LIGAND FREE ENERGY PREDICTED BY IDOCK:   -3.50 KCAL/MOL
REMARK 924 INTRA-LIGAND FREE ENERGY PREDICTED BY IDOCK:   -0.17 KCAL/MOL
REMARK 927      BINDING AFFINITY PREDICTED BY RF-SCORE:    0.00 PKD
ROOT
HETATM    1  C   UNL     1      -8.916   4.326  62.819  1.00  0.00    -0.116 C  
HETATM    2  C   UNL     1      -8.464   3.609  64.102  1.00  0.00    -0.090 C  
HETATM    3  C   UNL     1      -7.138   2.882  63.803  1.00  0.00    -0.045 C  
HETATM    4  C   UNL     1      -9.507   2.555  64.511  1.00  0.00    -0.132 C  
HETATM    5  N   UNL     1      -8.192   4.541  65.212  1.00  0.00    -0.109 NA 
HETATM    6  H   UNL     1      -7.383   5.121  64.991  1.00  0.00     0.000 HD 
ENDROOT
BRANCH   5   7
HETATM    7  C   UNL     1      -9.316   5.385  65.617  1.00  0.00    -0.083 C  
BRANCH   7   8
HETATM    8  C   UNL     1      -9.333   5.744  67.117  1.00  0.00    -0.115 C  
HETATM    9  O   UNL     1      -9.745   4.558  67.826  1.00  0.00    -0.161 OA 
HETATM   10  H   UNL     1      -9.756   4.780  68.750  1.00  0.00     0.000 HD 
BRANCH   8  11
HETATM   11  C   UNL     1     -10.297   6.879  67.479  1.00  0.00    -0.217 C  
BRANCH  11  12
HETATM   12  O   UNL     1      -9.710   7.912  68.279  1.00  0.00    -0.153 OA 
BRANCH  12  13
HETATM   13  C   UNL     1      -9.429   9.088  67.612  1.00  0.00    -0.140 A  
HETATM   14  C   UNL     1      -8.752   9.121  66.378  1.00  0.00    -0.147 A  
HETATM   15  C   UNL     1      -8.426  10.325  65.763  1.00  0.00    -0.161 A  
HETATM   16  C   UNL     1      -8.784  11.519  66.365  1.00  0.00    -0.179 A  
HETATM   17  C   UNL     1      -9.480  11.504  67.576  1.00  0.00    -0.173 A  
HETATM   18  C   UNL     1      -9.830  10.298  68.221  1.00  0.00    -0.161 A  
BRANCH  18  19
HETATM   19  C   UNL     1     -10.549  10.324  69.562  1.00  0.00    -0.270 C  
HETATM   20  C   UNL     1     -12.016   9.857  69.581  1.00  0.00     0.126 C  
HETATM   21  C   UNL     1     -12.310   9.698  71.062  1.00  0.00    -0.396 C  
HETATM   22  C   UNL     1     -11.058   9.011  71.586  1.00  0.00    -0.433 C  
HETATM   23  C   UNL     1      -9.911   9.463  70.671  1.00  0.00    -0.340 C  
ENDBRANCH  18  19
ENDBRANCH  12  13
ENDBRANCH  11  12
ENDBRANCH   8  11
ENDBRANCH   7   8
ENDBRANCH   5   7
TORSDOF 6
ENDMDL
MODEL      293
REMARK 921   NORMALIZED FREE ENERGY PREDICTED BY IDOCK:   -1.92 KCAL/MOL
REMARK 922        TOTAL FREE ENERGY PREDICTED BY IDOCK:   -3.62 KCAL/MOL
REMARK 923 INTER-LIGAND FREE ENERGY PREDICTED BY IDOCK:   -3.01 KCAL/MOL
REMARK 924 INTRA-LIGAND FREE ENERGY PREDICTED BY IDOCK:   -0.60 KCAL/MOL
REMARK 927      BINDING AFFINITY PREDICTED BY RF-SCORE:    0.00 PKD
ROOT
HETATM    1  C   UNL     1      -8.517  15.706  67.422  1.00  0.00    -0.191 C  
HETATM    2  C   UNL     1      -7.928  14.603  68.317  1.00  0.00    -0.133 C  
HETATM    3  C   UNL     1      -7.503  15.245  69.652  1.00  0.00    -0.181 C  
HETATM    4  C   UNL     1      -6.677  14.001  67.654  1.00  0.00    -0.188 C  
HETATM    5  N   UNL     1      -8.907  13.552  68.648  1.00  0.00    -0.364 NA 
HETATM    6  H   UNL     1      -9.647  13.936  69.236  1.00  0.00     0.000 HD 
ENDROOT
BRANCH   5   7
HETATM    7  C   UNL     1      -9.492  12.851  67.505  1.00  0.00    -0.198 C  
BRANCH   7   8
HETATM    8  C   UNL     1      -9.605  11.324  67.687  1.00  0.00    -0.171 C  
HETATM    9  O   UNL     1     -10.486  11.099  68.806  1.00  0.00    -0.188 OA 
HETATM   10  H   UNL     1     -10.555  10.159  68.918  1.00  0.00     0.000 HD 
BRANCH   8  11
HETATM   11  C   UNL     1      -8.271  10.626  67.980  1.00  0.00    -0.113 C  
BRANCH  11  12
HETATM   12  O   UNL     1      -8.404   9.267  68.411  1.00  0.00    -0.117 OA 
BRANCH  12  13
HETATM   13  C   UNL     1      -8.255   8.317  67.420  1.00  0.00    -0.121 A  
HETATM   14  C   UNL     1      -8.398   8.614  66.052  1.00  0.00    -0.135 A  
HETATM   15  C   UNL     1      -8.305   7.620  65.082  1.00  0.00    -0.100 A  
HETATM   16  C   UNL     1      -8.055   6.314  65.464  1.00  0.00    -0.129 A  
HETATM   17  C   UNL     1      -7.884   6.006  66.815  1.00  0.00    -0.101 A  
HETATM   18  C   UNL     1      -7.965   6.993  67.822  1.00  0.00    -0.114 A  
BRANCH  18  19
HETATM   19  C   UNL     1      -7.818   6.611  69.287  1.00  0.00    -0.110 C  
HETATM   20  C   UNL     1      -8.994   5.861  69.939  1.00  0.00    -0.144 C  
HETATM   21  C   UNL     1      -8.405   5.361  71.246  1.00  0.00    -0.125 C  
HETATM   22  C   UNL     1      -7.032   4.854  70.829  1.00  0.00    -0.041 C  
HETATM   23  C   UNL     1      -6.618   5.700  69.615  1.00  0.00    -0.050 C  
ENDBRANCH  18  19
ENDBRANCH  12  13
ENDBRANCH  11  12
ENDBRANCH   8  11
ENDBRANCH   7   8
ENDBRANCH   5   7
TORSDOF 6
ENDMDL
MODEL      294
REMARK 921   NORMALIZED FREE ENERGY PREDICTED BY IDOCK:   -1.89 KCAL/MOL
REMARK 922        TOTAL FREE ENERGY PREDICTED BY IDOCK:   -3.59 KCAL/MOL
REMARK 923 INTER-LIGAND FREE ENERGY PREDICTED BY IDOCK:   -2.57 KCAL/MOL
REMARK 924 INTRA-LIGAND FREE ENERGY PREDICTED BY IDOCK:   -1.02 KCAL/MOL
REMARK 927      BINDING AFFINITY PREDICTED BY RF-SCORE:    0.00 PKD
ROOT
HETATM    1  C   UNL     1      -9.064   8.025  70.593  1.00  0.00    -0.154 C  
HETATM    2  C   UNL     1      -8.802   6.567  70.179  1.00  0.00    -0.144 C  
HETATM    3  C   UNL     1      -9.553   5.647  71.161  1.00  0.00    -0.208 C  
HETATM    4  C   UNL     1      -7.298   6.254  70.283  1.00  0.00    -0.089 C  
HETATM    5  N   UNL     1      -9.314   6.254  68.833  1.00  0.00    -0.129 NA 
HETATM    6  H   UNL     1     -10.333   6.300  68.828  1.00  0.00     0.000 HD 
ENDROOT
BRANCH   5   7
HETATM    7  C   UNL     1      -8.771   7.068  67.745  1.00  0.00    -0.121 C  
BRANCH   7   8
HETATM    8  C   UNL     1      -9.640   7.086  66.472  1.00  0.00    -0.144 C  
HETATM    9  O   UNL     1      -8.837   6.534  65.409  1.00  0.00    -0.335 OA 
HETATM   10  H   UNL     1      -9.372   6.546  64.624  1.00  0.00     0.000 HD 
BRANCH   8  11
HETATM   11  C   UNL     1     -10.101   8.485  66.046  1.00  0.00     0.168 C  
BRANCH  11  12
HETATM   12  O   UNL     1      -9.270   9.547  66.532  1.00  0.00    -0.148 OA 
BRANCH  12  13
HETATM   13  C   UNL     1      -9.945  10.632  67.055  1.00  0.00    -0.202 A  
HETATM   14  C   UNL     1     -11.280  10.932  66.721  1.00  0.00    -0.109 A  
HETATM   15  C   UNL     1     -11.911  12.070  67.214  1.00  0.00    -0.257 A  
HETATM   16  C   UNL     1     -11.222  12.921  68.061  1.00  0.00    -0.305 A  
HETATM   17  C   UNL     1      -9.907  12.624  68.424  1.00  0.00    -0.200 A  
HETATM   18  C   UNL     1      -9.241  11.474  67.945  1.00  0.00    -0.168 A  
BRANCH  18  19
HETATM   19  C   UNL     1      -7.793  11.208  68.327  1.00  0.00    -0.123 C  
HETATM   20  C   UNL     1      -6.716  12.067  67.640  1.00  0.00    -0.109 C  
HETATM   21  C   UNL     1      -5.471  11.785  68.461  1.00  0.00    -0.045 C  
HETATM   22  C   UNL     1      -5.989  11.825  69.890  1.00  0.00    -0.146 C  
HETATM   23  C   UNL     1      -7.459  11.387  69.822  1.00  0.00     0.400 C  
ENDBRANCH  18  19
ENDBRANCH  12  13
ENDBRANCH  11  12
ENDBRANCH   8  11
ENDBRANCH   7   8
ENDBRANCH   5   7
TORSDOF 6
ENDMDL
MODEL      295
REMARK 921   NORMALIZED FREE ENERGY PREDICTED BY IDOCK:   -1.88 KCAL/MOL
REMARK 922        TOTAL FREE ENERGY PREDICTED BY IDOCK:   -3.57 KCAL/MOL
REMARK 923 INTER-LIGAND FREE ENERGY PREDICTED BY IDOCK:   -3.19 KCAL/MOL
REMARK 924 INTRA-LIGAND FREE ENERGY PREDICTED BY IDOCK:   -0.38 KCAL/MOL
REMARK 927      BINDING AFFINITY PREDICTED BY RF-SCORE:    0.00 PKD
ROOT
HETATM    1  C   UNL     1      -5.278   7.482  70.406  1.00  0.00    -0.023 C  
HETATM    2  C   UNL     1      -6.189   8.617  70.905  1.00  0.00    -0.039 C  
HETATM    3  C   UNL     1      -5.638   9.115  72.256  1.00  0.00    -0.071 C  
HETATM    4  C   UNL     1      -7.614   8.085  71.134  1.00  0.00    -0.082 C  
HETATM    5  N   UNL     1      -6.199   9.781  70.000  1.00  0.00    -0.052 NA 
HETATM    6  H   UNL     1      -5.281  10.226  69.993  1.00  0.00     0.000 HD 
ENDROOT
BRANCH   5   7
HETATM    7  C   UNL     1      -6.633   9.512  68.629  1.00  0.00    -0.052 C  
BRANCH   7   8
HETATM    8  C   UNL     1      -7.826  10.370  68.161  1.00  0.00    -0.108 C  
HETATM    9  O   UNL     1      -8.292  11.102  69.312  1.00  0.00    -0.364 OA 
HETATM   10  H   UNL     1      -9.027  11.630  69.024  1.00  0.00     0.000 HD 
BRANCH   8  11
HETATM   11  C   UNL     1      -9.000   9.559  67.601  1.00  0.00    -0.117 C  
BRANCH  11  12
HETATM   12  O   UNL     1      -9.102   8.233  68.133  1.00  0.00    -0.135 OA 
BRANCH  12  13
HETATM   13  C   UNL     1      -8.891   7.214  67.226  1.00  0.00    -0.120 A  
HETATM   14  C   UNL     1      -8.193   7.403  66.018  1.00  0.00    -0.130 A  
HETATM   15  C   UNL     1      -8.054   6.372  65.094  1.00  0.00    -0.136 A  
HETATM   16  C   UNL     1      -8.601   5.130  65.367  1.00  0.00    -0.146 A  
HETATM   17  C   UNL     1      -9.273   4.918  66.572  1.00  0.00    -0.135 A  
HETATM   18  C   UNL     1      -9.426   5.942  67.533  1.00  0.00    -0.110 A  
BRANCH  18  19
HETATM   19  C   UNL     1     -10.205   5.686  68.814  1.00  0.00    -0.269 C  
HETATM   20  C   UNL     1      -9.400   5.235  70.047  1.00  0.00    -0.201 C  
HETATM   21  C   UNL     1     -10.393   5.388  71.185  1.00  0.00    -0.304 C  
HETATM   22  C   UNL     1     -11.053   6.725  70.883  1.00  0.00    -0.322 C  
HETATM   23  C   UNL     1     -11.000   6.890  69.357  1.00  0.00    -0.274 C  
ENDBRANCH  18  19
ENDBRANCH  12  13
ENDBRANCH  11  12
ENDBRANCH   8  11
ENDBRANCH   7   8
ENDBRANCH   5   7
TORSDOF 6
ENDMDL
MODEL      296
REMARK 921   NORMALIZED FREE ENERGY PREDICTED BY IDOCK:   -1.56 KCAL/MOL
REMARK 922        TOTAL FREE ENERGY PREDICTED BY IDOCK:   -3.14 KCAL/MOL
REMARK 923 INTER-LIGAND FREE ENERGY PREDICTED BY IDOCK:   -3.90 KCAL/MOL
REMARK 924 INTRA-LIGAND FREE ENERGY PREDICTED BY IDOCK:    0.76 KCAL/MOL
REMARK 927      BINDING AFFINITY PREDICTED BY RF-SCORE:    0.00 PKD
ROOT
HETATM    1  C   UNL     1      -8.625   6.978  71.376  1.00  0.00    -0.121 C  
HETATM    2  C   UNL     1      -9.960   6.897  70.616  1.00  0.00    -0.186 C  
HETATM    3  C   UNL     1     -11.101   6.882  71.652  1.00  0.00    -0.271 C  
HETATM    4  C   UNL     1     -10.027   5.588  69.810  1.00  0.00    -0.279 C  
HETATM    5  N   UNL     1     -10.195   8.065  69.747  1.00  0.00    -0.201 NA 
HETATM    6  H   UNL     1     -10.319   8.903  70.315  1.00  0.00     0.000 HD 
ENDROOT
BRANCH   5   7
HETATM    7  C   UNL     1      -9.181   8.303  68.721  1.00  0.00    -0.143 C  
BRANCH   7   8
HETATM    8  C   UNL     1      -9.053   9.776  68.283  1.00  0.00    -0.122 C  
HETATM    9  O   UNL     1      -8.977  10.565  69.488  1.00  0.00    -0.349 OA 
HETATM   10  H   UNL     1      -8.898  11.472  69.218  1.00  0.00     0.000 HD 
BRANCH   8  11
HETATM   11  C   UNL     1     -10.233  10.287  67.450  1.00  0.00    -0.218 C  
BRANCH  11  12
HETATM   12  O   UNL     1      -9.907  11.378  66.580  1.00  0.00    -0.198 OA 
BRANCH  12  13
HETATM   13  C   UNL     1     -10.454  12.596  66.930  1.00  0.00    -0.233 A  
HETATM   14  C   UNL     1     -11.831  12.870  66.829  1.00  0.00    -0.452 A  
HETATM   15  C   UNL     1     -12.343  14.129  67.128  1.00  0.00    -0.213 A  
HETATM   16  C   UNL     1     -11.487  15.133  67.545  1.00  0.00    -0.306 A  
HETATM   17  C   UNL     1     -10.122  14.871  67.677  1.00  0.00    -0.227 A  
HETATM   18  C   UNL     1      -9.573  13.602  67.388  1.00  0.00    -0.226 A  
BRANCH  18  19
HETATM   19  C   UNL     1      -8.074  13.368  67.500  1.00  0.00    -0.183 C  
HETATM   20  C   UNL     1      -7.506  13.114  68.908  1.00  0.00     0.011 C  
HETATM   21  C   UNL     1      -6.102  12.610  68.631  1.00  0.00    -0.067 C  
HETATM   22  C   UNL     1      -6.309  11.647  67.472  1.00  0.00    -0.087 C  
HETATM   23  C   UNL     1      -7.530  12.167  66.700  1.00  0.00     0.175 C  
ENDBRANCH  18  19
ENDBRANCH  12  13
ENDBRANCH  11  12
ENDBRANCH   8  11
ENDBRANCH   7   8
ENDBRANCH   5   7
TORSDOF 6
ENDMDL
MODEL      297
REMARK 921   NORMALIZED FREE ENERGY PREDICTED BY IDOCK:   -1.44 KCAL/MOL
REMARK 922        TOTAL FREE ENERGY PREDICTED BY IDOCK:   -2.98 KCAL/MOL
REMARK 923 INTER-LIGAND FREE ENERGY PREDICTED BY IDOCK:   -2.22 KCAL/MOL
REMARK 924 INTRA-LIGAND FREE ENERGY PREDICTED BY IDOCK:   -0.75 KCAL/MOL
REMARK 927      BINDING AFFINITY PREDICTED BY RF-SCORE:    0.00 PKD
ROOT
HETATM    1  C   UNL     1     -10.162  14.351  64.968  1.00  0.00    -0.406 C  
HETATM    2  C   UNL     1     -11.616  14.849  65.043  1.00  0.00    -0.357 C  
HETATM    3  C   UNL     1     -12.424  13.840  65.884  1.00  0.00    -0.512 C  
HETATM    4  C   UNL     1     -12.229  14.897  63.632  1.00  0.00     0.456 C  
HETATM    5  N   UNL     1     -11.740  16.154  65.718  1.00  0.00     0.679 NA 
HETATM    6  H   UNL     1     -11.490  16.063  66.703  1.00  0.00     0.000 HD 
ENDROOT
BRANCH   5   7
HETATM    7  C   UNL     1     -10.987  17.252  65.111  1.00  0.00     0.122 C  
BRANCH   7   8
HETATM    8  C   UNL     1     -10.500  18.317  66.113  1.00  0.00    -0.383 C  
HETATM    9  O   UNL     1      -9.744  19.286  65.359  1.00  0.00    -0.099 OA 
HETATM   10  H   UNL     1      -9.444  19.943  65.976  1.00  0.00     0.000 HD 
BRANCH   8  11
HETATM   11  C   UNL     1      -9.600  17.768  67.226  1.00  0.00    -0.272 C  
BRANCH  11  12
HETATM   12  O   UNL     1      -9.572  16.338  67.302  1.00  0.00    -0.226 OA 
BRANCH  12  13
HETATM   13  C   UNL     1      -8.619  15.811  68.151  1.00  0.00    -0.164 A  
HETATM   14  C   UNL     1      -7.292  15.566  67.748  1.00  0.00    -0.174 A  
HETATM   15  C   UNL     1      -6.372  14.974  68.607  1.00  0.00    -0.088 A  
HETATM   16  C   UNL     1      -6.760  14.627  69.889  1.00  0.00    -0.157 A  
HETATM   17  C   UNL     1      -8.065  14.886  70.314  1.00  0.00     0.796 A  
HETATM   18  C   UNL     1      -9.019  15.492  69.468  1.00  0.00    -0.244 A  
BRANCH  18  19
HETATM   19  C   UNL     1     -10.444  15.718  69.952  1.00  0.00    -0.324 C  
HETATM   20  C   UNL     1     -11.551  14.876  69.293  1.00  0.00    -0.330 C  
HETATM   21  C   UNL     1     -12.745  15.100  70.202  1.00  0.00    -0.273 C  
HETATM   22  C   UNL     1     -12.138  15.000  71.593  1.00  0.00    -0.410 C  
HETATM   23  C   UNL     1     -10.680  15.462  71.455  1.00  0.00     0.143 C  
ENDBRANCH  18  19
ENDBRANCH  12  13
ENDBRANCH  11  12
ENDBRANCH   8  11
ENDBRANCH   7   8
ENDBRANCH   5   7
TORSDOF 6
ENDMDL
MODEL      298
REMARK 921   NORMALIZED FREE ENERGY PREDICTED BY IDOCK:   -0.56 KCAL/MOL
REMARK 922        TOTAL FREE ENERGY PREDICTED BY IDOCK:   -1.79 KCAL/MOL
REMARK 923 INTER-LIGAND FREE ENERGY PREDICTED BY IDOCK:   -1.14 KCAL/MOL
REMARK 924 INTRA-LIGAND FREE ENERGY PREDICTED BY IDOCK:   -0.65 KCAL/MOL
REMARK 927      BINDING AFFINITY PREDICTED BY RF-SCORE:    0.00 PKD
ROOT
HETATM    1  C   UNL     1      -7.571  14.699  70.296  1.00  0.00     0.609 C  
HETATM    2  C   UNL     1      -6.326  13.815  70.481  1.00  0.00     0.028 C  
HETATM    3  C   UNL     1      -5.950  13.824  71.976  1.00  0.00     0.336 C  
HETATM    4  C   UNL     1      -5.145  14.398  69.686  1.00  0.00    -0.091 C  
HETATM    5  N   UNL     1      -6.565  12.407  70.116  1.00  0.00    -0.398 NA 
HETATM    6  H   UNL     1      -7.229  11.985  70.766  1.00  0.00     0.000 HD 
ENDROOT
BRANCH   5   7
HETATM    7  C   UNL     1      -7.000  12.177  68.738  1.00  0.00    -0.101 C  
BRANCH   7   8
HETATM    8  C   UNL     1      -7.112  10.690  68.347  1.00  0.00    -0.078 C  
HETATM    9  O   UNL     1      -5.886  10.341  67.672  1.00  0.00    -0.045 OA 
HETATM   10  H   UNL     1      -5.955   9.426  67.431  1.00  0.00     0.000 HD 
BRANCH   8  11
HETATM   11  C   UNL     1      -8.282  10.374  67.409  1.00  0.00    -0.117 C  
BRANCH  11  12
HETATM   12  O   UNL     1      -8.424   8.983  67.099  1.00  0.00    -0.113 OA 
BRANCH  12  13
HETATM   13  C   UNL     1      -8.326   8.663  65.760  1.00  0.00    -0.144 A  
HETATM   14  C   UNL     1      -8.515   9.610  64.735  1.00  0.00    -0.168 A  
HETATM   15  C   UNL     1      -8.473   9.242  63.393  1.00  0.00    -0.204 A  
HETATM   16  C   UNL     1      -8.231   7.923  63.054  1.00  0.00    -0.050 A  
HETATM   17  C   UNL     1      -8.015   6.976  64.057  1.00  0.00    -0.075 A  
HETATM   18  C   UNL     1      -8.044   7.319  65.426  1.00  0.00    -0.133 A  
BRANCH  18  19
HETATM   19  C   UNL     1      -7.850   6.250  66.492  1.00  0.00    -0.104 C  
HETATM   20  C   UNL     1      -8.517   4.885  66.247  1.00  0.00    -0.111 C  
HETATM   21  C   UNL     1      -7.872   3.991  67.290  1.00  0.00    -0.091 C  
HETATM   22  C   UNL     1      -6.405   4.389  67.221  1.00  0.00    -0.041 C  
HETATM   23  C   UNL     1      -6.385   5.860  66.777  1.00  0.00    -0.045 C  
ENDBRANCH  18  19
ENDBRANCH  12  13
ENDBRANCH  11  12
ENDBRANCH   8  11
ENDBRANCH   7   8
ENDBRANCH   5   7
TORSDOF 6
ENDMDL
MODEL      299
REMARK 921   NORMALIZED FREE ENERGY PREDICTED BY IDOCK:    0.09 KCAL/MOL
REMARK 922        TOTAL FREE ENERGY PREDICTED BY IDOCK:   -0.92 KCAL/MOL
REMARK 923 INTER-LIGAND FREE ENERGY PREDICTED BY IDOCK:   -3.23 KCAL/MOL
REMARK 924 INTRA-LIGAND FREE ENERGY PREDICTED BY IDOCK:    2.32 KCAL/MOL
REMARK 927      BINDING AFFINITY PREDICTED BY RF-SCORE:    0.00 PKD
ROOT
HETATM    1  C   UNL     1      -8.738  11.501  69.083  1.00  0.00     0.255 C  
HETATM    2  C   UNL     1      -8.345  10.069  69.485  1.00  0.00    -0.172 C  
HETATM    3  C   UNL     1      -6.958  10.123  70.155  1.00  0.00    -0.157 C  
HETATM    4  C   UNL     1      -8.238   9.183  68.231  1.00  0.00    -0.116 C  
HETATM    5  N   UNL     1      -9.266   9.478  70.472  1.00  0.00    -0.261 NA 
HETATM    6  H   UNL     1      -9.197   9.979  71.358  1.00  0.00     0.000 HD 
ENDROOT
BRANCH   5   7
HETATM    7  C   UNL     1     -10.666   9.392  70.056  1.00  0.00    -0.239 C  
BRANCH   7   8
HETATM    8  C   UNL     1     -11.203  10.663  69.367  1.00  0.00    -0.270 C  
HETATM    9  O   UNL     1     -12.559  10.846  69.824  1.00  0.00    -0.367 OA 
HETATM   10  H   UNL     1     -12.889  11.628  69.400  1.00  0.00     0.000 HD 
BRANCH   8  11
HETATM   11  C   UNL     1     -11.220  10.587  67.836  1.00  0.00    -0.289 C  
BRANCH  11  12
HETATM   12  O   UNL     1     -10.965  11.837  67.186  1.00  0.00    -0.246 OA 
BRANCH  12  13
HETATM   13  C   UNL     1     -11.457  11.945  65.900  1.00  0.00    -0.278 A  
HETATM   14  C   UNL     1     -12.551  12.766  65.569  1.00  0.00    -0.292 A  
HETATM   15  C   UNL     1     -13.063  12.802  64.275  1.00  0.00     0.034 A  
HETATM   16  C   UNL     1     -12.482  12.027  63.288  1.00  0.00    -0.544 A  
HETATM   17  C   UNL     1     -11.379  11.227  63.593  1.00  0.00    -0.134 A  
HETATM   18  C   UNL     1     -10.832  11.174  64.894  1.00  0.00    -0.261 A  
BRANCH  18  19
HETATM   19  C   UNL     1      -9.657  10.255  65.198  1.00  0.00    -0.337 C  
HETATM   20  C   UNL     1      -9.935   8.741  65.212  1.00  0.00     0.864 C  
HETATM   21  C   UNL     1      -8.545   8.133  65.215  1.00  0.00    -0.132 C  
HETATM   22  C   UNL     1      -7.800   8.981  64.194  1.00  0.00    -0.132 C  
HETATM   23  C   UNL     1      -8.463  10.366  64.229  1.00  0.00    -0.159 C  
ENDBRANCH  18  19
ENDBRANCH  12  13
ENDBRANCH  11  12
ENDBRANCH   8  11
ENDBRANCH   7   8
ENDBRANCH   5   7
TORSDOF 6
ENDMDL
MODEL      300
REMARK 921   NORMALIZED FREE ENERGY PREDICTED BY IDOCK:    0.17 KCAL/MOL
REMARK 922        TOTAL FREE ENERGY PREDICTED BY IDOCK:   -0.79 KCAL/MOL
REMARK 923 INTER-LIGAND FREE ENERGY PREDICTED BY IDOCK:   -1.76 KCAL/MOL
REMARK 924 INTRA-LIGAND FREE ENERGY PREDICTED BY IDOCK:    0.96 KCAL/MOL
REMARK 927      BINDING AFFINITY PREDICTED BY RF-SCORE:    0.00 PKD
ROOT
HETATM    1  C   UNL     1      -9.326  15.815  65.292  1.00  0.00     0.418 C  
HETATM    2  C   UNL     1     -10.861  15.915  65.264  1.00  0.00    -0.387 C  
HETATM    3  C   UNL     1     -11.438  14.565  65.735  1.00  0.00    -0.342 C  
HETATM    4  C   UNL     1     -11.344  16.167  63.825  1.00  0.00     1.095 C  
HETATM    5  N   UNL     1     -11.384  16.941  66.185  1.00  0.00     0.600 NA 
HETATM    6  H   UNL     1     -11.202  16.668  67.151  1.00  0.00     0.000 HD 
ENDROOT
BRANCH   5   7
HETATM    7  C   UNL     1     -10.904  18.302  65.951  1.00  0.00     0.019 C  
BRANCH   7   8
HETATM    8  C   UNL     1     -10.628  19.108  67.237  1.00  0.00    -0.478 C  
HETATM    9  O   UNL     1     -10.008  20.345  66.831  1.00  0.00    -0.450 OA 
HETATM   10  H   UNL     1      -9.838  20.840  67.622  1.00  0.00     0.000 HD 
BRANCH   8  11
HETATM   11  C   UNL     1      -9.693  18.406  68.228  1.00  0.00    -0.344 C  
BRANCH  11  12
HETATM   12  O   UNL     1      -8.761  17.506  67.617  1.00  0.00    -0.220 OA 
BRANCH  12  13
HETATM   13  C   UNL     1      -8.180  16.589  68.470  1.00  0.00    -0.212 A  
HETATM   14  C   UNL     1      -8.806  15.380  68.829  1.00  0.00    -0.196 A  
HETATM   15  C   UNL     1      -8.223  14.506  69.742  1.00  0.00     0.438 A  
HETATM   16  C   UNL     1      -6.998  14.821  70.302  1.00  0.00     0.090 A  
HETATM   17  C   UNL     1      -6.350  16.003  69.937  1.00  0.00    -0.134 A  
HETATM   18  C   UNL     1      -6.913  16.907  69.009  1.00  0.00    -0.224 A  
BRANCH  18  19
HETATM   19  C   UNL     1      -6.199  18.207  68.670  1.00  0.00    -0.204 C  
HETATM   20  C   UNL     1      -6.992  19.256  67.870  1.00  0.00    -0.265 C  
HETATM   21  C   UNL     1      -6.137  20.504  67.991  1.00  0.00    -0.313 C  
HETATM   22  C   UNL     1      -5.727  20.496  69.456  1.00  0.00    -0.395 C  
HETATM   23  C   UNL     1      -5.696  19.020  69.880  1.00  0.00    -0.255 C  
ENDBRANCH  18  19
ENDBRANCH  12  13
ENDBRANCH  11  12
ENDBRANCH   8  11
ENDBRANCH   7   8
ENDBRANCH   5   7
TORSDOF 6
ENDMDL
MODEL      301
REMARK 921   NORMALIZED FREE ENERGY PREDICTED BY IDOCK:    2.36 KCAL/MOL
REMARK 922        TOTAL FREE ENERGY PREDICTED BY IDOCK:    2.16 KCAL/MOL
REMARK 923 INTER-LIGAND FREE ENERGY PREDICTED BY IDOCK:    2.87 KCAL/MOL
REMARK 924 INTRA-LIGAND FREE ENERGY PREDICTED BY IDOCK:   -0.71 KCAL/MOL
REMARK 927      BINDING AFFINITY PREDICTED BY RF-SCORE:    0.00 PKD
ROOT
HETATM    1  C   UNL     1      -7.781  16.575  67.913  1.00  0.00    -0.162 C  
HETATM    2  C   UNL     1      -7.080  15.329  68.482  1.00  0.00    -0.110 C  
HETATM    3  C   UNL     1      -5.978  15.800  69.451  1.00  0.00    -0.129 C  
HETATM    4  C   UNL     1      -6.413  14.536  67.344  1.00  0.00     0.074 C  
HETATM    5  N   UNL     1      -7.988  14.469  69.263  1.00  0.00    -0.338 NA 
HETATM    6  H   UNL     1      -8.288  14.955  70.108  1.00  0.00     0.000 HD 
ENDROOT
BRANCH   5   7
HETATM    7  C   UNL     1      -9.153  13.961  68.539  1.00  0.00    -0.143 C  
BRANCH   7   8
HETATM    8  C   UNL     1      -9.706  12.628  69.083  1.00  0.00     0.520 C  
HETATM    9  O   UNL     1      -9.747  12.746  70.520  1.00  0.00     3.778 OA 
HETATM   10  H   UNL     1     -10.087  11.925  70.854  1.00  0.00     0.000 HD 
BRANCH   8  11
HETATM   11  C   UNL     1      -8.854  11.404  68.728  1.00  0.00    -0.072 C  
BRANCH  11  12
HETATM   12  O   UNL     1      -8.932  10.340  69.683  1.00  0.00    -0.190 OA 
BRANCH  12  13
HETATM   13  C   UNL     1      -9.515   9.175  69.224  1.00  0.00    -0.158 A  
HETATM   14  C   UNL     1     -10.747   9.157  68.543  1.00  0.00    -0.160 A  
HETATM   15  C   UNL     1     -11.340   7.961  68.150  1.00  0.00     0.771 A  
HETATM   16  C   UNL     1     -10.704   6.763  68.421  1.00  0.00    -0.284 A  
HETATM   17  C   UNL     1      -9.469   6.763  69.072  1.00  0.00    -0.133 A  
HETATM   18  C   UNL     1      -8.839   7.960  69.477  1.00  0.00    -0.142 A  
BRANCH  18  19
HETATM   19  C   UNL     1      -7.514   7.918  70.224  1.00  0.00    -0.077 C  
HETATM   20  C   UNL     1      -7.499   7.202  71.586  1.00  0.00    -0.086 C  
HETATM   21  C   UNL     1      -6.018   7.059  71.886  1.00  0.00    -0.037 C  
HETATM   22  C   UNL     1      -5.439   6.627  70.548  1.00  0.00    -0.022 C  
HETATM   23  C   UNL     1      -6.353   7.234  69.474  1.00  0.00    -0.035 C  
ENDBRANCH  18  19
ENDBRANCH  12  13
ENDBRANCH  11  12
ENDBRANCH   8  11
ENDBRANCH   7   8
ENDBRANCH   5   7
TORSDOF 6
ENDMDL
MODEL      302
REMARK 921   NORMALIZED FREE ENERGY PREDICTED BY IDOCK:    7.12 KCAL/MOL
REMARK 922        TOTAL FREE ENERGY PREDICTED BY IDOCK:    8.58 KCAL/MOL
REMARK 923 INTER-LIGAND FREE ENERGY PREDICTED BY IDOCK:   -1.13 KCAL/MOL
REMARK 924 INTRA-LIGAND FREE ENERGY PREDICTED BY IDOCK:    9.71 KCAL/MOL
REMARK 927      BINDING AFFINITY PREDICTED BY RF-SCORE:    0.00 PKD
ROOT
HETATM    1  C   UNL     1      -5.328   7.816  69.821  1.00  0.00    -0.023 C  
HETATM    2  C   UNL     1      -6.709   8.368  70.214  1.00  0.00    -0.036 C  
HETATM    3  C   UNL     1      -6.541   9.853  70.592  1.00  0.00    -0.104 C  
HETATM    4  C   UNL     1      -7.243   7.617  71.447  1.00  0.00    -0.066 C  
HETATM    5  N   UNL     1      -7.680   8.322  69.107  1.00  0.00    -0.095 NA 
HETATM    6  H   UNL     1      -7.395   8.961  68.365  1.00  0.00     0.000 HD 
ENDROOT
BRANCH   5   7
HETATM    7  C   UNL     1      -7.940   6.995  68.549  1.00  0.00    -0.123 C  
BRANCH   7   8
HETATM    8  C   UNL     1      -8.532   5.988  69.556  1.00  0.00    -0.119 C  
HETATM    9  O   UNL     1      -7.552   4.945  69.732  1.00  0.00    -0.055 OA 
HETATM   10  H   UNL     1      -7.917   4.325  70.352  1.00  0.00     0.000 HD 
BRANCH   8  11
HETATM   11  C   UNL     1      -9.844   5.340  69.097  1.00  0.00    -0.187 C  
BRANCH  11  12
HETATM   12  O   UNL     1      -9.930   5.133  67.683  1.00  0.00    -0.152 OA 
BRANCH  12  13
HETATM   13  C   UNL     1      -9.255   6.056  66.908  1.00  0.00    -0.126 A  
HETATM   14  C   UNL     1      -9.176   7.420  67.245  1.00  0.00    -0.150 A  
HETATM   15  C   UNL     1      -8.544   8.337  66.411  1.00  0.00    -0.144 A  
HETATM   16  C   UNL     1      -7.969   7.902  65.230  1.00  0.00    -0.126 A  
HETATM   17  C   UNL     1      -8.014   6.547  64.893  1.00  0.00    -0.124 A  
HETATM   18  C   UNL     1      -8.642   5.592  65.722  1.00  0.00    -0.148 A  
BRANCH  18  19
HETATM   19  C   UNL     1      -8.711   4.132  65.300  1.00  0.00    -0.122 C  
HETATM   20  C   UNL     1      -7.756   3.152  66.004  1.00  0.00    -0.078 C  
HETATM   21  C   UNL     1      -8.297   1.792  65.604  1.00  0.00    -0.093 C  
HETATM   22  C   UNL     1      -9.801   1.967  65.749  1.00  0.00     0.697 C  
HETATM   23  C   UNL     1     -10.083   3.453  65.485  1.00  0.00     0.245 C  
ENDBRANCH  18  19
ENDBRANCH  12  13
ENDBRANCH  11  12
ENDBRANCH   8  11
ENDBRANCH   7   8
ENDBRANCH   5   7
TORSDOF 6
ENDMDL
MODEL      303
REMARK 921   NORMALIZED FREE ENERGY PREDICTED BY IDOCK:   12.14 KCAL/MOL
REMARK 922        TOTAL FREE ENERGY PREDICTED BY IDOCK:   15.36 KCAL/MOL
REMARK 923 INTER-LIGAND FREE ENERGY PREDICTED BY IDOCK:    5.31 KCAL/MOL
REMARK 924 INTRA-LIGAND FREE ENERGY PREDICTED BY IDOCK:   10.06 KCAL/MOL
REMARK 927      BINDING AFFINITY PREDICTED BY RF-SCORE:    0.00 PKD
ROOT
HETATM    1  C   UNL     1      -8.204  12.769  68.141  1.00  0.00    -0.167 C  
HETATM    2  C   UNL     1      -7.731  11.331  68.410  1.00  0.00    -0.125 C  
HETATM    3  C   UNL     1      -6.234  11.378  68.774  1.00  0.00    -0.050 C  
HETATM    4  C   UNL     1      -7.889  10.479  67.138  1.00  0.00    -0.112 C  
HETATM    5  N   UNL     1      -8.423  10.706  69.553  1.00  0.00    -0.375 NA 
HETATM    6  H   UNL     1      -8.169  11.183  70.418  1.00  0.00     0.000 HD 
ENDROOT
BRANCH   5   7
HETATM    7  C   UNL     1      -9.879  10.619  69.439  1.00  0.00    -0.139 C  
BRANCH   7   8
HETATM    8  C   UNL     1     -10.470  11.404  68.251  1.00  0.00    -0.198 C  
HETATM    9  O   UNL     1      -9.358  11.968  67.526  1.00  0.00    -0.172 OA 
HETATM   10  H   UNL     1      -9.723  12.452  66.795  1.00  0.00     0.000 HD 
BRANCH   8  11
HETATM   11  C   UNL     1     -11.407  12.547  68.658  1.00  0.00    -0.288 C  
BRANCH  11  12
HETATM   12  O   UNL     1     -12.391  12.876  67.671  1.00  0.00    -0.220 OA 
BRANCH  12  13
HETATM   13  C   UNL     1     -12.444  14.208  67.311  1.00  0.00     0.037 A  
HETATM   14  C   UNL     1     -12.554  14.631  65.972  1.00  0.00     0.034 A  
HETATM   15  C   UNL     1     -12.539  15.982  65.637  1.00  0.00     2.352 A  
HETATM   16  C   UNL     1     -12.426  16.933  66.636  1.00  0.00     4.287 A  
HETATM   17  C   UNL     1     -12.343  16.531  67.971  1.00  0.00     1.650 A  
HETATM   18  C   UNL     1     -12.362  15.169  68.343  1.00  0.00     0.201 A  
BRANCH  18  19
HETATM   19  C   UNL     1     -12.224  14.769  69.805  1.00  0.00    -0.337 C  
HETATM   20  C   UNL     1     -10.933  15.190  70.529  1.00  0.00    -0.267 C  
HETATM   21  C   UNL     1     -11.256  14.937  71.990  1.00  0.00     0.082 C  
HETATM   22  C   UNL     1     -12.673  15.474  72.124  1.00  0.00    -0.486 C  
HETATM   23  C   UNL     1     -13.324  15.305  70.744  1.00  0.00    -0.402 C  
ENDBRANCH  18  19
ENDBRANCH  12  13
ENDBRANCH  11  12
ENDBRANCH   8  11
ENDBRANCH   7   8
ENDBRANCH   5   7
TORSDOF 6
ENDMDL
MODEL      304
REMARK 921   NORMALIZED FREE ENERGY PREDICTED BY IDOCK:   32.63 KCAL/MOL
REMARK 922        TOTAL FREE ENERGY PREDICTED BY IDOCK:   43.05 KCAL/MOL
REMARK 923 INTER-LIGAND FREE ENERGY PREDICTED BY IDOCK:   38.26 KCAL/MOL
REMARK 924 INTRA-LIGAND FREE ENERGY PREDICTED BY IDOCK:    4.78 KCAL/MOL
REMARK 927      BINDING AFFINITY PREDICTED BY RF-SCORE:    0.00 PKD
ROOT
HETATM    1  C   UNL     1      -7.701  11.507  69.583  1.00  0.00     0.528 C  
HETATM    2  C   UNL     1      -9.214  11.430  69.850  1.00  0.00     1.660 C  
HETATM    3  C   UNL     1      -9.671   9.979  69.604  1.00  0.00    -0.255 C  
HETATM    4  C   UNL     1      -9.967  12.343  68.866  1.00  0.00     0.061 C  
HETATM    5  N   UNL     1      -9.567  11.752  71.244  1.00  0.00     7.939 NA 
HETATM    6  H   UNL     1      -9.200  11.036  71.871  1.00  0.00     0.000 HD 
ENDROOT
BRANCH   5   7
HETATM    7  C   UNL     1      -9.160  13.078  71.708  1.00  0.00    17.742 C  
BRANCH   7   8
HETATM    8  C   UNL     1     -10.210  14.183  71.473  1.00  0.00     4.380 C  
HETATM    9  O   UNL     1     -11.496  13.533  71.423  1.00  0.00     0.324 OA 
HETATM   10  H   UNL     1     -12.143  14.214  71.278  1.00  0.00     0.000 HD 
BRANCH   8  11
HETATM   11  C   UNL     1     -10.016  14.965  70.169  1.00  0.00     0.258 C  
BRANCH  11  12
HETATM   12  O   UNL     1     -11.140  14.912  69.283  1.00  0.00    -0.247 OA 
BRANCH  12  13
HETATM   13  C   UNL     1     -11.121  15.828  68.250  1.00  0.00    -0.342 A  
HETATM   14  C   UNL     1     -12.092  16.837  68.107  1.00  0.00     1.213 A  
HETATM   15  C   UNL     1     -12.081  17.703  67.019  1.00  0.00     3.333 A  
HETATM   16  C   UNL     1     -11.092  17.583  66.059  1.00  0.00     0.481 A  
HETATM   17  C   UNL     1     -10.105  16.605  66.198  1.00  0.00    -0.361 A  
HETATM   18  C   UNL     1     -10.085  15.716  67.295  1.00  0.00    -0.255 A  
BRANCH  18  19
HETATM   19  C   UNL     1      -9.019  14.633  67.389  1.00  0.00    -0.202 C  
HETATM   20  C   UNL     1      -7.941  14.613  66.290  1.00  0.00     1.236 C  
HETATM   21  C   UNL     1      -6.895  13.665  66.848  1.00  0.00     1.036 C  
HETATM   22  C   UNL     1      -6.797  14.086  68.307  1.00  0.00    -0.108 C  
HETATM   23  C   UNL     1      -8.179  14.643  68.682  1.00  0.00    -0.159 C  
ENDBRANCH  18  19
ENDBRANCH  12  13
ENDBRANCH  11  12
ENDBRANCH   8  11
ENDBRANCH   7   8
ENDBRANCH   5   7
TORSDOF 6
ENDMDL
