MODEL        1
REMARK 921   NORMALIZED FREE ENERGY PREDICTED BY IDOCK:   -7.79 KCAL/MOL
REMARK 922        TOTAL FREE ENERGY PREDICTED BY IDOCK:   -8.91 KCAL/MOL
REMARK 923 INTER-LIGAND FREE ENERGY PREDICTED BY IDOCK:   -8.70 KCAL/MOL
REMARK 924 INTRA-LIGAND FREE ENERGY PREDICTED BY IDOCK:   -0.20 KCAL/MOL
REMARK 927      BINDING AFFINITY PREDICTED BY RF-SCORE:    0.00 PKD
ROOT
HETATM    1  N   UNL     1     -12.553  11.498  62.951  1.00  0.00    -0.874 NA 
HETATM    2  H1  UNL     1     -12.539  10.533  63.282  1.00  0.00     0.000 HD 
HETATM    3  C   UNL     1     -12.353  12.519  63.819  1.00  0.00    -0.502 C  
HETATM    4  H2  UNL     1     -12.719  11.695  61.964  1.00  0.00     0.000 HD 
HETATM    5  N   UNL     1     -12.371  13.750  63.398  1.00  0.00    -1.100 N  
HETATM    6  H   UNL     1     -12.553  13.950  62.414  1.00  0.00     0.000 HD 
HETATM    7  C   UNL     1     -12.142  14.802  64.296  1.00  0.00    -0.394 C  
HETATM    8  C   UNL     1     -11.841  14.395  65.671  1.00  0.00    -0.355 A  
HETATM    9  O   UNL     1     -12.188  15.978  63.954  1.00  0.00    -0.883 OA 
HETATM   10  C   UNL     1     -11.854  13.064  66.005  1.00  0.00    -0.417 A  
HETATM   11  N   UNL     1     -12.127  12.107  65.110  1.00  0.00    -0.420 NA 
HETATM   12  N   UNL     1     -11.549  12.979  67.326  1.00  0.00    -0.335 NA 
HETATM   13  N   UNL     1     -11.524  15.150  66.781  1.00  0.00    -0.258 NA 
HETATM   14  C   UNL     1     -11.328  14.270  67.745  1.00  0.00    -0.307 A  
ENDROOT
BRANCH  12  15
HETATM   15  C   UNL     1     -11.437  11.799  68.157  1.00  0.00    -0.316 C  
BRANCH  15  16
HETATM   16  C   UNL     1     -11.906  11.994  69.602  1.00  0.00    -0.401 C  
HETATM   17  C   UNL     1     -12.445  10.748  70.345  1.00  0.00    -0.430 C  
HETATM   18  C   UNL     1     -11.396   9.639  70.522  1.00  0.00    -0.296 C  
HETATM   19  C   UNL     1     -12.975  11.187  71.720  1.00  0.00    -0.421 C  
HETATM   20  O   UNL     1     -10.984   9.113  69.265  1.00  0.00    -0.382 OA 
HETATM   21  O   UNL     1     -13.512  10.083  72.435  1.00  0.00    -0.616 OA 
HETATM   22  H   UNL     1     -10.336   8.427  69.373  1.00  0.00     0.000 HD 
HETATM   23  H   UNL     1     -13.840  10.355  73.285  1.00  0.00     0.000 HD 
ENDBRANCH  15  16
ENDBRANCH  12  15
TORSDOF 2
ENDMDL
MODEL        2
REMARK 921   NORMALIZED FREE ENERGY PREDICTED BY IDOCK:   -7.66 KCAL/MOL
REMARK 922        TOTAL FREE ENERGY PREDICTED BY IDOCK:   -8.76 KCAL/MOL
REMARK 923 INTER-LIGAND FREE ENERGY PREDICTED BY IDOCK:   -8.61 KCAL/MOL
REMARK 924 INTRA-LIGAND FREE ENERGY PREDICTED BY IDOCK:   -0.15 KCAL/MOL
REMARK 927      BINDING AFFINITY PREDICTED BY RF-SCORE:    0.00 PKD
ROOT
HETATM    1  N   UNL     1     -11.314  16.601  64.067  1.00  0.00    -1.530 NA 
HETATM    2  H1  UNL     1     -10.809  17.251  64.671  1.00  0.00     0.000 HD 
HETATM    3  C   UNL     1     -11.533  15.326  64.471  1.00  0.00    -0.315 C  
HETATM    4  H2  UNL     1     -11.655  16.912  63.158  1.00  0.00     0.000 HD 
HETATM    5  N   UNL     1     -12.178  14.497  63.702  1.00  0.00    -1.062 N  
HETATM    6  H   UNL     1     -12.506  14.802  62.785  1.00  0.00     0.000 HD 
HETATM    7  C   UNL     1     -12.421  13.186  64.133  1.00  0.00    -0.274 C  
HETATM    8  C   UNL     1     -11.951  12.875  65.485  1.00  0.00    -0.436 A  
HETATM    9  O   UNL     1     -12.989  12.359  63.429  1.00  0.00    -0.723 OA 
HETATM   10  C   UNL     1     -11.276  13.827  66.206  1.00  0.00    -0.306 A  
HETATM   11  N   UNL     1     -11.033  15.050  65.720  1.00  0.00    -0.342 NA 
HETATM   12  N   UNL     1     -10.959  13.273  67.405  1.00  0.00    -0.267 NA 
HETATM   13  N   UNL     1     -12.062  11.720  66.231  1.00  0.00    -0.312 NA 
HETATM   14  C   UNL     1     -11.484  12.002  67.383  1.00  0.00    -0.336 A  
ENDROOT
BRANCH  12  15
HETATM   15  C   UNL     1     -10.245  13.864  68.518  1.00  0.00    -0.240 C  
BRANCH  15  16
HETATM   16  C   UNL     1     -11.080  14.830  69.365  1.00  0.00    -0.302 C  
HETATM   17  C   UNL     1     -12.403  14.288  69.957  1.00  0.00    -0.403 C  
HETATM   18  C   UNL     1     -12.204  13.126  70.942  1.00  0.00    -0.241 C  
HETATM   19  C   UNL     1     -13.139  15.444  70.656  1.00  0.00    -0.354 C  
HETATM   20  O   UNL     1     -11.649  11.987  70.293  1.00  0.00    -0.509 OA 
HETATM   21  O   UNL     1     -14.380  15.007  71.192  1.00  0.00    -0.654 OA 
HETATM   22  H   UNL     1     -11.525  11.269  70.902  1.00  0.00     0.000 HD 
HETATM   23  H   UNL     1     -14.834  15.721  71.624  1.00  0.00     0.000 HD 
ENDBRANCH  15  16
ENDBRANCH  12  15
TORSDOF 2
ENDMDL
MODEL        3
REMARK 921   NORMALIZED FREE ENERGY PREDICTED BY IDOCK:   -7.53 KCAL/MOL
REMARK 922        TOTAL FREE ENERGY PREDICTED BY IDOCK:   -8.62 KCAL/MOL
REMARK 923 INTER-LIGAND FREE ENERGY PREDICTED BY IDOCK:   -8.00 KCAL/MOL
REMARK 924 INTRA-LIGAND FREE ENERGY PREDICTED BY IDOCK:   -0.61 KCAL/MOL
REMARK 927      BINDING AFFINITY PREDICTED BY RF-SCORE:    0.00 PKD
ROOT
HETATM    1  N   UNL     1     -11.654  16.452  63.836  1.00  0.00    -1.602 NA 
HETATM    2  H1  UNL     1     -11.170  17.147  64.404  1.00  0.00     0.000 HD 
HETATM    3  C   UNL     1     -11.697  15.157  64.233  1.00  0.00    -0.224 C  
HETATM    4  H2  UNL     1     -12.109  16.733  62.967  1.00  0.00     0.000 HD 
HETATM    5  N   UNL     1     -12.315  14.270  63.509  1.00  0.00    -1.122 N  
HETATM    6  H   UNL     1     -12.756  14.545  62.631  1.00  0.00     0.000 HD 
HETATM    7  C   UNL     1     -12.375  12.935  63.935  1.00  0.00    -0.396 C  
HETATM    8  C   UNL     1     -11.753  12.665  65.234  1.00  0.00    -0.378 A  
HETATM    9  O   UNL     1     -12.912  12.058  63.269  1.00  0.00    -0.736 OA 
HETATM   10  C   UNL     1     -11.122  13.679  65.909  1.00  0.00    -0.284 A  
HETATM   11  N   UNL     1     -11.059  14.926  65.427  1.00  0.00    -0.348 NA 
HETATM   12  N   UNL     1     -10.639  13.152  67.064  1.00  0.00    -0.257 NA 
HETATM   13  N   UNL     1     -11.670  11.498  65.964  1.00  0.00    -0.251 NA 
HETATM   14  C   UNL     1     -11.024  11.831  67.065  1.00  0.00    -0.285 A  
ENDROOT
BRANCH  12  15
HETATM   15  C   UNL     1      -9.896  13.807  68.120  1.00  0.00    -0.239 C  
BRANCH  15  16
HETATM   16  C   UNL     1     -10.661  13.950  69.440  1.00  0.00    -0.051 C  
HETATM   17  C   UNL     1     -10.907  15.385  69.963  1.00  0.00    -0.320 C  
HETATM   18  C   UNL     1     -11.773  16.240  69.024  1.00  0.00    -0.165 C  
HETATM   19  C   UNL     1     -11.571  15.297  71.347  1.00  0.00    -0.391 C  
HETATM   20  O   UNL     1     -11.123  16.457  67.776  1.00  0.00    -0.297 OA 
HETATM   21  O   UNL     1     -11.792  16.591  71.890  1.00  0.00    -0.658 OA 
HETATM   22  H   UNL     1     -11.657  16.985  67.196  1.00  0.00     0.000 HD 
HETATM   23  H   UNL     1     -12.201  16.536  72.745  1.00  0.00     0.000 HD 
ENDBRANCH  15  16
ENDBRANCH  12  15
TORSDOF 2
ENDMDL
MODEL        4
REMARK 921   NORMALIZED FREE ENERGY PREDICTED BY IDOCK:   -7.43 KCAL/MOL
REMARK 922        TOTAL FREE ENERGY PREDICTED BY IDOCK:   -8.50 KCAL/MOL
REMARK 923 INTER-LIGAND FREE ENERGY PREDICTED BY IDOCK:   -8.30 KCAL/MOL
REMARK 924 INTRA-LIGAND FREE ENERGY PREDICTED BY IDOCK:   -0.21 KCAL/MOL
REMARK 927      BINDING AFFINITY PREDICTED BY RF-SCORE:    0.00 PKD
ROOT
HETATM    1  N   UNL     1     -11.588  16.256  63.972  1.00  0.00    -1.504 NA 
HETATM    2  H1  UNL     1     -11.510  17.080  64.568  1.00  0.00     0.000 HD 
HETATM    3  C   UNL     1     -11.609  15.017  64.520  1.00  0.00    -0.343 C  
HETATM    4  H2  UNL     1     -11.650  16.365  62.959  1.00  0.00     0.000 HD 
HETATM    5  N   UNL     1     -11.708  13.966  63.760  1.00  0.00    -0.660 N  
HETATM    6  H   UNL     1     -11.754  14.072  62.746  1.00  0.00     0.000 HD 
HETATM    7  C   UNL     1     -11.751  12.687  64.334  1.00  0.00    -0.369 C  
HETATM    8  C   UNL     1     -11.730  12.658  65.799  1.00  0.00    -0.419 A  
HETATM    9  O   UNL     1     -11.804  11.666  63.658  1.00  0.00    -0.420 OA 
HETATM   10  C   UNL     1     -11.618  13.832  66.500  1.00  0.00    -0.365 A  
HETATM   11  N   UNL     1     -11.534  15.021  65.892  1.00  0.00    -0.281 NA 
HETATM   12  N   UNL     1     -11.619  13.512  67.820  1.00  0.00    -0.318 NA 
HETATM   13  N   UNL     1     -11.806  11.597  66.677  1.00  0.00    -0.482 NA 
HETATM   14  C   UNL     1     -11.765  12.145  67.876  1.00  0.00    -0.336 A  
ENDROOT
BRANCH  12  15
HETATM   15  C   UNL     1     -11.521  14.390  68.967  1.00  0.00    -0.283 C  
BRANCH  15  16
HETATM   16  C   UNL     1     -12.468  14.037  70.119  1.00  0.00    -0.380 C  
HETATM   17  C   UNL     1     -12.174  14.678  71.497  1.00  0.00    -0.416 C  
HETATM   18  C   UNL     1     -12.271  16.211  71.493  1.00  0.00    -0.306 C  
HETATM   19  C   UNL     1     -13.156  14.096  72.528  1.00  0.00    -0.463 C  
HETATM   20  O   UNL     1     -11.280  16.789  70.650  1.00  0.00    -0.460 OA 
HETATM   21  O   UNL     1     -12.910  14.628  73.822  1.00  0.00    -0.492 OA 
HETATM   22  H   UNL     1     -11.340  17.737  70.648  1.00  0.00     0.000 HD 
HETATM   23  H   UNL     1     -13.516  14.268  74.459  1.00  0.00     0.000 HD 
ENDBRANCH  15  16
ENDBRANCH  12  15
TORSDOF 2
ENDMDL
MODEL        5
REMARK 921   NORMALIZED FREE ENERGY PREDICTED BY IDOCK:   -7.37 KCAL/MOL
REMARK 922        TOTAL FREE ENERGY PREDICTED BY IDOCK:   -8.44 KCAL/MOL
REMARK 923 INTER-LIGAND FREE ENERGY PREDICTED BY IDOCK:   -8.00 KCAL/MOL
REMARK 924 INTRA-LIGAND FREE ENERGY PREDICTED BY IDOCK:   -0.44 KCAL/MOL
REMARK 927      BINDING AFFINITY PREDICTED BY RF-SCORE:    0.00 PKD
ROOT
HETATM    1  N   UNL     1     -11.354  16.210  64.182  1.00  0.00    -1.238 NA 
HETATM    2  H1  UNL     1     -11.304  17.173  64.515  1.00  0.00     0.000 HD 
HETATM    3  C   UNL     1     -11.440  15.185  65.065  1.00  0.00    -0.339 C  
HETATM    4  H2  UNL     1     -11.340  16.018  63.180  1.00  0.00     0.000 HD 
HETATM    5  N   UNL     1     -11.504  13.958  64.639  1.00  0.00    -0.362 N  
HETATM    6  H   UNL     1     -11.474  13.762  63.638  1.00  0.00     0.000 HD 
HETATM    7  C   UNL     1     -11.615  12.903  65.557  1.00  0.00    -0.358 C  
HETATM    8  C   UNL     1     -11.702  13.304  66.963  1.00  0.00    -0.389 A  
HETATM    9  O   UNL     1     -11.640  11.729  65.206  1.00  0.00    -0.250 OA 
HETATM   10  C   UNL     1     -11.618  14.632  67.298  1.00  0.00    -0.387 A  
HETATM   11  N   UNL     1     -11.465  15.591  66.377  1.00  0.00    -0.013 NA 
HETATM   12  N   UNL     1     -11.722  14.712  68.650  1.00  0.00    -0.322 NA 
HETATM   13  N   UNL     1     -11.863  12.546  68.104  1.00  0.00    -0.341 NA 
HETATM   14  C   UNL     1     -11.899  13.422  69.091  1.00  0.00    -0.336 A  
ENDROOT
BRANCH  12  15
HETATM   15  C   UNL     1     -11.690  15.888  69.494  1.00  0.00    -0.326 C  
BRANCH  15  16
HETATM   16  C   UNL     1     -11.329  15.608  70.956  1.00  0.00    -0.426 C  
HETATM   17  C   UNL     1     -12.411  15.911  72.022  1.00  0.00    -0.550 C  
HETATM   18  C   UNL     1     -13.682  15.064  71.863  1.00  0.00    -0.447 C  
HETATM   19  C   UNL     1     -11.804  15.684  73.416  1.00  0.00    -0.349 C  
HETATM   20  O   UNL     1     -14.346  15.352  70.637  1.00  0.00    -0.738 OA 
HETATM   21  O   UNL     1     -12.747  15.979  74.436  1.00  0.00    -0.830 OA 
HETATM   22  H   UNL     1     -15.132  14.829  70.538  1.00  0.00     0.000 HD 
HETATM   23  H   UNL     1     -12.372  15.838  75.298  1.00  0.00     0.000 HD 
ENDBRANCH  15  16
ENDBRANCH  12  15
TORSDOF 2
ENDMDL
MODEL        6
REMARK 921   NORMALIZED FREE ENERGY PREDICTED BY IDOCK:   -7.32 KCAL/MOL
REMARK 922        TOTAL FREE ENERGY PREDICTED BY IDOCK:   -8.38 KCAL/MOL
REMARK 923 INTER-LIGAND FREE ENERGY PREDICTED BY IDOCK:   -8.19 KCAL/MOL
REMARK 924 INTRA-LIGAND FREE ENERGY PREDICTED BY IDOCK:   -0.20 KCAL/MOL
REMARK 927      BINDING AFFINITY PREDICTED BY RF-SCORE:    0.00 PKD
ROOT
HETATM    1  N   UNL     1     -11.458  16.492  63.857  1.00  0.00    -1.599 NA 
HETATM    2  H1  UNL     1     -10.881  17.215  64.287  1.00  0.00     0.000 HD 
HETATM    3  C   UNL     1     -11.646  15.306  64.486  1.00  0.00    -0.312 C  
HETATM    4  H2  UNL     1     -11.895  16.662  62.951  1.00  0.00     0.000 HD 
HETATM    5  N   UNL     1     -12.382  14.384  63.938  1.00  0.00    -1.023 N  
HETATM    6  H   UNL     1     -12.807  14.545  63.025  1.00  0.00     0.000 HD 
HETATM    7  C   UNL     1     -12.591  13.167  64.603  1.00  0.00    -0.322 C  
HETATM    8  C   UNL     1     -11.976  13.066  65.929  1.00  0.00    -0.435 A  
HETATM    9  O   UNL     1     -13.244  12.254  64.110  1.00  0.00    -0.745 OA 
HETATM   10  C   UNL     1     -11.214  14.102  66.406  1.00  0.00    -0.328 A  
HETATM   11  N   UNL     1     -11.013  15.222  65.703  1.00  0.00    -0.343 NA 
HETATM   12  N   UNL     1     -10.772  13.739  67.638  1.00  0.00    -0.248 NA 
HETATM   13  N   UNL     1     -12.018  12.050  66.862  1.00  0.00    -0.609 NA 
HETATM   14  C   UNL     1     -11.311  12.498  67.883  1.00  0.00    -0.291 A  
ENDROOT
BRANCH  12  15
HETATM   15  C   UNL     1      -9.932  14.482  68.555  1.00  0.00    -0.238 C  
BRANCH  15  16
HETATM   16  C   UNL     1     -10.347  15.943  68.753  1.00  0.00    -0.228 C  
HETATM   17  C   UNL     1      -9.286  17.027  68.444  1.00  0.00    -0.266 C  
HETATM   18  C   UNL     1      -8.836  17.043  66.974  1.00  0.00    -0.224 C  
HETATM   19  C   UNL     1      -9.861  18.401  68.827  1.00  0.00    -0.361 C  
HETATM   20  O   UNL     1      -8.174  15.832  66.624  1.00  0.00    -0.251 OA 
HETATM   21  O   UNL     1      -8.914  19.433  68.592  1.00  0.00    -0.365 OA 
HETATM   22  H   UNL     1      -7.896  15.842  65.716  1.00  0.00     0.000 HD 
HETATM   23  H   UNL     1      -9.270  20.282  68.830  1.00  0.00     0.000 HD 
ENDBRANCH  15  16
ENDBRANCH  12  15
TORSDOF 2
ENDMDL
MODEL        7
REMARK 921   NORMALIZED FREE ENERGY PREDICTED BY IDOCK:   -7.31 KCAL/MOL
REMARK 922        TOTAL FREE ENERGY PREDICTED BY IDOCK:   -8.37 KCAL/MOL
REMARK 923 INTER-LIGAND FREE ENERGY PREDICTED BY IDOCK:   -7.74 KCAL/MOL
REMARK 924 INTRA-LIGAND FREE ENERGY PREDICTED BY IDOCK:   -0.63 KCAL/MOL
REMARK 927      BINDING AFFINITY PREDICTED BY RF-SCORE:    0.00 PKD
ROOT
HETATM    1  N   UNL     1     -12.202   9.918  70.395  1.00  0.00    -0.462 NA 
HETATM    2  H1  UNL     1     -11.626   9.619  69.608  1.00  0.00     0.000 HD 
HETATM    3  C   UNL     1     -12.404  11.237  70.631  1.00  0.00    -0.383 C  
HETATM    4  H2  UNL     1     -12.628   9.220  71.007  1.00  0.00     0.000 HD 
HETATM    5  N   UNL     1     -13.138  11.618  71.635  1.00  0.00    -0.424 N  
HETATM    6  H   UNL     1     -13.552  10.923  72.257  1.00  0.00     0.000 HD 
HETATM    7  C   UNL     1     -13.362  12.983  71.862  1.00  0.00    -0.446 C  
HETATM    8  C   UNL     1     -12.762  13.886  70.876  1.00  0.00    -0.340 A  
HETATM    9  O   UNL     1     -14.014  13.391  72.816  1.00  0.00    -0.724 OA 
HETATM   10  C   UNL     1     -12.000  13.373  69.858  1.00  0.00    -0.338 A  
HETATM   11  N   UNL     1     -11.785  12.059  69.721  1.00  0.00    -0.323 NA 
HETATM   12  N   UNL     1     -11.573  14.422  69.108  1.00  0.00    -0.287 NA 
HETATM   13  N   UNL     1     -12.819  15.260  70.767  1.00  0.00    -0.422 NA 
HETATM   14  C   UNL     1     -12.122  15.544  69.683  1.00  0.00    -0.328 A  
ENDROOT
BRANCH  12  15
HETATM   15  C   UNL     1     -10.739  14.411  67.924  1.00  0.00    -0.244 C  
BRANCH  15  16
HETATM   16  C   UNL     1     -11.426  14.939  66.661  1.00  0.00    -0.297 C  
HETATM   17  C   UNL     1     -11.547  13.966  65.463  1.00  0.00    -0.332 C  
HETATM   18  C   UNL     1     -12.398  12.723  65.767  1.00  0.00    -0.323 C  
HETATM   19  C   UNL     1     -12.145  14.728  64.269  1.00  0.00    -0.394 C  
HETATM   20  O   UNL     1     -11.798  11.920  66.777  1.00  0.00    -0.598 OA 
HETATM   21  O   UNL     1     -12.249  13.887  63.129  1.00  0.00    -1.071 OA 
HETATM   22  H   UNL     1     -12.324  11.151  66.965  1.00  0.00     0.000 HD 
HETATM   23  H   UNL     1     -12.618  14.359  62.391  1.00  0.00     0.000 HD 
ENDBRANCH  15  16
ENDBRANCH  12  15
TORSDOF 2
ENDMDL
MODEL        8
REMARK 921   NORMALIZED FREE ENERGY PREDICTED BY IDOCK:   -7.26 KCAL/MOL
REMARK 922        TOTAL FREE ENERGY PREDICTED BY IDOCK:   -8.32 KCAL/MOL
REMARK 923 INTER-LIGAND FREE ENERGY PREDICTED BY IDOCK:   -7.68 KCAL/MOL
REMARK 924 INTRA-LIGAND FREE ENERGY PREDICTED BY IDOCK:   -0.63 KCAL/MOL
REMARK 927      BINDING AFFINITY PREDICTED BY RF-SCORE:    0.00 PKD
ROOT
HETATM    1  N   UNL     1     -11.760  16.342  63.745  1.00  0.00    -1.498 NA 
HETATM    2  H1  UNL     1     -11.388  17.129  64.277  1.00  0.00     0.000 HD 
HETATM    3  C   UNL     1     -11.837  15.113  64.310  1.00  0.00    -0.251 C  
HETATM    4  H2  UNL     1     -12.077  16.481  62.785  1.00  0.00     0.000 HD 
HETATM    5  N   UNL     1     -12.312  14.109  63.633  1.00  0.00    -1.092 N  
HETATM    6  H   UNL     1     -12.614  14.242  62.667  1.00  0.00     0.000 HD 
HETATM    7  C   UNL     1     -12.410  12.844  64.230  1.00  0.00    -0.385 C  
HETATM    8  C   UNL     1     -11.996  12.782  65.633  1.00  0.00    -0.452 A  
HETATM    9  O   UNL     1     -12.814  11.861  63.619  1.00  0.00    -0.646 OA 
HETATM   10  C   UNL     1     -11.504  13.905  66.248  1.00  0.00    -0.339 A  
HETATM   11  N   UNL     1     -11.392  15.076  65.610  1.00  0.00    -0.330 NA 
HETATM   12  N   UNL     1     -11.199  13.562  67.526  1.00  0.00    -0.274 NA 
HETATM   13  N   UNL     1     -12.005  11.730  66.526  1.00  0.00    -0.476 NA 
HETATM   14  C   UNL     1     -11.549  12.238  67.655  1.00  0.00    -0.354 A  
ENDROOT
BRANCH  12  15
HETATM   15  C   UNL     1     -10.648  14.388  68.581  1.00  0.00    -0.252 C  
BRANCH  15  16
HETATM   16  C   UNL     1      -9.120  14.495  68.568  1.00  0.00    -0.190 C  
HETATM   17  C   UNL     1      -8.487  15.448  67.525  1.00  0.00    -0.188 C  
HETATM   18  C   UNL     1      -8.887  16.919  67.717  1.00  0.00    -0.217 C  
HETATM   19  C   UNL     1      -6.957  15.310  67.598  1.00  0.00    -0.185 C  
HETATM   20  O   UNL     1     -10.284  17.105  67.519  1.00  0.00    -0.302 OA 
HETATM   21  O   UNL     1      -6.325  16.142  66.636  1.00  0.00    -0.255 OA 
HETATM   22  H   UNL     1     -10.532  18.014  67.637  1.00  0.00     0.000 HD 
HETATM   23  H   UNL     1      -5.379  16.056  66.681  1.00  0.00     0.000 HD 
ENDBRANCH  15  16
ENDBRANCH  12  15
TORSDOF 2
ENDMDL
MODEL        9
REMARK 921   NORMALIZED FREE ENERGY PREDICTED BY IDOCK:   -7.23 KCAL/MOL
REMARK 922        TOTAL FREE ENERGY PREDICTED BY IDOCK:   -8.28 KCAL/MOL
REMARK 923 INTER-LIGAND FREE ENERGY PREDICTED BY IDOCK:   -7.65 KCAL/MOL
REMARK 924 INTRA-LIGAND FREE ENERGY PREDICTED BY IDOCK:   -0.63 KCAL/MOL
REMARK 927      BINDING AFFINITY PREDICTED BY RF-SCORE:    0.00 PKD
ROOT
HETATM    1  N   UNL     1     -12.732  12.231  63.443  1.00  0.00    -0.789 NA 
HETATM    2  H1  UNL     1     -12.591  11.269  63.754  1.00  0.00     0.000 HD 
HETATM    3  C   UNL     1     -12.039  13.242  64.020  1.00  0.00    -0.447 C  
HETATM    4  H2  UNL     1     -13.398  12.432  62.696  1.00  0.00     0.000 HD 
HETATM    5  N   UNL     1     -12.218  14.468  63.625  1.00  0.00    -1.062 N  
HETATM    6  H   UNL     1     -12.895  14.673  62.889  1.00  0.00     0.000 HD 
HETATM    7  C   UNL     1     -11.482  15.509  64.210  1.00  0.00    -0.180 C  
HETATM    8  C   UNL     1     -10.504  15.092  65.217  1.00  0.00    -0.403 A  
HETATM    9  O   UNL     1     -11.644  16.683  63.898  1.00  0.00    -1.204 OA 
HETATM   10  C   UNL     1     -10.403  13.767  65.561  1.00  0.00    -0.321 A  
HETATM   11  N   UNL     1     -11.169  12.825  64.998  1.00  0.00    -0.291 NA 
HETATM   12  N   UNL     1      -9.434  13.671  66.508  1.00  0.00    -0.272 NA 
HETATM   13  N   UNL     1      -9.595  15.831  65.945  1.00  0.00    -0.340 NA 
HETATM   14  C   UNL     1      -8.953  14.947  66.685  1.00  0.00    -0.270 A  
ENDROOT
BRANCH  12  15
HETATM   15  C   UNL     1      -8.950  12.491  67.194  1.00  0.00    -0.200 C  
BRANCH  15  16
HETATM   16  C   UNL     1      -9.738  12.125  68.456  1.00  0.00    -0.153 C  
HETATM   17  C   UNL     1     -11.049  11.326  68.264  1.00  0.00    -0.297 C  
HETATM   18  C   UNL     1     -10.836   9.940  67.634  1.00  0.00    -0.257 C  
HETATM   19  C   UNL     1     -11.739  11.177  69.630  1.00  0.00    -0.339 C  
HETATM   20  O   UNL     1     -10.325  10.047  66.310  1.00  0.00    -0.223 OA 
HETATM   21  O   UNL     1     -12.968  10.475  69.506  1.00  0.00    -0.602 OA 
HETATM   22  H   UNL     1     -10.193   9.191  65.921  1.00  0.00     0.000 HD 
HETATM   23  H   UNL     1     -13.395  10.384  70.350  1.00  0.00     0.000 HD 
ENDBRANCH  15  16
ENDBRANCH  12  15
TORSDOF 2
ENDMDL
MODEL       10
REMARK 921   NORMALIZED FREE ENERGY PREDICTED BY IDOCK:   -7.22 KCAL/MOL
REMARK 922        TOTAL FREE ENERGY PREDICTED BY IDOCK:   -8.26 KCAL/MOL
REMARK 923 INTER-LIGAND FREE ENERGY PREDICTED BY IDOCK:   -7.62 KCAL/MOL
REMARK 924 INTRA-LIGAND FREE ENERGY PREDICTED BY IDOCK:   -0.64 KCAL/MOL
REMARK 927      BINDING AFFINITY PREDICTED BY RF-SCORE:    0.00 PKD
ROOT
HETATM    1  N   UNL     1     -12.362  14.010  63.317  1.00  0.00    -1.145 NA 
HETATM    2  H1  UNL     1     -12.001  14.767  62.736  1.00  0.00     0.000 HD 
HETATM    3  C   UNL     1     -11.806  13.753  64.526  1.00  0.00    -0.417 C  
HETATM    4  H2  UNL     1     -13.145  13.445  62.987  1.00  0.00     0.000 HD 
HETATM    5  N   UNL     1     -12.267  12.788  65.267  1.00  0.00    -0.464 N  
HETATM    6  H   UNL     1     -13.040  12.212  64.933  1.00  0.00     0.000 HD 
HETATM    7  C   UNL     1     -11.702  12.541  66.527  1.00  0.00    -0.391 C  
HETATM    8  C   UNL     1     -10.635  13.462  66.925  1.00  0.00    -0.273 A  
HETATM    9  O   UNL     1     -12.077  11.620  67.244  1.00  0.00    -0.595 OA 
HETATM   10  C   UNL     1     -10.225  14.443  66.058  1.00  0.00    -0.315 A  
HETATM   11  N   UNL     1     -10.773  14.600  64.848  1.00  0.00    -0.424 NA 
HETATM   12  N   UNL     1      -9.235  15.137  66.677  1.00  0.00    -0.252 NA 
HETATM   13  N   UNL     1      -9.906  13.540  68.094  1.00  0.00    -0.231 NA 
HETATM   14  C   UNL     1      -9.098  14.569  67.922  1.00  0.00    -0.191 A  
ENDROOT
BRANCH  12  15
HETATM   15  C   UNL     1      -8.472  16.265  66.185  1.00  0.00    -0.278 C  
BRANCH  15  16
HETATM   16  C   UNL     1      -8.549  17.515  67.067  1.00  0.00    -0.251 C  
HETATM   17  C   UNL     1      -9.173  18.786  66.440  1.00  0.00    -0.312 C  
HETATM   18  C   UNL     1     -10.648  18.612  66.043  1.00  0.00    -0.365 C  
HETATM   19  C   UNL     1      -9.036  19.945  67.441  1.00  0.00    -0.342 C  
HETATM   20  O   UNL     1     -10.794  17.638  65.015  1.00  0.00    -0.758 OA 
HETATM   21  O   UNL     1      -9.567  21.148  66.902  1.00  0.00    -0.619 OA 
HETATM   22  H   UNL     1     -11.705  17.531  64.769  1.00  0.00     0.000 HD 
HETATM   23  H   UNL     1      -9.482  21.865  67.521  1.00  0.00     0.000 HD 
ENDBRANCH  15  16
ENDBRANCH  12  15
TORSDOF 2
ENDMDL
MODEL       11
REMARK 921   NORMALIZED FREE ENERGY PREDICTED BY IDOCK:   -6.97 KCAL/MOL
REMARK 922        TOTAL FREE ENERGY PREDICTED BY IDOCK:   -7.99 KCAL/MOL
REMARK 923 INTER-LIGAND FREE ENERGY PREDICTED BY IDOCK:   -7.69 KCAL/MOL
REMARK 924 INTRA-LIGAND FREE ENERGY PREDICTED BY IDOCK:   -0.30 KCAL/MOL
REMARK 927      BINDING AFFINITY PREDICTED BY RF-SCORE:    0.00 PKD
ROOT
HETATM    1  N   UNL     1     -13.319  10.861  72.168  1.00  0.00    -0.580 NA 
HETATM    2  H1  UNL     1     -12.922  10.084  71.640  1.00  0.00     0.000 HD 
HETATM    3  C   UNL     1     -13.085  12.138  71.781  1.00  0.00    -0.352 C  
HETATM    4  H2  UNL     1     -13.894  10.676  72.990  1.00  0.00     0.000 HD 
HETATM    5  N   UNL     1     -13.591  13.130  72.454  1.00  0.00    -0.596 N  
HETATM    6  H   UNL     1     -14.154  12.947  73.286  1.00  0.00     0.000 HD 
HETATM    7  C   UNL     1     -13.364  14.449  72.037  1.00  0.00    -0.384 C  
HETATM    8  C   UNL     1     -12.588  14.589  70.803  1.00  0.00    -0.351 A  
HETATM    9  O   UNL     1     -13.787  15.416  72.661  1.00  0.00    -0.508 OA 
HETATM   10  C   UNL     1     -12.097  13.471  70.177  1.00  0.00    -0.354 A  
HETATM   11  N   UNL     1     -12.309  12.238  70.652  1.00  0.00    -0.337 NA 
HETATM   12  N   UNL     1     -11.422  13.891  69.076  1.00  0.00    -0.278 NA 
HETATM   13  N   UNL     1     -12.225  15.716  70.094  1.00  0.00    -0.383 NA 
HETATM   14  C   UNL     1     -11.554  15.260  69.053  1.00  0.00    -0.343 A  
ENDROOT
BRANCH  12  15
HETATM   15  C   UNL     1     -10.720  13.102  68.085  1.00  0.00    -0.242 C  
BRANCH  15  16
HETATM   16  C   UNL     1     -11.572  12.696  66.879  1.00  0.00    -0.438 C  
HETATM   17  C   UNL     1     -11.506  13.607  65.629  1.00  0.00    -0.320 C  
HETATM   18  C   UNL     1     -10.107  13.677  64.995  1.00  0.00    -0.267 C  
HETATM   19  C   UNL     1     -12.522  13.095  64.594  1.00  0.00    -0.373 C  
HETATM   20  O   UNL     1      -9.168  14.275  65.881  1.00  0.00    -0.517 OA 
HETATM   21  O   UNL     1     -12.525  13.917  63.435  1.00  0.00    -1.068 OA 
HETATM   22  H   UNL     1      -8.303  14.318  65.490  1.00  0.00     0.000 HD 
HETATM   23  H   UNL     1     -13.153  13.601  62.796  1.00  0.00     0.000 HD 
ENDBRANCH  15  16
ENDBRANCH  12  15
TORSDOF 2
ENDMDL
MODEL       12
REMARK 921   NORMALIZED FREE ENERGY PREDICTED BY IDOCK:   -6.97 KCAL/MOL
REMARK 922        TOTAL FREE ENERGY PREDICTED BY IDOCK:   -7.99 KCAL/MOL
REMARK 923 INTER-LIGAND FREE ENERGY PREDICTED BY IDOCK:   -7.66 KCAL/MOL
REMARK 924 INTRA-LIGAND FREE ENERGY PREDICTED BY IDOCK:   -0.33 KCAL/MOL
REMARK 927      BINDING AFFINITY PREDICTED BY RF-SCORE:    0.00 PKD
ROOT
HETATM    1  N   UNL     1      -9.824  10.021  63.562  1.00  0.00    -0.500 NA 
HETATM    2  H1  UNL     1      -9.342   9.412  64.224  1.00  0.00     0.000 HD 
HETATM    3  C   UNL     1     -10.591  11.044  64.009  1.00  0.00    -0.324 C  
HETATM    4  H2  UNL     1      -9.727   9.858  62.559  1.00  0.00     0.000 HD 
HETATM    5  N   UNL     1     -11.205  11.820  63.165  1.00  0.00    -0.725 N  
HETATM    6  H   UNL     1     -11.123  11.650  62.162  1.00  0.00     0.000 HD 
HETATM    7  C   UNL     1     -11.981  12.891  63.632  1.00  0.00    -0.541 C  
HETATM    8  C   UNL     1     -11.985  13.071  65.086  1.00  0.00    -0.402 A  
HETATM    9  O   UNL     1     -12.608  13.625  62.877  1.00  0.00    -0.621 OA 
HETATM   10  C   UNL     1     -11.304  12.186  65.883  1.00  0.00    -0.356 A  
HETATM   11  N   UNL     1     -10.618  11.154  65.378  1.00  0.00    -0.252 NA 
HETATM   12  N   UNL     1     -11.481  12.586  67.169  1.00  0.00    -0.329 NA 
HETATM   13  N   UNL     1     -12.590  14.032  65.870  1.00  0.00    -0.487 NA 
HETATM   14  C   UNL     1     -12.244  13.729  67.107  1.00  0.00    -0.313 A  
ENDROOT
BRANCH  12  15
HETATM   15  C   UNL     1     -10.969  11.988  68.385  1.00  0.00    -0.237 C  
BRANCH  15  16
HETATM   16  C   UNL     1     -11.946  11.036  69.082  1.00  0.00    -0.394 C  
HETATM   17  C   UNL     1     -12.096  11.176  70.616  1.00  0.00    -0.477 C  
HETATM   18  C   UNL     1     -12.647  12.542  71.056  1.00  0.00    -0.256 C  
HETATM   19  C   UNL     1     -13.016  10.055  71.125  1.00  0.00    -0.387 C  
HETATM   20  O   UNL     1     -11.749  13.594  70.721  1.00  0.00    -0.516 OA 
HETATM   21  O   UNL     1     -13.164  10.117  72.536  1.00  0.00    -0.542 OA 
HETATM   22  H   UNL     1     -12.089  14.438  70.992  1.00  0.00     0.000 HD 
HETATM   23  H   UNL     1     -13.732   9.424  72.850  1.00  0.00     0.000 HD 
ENDBRANCH  15  16
ENDBRANCH  12  15
TORSDOF 2
ENDMDL
MODEL       13
REMARK 921   NORMALIZED FREE ENERGY PREDICTED BY IDOCK:   -6.94 KCAL/MOL
REMARK 922        TOTAL FREE ENERGY PREDICTED BY IDOCK:   -7.96 KCAL/MOL
REMARK 923 INTER-LIGAND FREE ENERGY PREDICTED BY IDOCK:   -7.71 KCAL/MOL
REMARK 924 INTRA-LIGAND FREE ENERGY PREDICTED BY IDOCK:   -0.26 KCAL/MOL
REMARK 927      BINDING AFFINITY PREDICTED BY RF-SCORE:    0.00 PKD
ROOT
HETATM    1  N   UNL     1     -13.134  12.143  64.306  1.00  0.00    -0.732 NA 
HETATM    2  H1  UNL     1     -13.260  11.330  64.909  1.00  0.00     0.000 HD 
HETATM    3  C   UNL     1     -12.487  13.241  64.766  1.00  0.00    -0.383 C  
HETATM    4  H2  UNL     1     -13.498  12.129  63.353  1.00  0.00     0.000 HD 
HETATM    5  N   UNL     1     -12.327  14.278  63.997  1.00  0.00    -0.878 N  
HETATM    6  H   UNL     1     -12.704  14.272  63.049  1.00  0.00     0.000 HD 
HETATM    7  C   UNL     1     -11.637  15.403  64.471  1.00  0.00    -0.296 C  
HETATM    8  C   UNL     1     -11.097  15.279  65.827  1.00  0.00    -0.301 A  
HETATM    9  O   UNL     1     -11.496  16.417  63.798  1.00  0.00    -1.002 OA 
HETATM   10  C   UNL     1     -11.332  14.137  66.551  1.00  0.00    -0.341 A  
HETATM   11  N   UNL     1     -12.039  13.113  66.059  1.00  0.00    -0.430 NA 
HETATM   12  N   UNL     1     -10.726  14.296  67.757  1.00  0.00    -0.249 NA 
HETATM   13  N   UNL     1     -10.339  16.156  66.575  1.00  0.00    -0.301 NA 
HETATM   14  C   UNL     1     -10.112  15.525  67.712  1.00  0.00    -0.232 A  
ENDROOT
BRANCH  12  15
HETATM   15  C   UNL     1     -10.681  13.379  68.877  1.00  0.00    -0.190 C  
BRANCH  15  16
HETATM   16  C   UNL     1     -12.026  13.174  69.582  1.00  0.00    -0.370 C  
HETATM   17  C   UNL     1     -12.163  13.735  71.018  1.00  0.00    -0.401 C  
HETATM   18  C   UNL     1     -12.017  15.263  71.096  1.00  0.00    -0.345 C  
HETATM   19  C   UNL     1     -13.530  13.313  71.582  1.00  0.00    -0.269 C  
HETATM   20  O   UNL     1     -10.711  15.678  70.710  1.00  0.00    -0.303 OA 
HETATM   21  O   UNL     1     -13.697  13.777  72.914  1.00  0.00    -0.684 OA 
HETATM   22  H   UNL     1     -10.620  16.622  70.758  1.00  0.00     0.000 HD 
HETATM   23  H   UNL     1     -14.542  13.515  73.263  1.00  0.00     0.000 HD 
ENDBRANCH  15  16
ENDBRANCH  12  15
TORSDOF 2
ENDMDL
MODEL       14
REMARK 921   NORMALIZED FREE ENERGY PREDICTED BY IDOCK:   -6.87 KCAL/MOL
REMARK 922        TOTAL FREE ENERGY PREDICTED BY IDOCK:   -7.88 KCAL/MOL
REMARK 923 INTER-LIGAND FREE ENERGY PREDICTED BY IDOCK:   -7.66 KCAL/MOL
REMARK 924 INTRA-LIGAND FREE ENERGY PREDICTED BY IDOCK:   -0.23 KCAL/MOL
REMARK 927      BINDING AFFINITY PREDICTED BY RF-SCORE:    0.00 PKD
ROOT
HETATM    1  N   UNL     1     -12.903  11.904  63.111  1.00  0.00    -0.867 NA 
HETATM    2  H1  UNL     1     -13.076  10.965  63.471  1.00  0.00     0.000 HD 
HETATM    3  C   UNL     1     -12.498  12.891  63.947  1.00  0.00    -0.333 C  
HETATM    4  H2  UNL     1     -13.036  12.100  62.119  1.00  0.00     0.000 HD 
HETATM    5  N   UNL     1     -12.277  14.088  63.488  1.00  0.00    -1.079 N  
HETATM    6  H   UNL     1     -12.424  14.291  62.499  1.00  0.00     0.000 HD 
HETATM    7  C   UNL     1     -11.836  15.100  64.353  1.00  0.00    -0.305 C  
HETATM    8  C   UNL     1     -11.608  14.682  65.739  1.00  0.00    -0.328 A  
HETATM    9  O   UNL     1     -11.652  16.251  63.975  1.00  0.00    -0.953 OA 
HETATM   10  C   UNL     1     -11.881  13.391  66.113  1.00  0.00    -0.385 A  
HETATM   11  N   UNL     1     -12.345  12.480  65.249  1.00  0.00    -0.612 NA 
HETATM   12  N   UNL     1     -11.586  13.286  67.435  1.00  0.00    -0.331 NA 
HETATM   13  N   UNL     1     -11.139  15.392  66.824  1.00  0.00    -0.287 NA 
HETATM   14  C   UNL     1     -11.111  14.520  67.814  1.00  0.00    -0.285 A  
ENDROOT
BRANCH  12  15
HETATM   15  C   UNL     1     -11.702  12.131  68.302  1.00  0.00    -0.342 C  
BRANCH  15  16
HETATM   16  C   UNL     1     -10.402  11.341  68.482  1.00  0.00    -0.217 C  
HETATM   17  C   UNL     1     -10.220  10.572  69.812  1.00  0.00    -0.168 C  
HETATM   18  C   UNL     1     -11.269   9.470  70.031  1.00  0.00    -0.209 C  
HETATM   19  C   UNL     1      -8.810   9.960  69.837  1.00  0.00    -0.195 C  
HETATM   20  O   UNL     1     -12.578  10.019  70.150  1.00  0.00    -0.521 OA 
HETATM   21  O   UNL     1      -8.578   9.266  71.055  1.00  0.00    -0.237 OA 
HETATM   22  H   UNL     1     -13.226   9.339  70.285  1.00  0.00     0.000 HD 
HETATM   23  H   UNL     1      -7.706   8.888  71.070  1.00  0.00     0.000 HD 
ENDBRANCH  15  16
ENDBRANCH  12  15
TORSDOF 2
ENDMDL
MODEL       15
REMARK 921   NORMALIZED FREE ENERGY PREDICTED BY IDOCK:   -6.81 KCAL/MOL
REMARK 922        TOTAL FREE ENERGY PREDICTED BY IDOCK:   -7.81 KCAL/MOL
REMARK 923 INTER-LIGAND FREE ENERGY PREDICTED BY IDOCK:   -7.22 KCAL/MOL
REMARK 924 INTRA-LIGAND FREE ENERGY PREDICTED BY IDOCK:   -0.59 KCAL/MOL
REMARK 927      BINDING AFFINITY PREDICTED BY RF-SCORE:    0.00 PKD
ROOT
HETATM    1  N   UNL     1     -10.692   8.104  69.023  1.00  0.00    -0.391 NA 
HETATM    2  H1  UNL     1     -10.059   8.039  68.225  1.00  0.00     0.000 HD 
HETATM    3  C   UNL     1     -11.110   9.314  69.466  1.00  0.00    -0.080 C  
HETATM    4  H2  UNL     1     -11.011   7.253  69.488  1.00  0.00     0.000 HD 
HETATM    5  N   UNL     1     -11.917   9.396  70.483  1.00  0.00    -0.448 N  
HETATM    6  H   UNL     1     -12.225   8.548  70.960  1.00  0.00     0.000 HD 
HETATM    7  C   UNL     1     -12.364  10.650  70.924  1.00  0.00    -0.401 C  
HETATM    8  C   UNL     1     -11.900  11.792  70.133  1.00  0.00    -0.324 A  
HETATM    9  O   UNL     1     -13.093  10.779  71.901  1.00  0.00    -0.481 OA 
HETATM   10  C   UNL     1     -11.043  11.588  69.081  1.00  0.00    -0.259 A  
HETATM   11  N   UNL     1     -10.615  10.368  68.737  1.00  0.00    -0.195 NA 
HETATM   12  N   UNL     1     -10.778  12.804  68.538  1.00  0.00    -0.248 NA 
HETATM   13  N   UNL     1     -12.177  13.138  70.252  1.00  0.00    -0.333 NA 
HETATM   14  C   UNL     1     -11.513  13.711  69.266  1.00  0.00    -0.291 A  
ENDROOT
BRANCH  12  15
HETATM   15  C   UNL     1      -9.929  13.129  67.410  1.00  0.00    -0.229 C  
BRANCH  15  16
HETATM   16  C   UNL     1     -10.123  14.545  66.859  1.00  0.00    -0.257 C  
HETATM   17  C   UNL     1     -10.923  14.688  65.542  1.00  0.00    -0.344 C  
HETATM   18  C   UNL     1     -12.380  14.212  65.654  1.00  0.00    -0.456 C  
HETATM   19  C   UNL     1     -10.889  16.161  65.103  1.00  0.00    -0.361 C  
HETATM   20  O   UNL     1     -12.448  12.816  65.925  1.00  0.00    -0.560 OA 
HETATM   21  O   UNL     1     -11.584  16.344  63.878  1.00  0.00    -1.564 OA 
HETATM   22  H   UNL     1     -13.348  12.521  65.995  1.00  0.00     0.000 HD 
HETATM   23  H   UNL     1     -11.562  17.255  63.606  1.00  0.00     0.000 HD 
ENDBRANCH  15  16
ENDBRANCH  12  15
TORSDOF 2
ENDMDL
MODEL       16
REMARK 921   NORMALIZED FREE ENERGY PREDICTED BY IDOCK:   -6.80 KCAL/MOL
REMARK 922        TOTAL FREE ENERGY PREDICTED BY IDOCK:   -7.80 KCAL/MOL
REMARK 923 INTER-LIGAND FREE ENERGY PREDICTED BY IDOCK:   -7.59 KCAL/MOL
REMARK 924 INTRA-LIGAND FREE ENERGY PREDICTED BY IDOCK:   -0.21 KCAL/MOL
REMARK 927      BINDING AFFINITY PREDICTED BY RF-SCORE:    0.00 PKD
ROOT
HETATM    1  N   UNL     1     -13.732  14.440  72.830  1.00  0.00    -0.611 NA 
HETATM    2  H1  UNL     1     -13.572  15.400  72.522  1.00  0.00     0.000 HD 
HETATM    3  C   UNL     1     -13.323  13.401  72.063  1.00  0.00    -0.479 C  
HETATM    4  H2  UNL     1     -14.203  14.263  73.718  1.00  0.00     0.000 HD 
HETATM    5  N   UNL     1     -13.527  12.177  72.455  1.00  0.00    -0.536 N  
HETATM    6  H   UNL     1     -14.011  11.997  73.334  1.00  0.00     0.000 HD 
HETATM    7  C   UNL     1     -13.081  11.106  71.668  1.00  0.00    -0.424 C  
HETATM    8  C   UNL     1     -12.354  11.483  70.453  1.00  0.00    -0.305 A  
HETATM    9  O   UNL     1     -13.284   9.937  71.976  1.00  0.00    -0.426 OA 
HETATM   10  C   UNL     1     -12.202  12.808  70.135  1.00  0.00    -0.249 A  
HETATM   11  N   UNL     1     -12.692  13.787  70.905  1.00  0.00    -0.336 NA 
HETATM   12  N   UNL     1     -11.502  12.864  68.972  1.00  0.00    -0.289 NA 
HETATM   13  N   UNL     1     -11.746  10.701  69.492  1.00  0.00    -0.284 NA 
HETATM   14  C   UNL     1     -11.223  11.560  68.637  1.00  0.00    -0.248 A  
ENDROOT
BRANCH  12  15
HETATM   15  C   UNL     1     -11.085  14.029  68.219  1.00  0.00    -0.254 C  
BRANCH  15  16
HETATM   16  C   UNL     1     -11.824  14.222  66.891  1.00  0.00    -0.458 C  
HETATM   17  C   UNL     1     -11.190  15.191  65.864  1.00  0.00    -0.280 C  
HETATM   18  C   UNL     1      -9.805  14.742  65.370  1.00  0.00    -0.260 C  
HETATM   19  C   UNL     1     -12.147  15.335  64.669  1.00  0.00    -0.187 C  
HETATM   20  O   UNL     1      -8.857  14.730  66.432  1.00  0.00    -0.427 OA 
HETATM   21  O   UNL     1     -11.627  16.242  63.706  1.00  0.00    -1.539 OA 
HETATM   22  H   UNL     1      -8.002  14.452  66.128  1.00  0.00     0.000 HD 
HETATM   23  H   UNL     1     -12.219  16.331  62.968  1.00  0.00     0.000 HD 
ENDBRANCH  15  16
ENDBRANCH  12  15
TORSDOF 2
ENDMDL
MODEL       17
REMARK 921   NORMALIZED FREE ENERGY PREDICTED BY IDOCK:   -6.75 KCAL/MOL
REMARK 922        TOTAL FREE ENERGY PREDICTED BY IDOCK:   -7.74 KCAL/MOL
REMARK 923 INTER-LIGAND FREE ENERGY PREDICTED BY IDOCK:   -7.55 KCAL/MOL
REMARK 924 INTRA-LIGAND FREE ENERGY PREDICTED BY IDOCK:   -0.19 KCAL/MOL
REMARK 927      BINDING AFFINITY PREDICTED BY RF-SCORE:    0.00 PKD
ROOT
HETATM    1  N   UNL     1     -14.065  12.539  72.665  1.00  0.00    -0.448 NA 
HETATM    2  H1  UNL     1     -14.216  11.701  72.102  1.00  0.00     0.000 HD 
HETATM    3  C   UNL     1     -13.300  13.551  72.189  1.00  0.00    -0.500 C  
HETATM    4  H2  UNL     1     -14.492  12.615  73.589  1.00  0.00     0.000 HD 
HETATM    5  N   UNL     1     -13.107  14.620  72.906  1.00  0.00    -0.485 N  
HETATM    6  H   UNL     1     -13.520  14.691  73.836  1.00  0.00     0.000 HD 
HETATM    7  C   UNL     1     -12.333  15.673  72.399  1.00  0.00    -0.426 C  
HETATM    8  C   UNL     1     -11.835  15.483  71.035  1.00  0.00    -0.382 A  
HETATM    9  O   UNL     1     -12.092  16.682  73.053  1.00  0.00    -0.471 OA 
HETATM   10  C   UNL     1     -12.095  14.310  70.373  1.00  0.00    -0.339 A  
HETATM   11  N   UNL     1     -12.804  13.320  70.929  1.00  0.00    -0.231 NA 
HETATM   12  N   UNL     1     -11.519  14.405  69.147  1.00  0.00    -0.276 NA 
HETATM   13  N   UNL     1     -11.096  16.320  70.225  1.00  0.00    -0.364 NA 
HETATM   14  C   UNL     1     -10.950  15.656  69.094  1.00  0.00    -0.259 A  
ENDROOT
BRANCH  12  15
HETATM   15  C   UNL     1     -11.504  13.433  68.073  1.00  0.00    -0.304 C  
BRANCH  15  16
HETATM   16  C   UNL     1     -12.229  13.883  66.801  1.00  0.00    -0.438 C  
HETATM   17  C   UNL     1     -11.446  14.795  65.826  1.00  0.00    -0.322 C  
HETATM   18  C   UNL     1     -10.195  14.128  65.234  1.00  0.00    -0.375 C  
HETATM   19  C   UNL     1     -12.391  15.228  64.693  1.00  0.00    -0.073 C  
HETATM   20  O   UNL     1      -9.236  13.838  66.246  1.00  0.00    -0.454 OA 
HETATM   21  O   UNL     1     -11.731  16.096  63.783  1.00  0.00    -1.404 OA 
HETATM   22  H   UNL     1      -8.463  13.426  65.881  1.00  0.00     0.000 HD 
HETATM   23  H   UNL     1     -12.315  16.364  63.083  1.00  0.00     0.000 HD 
ENDBRANCH  15  16
ENDBRANCH  12  15
TORSDOF 2
ENDMDL
MODEL       18
REMARK 921   NORMALIZED FREE ENERGY PREDICTED BY IDOCK:   -6.74 KCAL/MOL
REMARK 922        TOTAL FREE ENERGY PREDICTED BY IDOCK:   -7.74 KCAL/MOL
REMARK 923 INTER-LIGAND FREE ENERGY PREDICTED BY IDOCK:   -7.53 KCAL/MOL
REMARK 924 INTRA-LIGAND FREE ENERGY PREDICTED BY IDOCK:   -0.21 KCAL/MOL
REMARK 927      BINDING AFFINITY PREDICTED BY RF-SCORE:    0.00 PKD
ROOT
HETATM    1  N   UNL     1     -13.210  16.092  73.907  1.00  0.00    -0.930 NA 
HETATM    2  H1  UNL     1     -13.631  15.426  74.556  1.00  0.00     0.000 HD 
HETATM    3  C   UNL     1     -12.680  15.662  72.737  1.00  0.00    -0.436 C  
HETATM    4  H2  UNL     1     -13.190  17.085  74.141  1.00  0.00     0.000 HD 
HETATM    5  N   UNL     1     -12.143  16.511  71.910  1.00  0.00    -0.583 N  
HETATM    6  H   UNL     1     -12.107  17.502  72.148  1.00  0.00     0.000 HD 
HETATM    7  C   UNL     1     -11.615  16.063  70.690  1.00  0.00    -0.383 C  
HETATM    8  C   UNL     1     -11.769  14.630  70.431  1.00  0.00    -0.295 A  
HETATM    9  O   UNL     1     -11.066  16.819  69.897  1.00  0.00    -0.242 OA 
HETATM   10  C   UNL     1     -12.348  13.825  71.380  1.00  0.00    -0.252 A  
HETATM   11  N   UNL     1     -12.792  14.306  72.548  1.00  0.00    -0.366 NA 
HETATM   12  N   UNL     1     -12.357  12.561  70.883  1.00  0.00    -0.341 NA 
HETATM   13  N   UNL     1     -11.416  13.873  69.333  1.00  0.00    -0.268 NA 
HETATM   14  C   UNL     1     -11.807  12.647  69.625  1.00  0.00    -0.311 A  
ENDROOT
BRANCH  12  15
HETATM   15  C   UNL     1     -12.857  11.348  71.497  1.00  0.00    -0.403 C  
BRANCH  15  16
HETATM   16  C   UNL     1     -12.339  10.056  70.858  1.00  0.00    -0.438 C  
HETATM   17  C   UNL     1     -12.293   8.794  71.754  1.00  0.00    -0.412 C  
HETATM   18  C   UNL     1     -13.676   8.346  72.253  1.00  0.00    -0.278 C  
HETATM   19  C   UNL     1     -11.630   7.654  70.963  1.00  0.00    -0.282 C  
HETATM   20  O   UNL     1     -14.261   9.326  73.104  1.00  0.00    -1.041 OA 
HETATM   21  O   UNL     1     -11.533   6.477  71.752  1.00  0.00    -0.270 OA 
HETATM   22  H   UNL     1     -15.115   9.049  73.413  1.00  0.00     0.000 HD 
HETATM   23  H   UNL     1     -11.123   5.772  71.263  1.00  0.00     0.000 HD 
ENDBRANCH  15  16
ENDBRANCH  12  15
TORSDOF 2
ENDMDL
MODEL       19
REMARK 921   NORMALIZED FREE ENERGY PREDICTED BY IDOCK:   -6.70 KCAL/MOL
REMARK 922        TOTAL FREE ENERGY PREDICTED BY IDOCK:   -7.69 KCAL/MOL
REMARK 923 INTER-LIGAND FREE ENERGY PREDICTED BY IDOCK:   -7.44 KCAL/MOL
REMARK 924 INTRA-LIGAND FREE ENERGY PREDICTED BY IDOCK:   -0.25 KCAL/MOL
REMARK 927      BINDING AFFINITY PREDICTED BY RF-SCORE:    0.00 PKD
ROOT
HETATM    1  N   UNL     1     -11.989  16.989  73.822  1.00  0.00    -0.142 NA 
HETATM    2  H1  UNL     1     -11.406  17.776  73.535  1.00  0.00     0.000 HD 
HETATM    3  C   UNL     1     -12.268  15.992  72.948  1.00  0.00    -0.517 C  
HETATM    4  H2  UNL     1     -12.364  16.954  74.770  1.00  0.00     0.000 HD 
HETATM    5  N   UNL     1     -13.011  14.989  73.313  1.00  0.00    -0.510 N  
HETATM    6  H   UNL     1     -13.400  14.959  74.256  1.00  0.00     0.000 HD 
HETATM    7  C   UNL     1     -13.278  13.949  72.411  1.00  0.00    -0.488 C  
HETATM    8  C   UNL     1     -12.626  14.072  71.105  1.00  0.00    -0.371 A  
HETATM    9  O   UNL     1     -14.004  13.004  72.697  1.00  0.00    -0.657 OA 
HETATM   10  C   UNL     1     -11.866  15.179  70.826  1.00  0.00    -0.324 A  
HETATM   11  N   UNL     1     -11.686  16.163  71.715  1.00  0.00    -0.498 NA 
HETATM   12  N   UNL     1     -11.393  15.033  69.561  1.00  0.00    -0.270 NA 
HETATM   13  N   UNL     1     -12.630  13.225  70.017  1.00  0.00    -0.078 NA 
HETATM   14  C   UNL     1     -11.861  13.816  69.123  1.00  0.00    -0.354 A  
ENDROOT
BRANCH  12  15
HETATM   15  C   UNL     1     -10.545  15.927  68.799  1.00  0.00    -0.245 C  
BRANCH  15  16
HETATM   16  C   UNL     1     -10.354  15.523  67.334  1.00  0.00    -0.266 C  
HETATM   17  C   UNL     1     -11.012  16.424  66.261  1.00  0.00     0.052 C  
HETATM   18  C   UNL     1     -10.467  17.860  66.247  1.00  0.00    -0.320 C  
HETATM   19  C   UNL     1     -10.807  15.775  64.882  1.00  0.00    -0.413 C  
HETATM   20  O   UNL     1     -10.764  18.537  67.464  1.00  0.00    -0.427 OA 
HETATM   21  O   UNL     1     -11.422  16.546  63.860  1.00  0.00    -1.608 OA 
HETATM   22  H   UNL     1     -10.427  19.425  67.456  1.00  0.00     0.000 HD 
HETATM   23  H   UNL     1     -11.295  16.145  63.008  1.00  0.00     0.000 HD 
ENDBRANCH  15  16
ENDBRANCH  12  15
TORSDOF 2
ENDMDL
MODEL       20
REMARK 921   NORMALIZED FREE ENERGY PREDICTED BY IDOCK:   -6.66 KCAL/MOL
REMARK 922        TOTAL FREE ENERGY PREDICTED BY IDOCK:   -7.64 KCAL/MOL
REMARK 923 INTER-LIGAND FREE ENERGY PREDICTED BY IDOCK:   -6.95 KCAL/MOL
REMARK 924 INTRA-LIGAND FREE ENERGY PREDICTED BY IDOCK:   -0.69 KCAL/MOL
REMARK 927      BINDING AFFINITY PREDICTED BY RF-SCORE:    0.00 PKD
ROOT
HETATM    1  N   UNL     1     -11.563  16.366  63.757  1.00  0.00    -1.515 NA 
HETATM    2  H1  UNL     1     -11.805  17.355  63.826  1.00  0.00     0.000 HD 
HETATM    3  C   UNL     1     -10.957  15.738  64.793  1.00  0.00    -0.393 C  
HETATM    4  H2  UNL     1     -11.779  15.848  62.904  1.00  0.00     0.000 HD 
HETATM    5  N   UNL     1     -10.649  14.477  64.705  1.00  0.00    -0.552 N  
HETATM    6  H   UNL     1     -10.850  13.961  63.848  1.00  0.00     0.000 HD 
HETATM    7  C   UNL     1     -10.041  13.826  65.789  1.00  0.00    -0.307 C  
HETATM    8  C   UNL     1      -9.848  14.651  66.984  1.00  0.00    -0.244 A  
HETATM    9  O   UNL     1      -9.698  12.651  65.739  1.00  0.00    -0.247 OA 
HETATM   10  C   UNL     1     -10.207  15.975  66.962  1.00  0.00    -0.282 A  
HETATM   11  N   UNL     1     -10.741  16.551  65.879  1.00  0.00    -0.244 NA 
HETATM   12  N   UNL     1      -9.916  16.490  68.185  1.00  0.00    -0.242 NA 
HETATM   13  N   UNL     1      -9.335  14.329  68.224  1.00  0.00    -0.203 NA 
HETATM   14  C   UNL     1      -9.417  15.444  68.925  1.00  0.00    -0.219 A  
ENDROOT
BRANCH  12  15
HETATM   15  C   UNL     1     -10.104  17.842  68.669  1.00  0.00    -0.394 C  
BRANCH  15  16
HETATM   16  C   UNL     1      -8.889  18.756  68.480  1.00  0.00    -0.378 C  
HETATM   17  C   UNL     1      -8.628  19.298  67.054  1.00  0.00    -0.307 C  
HETATM   18  C   UNL     1      -9.758  20.192  66.521  1.00  0.00    -0.426 C  
HETATM   19  C   UNL     1      -7.304  20.081  67.060  1.00  0.00    -0.254 C  
HETATM   20  O   UNL     1     -10.970  19.460  66.372  1.00  0.00    -0.344 OA 
HETATM   21  O   UNL     1      -6.998  20.575  65.764  1.00  0.00    -0.399 OA 
HETATM   22  H   UNL     1     -11.669  20.012  66.042  1.00  0.00     0.000 HD 
HETATM   23  H   UNL     1      -6.180  21.059  65.768  1.00  0.00     0.000 HD 
ENDBRANCH  15  16
ENDBRANCH  12  15
TORSDOF 2
ENDMDL
MODEL       21
REMARK 921   NORMALIZED FREE ENERGY PREDICTED BY IDOCK:   -6.61 KCAL/MOL
REMARK 922        TOTAL FREE ENERGY PREDICTED BY IDOCK:   -7.59 KCAL/MOL
REMARK 923 INTER-LIGAND FREE ENERGY PREDICTED BY IDOCK:   -7.39 KCAL/MOL
REMARK 924 INTRA-LIGAND FREE ENERGY PREDICTED BY IDOCK:   -0.20 KCAL/MOL
REMARK 927      BINDING AFFINITY PREDICTED BY RF-SCORE:    0.00 PKD
ROOT
HETATM    1  N   UNL     1     -14.354   9.154  73.078  1.00  0.00    -1.093 NA 
HETATM    2  H1  UNL     1     -15.002   9.899  72.818  1.00  0.00     0.000 HD 
HETATM    3  C   UNL     1     -13.162   9.036  72.445  1.00  0.00    -0.447 C  
HETATM    4  H2  UNL     1     -14.606   8.496  73.816  1.00  0.00     0.000 HD 
HETATM    5  N   UNL     1     -12.336   8.087  72.776  1.00  0.00    -0.610 N  
HETATM    6  H   UNL     1     -12.592   7.418  73.503  1.00  0.00     0.000 HD 
HETATM    7  C   UNL     1     -11.094   7.983  72.134  1.00  0.00    -0.311 C  
HETATM    8  C   UNL     1     -10.812   9.027  71.145  1.00  0.00    -0.294 A  
HETATM    9  O   UNL     1     -10.300   7.083  72.384  1.00  0.00    -0.195 OA 
HETATM   10  C   UNL     1     -11.762   9.978  70.872  1.00  0.00    -0.374 A  
HETATM   11  N   UNL     1     -12.950   9.997  71.487  1.00  0.00    -0.399 NA 
HETATM   12  N   UNL     1     -11.241  10.805  69.928  1.00  0.00    -0.289 NA 
HETATM   13  N   UNL     1      -9.690   9.254  70.376  1.00  0.00    -0.226 NA 
HETATM   14  C   UNL     1      -9.970  10.341  69.681  1.00  0.00    -0.207 A  
ENDROOT
BRANCH  12  15
HETATM   15  C   UNL     1     -11.845  11.963  69.303  1.00  0.00    -0.318 C  
BRANCH  15  16
HETATM   16  C   UNL     1     -11.555  12.098  67.805  1.00  0.00    -0.410 C  
HETATM   17  C   UNL     1     -12.249  13.259  67.052  1.00  0.00    -0.310 C  
HETATM   18  C   UNL     1     -11.838  14.650  67.560  1.00  0.00    -0.347 C  
HETATM   19  C   UNL     1     -11.926  13.135  65.554  1.00  0.00    -0.412 C  
HETATM   20  O   UNL     1     -12.247  14.849  68.909  1.00  0.00    -0.543 OA 
HETATM   21  O   UNL     1     -12.566  14.162  64.809  1.00  0.00    -0.608 OA 
HETATM   22  H   UNL     1     -11.993  15.708  69.223  1.00  0.00     0.000 HD 
HETATM   23  H   UNL     1     -12.367  14.085  63.883  1.00  0.00     0.000 HD 
ENDBRANCH  15  16
ENDBRANCH  12  15
TORSDOF 2
ENDMDL
MODEL       22
REMARK 921   NORMALIZED FREE ENERGY PREDICTED BY IDOCK:   -6.58 KCAL/MOL
REMARK 922        TOTAL FREE ENERGY PREDICTED BY IDOCK:   -7.55 KCAL/MOL
REMARK 923 INTER-LIGAND FREE ENERGY PREDICTED BY IDOCK:   -7.59 KCAL/MOL
REMARK 924 INTRA-LIGAND FREE ENERGY PREDICTED BY IDOCK:    0.04 KCAL/MOL
REMARK 927      BINDING AFFINITY PREDICTED BY RF-SCORE:    0.00 PKD
ROOT
HETATM    1  N   UNL     1     -12.324  15.110  69.699  1.00  0.00    -0.547 NA 
HETATM    2  H1  UNL     1     -12.125  15.752  68.931  1.00  0.00     0.000 HD 
HETATM    3  C   UNL     1     -12.087  13.784  69.558  1.00  0.00    -0.334 C  
HETATM    4  H2  UNL     1     -12.703  15.469  70.576  1.00  0.00     0.000 HD 
HETATM    5  N   UNL     1     -12.341  12.965  70.537  1.00  0.00    -0.324 N  
HETATM    6  H   UNL     1     -12.735  13.320  71.409  1.00  0.00     0.000 HD 
HETATM    7  C   UNL     1     -12.073  11.596  70.394  1.00  0.00    -0.373 C  
HETATM    8  C   UNL     1     -11.460  11.209  69.121  1.00  0.00    -0.298 A  
HETATM    9  O   UNL     1     -12.331  10.783  71.274  1.00  0.00    -0.361 OA 
HETATM   10  C   UNL     1     -11.242  12.159  68.155  1.00  0.00    -0.267 A  
HETATM   11  N   UNL     1     -11.563  13.445  68.334  1.00  0.00    -0.310 NA 
HETATM   12  N   UNL     1     -10.676  11.528  67.093  1.00  0.00    -0.240 NA 
HETATM   13  N   UNL     1     -11.029   9.979  68.670  1.00  0.00    -0.223 NA 
HETATM   14  C   UNL     1     -10.540  10.211  67.466  1.00  0.00    -0.273 A  
ENDROOT
BRANCH  12  15
HETATM   15  C   UNL     1     -10.257  12.085  65.824  1.00  0.00    -0.242 C  
BRANCH  15  16
HETATM   16  C   UNL     1     -10.136  13.612  65.812  1.00  0.00    -0.311 C  
HETATM   17  C   UNL     1     -11.084  14.389  64.867  1.00  0.00    -0.404 C  
HETATM   18  C   UNL     1     -12.572  14.212  65.211  1.00  0.00    -0.442 C  
HETATM   19  C   UNL     1     -10.712  15.880  64.915  1.00  0.00    -0.341 C  
HETATM   20  O   UNL     1     -12.984  12.860  65.044  1.00  0.00    -0.777 OA 
HETATM   21  O   UNL     1     -11.534  16.639  64.039  1.00  0.00    -1.523 OA 
HETATM   22  H   UNL     1     -13.903  12.751  65.256  1.00  0.00     0.000 HD 
HETATM   23  H   UNL     1     -11.304  17.560  64.068  1.00  0.00     0.000 HD 
ENDBRANCH  15  16
ENDBRANCH  12  15
TORSDOF 2
ENDMDL
MODEL       23
REMARK 921   NORMALIZED FREE ENERGY PREDICTED BY IDOCK:   -6.57 KCAL/MOL
REMARK 922        TOTAL FREE ENERGY PREDICTED BY IDOCK:   -7.54 KCAL/MOL
REMARK 923 INTER-LIGAND FREE ENERGY PREDICTED BY IDOCK:   -6.94 KCAL/MOL
REMARK 924 INTRA-LIGAND FREE ENERGY PREDICTED BY IDOCK:   -0.60 KCAL/MOL
REMARK 927      BINDING AFFINITY PREDICTED BY RF-SCORE:    0.00 PKD
ROOT
HETATM    1  N   UNL     1     -13.695  13.497  72.215  1.00  0.00    -0.564 NA 
HETATM    2  H1  UNL     1     -13.436  14.390  71.794  1.00  0.00     0.000 HD 
HETATM    3  C   UNL     1     -13.182  12.340  71.731  1.00  0.00    -0.326 C  
HETATM    4  H2  UNL     1     -14.343  13.476  73.003  1.00  0.00     0.000 HD 
HETATM    5  N   UNL     1     -13.512  11.202  72.268  1.00  0.00    -0.527 N  
HETATM    6  H   UNL     1     -14.172  11.177  73.046  1.00  0.00     0.000 HD 
HETATM    7  C   UNL     1     -12.960  10.009  71.778  1.00  0.00    -0.458 C  
HETATM    8  C   UNL     1     -11.986  10.170  70.696  1.00  0.00    -0.332 A  
HETATM    9  O   UNL     1     -13.271   8.911  72.225  1.00  0.00    -0.393 OA 
HETATM   10  C   UNL     1     -11.718  11.422  70.202  1.00  0.00    -0.328 A  
HETATM   11  N   UNL     1     -12.313  12.520  70.682  1.00  0.00    -0.337 NA 
HETATM   12  N   UNL     1     -10.794  11.275  69.217  1.00  0.00    -0.227 NA 
HETATM   13  N   UNL     1     -11.229   9.233  70.024  1.00  0.00    -0.210 NA 
HETATM   14  C   UNL     1     -10.507   9.931  69.167  1.00  0.00    -0.217 A  
ENDROOT
BRANCH  12  15
HETATM   15  C   UNL     1     -10.185  12.292  68.385  1.00  0.00    -0.217 C  
BRANCH  15  16
HETATM   16  C   UNL     1     -10.456  12.130  66.886  1.00  0.00    -0.250 C  
HETATM   17  C   UNL     1     -11.878  12.476  66.384  1.00  0.00    -0.445 C  
HETATM   18  C   UNL     1     -12.264  13.948  66.598  1.00  0.00    -0.424 C  
HETATM   19  C   UNL     1     -11.970  12.125  64.889  1.00  0.00    -0.290 C  
HETATM   20  O   UNL     1     -12.323  14.270  67.984  1.00  0.00    -0.582 OA 
HETATM   21  O   UNL     1     -13.269  12.394  64.382  1.00  0.00    -0.816 OA 
HETATM   22  H   UNL     1     -12.561  15.179  68.117  1.00  0.00     0.000 HD 
HETATM   23  H   UNL     1     -13.326  12.177  63.458  1.00  0.00     0.000 HD 
ENDBRANCH  15  16
ENDBRANCH  12  15
TORSDOF 2
ENDMDL
MODEL       24
REMARK 921   NORMALIZED FREE ENERGY PREDICTED BY IDOCK:   -6.55 KCAL/MOL
REMARK 922        TOTAL FREE ENERGY PREDICTED BY IDOCK:   -7.52 KCAL/MOL
REMARK 923 INTER-LIGAND FREE ENERGY PREDICTED BY IDOCK:   -6.90 KCAL/MOL
REMARK 924 INTRA-LIGAND FREE ENERGY PREDICTED BY IDOCK:   -0.62 KCAL/MOL
REMARK 927      BINDING AFFINITY PREDICTED BY RF-SCORE:    0.00 PKD
ROOT
HETATM    1  N   UNL     1     -12.219  15.569  68.969  1.00  0.00    -0.611 NA 
HETATM    2  H1  UNL     1     -12.027  15.503  69.969  1.00  0.00     0.000 HD 
HETATM    3  C   UNL     1     -12.005  14.501  68.162  1.00  0.00    -0.261 C  
HETATM    4  H2  UNL     1     -12.572  16.442  68.576  1.00  0.00     0.000 HD 
HETATM    5  N   UNL     1     -12.249  14.585  66.887  1.00  0.00    -0.509 N  
HETATM    6  H   UNL     1     -12.587  15.462  66.489  1.00  0.00     0.000 HD 
HETATM    7  C   UNL     1     -12.048  13.471  66.060  1.00  0.00    -0.445 C  
HETATM    8  C   UNL     1     -11.611  12.254  66.747  1.00  0.00    -0.369 A  
HETATM    9  O   UNL     1     -12.226  13.514  64.848  1.00  0.00    -0.375 OA 
HETATM   10  C   UNL     1     -11.379  12.282  68.099  1.00  0.00    -0.295 A  
HETATM   11  N   UNL     1     -11.545  13.391  68.828  1.00  0.00    -0.301 NA 
HETATM   12  N   UNL     1     -10.986  11.034  68.464  1.00  0.00    -0.208 NA 
HETATM   13  N   UNL     1     -11.368  10.986  66.260  1.00  0.00    -0.108 NA 
HETATM   14  C   UNL     1     -11.024  10.276  67.317  1.00  0.00    -0.210 A  
ENDROOT
BRANCH  12  15
HETATM   15  C   UNL     1     -10.622  10.545  69.778  1.00  0.00    -0.227 C  
BRANCH  15  16
HETATM   16  C   UNL     1     -11.585   9.503  70.356  1.00  0.00    -0.268 C  
HETATM   17  C   UNL     1     -12.332   9.876  71.659  1.00  0.00    -0.496 C  
HETATM   18  C   UNL     1     -13.264  11.088  71.506  1.00  0.00    -0.299 C  
HETATM   19  C   UNL     1     -13.139   8.654  72.129  1.00  0.00    -0.383 C  
HETATM   20  O   UNL     1     -12.529  12.270  71.204  1.00  0.00    -0.343 OA 
HETATM   21  O   UNL     1     -13.822   8.932  73.344  1.00  0.00    -1.192 OA 
HETATM   22  H   UNL     1     -13.105  13.019  71.110  1.00  0.00     0.000 HD 
HETATM   23  H   UNL     1     -14.320   8.177  73.635  1.00  0.00     0.000 HD 
ENDBRANCH  15  16
ENDBRANCH  12  15
TORSDOF 2
ENDMDL
MODEL       25
REMARK 921   NORMALIZED FREE ENERGY PREDICTED BY IDOCK:   -6.54 KCAL/MOL
REMARK 922        TOTAL FREE ENERGY PREDICTED BY IDOCK:   -7.51 KCAL/MOL
REMARK 923 INTER-LIGAND FREE ENERGY PREDICTED BY IDOCK:   -7.22 KCAL/MOL
REMARK 924 INTRA-LIGAND FREE ENERGY PREDICTED BY IDOCK:   -0.29 KCAL/MOL
REMARK 927      BINDING AFFINITY PREDICTED BY RF-SCORE:    0.00 PKD
ROOT
HETATM    1  N   UNL     1     -12.638  11.499  62.934  1.00  0.00    -0.874 NA 
HETATM    2  H1  UNL     1     -12.644  10.526  63.242  1.00  0.00     0.000 HD 
HETATM    3  C   UNL     1     -12.409  12.494  63.825  1.00  0.00    -0.502 C  
HETATM    4  H2  UNL     1     -12.806  11.723  61.953  1.00  0.00     0.000 HD 
HETATM    5  N   UNL     1     -12.402  13.735  63.433  1.00  0.00    -1.100 N  
HETATM    6  H   UNL     1     -12.585  13.962  62.455  1.00  0.00     0.000 HD 
HETATM    7  C   UNL     1     -12.142  14.760  64.354  1.00  0.00    -0.440 C  
HETATM    8  C   UNL     1     -11.842  14.313  65.717  1.00  0.00    -0.374 A  
HETATM    9  O   UNL     1     -12.163  15.944  64.040  1.00  0.00    -0.719 OA 
HETATM   10  C   UNL     1     -11.884  12.976  66.019  1.00  0.00    -0.417 A  
HETATM   11  N   UNL     1     -12.184  12.047  65.104  1.00  0.00    -0.380 NA 
HETATM   12  N   UNL     1     -11.572  12.852  67.336  1.00  0.00    -0.339 NA 
HETATM   13  N   UNL     1     -11.500  15.034  66.842  1.00  0.00    -0.308 NA 
HETATM   14  C   UNL     1     -11.319  14.127  67.784  1.00  0.00    -0.306 A  
ENDROOT
BRANCH  12  15
HETATM   15  C   UNL     1     -11.482  11.650  68.138  1.00  0.00    -0.313 C  
BRANCH  15  16
HETATM   16  C   UNL     1     -10.686  10.513  67.489  1.00  0.00    -0.326 C  
HETATM   17  C   UNL     1      -9.182  10.764  67.225  1.00  0.00    -0.158 C  
HETATM   18  C   UNL     1      -8.366  11.004  68.505  1.00  0.00    -0.149 C  
HETATM   19  C   UNL     1      -8.610   9.559  66.460  1.00  0.00    -0.134 C  
HETATM   20  O   UNL     1      -8.782  12.194  69.167  1.00  0.00    -0.287 OA 
HETATM   21  O   UNL     1      -7.234   9.751  66.163  1.00  0.00    -0.095 OA 
HETATM   22  H   UNL     1      -8.278  12.342  69.958  1.00  0.00     0.000 HD 
HETATM   23  H   UNL     1      -6.881   9.006  65.690  1.00  0.00     0.000 HD 
ENDBRANCH  15  16
ENDBRANCH  12  15
TORSDOF 2
ENDMDL
MODEL       26
REMARK 921   NORMALIZED FREE ENERGY PREDICTED BY IDOCK:   -6.46 KCAL/MOL
REMARK 922        TOTAL FREE ENERGY PREDICTED BY IDOCK:   -7.42 KCAL/MOL
REMARK 923 INTER-LIGAND FREE ENERGY PREDICTED BY IDOCK:   -7.20 KCAL/MOL
REMARK 924 INTRA-LIGAND FREE ENERGY PREDICTED BY IDOCK:   -0.22 KCAL/MOL
REMARK 927      BINDING AFFINITY PREDICTED BY RF-SCORE:    0.00 PKD
ROOT
HETATM    1  N   UNL     1     -12.368  14.619  63.916  1.00  0.00    -1.060 NA 
HETATM    2  H1  UNL     1     -12.761  15.174  64.676  1.00  0.00     0.000 HD 
HETATM    3  C   UNL     1     -11.696  13.473  64.186  1.00  0.00    -0.411 C  
HETATM    4  H2  UNL     1     -12.481  14.927  62.950  1.00  0.00     0.000 HD 
HETATM    5  N   UNL     1     -11.194  12.764  63.217  1.00  0.00    -0.715 N  
HETATM    6  H   UNL     1     -11.292  13.078  62.251  1.00  0.00     0.000 HD 
HETATM    7  C   UNL     1     -10.519  11.568  63.500  1.00  0.00    -0.428 C  
HETATM    8  C   UNL     1     -10.485  11.190  64.915  1.00  0.00    -0.308 A  
HETATM    9  O   UNL     1      -9.997  10.888  62.625  1.00  0.00    -0.206 OA 
HETATM   10  C   UNL     1     -11.044  12.019  65.855  1.00  0.00    -0.324 A  
HETATM   11  N   UNL     1     -11.635  13.174  65.525  1.00  0.00    -0.323 NA 
HETATM   12  N   UNL     1     -10.866  11.430  67.066  1.00  0.00    -0.268 NA 
HETATM   13  N   UNL     1      -9.957  10.076  65.534  1.00  0.00    -0.303 NA 
HETATM   14  C   UNL     1     -10.228  10.238  66.815  1.00  0.00    -0.228 A  
ENDROOT
BRANCH  12  15
HETATM   15  C   UNL     1     -11.272  11.903  68.373  1.00  0.00    -0.258 C  
BRANCH  15  16
HETATM   16  C   UNL     1     -12.266  10.989  69.097  1.00  0.00    -0.229 C  
HETATM   17  C   UNL     1     -12.309  11.075  70.641  1.00  0.00    -0.480 C  
HETATM   18  C   UNL     1     -12.737  12.454  71.168  1.00  0.00    -0.240 C  
HETATM   19  C   UNL     1     -13.271   9.996  71.166  1.00  0.00    -0.361 C  
HETATM   20  O   UNL     1     -11.791  13.457  70.814  1.00  0.00    -0.509 OA 
HETATM   21  O   UNL     1     -13.325  10.008  72.586  1.00  0.00    -0.551 OA 
HETATM   22  H   UNL     1     -12.055  14.310  71.139  1.00  0.00     0.000 HD 
HETATM   23  H   UNL     1     -13.919   9.341  72.910  1.00  0.00     0.000 HD 
ENDBRANCH  15  16
ENDBRANCH  12  15
TORSDOF 2
ENDMDL
MODEL       27
REMARK 921   NORMALIZED FREE ENERGY PREDICTED BY IDOCK:   -6.45 KCAL/MOL
REMARK 922        TOTAL FREE ENERGY PREDICTED BY IDOCK:   -7.41 KCAL/MOL
REMARK 923 INTER-LIGAND FREE ENERGY PREDICTED BY IDOCK:   -7.21 KCAL/MOL
REMARK 924 INTRA-LIGAND FREE ENERGY PREDICTED BY IDOCK:   -0.21 KCAL/MOL
REMARK 927      BINDING AFFINITY PREDICTED BY RF-SCORE:    0.00 PKD
ROOT
HETATM    1  N   UNL     1     -13.893  15.277  73.151  1.00  0.00    -0.581 NA 
HETATM    2  H1  UNL     1     -14.272  14.598  73.813  1.00  0.00     0.000 HD 
HETATM    3  C   UNL     1     -13.258  14.856  72.031  1.00  0.00    -0.350 C  
HETATM    4  H2  UNL     1     -13.994  16.276  73.334  1.00  0.00     0.000 HD 
HETATM    5  N   UNL     1     -12.775  15.721  71.187  1.00  0.00    -0.506 N  
HETATM    6  H   UNL     1     -12.861  16.720  71.376  1.00  0.00     0.000 HD 
HETATM    7  C   UNL     1     -12.138  15.281  70.019  1.00  0.00    -0.352 C  
HETATM    8  C   UNL     1     -12.119  13.829  69.826  1.00  0.00    -0.340 A  
HETATM    9  O   UNL     1     -11.634  16.057  69.215  1.00  0.00    -0.352 OA 
HETATM   10  C   UNL     1     -12.655  13.009  70.787  1.00  0.00    -0.241 A  
HETATM   11  N   UNL     1     -13.210  13.489  71.906  1.00  0.00    -0.400 NA 
HETATM   12  N   UNL     1     -12.499  11.730  70.355  1.00  0.00    -0.239 NA 
HETATM   13  N   UNL     1     -11.628  13.067  68.786  1.00  0.00    -0.288 NA 
HETATM   14  C   UNL     1     -11.897  11.820  69.122  1.00  0.00    -0.326 A  
ENDROOT
BRANCH  12  15
HETATM   15  C   UNL     1     -12.894  10.498  71.006  1.00  0.00    -0.407 C  
BRANCH  15  16
HETATM   16  C   UNL     1     -11.728   9.669  71.555  1.00  0.00    -0.472 C  
HETATM   17  C   UNL     1     -12.083   8.378  72.331  1.00  0.00    -0.443 C  
HETATM   18  C   UNL     1     -12.816   7.331  71.477  1.00  0.00    -0.388 C  
HETATM   19  C   UNL     1     -10.787   7.774  72.898  1.00  0.00    -0.392 C  
HETATM   20  O   UNL     1     -14.086   7.811  71.049  1.00  0.00    -0.648 OA 
HETATM   21  O   UNL     1     -11.060   6.600  73.649  1.00  0.00    -0.480 OA 
HETATM   22  H   UNL     1     -14.539   7.164  70.522  1.00  0.00     0.000 HD 
HETATM   23  H   UNL     1     -10.259   6.227  74.000  1.00  0.00     0.000 HD 
ENDBRANCH  15  16
ENDBRANCH  12  15
TORSDOF 2
ENDMDL
MODEL       28
REMARK 921   NORMALIZED FREE ENERGY PREDICTED BY IDOCK:   -6.43 KCAL/MOL
REMARK 922        TOTAL FREE ENERGY PREDICTED BY IDOCK:   -7.39 KCAL/MOL
REMARK 923 INTER-LIGAND FREE ENERGY PREDICTED BY IDOCK:   -7.19 KCAL/MOL
REMARK 924 INTRA-LIGAND FREE ENERGY PREDICTED BY IDOCK:   -0.19 KCAL/MOL
REMARK 927      BINDING AFFINITY PREDICTED BY RF-SCORE:    0.00 PKD
ROOT
HETATM    1  N   UNL     1     -12.497  14.588  63.595  1.00  0.00    -1.078 NA 
HETATM    2  H1  UNL     1     -13.010  15.182  64.247  1.00  0.00     0.000 HD 
HETATM    3  C   UNL     1     -11.850  13.485  64.042  1.00  0.00    -0.427 C  
HETATM    4  H2  UNL     1     -12.471  14.826  62.603  1.00  0.00     0.000 HD 
HETATM    5  N   UNL     1     -11.196  12.727  63.211  1.00  0.00    -0.715 N  
HETATM    6  H   UNL     1     -11.155  12.972  62.222  1.00  0.00     0.000 HD 
HETATM    7  C   UNL     1     -10.546  11.574  63.676  1.00  0.00    -0.429 C  
HETATM    8  C   UNL     1     -10.716  11.295  65.104  1.00  0.00    -0.246 A  
HETATM    9  O   UNL     1      -9.886  10.852  62.938  1.00  0.00    -0.313 OA 
HETATM   10  C   UNL     1     -11.424  12.168  65.889  1.00  0.00    -0.363 A  
HETATM   11  N   UNL     1     -11.983  13.279  65.394  1.00  0.00    -0.371 NA 
HETATM   12  N   UNL     1     -11.417  11.669  67.152  1.00  0.00    -0.478 NA 
HETATM   13  N   UNL     1     -10.263  10.241  65.872  1.00  0.00    -0.246 NA 
HETATM   14  C   UNL     1     -10.725  10.483  67.084  1.00  0.00    -0.265 A  
ENDROOT
BRANCH  12  15
HETATM   15  C   UNL     1     -12.022  12.217  68.348  1.00  0.00    -0.210 C  
BRANCH  15  16
HETATM   16  C   UNL     1     -11.426  13.552  68.806  1.00  0.00    -0.349 C  
HETATM   17  C   UNL     1     -12.169  14.308  69.933  1.00  0.00    -0.407 C  
HETATM   18  C   UNL     1     -12.220  13.535  71.261  1.00  0.00    -0.117 C  
HETATM   19  C   UNL     1     -11.482  15.667  70.148  1.00  0.00    -0.348 C  
HETATM   20  O   UNL     1     -12.970  12.332  71.129  1.00  0.00    -0.267 OA 
HETATM   21  O   UNL     1     -12.145  16.420  71.154  1.00  0.00    -0.566 OA 
HETATM   22  H   UNL     1     -13.002  11.854  71.949  1.00  0.00     0.000 HD 
HETATM   23  H   UNL     1     -11.721  17.260  71.286  1.00  0.00     0.000 HD 
ENDBRANCH  15  16
ENDBRANCH  12  15
TORSDOF 2
ENDMDL
MODEL       29
REMARK 921   NORMALIZED FREE ENERGY PREDICTED BY IDOCK:   -6.43 KCAL/MOL
REMARK 922        TOTAL FREE ENERGY PREDICTED BY IDOCK:   -7.39 KCAL/MOL
REMARK 923 INTER-LIGAND FREE ENERGY PREDICTED BY IDOCK:   -7.18 KCAL/MOL
REMARK 924 INTRA-LIGAND FREE ENERGY PREDICTED BY IDOCK:   -0.20 KCAL/MOL
REMARK 927      BINDING AFFINITY PREDICTED BY RF-SCORE:    0.00 PKD
ROOT
HETATM    1  N   UNL     1     -10.941  15.216  70.900  1.00  0.00    -0.528 NA 
HETATM    2  H1  UNL     1     -11.228  14.237  70.864  1.00  0.00     0.000 HD 
HETATM    3  C   UNL     1     -10.716  15.904  69.754  1.00  0.00    -0.324 C  
HETATM    4  H2  UNL     1     -10.822  15.678  71.802  1.00  0.00     0.000 HD 
HETATM    5  N   UNL     1     -10.350  17.151  69.800  1.00  0.00    -0.053 N  
HETATM    6  H   UNL     1     -10.215  17.610  70.701  1.00  0.00     0.000 HD 
HETATM    7  C   UNL     1     -10.140  17.864  68.611  1.00  0.00    -0.394 C  
HETATM    8  C   UNL     1     -10.413  17.120  67.380  1.00  0.00    -0.334 A  
HETATM    9  O   UNL     1      -9.757  19.029  68.604  1.00  0.00    -0.365 OA 
HETATM   10  C   UNL     1     -10.790  15.803  67.450  1.00  0.00    -0.306 A  
HETATM   11  N   UNL     1     -10.929  15.162  68.617  1.00  0.00    -0.244 NA 
HETATM   12  N   UNL     1     -10.971  15.368  66.176  1.00  0.00    -0.310 NA 
HETATM   13  N   UNL     1     -10.359  17.517  66.060  1.00  0.00    -0.489 NA 
HETATM   14  C   UNL     1     -10.726  16.454  65.369  1.00  0.00    -0.296 A  
ENDROOT
BRANCH  12  15
HETATM   15  C   UNL     1     -11.368  14.055  65.713  1.00  0.00    -0.312 C  
BRANCH  15  16
HETATM   16  C   UNL     1     -10.469  13.470  64.619  1.00  0.00    -0.439 C  
HETATM   17  C   UNL     1     -10.845  12.074  64.066  1.00  0.00    -0.433 C  
HETATM   18  C   UNL     1     -12.216  12.038  63.373  1.00  0.00    -0.519 C  
HETATM   19  C   UNL     1      -9.752  11.625  63.082  1.00  0.00    -0.360 C  
HETATM   20  O   UNL     1     -13.267  12.316  64.293  1.00  0.00    -0.785 OA 
HETATM   21  O   UNL     1     -10.032  10.331  62.566  1.00  0.00    -0.691 OA 
HETATM   22  H   UNL     1     -14.114  12.294  63.865  1.00  0.00     0.000 HD 
HETATM   23  H   UNL     1      -9.356  10.053  61.959  1.00  0.00     0.000 HD 
ENDBRANCH  15  16
ENDBRANCH  12  15
TORSDOF 2
ENDMDL
MODEL       30
REMARK 921   NORMALIZED FREE ENERGY PREDICTED BY IDOCK:   -6.37 KCAL/MOL
REMARK 922        TOTAL FREE ENERGY PREDICTED BY IDOCK:   -7.32 KCAL/MOL
REMARK 923 INTER-LIGAND FREE ENERGY PREDICTED BY IDOCK:   -6.65 KCAL/MOL
REMARK 924 INTRA-LIGAND FREE ENERGY PREDICTED BY IDOCK:   -0.68 KCAL/MOL
REMARK 927      BINDING AFFINITY PREDICTED BY RF-SCORE:    0.00 PKD
ROOT
HETATM    1  N   UNL     1     -12.496  13.973  63.407  1.00  0.00    -1.123 NA 
HETATM    2  H1  UNL     1     -13.002  14.563  64.067  1.00  0.00     0.000 HD 
HETATM    3  C   UNL     1     -11.749  12.934  63.854  1.00  0.00    -0.460 C  
HETATM    4  H2  UNL     1     -12.553  14.165  62.406  1.00  0.00     0.000 HD 
HETATM    5  N   UNL     1     -11.103  12.181  63.012  1.00  0.00    -0.645 N  
HETATM    6  H   UNL     1     -11.146  12.381  62.012  1.00  0.00     0.000 HD 
HETATM    7  C   UNL     1     -10.349  11.095  63.478  1.00  0.00    -0.387 C  
HETATM    8  C   UNL     1     -10.403  10.873  64.925  1.00  0.00    -0.304 A  
HETATM    9  O   UNL     1      -9.694  10.382  62.727  1.00  0.00    -0.312 OA 
HETATM   10  C   UNL     1     -11.113  11.736  65.720  1.00  0.00    -0.297 A  
HETATM   11  N   UNL     1     -11.776  12.785  65.219  1.00  0.00    -0.348 NA 
HETATM   12  N   UNL     1     -10.987  11.298  67.000  1.00  0.00    -0.284 NA 
HETATM   13  N   UNL     1      -9.831   9.887  65.703  1.00  0.00    -0.286 NA 
HETATM   14  C   UNL     1     -10.225  10.156  66.934  1.00  0.00    -0.236 A  
ENDROOT
BRANCH  12  15
HETATM   15  C   UNL     1     -11.546  11.862  68.211  1.00  0.00    -0.327 C  
BRANCH  15  16
HETATM   16  C   UNL     1     -10.611  12.825  68.951  1.00  0.00    -0.154 C  
HETATM   17  C   UNL     1     -10.388  14.219  68.318  1.00  0.00    -0.242 C  
HETATM   18  C   UNL     1     -11.669  15.063  68.224  1.00  0.00    -0.314 C  
HETATM   19  C   UNL     1      -9.329  14.969  69.143  1.00  0.00    -0.189 C  
HETATM   20  O   UNL     1     -12.621  14.461  67.354  1.00  0.00    -0.532 OA 
HETATM   21  O   UNL     1      -9.061  16.248  68.586  1.00  0.00    -0.208 OA 
HETATM   22  H   UNL     1     -13.413  14.982  67.295  1.00  0.00     0.000 HD 
HETATM   23  H   UNL     1      -8.407  16.712  69.096  1.00  0.00     0.000 HD 
ENDBRANCH  15  16
ENDBRANCH  12  15
TORSDOF 2
ENDMDL
MODEL       31
REMARK 921   NORMALIZED FREE ENERGY PREDICTED BY IDOCK:   -6.37 KCAL/MOL
REMARK 922        TOTAL FREE ENERGY PREDICTED BY IDOCK:   -7.32 KCAL/MOL
REMARK 923 INTER-LIGAND FREE ENERGY PREDICTED BY IDOCK:   -7.24 KCAL/MOL
REMARK 924 INTRA-LIGAND FREE ENERGY PREDICTED BY IDOCK:   -0.08 KCAL/MOL
REMARK 927      BINDING AFFINITY PREDICTED BY RF-SCORE:    0.00 PKD
ROOT
HETATM    1  N   UNL     1     -11.104  15.979  68.923  1.00  0.00    -0.308 NA 
HETATM    2  H1  UNL     1     -10.649  15.432  68.192  1.00  0.00     0.000 HD 
HETATM    3  C   UNL     1     -11.836  15.362  69.882  1.00  0.00    -0.350 C  
HETATM    4  H2  UNL     1     -11.007  16.995  68.933  1.00  0.00     0.000 HD 
HETATM    5  N   UNL     1     -12.415  16.059  70.814  1.00  0.00    -0.495 N  
HETATM    6  H   UNL     1     -12.333  17.076  70.817  1.00  0.00     0.000 HD 
HETATM    7  C   UNL     1     -13.154  15.413  71.817  1.00  0.00    -0.445 C  
HETATM    8  C   UNL     1     -13.160  13.950  71.743  1.00  0.00    -0.377 A  
HETATM    9  O   UNL     1     -13.749  16.030  72.693  1.00  0.00    -0.473 OA 
HETATM   10  C   UNL     1     -12.518  13.318  70.708  1.00  0.00    -0.324 A  
HETATM   11  N   UNL     1     -11.867  13.994  69.754  1.00  0.00    -0.305 NA 
HETATM   12  N   UNL     1     -12.688  11.983  70.887  1.00  0.00    -0.256 NA 
HETATM   13  N   UNL     1     -13.734  13.012  72.576  1.00  0.00    -0.630 NA 
HETATM   14  C   UNL     1     -13.408  11.846  72.050  1.00  0.00    -0.320 A  
ENDROOT
BRANCH  12  15
HETATM   15  C   UNL     1     -12.206  10.889  70.068  1.00  0.00    -0.347 C  
BRANCH  15  16
HETATM   16  C   UNL     1     -11.218   9.956  70.775  1.00  0.00    -0.427 C  
HETATM   17  C   UNL     1     -11.787   9.025  71.873  1.00  0.00    -0.447 C  
HETATM   18  C   UNL     1     -12.822   8.018  71.347  1.00  0.00    -0.269 C  
HETATM   19  C   UNL     1     -10.619   8.275  72.534  1.00  0.00    -0.337 C  
HETATM   20  O   UNL     1     -13.981   8.680  70.851  1.00  0.00    -0.572 OA 
HETATM   21  O   UNL     1     -11.083   7.426  73.575  1.00  0.00    -0.558 OA 
HETATM   22  H   UNL     1     -14.621   8.057  70.527  1.00  0.00     0.000 HD 
HETATM   23  H   UNL     1     -10.361   6.963  73.984  1.00  0.00     0.000 HD 
ENDBRANCH  15  16
ENDBRANCH  12  15
TORSDOF 2
ENDMDL
MODEL       32
REMARK 921   NORMALIZED FREE ENERGY PREDICTED BY IDOCK:   -6.35 KCAL/MOL
REMARK 922        TOTAL FREE ENERGY PREDICTED BY IDOCK:   -7.30 KCAL/MOL
REMARK 923 INTER-LIGAND FREE ENERGY PREDICTED BY IDOCK:   -6.68 KCAL/MOL
REMARK 924 INTRA-LIGAND FREE ENERGY PREDICTED BY IDOCK:   -0.62 KCAL/MOL
REMARK 927      BINDING AFFINITY PREDICTED BY RF-SCORE:    0.00 PKD
ROOT
HETATM    1  N   UNL     1     -14.272   8.817  73.411  1.00  0.00    -1.077 NA 
HETATM    2  H1  UNL     1     -14.956   9.568  73.320  1.00  0.00     0.000 HD 
HETATM    3  C   UNL     1     -13.160   8.809  72.637  1.00  0.00    -0.256 C  
HETATM    4  H2  UNL     1     -14.425   8.069  74.089  1.00  0.00     0.000 HD 
HETATM    5  N   UNL     1     -12.287   7.851  72.753  1.00  0.00    -0.591 N  
HETATM    6  H   UNL     1     -12.447   7.094  73.418  1.00  0.00     0.000 HD 
HETATM    7  C   UNL     1     -11.128   7.859  71.965  1.00  0.00    -0.278 C  
HETATM    8  C   UNL     1     -10.980   9.020  71.084  1.00  0.00    -0.301 A  
HETATM    9  O   UNL     1     -10.297   6.959  72.011  1.00  0.00    -0.198 OA 
HETATM   10  C   UNL     1     -11.968   9.970  71.038  1.00  0.00    -0.376 A  
HETATM   11  N   UNL     1     -13.076   9.882  71.784  1.00  0.00    -0.419 NA 
HETATM   12  N   UNL     1     -11.574  10.917  70.148  1.00  0.00    -0.314 NA 
HETATM   13  N   UNL     1      -9.959   9.369  70.223  1.00  0.00    -0.220 NA 
HETATM   14  C   UNL     1     -10.335  10.522  69.702  1.00  0.00    -0.193 A  
ENDROOT
BRANCH  12  15
HETATM   15  C   UNL     1     -12.265  12.123  69.740  1.00  0.00    -0.144 C  
BRANCH  15  16
HETATM   16  C   UNL     1     -11.594  13.422  70.197  1.00  0.00    -0.171 C  
HETATM   17  C   UNL     1     -12.426  14.370  71.093  1.00  0.00    -0.429 C  
HETATM   18  C   UNL     1     -12.821  13.750  72.443  1.00  0.00    -0.257 C  
HETATM   19  C   UNL     1     -11.619  15.658  71.328  1.00  0.00    -0.428 C  
HETATM   20  O   UNL     1     -13.684  12.632  72.264  1.00  0.00    -0.507 OA 
HETATM   21  O   UNL     1     -12.353  16.581  72.122  1.00  0.00    -0.525 OA 
HETATM   22  H   UNL     1     -13.928  12.248  73.098  1.00  0.00     0.000 HD 
HETATM   23  H   UNL     1     -11.854  17.377  72.267  1.00  0.00     0.000 HD 
ENDBRANCH  15  16
ENDBRANCH  12  15
TORSDOF 2
ENDMDL
MODEL       33
REMARK 921   NORMALIZED FREE ENERGY PREDICTED BY IDOCK:   -6.35 KCAL/MOL
REMARK 922        TOTAL FREE ENERGY PREDICTED BY IDOCK:   -7.29 KCAL/MOL
REMARK 923 INTER-LIGAND FREE ENERGY PREDICTED BY IDOCK:   -7.04 KCAL/MOL
REMARK 924 INTRA-LIGAND FREE ENERGY PREDICTED BY IDOCK:   -0.25 KCAL/MOL
REMARK 927      BINDING AFFINITY PREDICTED BY RF-SCORE:    0.00 PKD
ROOT
HETATM    1  N   UNL     1     -11.684  16.480  70.969  1.00  0.00    -0.547 NA 
HETATM    2  H1  UNL     1     -11.110  16.861  70.216  1.00  0.00     0.000 HD 
HETATM    3  C   UNL     1     -12.062  15.179  70.948  1.00  0.00    -0.334 C  
HETATM    4  H2  UNL     1     -11.975  17.082  71.740  1.00  0.00     0.000 HD 
HETATM    5  N   UNL     1     -12.793  14.694  71.909  1.00  0.00    -0.315 N  
HETATM    6  H   UNL     1     -13.098  15.298  72.673  1.00  0.00     0.000 HD 
HETATM    7  C   UNL     1     -13.162  13.341  71.894  1.00  0.00    -0.431 C  
HETATM    8  C   UNL     1     -12.625  12.559  70.778  1.00  0.00    -0.212 A  
HETATM    9  O   UNL     1     -13.882  12.849  72.755  1.00  0.00    -0.522 OA 
HETATM   10  C   UNL     1     -11.867  13.178  69.816  1.00  0.00    -0.316 A  
HETATM   11  N   UNL     1     -11.586  14.486  69.862  1.00  0.00    -0.274 NA 
HETATM   12  N   UNL     1     -11.511  12.228  68.913  1.00  0.00    -0.280 NA 
HETATM   13  N   UNL     1     -12.745  11.217  70.483  1.00  0.00    -0.219 NA 
HETATM   14  C   UNL     1     -12.044  11.048  69.378  1.00  0.00    -0.318 A  
ENDROOT
BRANCH  12  15
HETATM   15  C   UNL     1     -10.713  12.370  67.713  1.00  0.00    -0.221 C  
BRANCH  15  16
HETATM   16  C   UNL     1     -11.475  12.104  66.411  1.00  0.00    -0.430 C  
HETATM   17  C   UNL     1     -11.556  13.264  65.389  1.00  0.00    -0.346 C  
HETATM   18  C   UNL     1     -10.185  13.700  64.847  1.00  0.00    -0.339 C  
HETATM   19  C   UNL     1     -12.462  12.831  64.225  1.00  0.00    -0.382 C  
HETATM   20  O   UNL     1      -9.368  14.237  65.882  1.00  0.00    -0.504 OA 
HETATM   21  O   UNL     1     -12.597  13.873  63.270  1.00  0.00    -1.049 OA 
HETATM   22  H   UNL     1      -8.521  14.507  65.548  1.00  0.00     0.000 HD 
HETATM   23  H   UNL     1     -13.158  13.606  62.550  1.00  0.00     0.000 HD 
ENDBRANCH  15  16
ENDBRANCH  12  15
TORSDOF 2
ENDMDL
MODEL       34
REMARK 921   NORMALIZED FREE ENERGY PREDICTED BY IDOCK:   -6.31 KCAL/MOL
REMARK 922        TOTAL FREE ENERGY PREDICTED BY IDOCK:   -7.25 KCAL/MOL
REMARK 923 INTER-LIGAND FREE ENERGY PREDICTED BY IDOCK:   -6.61 KCAL/MOL
REMARK 924 INTRA-LIGAND FREE ENERGY PREDICTED BY IDOCK:   -0.63 KCAL/MOL
REMARK 927      BINDING AFFINITY PREDICTED BY RF-SCORE:    0.00 PKD
ROOT
HETATM    1  N   UNL     1      -9.620  17.251  68.102  1.00  0.00    -0.274 NA 
HETATM    2  H1  UNL     1      -9.267  16.893  68.990  1.00  0.00     0.000 HD 
HETATM    3  C   UNL     1     -10.145  16.403  67.184  1.00  0.00    -0.271 C  
HETATM    4  H2  UNL     1      -9.578  18.252  67.904  1.00  0.00     0.000 HD 
HETATM    5  N   UNL     1     -10.595  16.860  66.052  1.00  0.00    -0.269 N  
HETATM    6  H   UNL     1     -10.539  17.858  65.846  1.00  0.00     0.000 HD 
HETATM    7  C   UNL     1     -11.158  15.981  65.116  1.00  0.00    -0.283 C  
HETATM    8  C   UNL     1     -11.233  14.581  65.540  1.00  0.00    -0.335 A  
HETATM    9  O   UNL     1     -11.559  16.359  64.021  1.00  0.00    -1.071 OA 
HETATM   10  C   UNL     1     -10.720  14.210  66.757  1.00  0.00    -0.286 A  
HETATM   11  N   UNL     1     -10.153  15.091  67.590  1.00  0.00    -0.230 NA 
HETATM   12  N   UNL     1     -10.920  12.873  66.886  1.00  0.00    -0.261 NA 
HETATM   13  N   UNL     1     -11.759  13.477  64.901  1.00  0.00    -0.343 NA 
HETATM   14  C   UNL     1     -11.581  12.479  65.746  1.00  0.00    -0.392 A  
ENDROOT
BRANCH  12  15
HETATM   15  C   UNL     1     -10.558  12.003  67.986  1.00  0.00    -0.208 C  
BRANCH  15  16
HETATM   16  C   UNL     1     -11.748  11.339  68.686  1.00  0.00    -0.391 C  
HETATM   17  C   UNL     1     -11.948  11.652  70.188  1.00  0.00    -0.441 C  
HETATM   18  C   UNL     1     -12.226  13.136  70.474  1.00  0.00    -0.328 C  
HETATM   19  C   UNL     1     -13.109  10.793  70.719  1.00  0.00    -0.163 C  
HETATM   20  O   UNL     1     -11.112  13.948  70.120  1.00  0.00    -0.473 OA 
HETATM   21  O   UNL     1     -13.316  11.018  72.106  1.00  0.00    -0.594 OA 
HETATM   22  H   UNL     1     -11.283  14.865  70.296  1.00  0.00     0.000 HD 
HETATM   23  H   UNL     1     -14.033  10.487  72.434  1.00  0.00     0.000 HD 
ENDBRANCH  15  16
ENDBRANCH  12  15
TORSDOF 2
ENDMDL
MODEL       35
REMARK 921   NORMALIZED FREE ENERGY PREDICTED BY IDOCK:   -6.29 KCAL/MOL
REMARK 922        TOTAL FREE ENERGY PREDICTED BY IDOCK:   -7.23 KCAL/MOL
REMARK 923 INTER-LIGAND FREE ENERGY PREDICTED BY IDOCK:   -6.88 KCAL/MOL
REMARK 924 INTRA-LIGAND FREE ENERGY PREDICTED BY IDOCK:   -0.35 KCAL/MOL
REMARK 927      BINDING AFFINITY PREDICTED BY RF-SCORE:    0.00 PKD
ROOT
HETATM    1  N   UNL     1      -9.986  10.644  62.384  1.00  0.00    -0.738 NA 
HETATM    2  H1  UNL     1      -9.405   9.851  62.656  1.00  0.00     0.000 HD 
HETATM    3  C   UNL     1     -10.580  11.410  63.332  1.00  0.00    -0.368 C  
HETATM    4  H2  UNL     1     -10.120  10.863  61.397  1.00  0.00     0.000 HD 
HETATM    5  N   UNL     1     -11.321  12.422  62.986  1.00  0.00    -0.679 N  
HETATM    6  H   UNL     1     -11.469  12.632  61.999  1.00  0.00     0.000 HD 
HETATM    7  C   UNL     1     -11.916  13.224  63.970  1.00  0.00    -0.465 C  
HETATM    8  C   UNL     1     -11.593  12.860  65.352  1.00  0.00    -0.350 A  
HETATM    9  O   UNL     1     -12.653  14.163  63.693  1.00  0.00    -0.831 OA 
HETATM   10  C   UNL     1     -10.803  11.766  65.600  1.00  0.00    -0.292 A  
HETATM   11  N   UNL     1     -10.301  11.011  64.616  1.00  0.00    -0.330 NA 
HETATM   12  N   UNL     1     -10.673  11.663  66.949  1.00  0.00    -0.244 NA 
HETATM   13  N   UNL     1     -11.959  13.450  66.544  1.00  0.00    -0.393 NA 
HETATM   14  C   UNL     1     -11.368  12.725  67.477  1.00  0.00    -0.312 A  
ENDROOT
BRANCH  12  15
HETATM   15  C   UNL     1      -9.941  10.677  67.717  1.00  0.00    -0.167 C  
BRANCH  15  16
HETATM   16  C   UNL     1     -10.632   9.314  67.820  1.00  0.00    -0.307 C  
HETATM   17  C   UNL     1     -10.082   8.174  66.929  1.00  0.00    -0.367 C  
HETATM   18  C   UNL     1      -8.627   7.795  67.246  1.00  0.00    -0.128 C  
HETATM   19  C   UNL     1     -10.989   6.943  67.091  1.00  0.00    -0.357 C  
HETATM   20  O   UNL     1      -7.740   8.875  66.974  1.00  0.00    -0.096 OA 
HETATM   21  O   UNL     1     -10.547   5.873  66.267  1.00  0.00    -0.458 OA 
HETATM   22  H   UNL     1      -6.841   8.640  67.170  1.00  0.00     0.000 HD 
HETATM   23  H   UNL     1     -11.108   5.112  66.367  1.00  0.00     0.000 HD 
ENDBRANCH  15  16
ENDBRANCH  12  15
TORSDOF 2
ENDMDL
MODEL       36
REMARK 921   NORMALIZED FREE ENERGY PREDICTED BY IDOCK:   -6.29 KCAL/MOL
REMARK 922        TOTAL FREE ENERGY PREDICTED BY IDOCK:   -7.23 KCAL/MOL
REMARK 923 INTER-LIGAND FREE ENERGY PREDICTED BY IDOCK:   -6.94 KCAL/MOL
REMARK 924 INTRA-LIGAND FREE ENERGY PREDICTED BY IDOCK:   -0.28 KCAL/MOL
REMARK 927      BINDING AFFINITY PREDICTED BY RF-SCORE:    0.00 PKD
ROOT
HETATM    1  N   UNL     1      -7.697  20.565  65.652  1.00  0.00    -0.517 NA 
HETATM    2  H1  UNL     1      -7.242  20.112  64.858  1.00  0.00     0.000 HD 
HETATM    3  C   UNL     1      -8.512  19.854  66.468  1.00  0.00    -0.337 C  
HETATM    4  H2  UNL     1      -7.537  21.557  65.831  1.00  0.00     0.000 HD 
HETATM    5  N   UNL     1      -9.091  20.432  67.480  1.00  0.00    -0.347 N  
HETATM    6  H   UNL     1      -8.946  21.427  67.651  1.00  0.00     0.000 HD 
HETATM    7  C   UNL     1      -9.916  19.686  68.334  1.00  0.00    -0.439 C  
HETATM    8  C   UNL     1     -10.011  18.258  68.022  1.00  0.00    -0.347 A  
HETATM    9  O   UNL     1     -10.514  20.194  69.276  1.00  0.00    -0.218 OA 
HETATM   10  C   UNL     1      -9.360  17.757  66.924  1.00  0.00    -0.269 A  
HETATM   11  N   UNL     1      -8.622  18.530  66.118  1.00  0.00    -0.491 NA 
HETATM   12  N   UNL     1      -9.622  16.425  66.875  1.00  0.00    -0.237 NA 
HETATM   13  N   UNL     1     -10.683  17.241  68.668  1.00  0.00    -0.320 NA 
HETATM   14  C   UNL     1     -10.405  16.155  67.972  1.00  0.00    -0.271 A  
ENDROOT
BRANCH  12  15
HETATM   15  C   UNL     1      -9.170  15.446  65.907  1.00  0.00    -0.239 C  
BRANCH  15  16
HETATM   16  C   UNL     1     -10.049  14.195  65.814  1.00  0.00    -0.352 C  
HETATM   17  C   UNL     1     -11.549  14.408  65.494  1.00  0.00    -0.347 C  
HETATM   18  C   UNL     1     -11.797  15.048  64.119  1.00  0.00    -0.167 C  
HETATM   19  C   UNL     1     -12.265  13.049  65.573  1.00  0.00    -0.469 C  
HETATM   20  O   UNL     1     -11.264  16.366  64.059  1.00  0.00    -1.333 OA 
HETATM   21  O   UNL     1     -13.655  13.191  65.317  1.00  0.00    -0.243 OA 
HETATM   22  H   UNL     1     -11.417  16.763  63.210  1.00  0.00     0.000 HD 
HETATM   23  H   UNL     1     -14.098  12.351  65.366  1.00  0.00     0.000 HD 
ENDBRANCH  15  16
ENDBRANCH  12  15
TORSDOF 2
ENDMDL
MODEL       37
REMARK 921   NORMALIZED FREE ENERGY PREDICTED BY IDOCK:   -6.28 KCAL/MOL
REMARK 922        TOTAL FREE ENERGY PREDICTED BY IDOCK:   -7.22 KCAL/MOL
REMARK 923 INTER-LIGAND FREE ENERGY PREDICTED BY IDOCK:   -6.61 KCAL/MOL
REMARK 924 INTRA-LIGAND FREE ENERGY PREDICTED BY IDOCK:   -0.61 KCAL/MOL
REMARK 927      BINDING AFFINITY PREDICTED BY RF-SCORE:    0.00 PKD
ROOT
HETATM    1  N   UNL     1     -10.545   8.469  68.735  1.00  0.00    -0.366 NA 
HETATM    2  H1  UNL     1      -9.989   8.654  67.900  1.00  0.00     0.000 HD 
HETATM    3  C   UNL     1     -11.097   9.495  69.428  1.00  0.00    -0.110 C  
HETATM    4  H2  UNL     1     -10.686   7.509  69.049  1.00  0.00     0.000 HD 
HETATM    5  N   UNL     1     -11.806   9.260  70.492  1.00  0.00    -0.442 N  
HETATM    6  H   UNL     1     -11.935   8.302  70.818  1.00  0.00     0.000 HD 
HETATM    7  C   UNL     1     -12.393  10.323  71.193  1.00  0.00    -0.395 C  
HETATM    8  C   UNL     1     -12.184  11.649  70.606  1.00  0.00    -0.366 A  
HETATM    9  O   UNL     1     -13.037  10.154  72.222  1.00  0.00    -0.405 OA 
HETATM   10  C   UNL     1     -11.411  11.780  69.480  1.00  0.00    -0.295 A  
HETATM   11  N   UNL     1     -10.838  10.729  68.882  1.00  0.00    -0.210 NA 
HETATM   12  N   UNL     1     -11.386  13.101  69.163  1.00  0.00    -0.279 NA 
HETATM   13  N   UNL     1     -12.649  12.887  70.997  1.00  0.00    -0.345 NA 
HETATM   14  C   UNL     1     -12.177  13.728  70.097  1.00  0.00    -0.356 A  
ENDROOT
BRANCH  12  15
HETATM   15  C   UNL     1     -10.708  13.757  68.064  1.00  0.00    -0.250 C  
BRANCH  15  16
HETATM   16  C   UNL     1     -11.640  14.292  66.973  1.00  0.00    -0.406 C  
HETATM   17  C   UNL     1     -11.407  13.780  65.531  1.00  0.00    -0.313 C  
HETATM   18  C   UNL     1     -11.609  12.264  65.378  1.00  0.00    -0.363 C  
HETATM   19  C   UNL     1     -12.358  14.530  64.583  1.00  0.00    -0.403 C  
HETATM   20  O   UNL     1     -10.652  11.536  66.139  1.00  0.00    -0.250 OA 
HETATM   21  O   UNL     1     -12.163  14.120  63.237  1.00  0.00    -1.061 OA 
HETATM   22  H   UNL     1     -10.776  10.599  66.045  1.00  0.00     0.000 HD 
HETATM   23  H   UNL     1     -12.750  14.584  62.651  1.00  0.00     0.000 HD 
ENDBRANCH  15  16
ENDBRANCH  12  15
TORSDOF 2
ENDMDL
MODEL       38
REMARK 921   NORMALIZED FREE ENERGY PREDICTED BY IDOCK:   -6.26 KCAL/MOL
REMARK 922        TOTAL FREE ENERGY PREDICTED BY IDOCK:   -7.20 KCAL/MOL
REMARK 923 INTER-LIGAND FREE ENERGY PREDICTED BY IDOCK:   -6.98 KCAL/MOL
REMARK 924 INTRA-LIGAND FREE ENERGY PREDICTED BY IDOCK:   -0.22 KCAL/MOL
REMARK 927      BINDING AFFINITY PREDICTED BY RF-SCORE:    0.00 PKD
ROOT
HETATM    1  N   UNL     1     -12.423  13.857  63.200  1.00  0.00    -1.079 NA 
HETATM    2  H1  UNL     1     -12.377  14.751  62.710  1.00  0.00     0.000 HD 
HETATM    3  C   UNL     1     -12.020  13.764  64.491  1.00  0.00    -0.427 C  
HETATM    4  H2  UNL     1     -12.773  13.029  62.716  1.00  0.00     0.000 HD 
HETATM    5  N   UNL     1     -12.078  12.625  65.115  1.00  0.00    -0.433 N  
HETATM    6  H   UNL     1     -12.413  11.793  64.628  1.00  0.00     0.000 HD 
HETATM    7  C   UNL     1     -11.681  12.540  66.457  1.00  0.00    -0.391 C  
HETATM    8  C   UNL     1     -11.268  13.806  67.068  1.00  0.00    -0.311 A  
HETATM    9  O   UNL     1     -11.681  11.481  67.075  1.00  0.00    -0.556 OA 
HETATM   10  C   UNL     1     -11.241  14.949  66.311  1.00  0.00    -0.331 A  
HETATM   11  N   UNL     1     -11.589  14.957  65.019  1.00  0.00    -0.368 NA 
HETATM   12  N   UNL     1     -10.822  15.956  67.120  1.00  0.00    -0.302 NA 
HETATM   13  N   UNL     1     -10.870  14.092  68.357  1.00  0.00    -0.247 NA 
HETATM   14  C   UNL     1     -10.638  15.392  68.360  1.00  0.00    -0.247 A  
ENDROOT
BRANCH  12  15
HETATM   15  C   UNL     1     -10.624  17.355  66.801  1.00  0.00    -0.194 C  
BRANCH  15  16
HETATM   16  C   UNL     1      -9.180  17.726  66.448  1.00  0.00    -0.257 C  
HETATM   17  C   UNL     1      -8.861  19.230  66.270  1.00  0.00    -0.341 C  
HETATM   18  C   UNL     1      -9.077  20.059  67.546  1.00  0.00    -0.356 C  
HETATM   19  C   UNL     1      -7.403  19.370  65.799  1.00  0.00    -0.258 C  
HETATM   20  O   UNL     1     -10.447  20.063  67.933  1.00  0.00    -0.391 OA 
HETATM   21  O   UNL     1      -7.065  20.734  65.589  1.00  0.00    -0.497 OA 
HETATM   22  H   UNL     1     -10.581  20.574  68.722  1.00  0.00     0.000 HD 
HETATM   23  H   UNL     1      -6.165  20.820  65.297  1.00  0.00     0.000 HD 
ENDBRANCH  15  16
ENDBRANCH  12  15
TORSDOF 2
ENDMDL
MODEL       39
REMARK 921   NORMALIZED FREE ENERGY PREDICTED BY IDOCK:   -6.26 KCAL/MOL
REMARK 922        TOTAL FREE ENERGY PREDICTED BY IDOCK:   -7.19 KCAL/MOL
REMARK 923 INTER-LIGAND FREE ENERGY PREDICTED BY IDOCK:   -6.91 KCAL/MOL
REMARK 924 INTRA-LIGAND FREE ENERGY PREDICTED BY IDOCK:   -0.29 KCAL/MOL
REMARK 927      BINDING AFFINITY PREDICTED BY RF-SCORE:    0.00 PKD
ROOT
HETATM    1  N   UNL     1     -10.570   6.840  66.567  1.00  0.00    -0.507 NA 
HETATM    2  H1  UNL     1     -10.372   6.991  65.577  1.00  0.00     0.000 HD 
HETATM    3  C   UNL     1     -10.661   7.894  67.413  1.00  0.00    -0.272 C  
HETATM    4  H2  UNL     1     -10.701   5.892  66.920  1.00  0.00     0.000 HD 
HETATM    5  N   UNL     1     -10.913   7.702  68.675  1.00  0.00    -0.424 N  
HETATM    6  H   UNL     1     -11.028   6.754  69.033  1.00  0.00     0.000 HD 
HETATM    7  C   UNL     1     -11.027   8.798  69.542  1.00  0.00    -0.068 C  
HETATM    8  C   UNL     1     -10.896  10.112  68.909  1.00  0.00    -0.223 A  
HETATM    9  O   UNL     1     -11.225   8.664  70.744  1.00  0.00    -0.253 OA 
HETATM   10  C   UNL     1     -10.624  10.196  67.567  1.00  0.00    -0.273 A  
HETATM   11  N   UNL     1     -10.480   9.110  66.799  1.00  0.00    -0.231 NA 
HETATM   12  N   UNL     1     -10.552  11.516  67.254  1.00  0.00    -0.218 NA 
HETATM   13  N   UNL     1     -10.999  11.380  69.443  1.00  0.00    -0.230 NA 
HETATM   14  C   UNL     1     -10.816  12.195  68.421  1.00  0.00    -0.224 A  
ENDROOT
BRANCH  12  15
HETATM   15  C   UNL     1     -10.286  12.132  65.971  1.00  0.00    -0.237 C  
BRANCH  15  16
HETATM   16  C   UNL     1     -10.222  13.662  66.003  1.00  0.00    -0.312 C  
HETATM   17  C   UNL     1     -11.010  14.425  64.911  1.00  0.00    -0.416 C  
HETATM   18  C   UNL     1     -12.527  14.190  64.973  1.00  0.00    -0.419 C  
HETATM   19  C   UNL     1     -10.709  15.927  65.048  1.00  0.00    -0.404 C  
HETATM   20  O   UNL     1     -12.850  12.828  64.713  1.00  0.00    -0.707 OA 
HETATM   21  O   UNL     1     -11.385  16.675  64.046  1.00  0.00    -1.486 OA 
HETATM   22  H   UNL     1     -13.788  12.683  64.751  1.00  0.00     0.000 HD 
HETATM   23  H   UNL     1     -11.199  17.603  64.131  1.00  0.00     0.000 HD 
ENDBRANCH  15  16
ENDBRANCH  12  15
TORSDOF 2
ENDMDL
MODEL       40
REMARK 921   NORMALIZED FREE ENERGY PREDICTED BY IDOCK:   -6.21 KCAL/MOL
REMARK 922        TOTAL FREE ENERGY PREDICTED BY IDOCK:   -7.14 KCAL/MOL
REMARK 923 INTER-LIGAND FREE ENERGY PREDICTED BY IDOCK:   -6.81 KCAL/MOL
REMARK 924 INTRA-LIGAND FREE ENERGY PREDICTED BY IDOCK:   -0.34 KCAL/MOL
REMARK 927      BINDING AFFINITY PREDICTED BY RF-SCORE:    0.00 PKD
ROOT
HETATM    1  N   UNL     1     -11.470  16.171  70.544  1.00  0.00    -0.439 NA 
HETATM    2  H1  UNL     1     -11.879  15.260  70.757  1.00  0.00     0.000 HD 
HETATM    3  C   UNL     1     -11.056  16.454  69.285  1.00  0.00    -0.297 C  
HETATM    4  H2  UNL     1     -11.374  16.870  71.281  1.00  0.00     0.000 HD 
HETATM    5  N   UNL     1     -10.536  17.615  69.012  1.00  0.00    -0.395 N  
HETATM    6  H   UNL     1     -10.423  18.310  69.751  1.00  0.00     0.000 HD 
HETATM    7  C   UNL     1     -10.129  17.911  67.703  1.00  0.00    -0.348 C  
HETATM    8  C   UNL     1     -10.386  16.859  66.717  1.00  0.00    -0.298 A  
HETATM    9  O   UNL     1      -9.598  18.975  67.407  1.00  0.00    -0.299 OA 
HETATM   10  C   UNL     1     -10.936  15.669  67.119  1.00  0.00    -0.270 A  
HETATM   11  N   UNL     1     -11.261  15.428  68.394  1.00  0.00    -0.299 NA 
HETATM   12  N   UNL     1     -11.057  14.889  66.013  1.00  0.00    -0.333 NA 
HETATM   13  N   UNL     1     -10.162  16.832  65.356  1.00  0.00    -0.623 NA 
HETATM   14  C   UNL     1     -10.601  15.651  64.963  1.00  0.00    -0.396 A  
ENDROOT
BRANCH  12  15
HETATM   15  C   UNL     1     -11.579  13.542  65.905  1.00  0.00    -0.335 C  
BRANCH  15  16
HETATM   16  C   UNL     1     -10.514  12.443  65.969  1.00  0.00    -0.281 C  
HETATM   17  C   UNL     1     -10.551  11.358  64.866  1.00  0.00    -0.368 C  
HETATM   18  C   UNL     1     -10.319  11.914  63.452  1.00  0.00    -0.444 C  
HETATM   19  C   UNL     1      -9.489  10.294  65.188  1.00  0.00    -0.252 C  
HETATM   20  O   UNL     1     -11.363  12.802  63.068  1.00  0.00    -0.746 OA 
HETATM   21  O   UNL     1      -9.500   9.254  64.220  1.00  0.00    -0.383 OA 
HETATM   22  H   UNL     1     -11.220  13.145  62.194  1.00  0.00     0.000 HD 
HETATM   23  H   UNL     1      -8.844   8.596  64.420  1.00  0.00     0.000 HD 
ENDBRANCH  15  16
ENDBRANCH  12  15
TORSDOF 2
ENDMDL
MODEL       41
REMARK 921   NORMALIZED FREE ENERGY PREDICTED BY IDOCK:   -6.21 KCAL/MOL
REMARK 922        TOTAL FREE ENERGY PREDICTED BY IDOCK:   -7.14 KCAL/MOL
REMARK 923 INTER-LIGAND FREE ENERGY PREDICTED BY IDOCK:   -6.90 KCAL/MOL
REMARK 924 INTRA-LIGAND FREE ENERGY PREDICTED BY IDOCK:   -0.24 KCAL/MOL
REMARK 927      BINDING AFFINITY PREDICTED BY RF-SCORE:    0.00 PKD
ROOT
HETATM    1  N   UNL     1      -9.962  10.003  63.649  1.00  0.00    -0.460 NA 
HETATM    2  H1  UNL     1      -9.472   9.441  64.346  1.00  0.00     0.000 HD 
HETATM    3  C   UNL     1     -10.689  11.081  64.029  1.00  0.00    -0.261 C  
HETATM    4  H2  UNL     1      -9.904   9.751  62.662  1.00  0.00     0.000 HD 
HETATM    5  N   UNL     1     -11.313  11.797  63.140  1.00  0.00    -0.754 N  
HETATM    6  H   UNL     1     -11.269  11.538  62.154  1.00  0.00     0.000 HD 
HETATM    7  C   UNL     1     -12.045  12.925  63.536  1.00  0.00    -0.555 C  
HETATM    8  C   UNL     1     -11.994  13.232  64.968  1.00  0.00    -0.371 A  
HETATM    9  O   UNL     1     -12.681  13.607  62.740  1.00  0.00    -0.420 OA 
HETATM   10  C   UNL     1     -11.307  12.402  65.817  1.00  0.00    -0.352 A  
HETATM   11  N   UNL     1     -10.665  11.311  65.383  1.00  0.00    -0.257 NA 
HETATM   12  N   UNL     1     -11.430  12.917  67.068  1.00  0.00    -0.319 NA 
HETATM   13  N   UNL     1     -12.548  14.274  65.683  1.00  0.00    -0.447 NA 
HETATM   14  C   UNL     1     -12.167  14.070  66.930  1.00  0.00    -0.380 A  
ENDROOT
BRANCH  12  15
HETATM   15  C   UNL     1     -10.891  12.414  68.314  1.00  0.00    -0.237 C  
BRANCH  15  16
HETATM   16  C   UNL     1     -11.180  13.296  69.532  1.00  0.00    -0.163 C  
HETATM   17  C   UNL     1     -12.460  12.982  70.345  1.00  0.00    -0.266 C  
HETATM   18  C   UNL     1     -12.453  11.585  70.985  1.00  0.00    -0.356 C  
HETATM   19  C   UNL     1     -12.625  14.054  71.435  1.00  0.00    -0.372 C  
HETATM   20  O   UNL     1     -12.439  10.563  69.994  1.00  0.00    -0.461 OA 
HETATM   21  O   UNL     1     -13.805  13.832  72.193  1.00  0.00    -0.472 OA 
HETATM   22  H   UNL     1     -12.435   9.700  70.390  1.00  0.00     0.000 HD 
HETATM   23  H   UNL     1     -13.907  14.495  72.866  1.00  0.00     0.000 HD 
ENDBRANCH  15  16
ENDBRANCH  12  15
TORSDOF 2
ENDMDL
MODEL       42
REMARK 921   NORMALIZED FREE ENERGY PREDICTED BY IDOCK:   -6.19 KCAL/MOL
REMARK 922        TOTAL FREE ENERGY PREDICTED BY IDOCK:   -7.11 KCAL/MOL
REMARK 923 INTER-LIGAND FREE ENERGY PREDICTED BY IDOCK:   -6.50 KCAL/MOL
REMARK 924 INTRA-LIGAND FREE ENERGY PREDICTED BY IDOCK:   -0.62 KCAL/MOL
REMARK 927      BINDING AFFINITY PREDICTED BY RF-SCORE:    0.00 PKD
ROOT
HETATM    1  N   UNL     1     -11.888  10.154  69.990  1.00  0.00    -0.413 NA 
HETATM    2  H1  UNL     1     -11.231  10.008  69.223  1.00  0.00     0.000 HD 
HETATM    3  C   UNL     1     -12.136  11.406  70.446  1.00  0.00    -0.384 C  
HETATM    4  H2  UNL     1     -12.360   9.355  70.415  1.00  0.00     0.000 HD 
HETATM    5  N   UNL     1     -12.974  11.592  71.424  1.00  0.00    -0.387 N  
HETATM    6  H   UNL     1     -13.434  10.793  71.861  1.00  0.00     0.000 HD 
HETATM    7  C   UNL     1     -13.244  12.891  71.878  1.00  0.00    -0.423 C  
HETATM    8  C   UNL     1     -12.567  13.963  71.144  1.00  0.00    -0.370 A  
HETATM    9  O   UNL     1     -13.994  13.114  72.821  1.00  0.00    -0.657 OA 
HETATM   10  C   UNL     1     -11.698  13.649  70.130  1.00  0.00    -0.218 A  
HETATM   11  N   UNL     1     -11.446  12.384  69.773  1.00  0.00    -0.202 NA 
HETATM   12  N   UNL     1     -11.218  14.820  69.635  1.00  0.00    -0.266 NA 
HETATM   13  N   UNL     1     -12.638  15.333  71.287  1.00  0.00    -0.348 NA 
HETATM   14  C   UNL     1     -11.842  15.815  70.351  1.00  0.00    -0.368 A  
ENDROOT
BRANCH  12  15
HETATM   15  C   UNL     1     -10.271  15.031  68.560  1.00  0.00    -0.227 C  
BRANCH  15  16
HETATM   16  C   UNL     1     -10.849  14.821  67.157  1.00  0.00    -0.311 C  
HETATM   17  C   UNL     1     -10.030  13.946  66.178  1.00  0.00    -0.322 C  
HETATM   18  C   UNL     1      -9.861  12.493  66.650  1.00  0.00    -0.241 C  
HETATM   19  C   UNL     1     -10.717  13.971  64.803  1.00  0.00    -0.427 C  
HETATM   20  O   UNL     1      -9.107  12.425  67.855  1.00  0.00    -0.176 OA 
HETATM   21  O   UNL     1      -9.986  13.206  63.855  1.00  0.00    -0.760 OA 
HETATM   22  H   UNL     1      -9.002  11.527  68.146  1.00  0.00     0.000 HD 
HETATM   23  H   UNL     1     -10.411  13.222  63.004  1.00  0.00     0.000 HD 
ENDBRANCH  15  16
ENDBRANCH  12  15
TORSDOF 2
ENDMDL
MODEL       43
REMARK 921   NORMALIZED FREE ENERGY PREDICTED BY IDOCK:   -6.18 KCAL/MOL
REMARK 922        TOTAL FREE ENERGY PREDICTED BY IDOCK:   -7.11 KCAL/MOL
REMARK 923 INTER-LIGAND FREE ENERGY PREDICTED BY IDOCK:   -6.42 KCAL/MOL
REMARK 924 INTRA-LIGAND FREE ENERGY PREDICTED BY IDOCK:   -0.68 KCAL/MOL
REMARK 927      BINDING AFFINITY PREDICTED BY RF-SCORE:    0.00 PKD
ROOT
HETATM    1  N   UNL     1     -10.152  11.151  62.568  1.00  0.00    -0.584 NA 
HETATM    2  H1  UNL     1     -10.555  12.015  62.204  1.00  0.00     0.000 HD 
HETATM    3  C   UNL     1     -10.211  10.877  63.893  1.00  0.00    -0.354 C  
HETATM    4  H2  UNL     1      -9.705  10.491  61.931  1.00  0.00     0.000 HD 
HETATM    5  N   UNL     1      -9.698   9.775  64.357  1.00  0.00    -0.402 N  
HETATM    6  H   UNL     1      -9.236   9.121  63.725  1.00  0.00     0.000 HD 
HETATM    7  C   UNL     1      -9.781   9.485  65.727  1.00  0.00    -0.287 C  
HETATM    8  C   UNL     1     -10.511  10.469  66.530  1.00  0.00    -0.212 A  
HETATM    9  O   UNL     1      -9.279   8.480  66.216  1.00  0.00    -0.179 OA 
HETATM   10  C   UNL     1     -11.007  11.601  65.934  1.00  0.00    -0.280 A  
HETATM   11  N   UNL     1     -10.855  11.843  64.627  1.00  0.00    -0.298 NA 
HETATM   12  N   UNL     1     -11.625  12.326  66.902  1.00  0.00    -0.435 NA 
HETATM   13  N   UNL     1     -10.820  10.478  67.875  1.00  0.00    -0.260 NA 
HETATM   14  C   UNL     1     -11.510  11.588  68.057  1.00  0.00    -0.311 A  
ENDROOT
BRANCH  12  15
HETATM   15  C   UNL     1     -12.304  13.600  66.788  1.00  0.00    -0.305 C  
BRANCH  15  16
HETATM   16  C   UNL     1     -11.453  14.810  67.186  1.00  0.00    -0.375 C  
HETATM   17  C   UNL     1     -10.405  15.305  66.160  1.00  0.00    -0.314 C  
HETATM   18  C   UNL     1     -11.023  15.797  64.842  1.00  0.00    -0.427 C  
HETATM   19  C   UNL     1      -9.583  16.434  66.804  1.00  0.00    -0.248 C  
HETATM   20  O   UNL     1     -11.678  14.739  64.151  1.00  0.00    -0.639 OA 
HETATM   21  O   UNL     1      -8.581  16.906  65.913  1.00  0.00    -0.514 OA 
HETATM   22  H   UNL     1     -12.060  15.043  63.336  1.00  0.00     0.000 HD 
HETATM   23  H   UNL     1      -8.073  17.603  66.311  1.00  0.00     0.000 HD 
ENDBRANCH  15  16
ENDBRANCH  12  15
TORSDOF 2
ENDMDL
MODEL       44
REMARK 921   NORMALIZED FREE ENERGY PREDICTED BY IDOCK:   -6.17 KCAL/MOL
REMARK 922        TOTAL FREE ENERGY PREDICTED BY IDOCK:   -7.09 KCAL/MOL
REMARK 923 INTER-LIGAND FREE ENERGY PREDICTED BY IDOCK:   -7.07 KCAL/MOL
REMARK 924 INTRA-LIGAND FREE ENERGY PREDICTED BY IDOCK:   -0.02 KCAL/MOL
REMARK 927      BINDING AFFINITY PREDICTED BY RF-SCORE:    0.00 PKD
ROOT
HETATM    1  N   UNL     1      -9.744  16.911  67.924  1.00  0.00    -0.249 NA 
HETATM    2  H1  UNL     1      -9.490  16.459  68.802  1.00  0.00     0.000 HD 
HETATM    3  C   UNL     1     -10.355  16.202  66.943  1.00  0.00    -0.297 C  
HETATM    4  H2  UNL     1      -9.539  17.901  67.783  1.00  0.00     0.000 HD 
HETATM    5  N   UNL     1     -10.679  16.779  65.823  1.00  0.00    -0.248 N  
HETATM    6  H   UNL     1     -10.460  17.764  65.674  1.00  0.00     0.000 HD 
HETATM    7  C   UNL     1     -11.330  16.046  64.820  1.00  0.00    -0.280 C  
HETATM    8  C   UNL     1     -11.641  14.656  65.164  1.00  0.00    -0.371 A  
HETATM    9  O   UNL     1     -11.620  16.535  63.735  1.00  0.00    -1.109 OA 
HETATM   10  C   UNL     1     -11.245  14.150  66.376  1.00  0.00    -0.328 A  
HETATM   11  N   UNL     1     -10.584  14.889  67.275  1.00  0.00    -0.268 NA 
HETATM   12  N   UNL     1     -11.655  12.856  66.423  1.00  0.00    -0.351 NA 
HETATM   13  N   UNL     1     -12.304  13.682  64.447  1.00  0.00    -0.592 NA 
HETATM   14  C   UNL     1     -12.319  12.628  65.241  1.00  0.00    -0.466 A  
ENDROOT
BRANCH  12  15
HETATM   15  C   UNL     1     -11.481  11.888  67.486  1.00  0.00    -0.326 C  
BRANCH  15  16
HETATM   16  C   UNL     1     -11.804  12.418  68.886  1.00  0.00    -0.350 C  
HETATM   17  C   UNL     1     -12.338  11.400  69.922  1.00  0.00    -0.280 C  
HETATM   18  C   UNL     1     -11.339  10.280  70.253  1.00  0.00    -0.323 C  
HETATM   19  C   UNL     1     -12.715  12.157  71.206  1.00  0.00    -0.261 C  
HETATM   20  O   UNL     1     -11.072   9.472  69.112  1.00  0.00    -0.393 OA 
HETATM   21  O   UNL     1     -13.243  11.271  72.184  1.00  0.00    -0.579 OA 
HETATM   22  H   UNL     1     -10.455   8.780  69.315  1.00  0.00     0.000 HD 
HETATM   23  H   UNL     1     -13.476  11.740  72.977  1.00  0.00     0.000 HD 
ENDBRANCH  15  16
ENDBRANCH  12  15
TORSDOF 2
ENDMDL
MODEL       45
REMARK 921   NORMALIZED FREE ENERGY PREDICTED BY IDOCK:   -6.16 KCAL/MOL
REMARK 922        TOTAL FREE ENERGY PREDICTED BY IDOCK:   -7.08 KCAL/MOL
REMARK 923 INTER-LIGAND FREE ENERGY PREDICTED BY IDOCK:   -6.39 KCAL/MOL
REMARK 924 INTRA-LIGAND FREE ENERGY PREDICTED BY IDOCK:   -0.69 KCAL/MOL
REMARK 927      BINDING AFFINITY PREDICTED BY RF-SCORE:    0.00 PKD
ROOT
HETATM    1  N   UNL     1     -11.933  12.937  70.038  1.00  0.00    -0.412 NA 
HETATM    2  H1  UNL     1     -12.333  12.014  69.862  1.00  0.00     0.000 HD 
HETATM    3  C   UNL     1     -11.617  13.752  69.003  1.00  0.00    -0.313 C  
HETATM    4  H2  UNL     1     -11.771  13.246  70.997  1.00  0.00     0.000 HD 
HETATM    5  N   UNL     1     -11.108  14.928  69.227  1.00  0.00    -0.258 N  
HETATM    6  H   UNL     1     -10.930  15.233  70.184  1.00  0.00     0.000 HD 
HETATM    7  C   UNL     1     -10.804  15.776  68.152  1.00  0.00    -0.307 C  
HETATM    8  C   UNL     1     -11.149  15.255  66.827  1.00  0.00    -0.278 A  
HETATM    9  O   UNL     1     -10.287  16.876  68.312  1.00  0.00    -0.297 OA 
HETATM   10  C   UNL     1     -11.679  13.995  66.709  1.00  0.00    -0.407 A  
HETATM   11  N   UNL     1     -11.904  13.213  67.772  1.00  0.00    -0.355 NA 
HETATM   12  N   UNL     1     -11.895  13.774  65.386  1.00  0.00    -0.342 NA 
HETATM   13  N   UNL     1     -11.035  15.831  65.579  1.00  0.00    -0.302 NA 
HETATM   14  C   UNL     1     -11.516  14.929  64.744  1.00  0.00    -0.410 A  
ENDROOT
BRANCH  12  15
HETATM   15  C   UNL     1     -12.438  12.597  64.740  1.00  0.00    -0.484 C  
BRANCH  15  16
HETATM   16  C   UNL     1     -11.553  12.018  63.632  1.00  0.00    -0.578 C  
HETATM   17  C   UNL     1     -10.105  11.628  64.014  1.00  0.00    -0.362 C  
HETATM   18  C   UNL     1     -10.028  10.513  65.069  1.00  0.00    -0.322 C  
HETATM   19  C   UNL     1      -9.361  11.194  62.741  1.00  0.00    -0.351 C  
HETATM   20  O   UNL     1     -10.588  10.934  66.308  1.00  0.00    -0.252 OA 
HETATM   21  O   UNL     1      -8.012  10.854  63.030  1.00  0.00    -0.356 OA 
HETATM   22  H   UNL     1     -10.541  10.245  66.960  1.00  0.00     0.000 HD 
HETATM   23  H   UNL     1      -7.552  10.586  62.243  1.00  0.00     0.000 HD 
ENDBRANCH  15  16
ENDBRANCH  12  15
TORSDOF 2
ENDMDL
MODEL       46
REMARK 921   NORMALIZED FREE ENERGY PREDICTED BY IDOCK:   -6.15 KCAL/MOL
REMARK 922        TOTAL FREE ENERGY PREDICTED BY IDOCK:   -7.07 KCAL/MOL
REMARK 923 INTER-LIGAND FREE ENERGY PREDICTED BY IDOCK:   -6.37 KCAL/MOL
REMARK 924 INTRA-LIGAND FREE ENERGY PREDICTED BY IDOCK:   -0.70 KCAL/MOL
REMARK 927      BINDING AFFINITY PREDICTED BY RF-SCORE:    0.00 PKD
ROOT
HETATM    1  N   UNL     1     -10.780  10.986  62.757  1.00  0.00    -0.727 NA 
HETATM    2  H1  UNL     1     -10.077  10.250  62.690  1.00  0.00     0.000 HD 
HETATM    3  C   UNL     1     -11.085  11.530  63.960  1.00  0.00    -0.365 C  
HETATM    4  H2  UNL     1     -11.256  11.313  61.916  1.00  0.00     0.000 HD 
HETATM    5  N   UNL     1     -11.981  12.469  64.046  1.00  0.00    -0.415 N  
HETATM    6  H   UNL     1     -12.470  12.786  63.208  1.00  0.00     0.000 HD 
HETATM    7  C   UNL     1     -12.277  13.044  65.290  1.00  0.00    -0.466 C  
HETATM    8  C   UNL     1     -11.479  12.548  66.413  1.00  0.00    -0.365 A  
HETATM    9  O   UNL     1     -13.141  13.903  65.426  1.00  0.00    -0.752 OA 
HETATM   10  C   UNL     1     -10.562  11.548  66.207  1.00  0.00    -0.263 A  
HETATM   11  N   UNL     1     -10.357  11.006  65.001  1.00  0.00    -0.291 NA 
HETATM   12  N   UNL     1      -9.978  11.286  67.405  1.00  0.00    -0.181 NA 
HETATM   13  N   UNL     1     -11.471  12.918  67.742  1.00  0.00    -0.301 NA 
HETATM   14  C   UNL     1     -10.543  12.164  68.300  1.00  0.00    -0.217 A  
ENDROOT
BRANCH  12  15
HETATM   15  C   UNL     1      -8.950  10.316  67.721  1.00  0.00    -0.134 C  
BRANCH  15  16
HETATM   16  C   UNL     1      -9.312   9.356  68.858  1.00  0.00    -0.154 C  
HETATM   17  C   UNL     1     -10.584   8.492  68.676  1.00  0.00    -0.154 C  
HETATM   18  C   UNL     1     -10.502   7.524  67.485  1.00  0.00    -0.271 C  
HETATM   19  C   UNL     1     -10.832   7.703  69.972  1.00  0.00    -0.243 C  
HETATM   20  O   UNL     1     -10.410   8.229  66.252  1.00  0.00    -0.439 OA 
HETATM   21  O   UNL     1     -12.009   6.915  69.871  1.00  0.00    -0.627 OA 
HETATM   22  H   UNL     1     -10.359   7.632  65.515  1.00  0.00     0.000 HD 
HETATM   23  H   UNL     1     -12.162   6.427  70.672  1.00  0.00     0.000 HD 
ENDBRANCH  15  16
ENDBRANCH  12  15
TORSDOF 2
ENDMDL
MODEL       47
REMARK 921   NORMALIZED FREE ENERGY PREDICTED BY IDOCK:   -6.10 KCAL/MOL
REMARK 922        TOTAL FREE ENERGY PREDICTED BY IDOCK:   -7.02 KCAL/MOL
REMARK 923 INTER-LIGAND FREE ENERGY PREDICTED BY IDOCK:   -6.61 KCAL/MOL
REMARK 924 INTRA-LIGAND FREE ENERGY PREDICTED BY IDOCK:   -0.41 KCAL/MOL
REMARK 927      BINDING AFFINITY PREDICTED BY RF-SCORE:    0.00 PKD
ROOT
HETATM    1  N   UNL     1     -10.436  20.215  69.557  1.00  0.00    -0.464 NA 
HETATM    2  H1  UNL     1     -11.395  19.997  69.828  1.00  0.00     0.000 HD 
HETATM    3  C   UNL     1      -9.746  19.372  68.751  1.00  0.00    -0.449 C  
HETATM    4  H2  UNL     1      -9.995  21.071  69.895  1.00  0.00     0.000 HD 
HETATM    5  N   UNL     1      -8.523  19.650  68.406  1.00  0.00    -0.336 N  
HETATM    6  H   UNL     1      -8.074  20.498  68.756  1.00  0.00     0.000 HD 
HETATM    7  C   UNL     1      -7.821  18.786  67.554  1.00  0.00    -0.233 C  
HETATM    8  C   UNL     1      -8.581  17.629  67.074  1.00  0.00    -0.237 A  
HETATM    9  O   UNL     1      -6.655  18.985  67.233  1.00  0.00    -0.193 OA 
HETATM   10  C   UNL     1      -9.867  17.432  67.509  1.00  0.00    -0.277 A  
HETATM   11  N   UNL     1     -10.468  18.270  68.361  1.00  0.00    -0.324 NA 
HETATM   12  N   UNL     1     -10.321  16.298  66.915  1.00  0.00    -0.296 NA 
HETATM   13  N   UNL     1      -8.225  16.621  66.202  1.00  0.00    -0.386 NA 
HETATM   14  C   UNL     1      -9.298  15.859  66.108  1.00  0.00    -0.350 A  
ENDROOT
BRANCH  12  15
HETATM   15  C   UNL     1     -11.615  15.660  67.047  1.00  0.00     0.156 C  
BRANCH  15  16
HETATM   16  C   UNL     1     -11.678  14.234  66.493  1.00  0.00    -0.409 C  
HETATM   17  C   UNL     1     -12.485  14.016  65.190  1.00  0.00    -0.472 C  
HETATM   18  C   UNL     1     -11.918  14.779  63.983  1.00  0.00    -0.128 C  
HETATM   19  C   UNL     1     -12.526  12.510  64.883  1.00  0.00    -0.450 C  
HETATM   20  O   UNL     1     -11.993  16.187  64.179  1.00  0.00    -0.987 OA 
HETATM   21  O   UNL     1     -13.284  12.250  63.710  1.00  0.00    -0.771 OA 
HETATM   22  H   UNL     1     -11.642  16.659  63.433  1.00  0.00     0.000 HD 
HETATM   23  H   UNL     1     -13.309  11.319  63.521  1.00  0.00     0.000 HD 
ENDBRANCH  15  16
ENDBRANCH  12  15
TORSDOF 2
ENDMDL
MODEL       48
REMARK 921   NORMALIZED FREE ENERGY PREDICTED BY IDOCK:   -6.07 KCAL/MOL
REMARK 922        TOTAL FREE ENERGY PREDICTED BY IDOCK:   -6.99 KCAL/MOL
REMARK 923 INTER-LIGAND FREE ENERGY PREDICTED BY IDOCK:   -6.77 KCAL/MOL
REMARK 924 INTRA-LIGAND FREE ENERGY PREDICTED BY IDOCK:   -0.22 KCAL/MOL
REMARK 927      BINDING AFFINITY PREDICTED BY RF-SCORE:    0.00 PKD
ROOT
HETATM    1  N   UNL     1     -13.678  16.205  73.479  1.00  0.00    -0.843 NA 
HETATM    2  H1  UNL     1     -13.522  17.201  73.323  1.00  0.00     0.000 HD 
HETATM    3  C   UNL     1     -13.295  15.301  72.546  1.00  0.00    -0.453 C  
HETATM    4  H2  UNL     1     -14.124  15.889  74.341  1.00  0.00     0.000 HD 
HETATM    5  N   UNL     1     -13.494  14.030  72.744  1.00  0.00    -0.534 N  
HETATM    6  H   UNL     1     -13.954  13.713  73.598  1.00  0.00     0.000 HD 
HETATM    7  C   UNL     1     -13.076  13.097  71.785  1.00  0.00    -0.383 C  
HETATM    8  C   UNL     1     -12.381  13.662  70.625  1.00  0.00    -0.368 A  
HETATM    9  O   UNL     1     -13.276  11.894  71.909  1.00  0.00    -0.482 OA 
HETATM   10  C   UNL     1     -12.233  15.021  70.517  1.00  0.00    -0.337 A  
HETATM   11  N   UNL     1     -12.696  15.865  71.446  1.00  0.00    -0.439 NA 
HETATM   12  N   UNL     1     -11.566  15.261  69.358  1.00  0.00    -0.309 NA 
HETATM   13  N   UNL     1     -11.805  13.043  69.535  1.00  0.00    -0.321 NA 
HETATM   14  C   UNL     1     -11.302  14.026  68.812  1.00  0.00    -0.278 A  
ENDROOT
BRANCH  12  15
HETATM   15  C   UNL     1     -11.165  16.530  68.787  1.00  0.00    -0.277 C  
BRANCH  15  16
HETATM   16  C   UNL     1      -9.671  16.842  68.921  1.00  0.00    -0.257 C  
HETATM   17  C   UNL     1      -9.046  17.776  67.857  1.00  0.00    -0.259 C  
HETATM   18  C   UNL     1      -9.645  19.191  67.855  1.00  0.00    -0.325 C  
HETATM   19  C   UNL     1      -7.530  17.852  68.101  1.00  0.00    -0.250 C  
HETATM   20  O   UNL     1     -11.023  19.168  67.496  1.00  0.00    -0.456 OA 
HETATM   21  O   UNL     1      -6.898  18.675  67.129  1.00  0.00    -0.196 OA 
HETATM   22  H   UNL     1     -11.393  20.042  67.494  1.00  0.00     0.000 HD 
HETATM   23  H   UNL     1      -5.961  18.722  67.280  1.00  0.00     0.000 HD 
ENDBRANCH  15  16
ENDBRANCH  12  15
TORSDOF 2
ENDMDL
MODEL       49
REMARK 921   NORMALIZED FREE ENERGY PREDICTED BY IDOCK:   -6.07 KCAL/MOL
REMARK 922        TOTAL FREE ENERGY PREDICTED BY IDOCK:   -6.98 KCAL/MOL
REMARK 923 INTER-LIGAND FREE ENERGY PREDICTED BY IDOCK:   -6.84 KCAL/MOL
REMARK 924 INTRA-LIGAND FREE ENERGY PREDICTED BY IDOCK:   -0.15 KCAL/MOL
REMARK 927      BINDING AFFINITY PREDICTED BY RF-SCORE:    0.00 PKD
ROOT
HETATM    1  N   UNL     1     -12.704   9.860  70.333  1.00  0.00    -0.528 NA 
HETATM    2  H1  UNL     1     -12.674   9.160  69.591  1.00  0.00     0.000 HD 
HETATM    3  C   UNL     1     -12.464  11.164  70.052  1.00  0.00    -0.223 C  
HETATM    4  H2  UNL     1     -12.916   9.577  71.291  1.00  0.00     0.000 HD 
HETATM    5  N   UNL     1     -12.503  12.056  70.998  1.00  0.00    -0.341 N  
HETATM    6  H   UNL     1     -12.699  11.773  71.958  1.00  0.00     0.000 HD 
HETATM    7  C   UNL     1     -12.276  13.407  70.697  1.00  0.00    -0.350 C  
HETATM    8  C   UNL     1     -12.056  13.703  69.279  1.00  0.00    -0.314 A  
HETATM    9  O   UNL     1     -12.264  14.277  71.560  1.00  0.00    -0.340 OA 
HETATM   10  C   UNL     1     -12.031  12.679  68.367  1.00  0.00    -0.221 A  
HETATM   11  N   UNL     1     -12.209  11.402  68.723  1.00  0.00    -0.494 NA 
HETATM   12  N   UNL     1     -11.808  13.235  67.147  1.00  0.00    -0.372 NA 
HETATM   13  N   UNL     1     -11.853  14.906  68.635  1.00  0.00    -0.320 NA 
HETATM   14  C   UNL     1     -11.737  14.592  67.358  1.00  0.00    -0.400 A  
ENDROOT
BRANCH  12  15
HETATM   15  C   UNL     1     -11.692  12.581  65.860  1.00  0.00    -0.426 C  
BRANCH  15  16
HETATM   16  C   UNL     1     -10.565  11.547  65.773  1.00  0.00    -0.315 C  
HETATM   17  C   UNL     1     -10.394  10.800  64.429  1.00  0.00    -0.405 C  
HETATM   18  C   UNL     1     -10.039  11.725  63.254  1.00  0.00    -0.420 C  
HETATM   19  C   UNL     1      -9.302   9.730  64.597  1.00  0.00    -0.256 C  
HETATM   20  O   UNL     1     -11.093  12.642  62.982  1.00  0.00    -0.694 OA 
HETATM   21  O   UNL     1      -9.125   8.990  63.398  1.00  0.00    -0.419 OA 
HETATM   22  H   UNL     1     -10.875  13.214  62.256  1.00  0.00     0.000 HD 
HETATM   23  H   UNL     1      -8.451   8.328  63.502  1.00  0.00     0.000 HD 
ENDBRANCH  15  16
ENDBRANCH  12  15
TORSDOF 2
ENDMDL
MODEL       50
REMARK 921   NORMALIZED FREE ENERGY PREDICTED BY IDOCK:   -6.05 KCAL/MOL
REMARK 922        TOTAL FREE ENERGY PREDICTED BY IDOCK:   -6.96 KCAL/MOL
REMARK 923 INTER-LIGAND FREE ENERGY PREDICTED BY IDOCK:   -6.67 KCAL/MOL
REMARK 924 INTRA-LIGAND FREE ENERGY PREDICTED BY IDOCK:   -0.29 KCAL/MOL
REMARK 927      BINDING AFFINITY PREDICTED BY RF-SCORE:    0.00 PKD
ROOT
HETATM    1  N   UNL     1     -10.318  19.887  69.634  1.00  0.00    -0.525 NA 
HETATM    2  H1  UNL     1     -10.981  19.510  70.312  1.00  0.00     0.000 HD 
HETATM    3  C   UNL     1      -9.917  19.135  68.581  1.00  0.00    -0.419 C  
HETATM    4  H2  UNL     1      -9.956  20.834  69.751  1.00  0.00     0.000 HD 
HETATM    5  N   UNL     1      -9.071  19.617  67.717  1.00  0.00    -0.318 N  
HETATM    6  H   UNL     1      -8.696  20.557  67.840  1.00  0.00     0.000 HD 
HETATM    7  C   UNL     1      -8.676  18.842  66.617  1.00  0.00    -0.312 C  
HETATM    8  C   UNL     1      -9.318  17.530  66.514  1.00  0.00    -0.265 A  
HETATM    9  O   UNL     1      -7.853  19.238  65.799  1.00  0.00    -0.444 OA 
HETATM   10  C   UNL     1     -10.193  17.122  67.488  1.00  0.00    -0.323 A  
HETATM   11  N   UNL     1     -10.495  17.890  68.542  1.00  0.00    -0.344 NA 
HETATM   12  N   UNL     1     -10.627  15.882  67.144  1.00  0.00    -0.315 NA 
HETATM   13  N   UNL     1      -9.202  16.547  65.552  1.00  0.00    -0.351 NA 
HETATM   14  C   UNL     1     -10.019  15.589  65.946  1.00  0.00    -0.349 A  
ENDROOT
BRANCH  12  15
HETATM   15  C   UNL     1     -11.557  15.019  67.843  1.00  0.00    -0.333 C  
BRANCH  15  16
HETATM   16  C   UNL     1     -10.967  13.677  68.286  1.00  0.00    -0.275 C  
HETATM   17  C   UNL     1     -11.688  12.395  67.805  1.00  0.00    -0.413 C  
HETATM   18  C   UNL     1     -11.689  12.229  66.277  1.00  0.00    -0.366 C  
HETATM   19  C   UNL     1     -11.015  11.177  68.461  1.00  0.00    -0.220 C  
HETATM   20  O   UNL     1     -12.425  13.270  65.645  1.00  0.00    -0.457 OA 
HETATM   21  O   UNL     1     -11.659   9.971  68.077  1.00  0.00    -0.644 OA 
HETATM   22  H   UNL     1     -12.425  13.168  64.700  1.00  0.00     0.000 HD 
HETATM   23  H   UNL     1     -11.244   9.219  68.483  1.00  0.00     0.000 HD 
ENDBRANCH  15  16
ENDBRANCH  12  15
TORSDOF 2
ENDMDL
MODEL       51
REMARK 921   NORMALIZED FREE ENERGY PREDICTED BY IDOCK:   -6.04 KCAL/MOL
REMARK 922        TOTAL FREE ENERGY PREDICTED BY IDOCK:   -6.95 KCAL/MOL
REMARK 923 INTER-LIGAND FREE ENERGY PREDICTED BY IDOCK:   -6.30 KCAL/MOL
REMARK 924 INTRA-LIGAND FREE ENERGY PREDICTED BY IDOCK:   -0.65 KCAL/MOL
REMARK 927      BINDING AFFINITY PREDICTED BY RF-SCORE:    0.00 PKD
ROOT
HETATM    1  N   UNL     1     -12.623  14.842  63.760  1.00  0.00    -0.981 NA 
HETATM    2  H1  UNL     1     -13.299  14.081  63.701  1.00  0.00     0.000 HD 
HETATM    3  C   UNL     1     -11.651  14.820  64.704  1.00  0.00    -0.399 C  
HETATM    4  H2  UNL     1     -12.679  15.624  63.106  1.00  0.00     0.000 HD 
HETATM    5  N   UNL     1     -10.788  15.791  64.779  1.00  0.00    -0.594 N  
HETATM    6  H   UNL     1     -10.852  16.581  64.136  1.00  0.00     0.000 HD 
HETATM    7  C   UNL     1      -9.771  15.752  65.743  1.00  0.00    -0.337 C  
HETATM    8  C   UNL     1      -9.745  14.547  66.576  1.00  0.00    -0.285 A  
HETATM    9  O   UNL     1      -8.960  16.661  65.877  1.00  0.00    -0.482 OA 
HETATM   10  C   UNL     1     -10.711  13.586  66.412  1.00  0.00    -0.287 A  
HETATM   11  N   UNL     1     -11.686  13.703  65.503  1.00  0.00    -0.325 NA 
HETATM   12  N   UNL     1     -10.448  12.598  67.306  1.00  0.00    -0.227 NA 
HETATM   13  N   UNL     1      -8.871  14.162  67.571  1.00  0.00    -0.190 NA 
HETATM   14  C   UNL     1      -9.304  12.980  67.966  1.00  0.00    -0.213 A  
ENDROOT
BRANCH  12  15
HETATM   15  C   UNL     1     -11.173  11.365  67.534  1.00  0.00    -0.292 C  
BRANCH  15  16
HETATM   16  C   UNL     1     -10.288  10.120  67.646  1.00  0.00    -0.265 C  
HETATM   17  C   UNL     1     -10.288   9.143  66.446  1.00  0.00    -0.235 C  
HETATM   18  C   UNL     1      -9.758   9.768  65.146  1.00  0.00    -0.268 C  
HETATM   19  C   UNL     1      -9.442   7.913  66.814  1.00  0.00    -0.201 C  
HETATM   20  O   UNL     1     -10.600  10.827  64.701  1.00  0.00    -0.328 OA 
HETATM   21  O   UNL     1      -9.434   6.965  65.756  1.00  0.00    -0.390 OA 
HETATM   22  H   UNL     1     -10.274  11.213  63.898  1.00  0.00     0.000 HD 
HETATM   23  H   UNL     1      -8.911   6.204  65.984  1.00  0.00     0.000 HD 
ENDBRANCH  15  16
ENDBRANCH  12  15
TORSDOF 2
ENDMDL
MODEL       52
REMARK 921   NORMALIZED FREE ENERGY PREDICTED BY IDOCK:   -6.01 KCAL/MOL
REMARK 922        TOTAL FREE ENERGY PREDICTED BY IDOCK:   -6.92 KCAL/MOL
REMARK 923 INTER-LIGAND FREE ENERGY PREDICTED BY IDOCK:   -6.54 KCAL/MOL
REMARK 924 INTRA-LIGAND FREE ENERGY PREDICTED BY IDOCK:   -0.38 KCAL/MOL
REMARK 927      BINDING AFFINITY PREDICTED BY RF-SCORE:    0.00 PKD
ROOT
HETATM    1  N   UNL     1     -11.056   9.973  68.651  1.00  0.00    -0.408 NA 
HETATM    2  H1  UNL     1     -11.646  10.584  69.217  1.00  0.00     0.000 HD 
HETATM    3  C   UNL     1     -10.816  10.270  67.351  1.00  0.00    -0.277 C  
HETATM    4  H2  UNL     1     -10.646   9.136  69.066  1.00  0.00     0.000 HD 
HETATM    5  N   UNL     1     -10.064   9.491  66.629  1.00  0.00    -0.243 N  
HETATM    6  H   UNL     1      -9.666   8.645  67.038  1.00  0.00     0.000 HD 
HETATM    7  C   UNL     1      -9.801   9.815  65.290  1.00  0.00    -0.265 C  
HETATM    8  C   UNL     1     -10.382  11.077  64.827  1.00  0.00    -0.324 A  
HETATM    9  O   UNL     1      -9.132   9.092  64.561  1.00  0.00    -0.159 OA 
HETATM   10  C   UNL     1     -11.165  11.818  65.676  1.00  0.00    -0.267 A  
HETATM   11  N   UNL     1     -11.418  11.432  66.932  1.00  0.00    -0.466 NA 
HETATM   12  N   UNL     1     -11.567  12.920  64.991  1.00  0.00    -0.318 NA 
HETATM   13  N   UNL     1     -10.287  11.714  63.607  1.00  0.00    -0.374 NA 
HETATM   14  C   UNL     1     -10.983  12.826  63.749  1.00  0.00    -0.402 A  
ENDROOT
BRANCH  12  15
HETATM   15  C   UNL     1     -12.409  14.010  65.439  1.00  0.00    -0.478 C  
BRANCH  15  16
HETATM   16  C   UNL     1     -11.774  14.901  66.512  1.00  0.00    -0.204 C  
HETATM   17  C   UNL     1     -10.611  15.821  66.068  1.00  0.00    -0.334 C  
HETATM   18  C   UNL     1     -11.022  16.867  65.019  1.00  0.00    -0.046 C  
HETATM   19  C   UNL     1     -10.042  16.526  67.311  1.00  0.00    -0.273 C  
HETATM   20  O   UNL     1     -11.427  16.247  63.803  1.00  0.00    -1.475 OA 
HETATM   21  O   UNL     1      -8.947  17.363  66.964  1.00  0.00    -0.230 OA 
HETATM   22  H   UNL     1     -11.681  16.892  63.155  1.00  0.00     0.000 HD 
HETATM   23  H   UNL     1      -8.595  17.798  67.732  1.00  0.00     0.000 HD 
ENDBRANCH  15  16
ENDBRANCH  12  15
TORSDOF 2
ENDMDL
MODEL       53
REMARK 921   NORMALIZED FREE ENERGY PREDICTED BY IDOCK:   -6.01 KCAL/MOL
REMARK 922        TOTAL FREE ENERGY PREDICTED BY IDOCK:   -6.92 KCAL/MOL
REMARK 923 INTER-LIGAND FREE ENERGY PREDICTED BY IDOCK:   -6.25 KCAL/MOL
REMARK 924 INTRA-LIGAND FREE ENERGY PREDICTED BY IDOCK:   -0.67 KCAL/MOL
REMARK 927      BINDING AFFINITY PREDICTED BY RF-SCORE:    0.00 PKD
ROOT
HETATM    1  N   UNL     1     -12.522  14.926  63.773  1.00  0.00    -1.062 NA 
HETATM    2  H1  UNL     1     -12.602  15.768  64.344  1.00  0.00     0.000 HD 
HETATM    3  C   UNL     1     -11.651  13.947  64.120  1.00  0.00    -0.298 C  
HETATM    4  H2  UNL     1     -13.100  14.820  62.939  1.00  0.00     0.000 HD 
HETATM    5  N   UNL     1     -11.549  12.873  63.394  1.00  0.00    -0.714 N  
HETATM    6  H   UNL     1     -12.114  12.772  62.550  1.00  0.00     0.000 HD 
HETATM    7  C   UNL     1     -10.662  11.854  63.769  1.00  0.00    -0.418 C  
HETATM    8  C   UNL     1      -9.942  12.084  65.024  1.00  0.00    -0.233 A  
HETATM    9  O   UNL     1     -10.503  10.842  63.096  1.00  0.00    -0.253 OA 
HETATM   10  C   UNL     1     -10.124  13.259  65.707  1.00  0.00    -0.286 A  
HETATM   11  N   UNL     1     -10.952  14.216  65.272  1.00  0.00    -0.319 NA 
HETATM   12  N   UNL     1      -9.340  13.204  66.815  1.00  0.00    -0.241 NA 
HETATM   13  N   UNL     1      -9.045  11.285  65.703  1.00  0.00    -0.208 NA 
HETATM   14  C   UNL     1      -8.727  11.974  66.783  1.00  0.00    -0.192 A  
ENDROOT
BRANCH  12  15
HETATM   15  C   UNL     1      -9.172  14.195  67.858  1.00  0.00    -0.196 C  
BRANCH  15  16
HETATM   16  C   UNL     1      -8.028  15.184  67.615  1.00  0.00    -0.177 C  
HETATM   17  C   UNL     1      -8.305  16.362  66.650  1.00  0.00    -0.305 C  
HETATM   18  C   UNL     1      -9.415  17.306  67.138  1.00  0.00    -0.256 C  
HETATM   19  C   UNL     1      -7.000  17.151  66.450  1.00  0.00    -0.261 C  
HETATM   20  O   UNL     1     -10.671  16.638  67.202  1.00  0.00    -0.294 OA 
HETATM   21  O   UNL     1      -7.191  18.229  65.545  1.00  0.00    -0.536 OA 
HETATM   22  H   UNL     1     -11.357  17.222  67.503  1.00  0.00     0.000 HD 
HETATM   23  H   UNL     1      -6.384  18.716  65.421  1.00  0.00     0.000 HD 
ENDBRANCH  15  16
ENDBRANCH  12  15
TORSDOF 2
ENDMDL
MODEL       54
REMARK 921   NORMALIZED FREE ENERGY PREDICTED BY IDOCK:   -6.01 KCAL/MOL
REMARK 922        TOTAL FREE ENERGY PREDICTED BY IDOCK:   -6.92 KCAL/MOL
REMARK 923 INTER-LIGAND FREE ENERGY PREDICTED BY IDOCK:   -6.68 KCAL/MOL
REMARK 924 INTRA-LIGAND FREE ENERGY PREDICTED BY IDOCK:   -0.24 KCAL/MOL
REMARK 927      BINDING AFFINITY PREDICTED BY RF-SCORE:    0.00 PKD
ROOT
HETATM    1  N   UNL     1      -9.981  17.563  65.935  1.00  0.00    -0.551 NA 
HETATM    2  H1  UNL     1      -9.943  17.257  64.962  1.00  0.00     0.000 HD 
HETATM    3  C   UNL     1     -10.437  16.724  66.897  1.00  0.00    -0.269 C  
HETATM    4  H2  UNL     1      -9.676  18.504  66.184  1.00  0.00     0.000 HD 
HETATM    5  N   UNL     1     -10.485  17.114  68.137  1.00  0.00    -0.349 N  
HETATM    6  H   UNL     1     -10.195  18.059  68.386  1.00  0.00     0.000 HD 
HETATM    7  C   UNL     1     -10.937  16.234  69.131  1.00  0.00    -0.324 C  
HETATM    8  C   UNL     1     -11.277  14.887  68.666  1.00  0.00    -0.275 A  
HETATM    9  O   UNL     1     -11.037  16.568  70.306  1.00  0.00    -0.348 OA 
HETATM   10  C   UNL     1     -11.193  14.587  67.330  1.00  0.00    -0.332 A  
HETATM   11  N   UNL     1     -10.798  15.487  66.421  1.00  0.00    -0.302 NA 
HETATM   12  N   UNL     1     -11.566  13.289  67.186  1.00  0.00    -0.337 NA 
HETATM   13  N   UNL     1     -11.700  13.776  69.366  1.00  0.00    -0.304 NA 
HETATM   14  C   UNL     1     -11.836  12.831  68.454  1.00  0.00    -0.310 A  
ENDROOT
BRANCH  12  15
HETATM   15  C   UNL     1     -11.649  12.498  65.975  1.00  0.00    -0.406 C  
BRANCH  15  16
HETATM   16  C   UNL     1     -10.473  11.539  65.764  1.00  0.00    -0.308 C  
HETATM   17  C   UNL     1     -10.360  10.854  64.380  1.00  0.00    -0.430 C  
HETATM   18  C   UNL     1     -10.150  11.841  63.222  1.00  0.00    -0.420 C  
HETATM   19  C   UNL     1      -9.198   9.847  64.424  1.00  0.00    -0.264 C  
HETATM   20  O   UNL     1     -11.274  12.701  63.066  1.00  0.00    -0.723 OA 
HETATM   21  O   UNL     1      -9.070   9.164  63.185  1.00  0.00    -0.428 OA 
HETATM   22  H   UNL     1     -11.145  13.312  62.350  1.00  0.00     0.000 HD 
HETATM   23  H   UNL     1      -8.352   8.542  63.213  1.00  0.00     0.000 HD 
ENDBRANCH  15  16
ENDBRANCH  12  15
TORSDOF 2
ENDMDL
MODEL       55
REMARK 921   NORMALIZED FREE ENERGY PREDICTED BY IDOCK:   -6.00 KCAL/MOL
REMARK 922        TOTAL FREE ENERGY PREDICTED BY IDOCK:   -6.91 KCAL/MOL
REMARK 923 INTER-LIGAND FREE ENERGY PREDICTED BY IDOCK:   -6.22 KCAL/MOL
REMARK 924 INTRA-LIGAND FREE ENERGY PREDICTED BY IDOCK:   -0.69 KCAL/MOL
REMARK 927      BINDING AFFINITY PREDICTED BY RF-SCORE:    0.00 PKD
ROOT
HETATM    1  N   UNL     1      -9.055  10.909  65.515  1.00  0.00    -0.197 NA 
HETATM    2  H1  UNL     1      -8.291  11.267  66.088  1.00  0.00     0.000 HD 
HETATM    3  C   UNL     1     -10.041  11.739  65.096  1.00  0.00    -0.259 C  
HETATM    4  H2  UNL     1      -9.076   9.922  65.255  1.00  0.00     0.000 HD 
HETATM    5  N   UNL     1     -11.015  11.282  64.365  1.00  0.00    -0.306 N  
HETATM    6  H   UNL     1     -11.047  10.293  64.117  1.00  0.00     0.000 HD 
HETATM    7  C   UNL     1     -12.021  12.150  63.916  1.00  0.00    -0.486 C  
HETATM    8  C   UNL     1     -11.845  13.556  64.288  1.00  0.00    -0.428 A  
HETATM    9  O   UNL     1     -12.978  11.759  63.258  1.00  0.00    -0.633 OA 
HETATM   10  C   UNL     1     -10.780  13.924  65.069  1.00  0.00    -0.386 A  
HETATM   11  N   UNL     1      -9.876  13.040  65.506  1.00  0.00    -0.193 NA 
HETATM   12  N   UNL     1     -10.867  15.267  65.259  1.00  0.00    -0.377 NA 
HETATM   13  N   UNL     1     -12.604  14.666  63.981  1.00  0.00    -0.805 NA 
HETATM   14  C   UNL     1     -11.975  15.676  64.554  1.00  0.00    -0.120 A  
ENDROOT
BRANCH  12  15
HETATM   15  C   UNL     1      -9.987  16.136  66.012  1.00  0.00    -0.348 C  
BRANCH  15  16
HETATM   16  C   UNL     1     -10.499  16.500  67.409  1.00  0.00    -0.310 C  
HETATM   17  C   UNL     1     -10.371  15.422  68.512  1.00  0.00    -0.226 C  
HETATM   18  C   UNL     1      -8.918  15.031  68.822  1.00  0.00    -0.196 C  
HETATM   19  C   UNL     1     -11.054  15.942  69.788  1.00  0.00    -0.324 C  
HETATM   20  O   UNL     1      -8.297  14.418  67.697  1.00  0.00    -0.154 OA 
HETATM   21  O   UNL     1     -10.994  14.976  70.828  1.00  0.00    -0.477 OA 
HETATM   22  H   UNL     1      -7.399  14.176  67.888  1.00  0.00     0.000 HD 
HETATM   23  H   UNL     1     -11.416  15.297  71.616  1.00  0.00     0.000 HD 
ENDBRANCH  15  16
ENDBRANCH  12  15
TORSDOF 2
ENDMDL
MODEL       56
REMARK 921   NORMALIZED FREE ENERGY PREDICTED BY IDOCK:   -5.99 KCAL/MOL
REMARK 922        TOTAL FREE ENERGY PREDICTED BY IDOCK:   -6.90 KCAL/MOL
REMARK 923 INTER-LIGAND FREE ENERGY PREDICTED BY IDOCK:   -6.63 KCAL/MOL
REMARK 924 INTRA-LIGAND FREE ENERGY PREDICTED BY IDOCK:   -0.27 KCAL/MOL
REMARK 927      BINDING AFFINITY PREDICTED BY RF-SCORE:    0.00 PKD
ROOT
HETATM    1  N   UNL     1     -14.284   9.067  73.281  1.00  0.00    -1.188 NA 
HETATM    2  H1  UNL     1     -14.930   9.854  73.347  1.00  0.00     0.000 HD 
HETATM    3  C   UNL     1     -13.223   9.125  72.439  1.00  0.00    -0.444 C  
HETATM    4  H2  UNL     1     -14.437   8.234  73.850  1.00  0.00     0.000 HD 
HETATM    5  N   UNL     1     -12.399   8.122  72.355  1.00  0.00    -0.514 N  
HETATM    6  H   UNL     1     -12.560   7.281  72.911  1.00  0.00     0.000 HD 
HETATM    7  C   UNL     1     -11.291   8.195  71.499  1.00  0.00    -0.263 C  
HETATM    8  C   UNL     1     -11.132   9.467  70.790  1.00  0.00    -0.323 A  
HETATM    9  O   UNL     1     -10.510   7.262  71.357  1.00  0.00    -0.204 OA 
HETATM   10  C   UNL     1     -12.068  10.457  70.951  1.00  0.00    -0.374 A  
HETATM   11  N   UNL     1     -13.132  10.309  71.749  1.00  0.00    -0.446 NA 
HETATM   12  N   UNL     1     -11.677  11.508  70.184  1.00  0.00    -0.324 NA 
HETATM   13  N   UNL     1     -10.148   9.894  69.923  1.00  0.00    -0.245 NA 
HETATM   14  C   UNL     1     -10.490  11.128  69.602  1.00  0.00     0.050 A  
ENDROOT
BRANCH  12  15
HETATM   15  C   UNL     1     -12.323  12.791  70.006  1.00  0.00    -0.112 C  
BRANCH  15  16
HETATM   16  C   UNL     1     -11.736  13.645  68.877  1.00  0.00    -0.377 C  
HETATM   17  C   UNL     1     -11.555  15.157  69.155  1.00  0.00    -0.343 C  
HETATM   18  C   UNL     1     -10.571  15.456  70.297  1.00  0.00    -0.277 C  
HETATM   19  C   UNL     1     -11.078  15.840  67.863  1.00  0.00    -0.326 C  
HETATM   20  O   UNL     1     -11.051  14.954  71.539  1.00  0.00    -0.567 OA 
HETATM   21  O   UNL     1     -10.925  17.240  68.054  1.00  0.00    -0.350 OA 
HETATM   22  H   UNL     1     -10.443  15.139  72.244  1.00  0.00     0.000 HD 
HETATM   23  H   UNL     1     -10.631  17.662  67.255  1.00  0.00     0.000 HD 
ENDBRANCH  15  16
ENDBRANCH  12  15
TORSDOF 2
ENDMDL
MODEL       57
REMARK 921   NORMALIZED FREE ENERGY PREDICTED BY IDOCK:   -5.99 KCAL/MOL
REMARK 922        TOTAL FREE ENERGY PREDICTED BY IDOCK:   -6.90 KCAL/MOL
REMARK 923 INTER-LIGAND FREE ENERGY PREDICTED BY IDOCK:   -6.71 KCAL/MOL
REMARK 924 INTRA-LIGAND FREE ENERGY PREDICTED BY IDOCK:   -0.19 KCAL/MOL
REMARK 927      BINDING AFFINITY PREDICTED BY RF-SCORE:    0.00 PKD
ROOT
HETATM    1  N   UNL     1      -9.389   9.757  64.500  1.00  0.00    -0.352 NA 
HETATM    2  H1  UNL     1      -8.840   9.443  65.301  1.00  0.00     0.000 HD 
HETATM    3  C   UNL     1     -10.306  10.743  64.646  1.00  0.00    -0.324 C  
HETATM    4  H2  UNL     1      -9.246   9.326  63.586  1.00  0.00     0.000 HD 
HETATM    5  N   UNL     1     -11.006  11.143  63.625  1.00  0.00    -0.570 N  
HETATM    6  H   UNL     1     -10.877  10.703  62.714  1.00  0.00     0.000 HD 
HETATM    7  C   UNL     1     -11.939  12.180  63.777  1.00  0.00    -0.513 C  
HETATM    8  C   UNL     1     -12.002  12.772  65.115  1.00  0.00    -0.424 A  
HETATM    9  O   UNL     1     -12.648  12.564  62.854  1.00  0.00    -0.271 OA 
HETATM   10  C   UNL     1     -11.219  12.265  66.121  1.00  0.00    -0.328 A  
HETATM   11  N   UNL     1     -10.380  11.241  65.925  1.00  0.00    -0.246 NA 
HETATM   12  N   UNL     1     -11.482  12.991  67.239  1.00  0.00    -0.312 NA 
HETATM   13  N   UNL     1     -12.758  13.820  65.598  1.00  0.00    -0.527 NA 
HETATM   14  C   UNL     1     -12.401  13.942  66.862  1.00  0.00    -0.292 A  
ENDROOT
BRANCH  12  15
HETATM   15  C   UNL     1     -10.918  12.852  68.565  1.00  0.00    -0.259 C  
BRANCH  15  16
HETATM   16  C   UNL     1     -11.953  12.660  69.678  1.00  0.00    -0.352 C  
HETATM   17  C   UNL     1     -12.039  13.762  70.761  1.00  0.00    -0.395 C  
HETATM   18  C   UNL     1     -12.449  15.136  70.208  1.00  0.00    -0.342 C  
HETATM   19  C   UNL     1     -13.040  13.314  71.839  1.00  0.00    -0.388 C  
HETATM   20  O   UNL     1     -11.470  15.643  69.307  1.00  0.00    -0.312 OA 
HETATM   21  O   UNL     1     -13.134  14.278  72.878  1.00  0.00    -0.499 OA 
HETATM   22  H   UNL     1     -11.723  16.492  68.965  1.00  0.00     0.000 HD 
HETATM   23  H   UNL     1     -13.753  14.001  73.545  1.00  0.00     0.000 HD 
ENDBRANCH  15  16
ENDBRANCH  12  15
TORSDOF 2
ENDMDL
MODEL       58
REMARK 921   NORMALIZED FREE ENERGY PREDICTED BY IDOCK:   -5.98 KCAL/MOL
REMARK 922        TOTAL FREE ENERGY PREDICTED BY IDOCK:   -6.88 KCAL/MOL
REMARK 923 INTER-LIGAND FREE ENERGY PREDICTED BY IDOCK:   -6.65 KCAL/MOL
REMARK 924 INTRA-LIGAND FREE ENERGY PREDICTED BY IDOCK:   -0.23 KCAL/MOL
REMARK 927      BINDING AFFINITY PREDICTED BY RF-SCORE:    0.00 PKD
ROOT
HETATM    1  N   UNL     1     -10.604  19.973  67.193  1.00  0.00    -0.379 NA 
HETATM    2  H1  UNL     1     -11.599  19.879  67.396  1.00  0.00     0.000 HD 
HETATM    3  C   UNL     1      -9.722  19.060  67.667  1.00  0.00    -0.315 C  
HETATM    4  H2  UNL     1     -10.272  20.757  66.630  1.00  0.00     0.000 HD 
HETATM    5  N   UNL     1      -8.453  19.179  67.407  1.00  0.00    -0.279 N  
HETATM    6  H   UNL     1      -8.116  19.971  66.858  1.00  0.00     0.000 HD 
HETATM    7  C   UNL     1      -7.547  18.220  67.882  1.00  0.00    -0.241 C  
HETATM    8  C   UNL     1      -8.147  17.102  68.613  1.00  0.00    -0.264 A  
HETATM    9  O   UNL     1      -6.339  18.311  67.696  1.00  0.00    -0.182 OA 
HETATM   10  C   UNL     1      -9.501  17.082  68.834  1.00  0.00    -0.235 A  
HETATM   11  N   UNL     1     -10.310  18.053  68.394  1.00  0.00    -0.380 NA 
HETATM   12  N   UNL     1      -9.778  15.948  69.529  1.00  0.00    -0.269 NA 
HETATM   13  N   UNL     1      -7.569  15.978  69.168  1.00  0.00    -0.216 NA 
HETATM   14  C   UNL     1      -8.576  15.297  69.682  1.00  0.00    -0.104 A  
ENDROOT
BRANCH  12  15
HETATM   15  C   UNL     1     -11.057  15.466  70.007  1.00  0.00    -0.303 C  
BRANCH  15  16
HETATM   16  C   UNL     1     -11.123  15.236  71.520  1.00  0.00    -0.272 C  
HETATM   17  C   UNL     1     -12.305  15.882  72.282  1.00  0.00    -0.567 C  
HETATM   18  C   UNL     1     -13.680  15.354  71.842  1.00  0.00    -0.501 C  
HETATM   19  C   UNL     1     -12.111  15.637  73.788  1.00  0.00    -0.492 C  
HETATM   20  O   UNL     1     -13.950  15.685  70.484  1.00  0.00    -0.745 OA 
HETATM   21  O   UNL     1     -13.156  16.238  74.540  1.00  0.00    -0.908 OA 
HETATM   22  H   UNL     1     -14.799  15.359  70.212  1.00  0.00     0.000 HD 
HETATM   23  H   UNL     1     -13.035  16.087  75.471  1.00  0.00     0.000 HD 
ENDBRANCH  15  16
ENDBRANCH  12  15
TORSDOF 2
ENDMDL
MODEL       59
REMARK 921   NORMALIZED FREE ENERGY PREDICTED BY IDOCK:   -5.98 KCAL/MOL
REMARK 922        TOTAL FREE ENERGY PREDICTED BY IDOCK:   -6.88 KCAL/MOL
REMARK 923 INTER-LIGAND FREE ENERGY PREDICTED BY IDOCK:   -6.25 KCAL/MOL
REMARK 924 INTRA-LIGAND FREE ENERGY PREDICTED BY IDOCK:   -0.63 KCAL/MOL
REMARK 927      BINDING AFFINITY PREDICTED BY RF-SCORE:    0.00 PKD
ROOT
HETATM    1  N   UNL     1     -10.382  19.989  69.447  1.00  0.00    -0.545 NA 
HETATM    2  H1  UNL     1     -10.233  19.681  70.408  1.00  0.00     0.000 HD 
HETATM    3  C   UNL     1     -10.399  19.087  68.435  1.00  0.00    -0.308 C  
HETATM    4  H2  UNL     1     -10.518  20.981  69.246  1.00  0.00     0.000 HD 
HETATM    5  N   UNL     1     -10.588  19.481  67.210  1.00  0.00    -0.474 N  
HETATM    6  H   UNL     1     -10.708  20.473  67.005  1.00  0.00     0.000 HD 
HETATM    7  C   UNL     1     -10.626  18.541  66.170  1.00  0.00    -0.338 C  
HETATM    8  C   UNL     1     -10.495  17.143  66.587  1.00  0.00    -0.259 A  
HETATM    9  O   UNL     1     -10.763  18.867  64.997  1.00  0.00    -0.355 OA 
HETATM   10  C   UNL     1     -10.293  16.843  67.910  1.00  0.00    -0.332 A  
HETATM   11  N   UNL     1     -10.219  17.791  68.852  1.00  0.00    -0.374 NA 
HETATM   12  N   UNL     1     -10.203  15.491  68.006  1.00  0.00    -0.227 NA 
HETATM   13  N   UNL     1     -10.535  15.978  65.848  1.00  0.00    -0.346 NA 
HETATM   14  C   UNL     1     -10.387  15.010  66.731  1.00  0.00    -0.270 A  
ENDROOT
BRANCH  12  15
HETATM   15  C   UNL     1      -9.991  14.677  69.185  1.00  0.00    -0.143 C  
BRANCH  15  16
HETATM   16  C   UNL     1     -11.162  13.756  69.539  1.00  0.00    -0.221 C  
HETATM   17  C   UNL     1     -11.849  13.980  70.907  1.00  0.00    -0.249 C  
HETATM   18  C   UNL     1     -12.507  15.362  71.045  1.00  0.00    -0.411 C  
HETATM   19  C   UNL     1     -12.903  12.878  71.114  1.00  0.00    -0.238 C  
HETATM   20  O   UNL     1     -11.537  16.403  70.995  1.00  0.00    -0.584 OA 
HETATM   21  O   UNL     1     -13.545  13.018  72.374  1.00  0.00    -0.578 OA 
HETATM   22  H   UNL     1     -11.944  17.257  71.080  1.00  0.00     0.000 HD 
HETATM   23  H   UNL     1     -14.195  12.337  72.502  1.00  0.00     0.000 HD 
ENDBRANCH  15  16
ENDBRANCH  12  15
TORSDOF 2
ENDMDL
MODEL       60
REMARK 921   NORMALIZED FREE ENERGY PREDICTED BY IDOCK:   -5.97 KCAL/MOL
REMARK 922        TOTAL FREE ENERGY PREDICTED BY IDOCK:   -6.88 KCAL/MOL
REMARK 923 INTER-LIGAND FREE ENERGY PREDICTED BY IDOCK:   -6.57 KCAL/MOL
REMARK 924 INTRA-LIGAND FREE ENERGY PREDICTED BY IDOCK:   -0.30 KCAL/MOL
REMARK 927      BINDING AFFINITY PREDICTED BY RF-SCORE:    0.00 PKD
ROOT
HETATM    1  N   UNL     1      -8.939  10.832  63.574  1.00  0.00    -0.244 NA 
HETATM    2  H1  UNL     1      -8.091  10.938  64.132  1.00  0.00     0.000 HD 
HETATM    3  C   UNL     1     -10.087  11.445  63.953  1.00  0.00    -0.345 C  
HETATM    4  H2  UNL     1      -8.922  10.263  62.727  1.00  0.00     0.000 HD 
HETATM    5  N   UNL     1     -11.167  11.310  63.242  1.00  0.00    -0.832 N  
HETATM    6  H   UNL     1     -11.157  10.728  62.404  1.00  0.00     0.000 HD 
HETATM    7  C   UNL     1     -12.347  11.964  63.627  1.00  0.00    -0.481 C  
HETATM    8  C   UNL     1     -12.231  12.812  64.816  1.00  0.00    -0.459 A  
HETATM    9  O   UNL     1     -13.398  11.835  63.011  1.00  0.00    -0.405 OA 
HETATM   10  C   UNL     1     -11.039  12.875  65.493  1.00  0.00    -0.278 A  
HETATM   11  N   UNL     1      -9.959  12.189  65.101  1.00  0.00    -0.252 NA 
HETATM   12  N   UNL     1     -11.218  13.721  66.541  1.00  0.00    -0.306 NA 
HETATM   13  N   UNL     1     -13.161  13.621  65.435  1.00  0.00    -0.678 NA 
HETATM   14  C   UNL     1     -12.514  14.171  66.445  1.00  0.00    -0.318 A  
ENDROOT
BRANCH  12  15
HETATM   15  C   UNL     1     -10.266  14.122  67.556  1.00  0.00    -0.241 C  
BRANCH  15  16
HETATM   16  C   UNL     1      -9.300  15.228  67.118  1.00  0.00    -0.227 C  
HETATM   17  C   UNL     1      -9.907  16.622  66.828  1.00  0.00    -0.280 C  
HETATM   18  C   UNL     1     -10.565  17.272  68.055  1.00  0.00    -0.394 C  
HETATM   19  C   UNL     1      -8.796  17.537  66.286  1.00  0.00    -0.184 C  
HETATM   20  O   UNL     1     -11.687  16.516  68.500  1.00  0.00    -0.171 OA 
HETATM   21  O   UNL     1      -9.307  18.825  65.972  1.00  0.00    -0.478 OA 
HETATM   22  H   UNL     1     -12.094  16.918  69.258  1.00  0.00     0.000 HD 
HETATM   23  H   UNL     1      -8.621  19.391  65.636  1.00  0.00     0.000 HD 
ENDBRANCH  15  16
ENDBRANCH  12  15
TORSDOF 2
ENDMDL
MODEL       61
REMARK 921   NORMALIZED FREE ENERGY PREDICTED BY IDOCK:   -5.95 KCAL/MOL
REMARK 922        TOTAL FREE ENERGY PREDICTED BY IDOCK:   -6.85 KCAL/MOL
REMARK 923 INTER-LIGAND FREE ENERGY PREDICTED BY IDOCK:   -6.61 KCAL/MOL
REMARK 924 INTRA-LIGAND FREE ENERGY PREDICTED BY IDOCK:   -0.24 KCAL/MOL
REMARK 927      BINDING AFFINITY PREDICTED BY RF-SCORE:    0.00 PKD
ROOT
HETATM    1  N   UNL     1      -5.197  17.740  65.382  1.00  0.00    -0.150 NA 
HETATM    2  H1  UNL     1      -5.453  17.093  64.635  1.00  0.00     0.000 HD 
HETATM    3  C   UNL     1      -6.153  18.266  66.185  1.00  0.00    -0.200 C  
HETATM    4  H2  UNL     1      -4.218  17.991  65.524  1.00  0.00     0.000 HD 
HETATM    5  N   UNL     1      -5.828  19.090  67.137  1.00  0.00    -0.157 N  
HETATM    6  H   UNL     1      -4.852  19.355  67.271  1.00  0.00     0.000 HD 
HETATM    7  C   UNL     1      -6.819  19.614  67.980  1.00  0.00    -0.253 C  
HETATM    8  C   UNL     1      -8.176  19.124  67.729  1.00  0.00    -0.286 A  
HETATM    9  O   UNL     1      -6.565  20.424  68.865  1.00  0.00    -0.290 OA 
HETATM   10  C   UNL     1      -8.405  18.257  66.690  1.00  0.00    -0.264 A  
HETATM   11  N   UNL     1      -7.422  17.828  65.890  1.00  0.00    -0.516 NA 
HETATM   12  N   UNL     1      -9.734  17.976  66.688  1.00  0.00    -0.317 NA 
HETATM   13  N   UNL     1      -9.361  19.387  68.384  1.00  0.00    -0.352 NA 
HETATM   14  C   UNL     1     -10.266  18.663  67.754  1.00  0.00    -0.386 A  
ENDROOT
BRANCH  12  15
HETATM   15  C   UNL     1     -10.478  17.116  65.791  1.00  0.00    -0.233 C  
BRANCH  15  16
HETATM   16  C   UNL     1     -10.328  15.619  66.080  1.00  0.00    -0.329 C  
HETATM   17  C   UNL     1     -11.523  14.706  65.716  1.00  0.00    -0.338 C  
HETATM   18  C   UNL     1     -11.845  14.687  64.213  1.00  0.00    -0.337 C  
HETATM   19  C   UNL     1     -11.217  13.279  66.201  1.00  0.00    -0.296 C  
HETATM   20  O   UNL     1     -12.267  15.969  63.760  1.00  0.00    -1.269 OA 
HETATM   21  O   UNL     1     -12.299  12.402  65.919  1.00  0.00    -0.638 OA 
HETATM   22  H   UNL     1     -12.466  15.958  62.831  1.00  0.00     0.000 HD 
HETATM   23  H   UNL     1     -12.109  11.520  66.219  1.00  0.00     0.000 HD 
ENDBRANCH  15  16
ENDBRANCH  12  15
TORSDOF 2
ENDMDL
MODEL       62
REMARK 921   NORMALIZED FREE ENERGY PREDICTED BY IDOCK:   -5.94 KCAL/MOL
REMARK 922        TOTAL FREE ENERGY PREDICTED BY IDOCK:   -6.84 KCAL/MOL
REMARK 923 INTER-LIGAND FREE ENERGY PREDICTED BY IDOCK:   -6.33 KCAL/MOL
REMARK 924 INTRA-LIGAND FREE ENERGY PREDICTED BY IDOCK:   -0.51 KCAL/MOL
REMARK 927      BINDING AFFINITY PREDICTED BY RF-SCORE:    0.00 PKD
ROOT
HETATM    1  N   UNL     1      -6.692  17.584  69.633  1.00  0.00    -0.117 NA 
HETATM    2  H1  UNL     1      -6.415  16.609  69.743  1.00  0.00     0.000 HD 
HETATM    3  C   UNL     1      -7.582  17.936  68.673  1.00  0.00    -0.283 C  
HETATM    4  H2  UNL     1      -6.299  18.298  70.247  1.00  0.00     0.000 HD 
HETATM    5  N   UNL     1      -7.937  19.180  68.532  1.00  0.00    -0.339 N  
HETATM    6  H   UNL     1      -7.532  19.897  69.135  1.00  0.00     0.000 HD 
HETATM    7  C   UNL     1      -8.875  19.535  67.552  1.00  0.00    -0.307 C  
HETATM    8  C   UNL     1      -9.426  18.418  66.782  1.00  0.00    -0.297 A  
HETATM    9  O   UNL     1      -9.210  20.698  67.357  1.00  0.00    -0.382 OA 
HETATM   10  C   UNL     1      -8.974  17.144  67.012  1.00  0.00    -0.230 A  
HETATM   11  N   UNL     1      -8.041  16.874  67.932  1.00  0.00    -0.185 NA 
HETATM   12  N   UNL     1      -9.645  16.321  66.165  1.00  0.00    -0.310 NA 
HETATM   13  N   UNL     1     -10.386  18.399  65.791  1.00  0.00    -0.608 NA 
HETATM   14  C   UNL     1     -10.513  17.127  65.465  1.00  0.00    -0.144 A  
ENDROOT
BRANCH  12  15
HETATM   15  C   UNL     1      -9.530  14.885  66.013  1.00  0.00    -0.281 C  
BRANCH  15  16
HETATM   16  C   UNL     1     -10.316  14.308  64.832  1.00  0.00    -0.429 C  
HETATM   17  C   UNL     1     -11.509  13.378  65.163  1.00  0.00    -0.316 C  
HETATM   18  C   UNL     1     -12.629  14.075  65.952  1.00  0.00    -0.449 C  
HETATM   19  C   UNL     1     -12.072  12.814  63.848  1.00  0.00    -0.486 C  
HETATM   20  O   UNL     1     -12.175  14.489  67.236  1.00  0.00    -0.575 OA 
HETATM   21  O   UNL     1     -13.153  11.926  64.096  1.00  0.00    -0.597 OA 
HETATM   22  H   UNL     1     -12.867  14.920  67.724  1.00  0.00     0.000 HD 
HETATM   23  H   UNL     1     -13.500  11.577  63.283  1.00  0.00     0.000 HD 
ENDBRANCH  15  16
ENDBRANCH  12  15
TORSDOF 2
ENDMDL
MODEL       63
REMARK 921   NORMALIZED FREE ENERGY PREDICTED BY IDOCK:   -5.94 KCAL/MOL
REMARK 922        TOTAL FREE ENERGY PREDICTED BY IDOCK:   -6.84 KCAL/MOL
REMARK 923 INTER-LIGAND FREE ENERGY PREDICTED BY IDOCK:   -6.51 KCAL/MOL
REMARK 924 INTRA-LIGAND FREE ENERGY PREDICTED BY IDOCK:   -0.33 KCAL/MOL
REMARK 927      BINDING AFFINITY PREDICTED BY RF-SCORE:    0.00 PKD
ROOT
HETATM    1  N   UNL     1     -12.408  13.441  62.605  1.00  0.00    -0.621 NA 
HETATM    2  H1  UNL     1     -12.929  14.296  62.802  1.00  0.00     0.000 HD 
HETATM    3  C   UNL     1     -11.764  12.788  63.603  1.00  0.00    -0.519 C  
HETATM    4  H2  UNL     1     -12.372  13.075  61.653  1.00  0.00     0.000 HD 
HETATM    5  N   UNL     1     -11.100  11.698  63.352  1.00  0.00    -0.662 N  
HETATM    6  H   UNL     1     -11.050  11.340  62.398  1.00  0.00     0.000 HD 
HETATM    7  C   UNL     1     -10.455  11.015  64.393  1.00  0.00    -0.354 C  
HETATM    8  C   UNL     1     -10.638  11.591  65.727  1.00  0.00    -0.263 A  
HETATM    9  O   UNL     1      -9.785  10.007  64.199  1.00  0.00    -0.282 OA 
HETATM   10  C   UNL     1     -11.356  12.751  65.874  1.00  0.00    -0.324 A  
HETATM   11  N   UNL     1     -11.911  13.383  64.833  1.00  0.00    -0.360 NA 
HETATM   12  N   UNL     1     -11.362  13.054  67.198  1.00  0.00    -0.290 NA 
HETATM   13  N   UNL     1     -10.193  11.160  66.959  1.00  0.00    -0.207 NA 
HETATM   14  C   UNL     1     -10.668  12.042  67.819  1.00  0.00    -0.210 A  
ENDROOT
BRANCH  12  15
HETATM   15  C   UNL     1     -11.981  14.178  67.869  1.00  0.00    -0.343 C  
BRANCH  15  16
HETATM   16  C   UNL     1     -11.332  15.532  67.566  1.00  0.00    -0.232 C  
HETATM   17  C   UNL     1     -10.946  16.418  68.775  1.00  0.00    -0.344 C  
HETATM   18  C   UNL     1      -9.888  15.780  69.689  1.00  0.00    -0.275 C  
HETATM   19  C   UNL     1     -10.435  17.770  68.250  1.00  0.00    -0.364 C  
HETATM   20  O   UNL     1     -10.381  14.594  70.301  1.00  0.00    -0.436 OA 
HETATM   21  O   UNL     1     -10.095  18.637  69.323  1.00  0.00    -0.422 OA 
HETATM   22  H   UNL     1      -9.728  14.199  70.866  1.00  0.00     0.000 HD 
HETATM   23  H   UNL     1      -9.779  19.473  68.999  1.00  0.00     0.000 HD 
ENDBRANCH  15  16
ENDBRANCH  12  15
TORSDOF 2
ENDMDL
MODEL       64
REMARK 921   NORMALIZED FREE ENERGY PREDICTED BY IDOCK:   -5.93 KCAL/MOL
REMARK 922        TOTAL FREE ENERGY PREDICTED BY IDOCK:   -6.83 KCAL/MOL
REMARK 923 INTER-LIGAND FREE ENERGY PREDICTED BY IDOCK:   -6.50 KCAL/MOL
REMARK 924 INTRA-LIGAND FREE ENERGY PREDICTED BY IDOCK:   -0.32 KCAL/MOL
REMARK 927      BINDING AFFINITY PREDICTED BY RF-SCORE:    0.00 PKD
ROOT
HETATM    1  N   UNL     1     -11.031  19.568  65.330  1.00  0.00    -0.369 NA 
HETATM    2  H1  UNL     1     -11.670  18.778  65.238  1.00  0.00     0.000 HD 
HETATM    3  C   UNL     1      -9.961  19.487  66.158  1.00  0.00    -0.444 C  
HETATM    4  H2  UNL     1     -11.198  20.422  64.798  1.00  0.00     0.000 HD 
HETATM    5  N   UNL     1      -9.146  20.494  66.276  1.00  0.00    -0.593 N  
HETATM    6  H   UNL     1      -9.321  21.355  65.757  1.00  0.00     0.000 HD 
HETATM    7  C   UNL     1      -8.028  20.396  67.116  1.00  0.00    -0.335 C  
HETATM    8  C   UNL     1      -7.849  19.098  67.770  1.00  0.00    -0.264 A  
HETATM    9  O   UNL     1      -7.255  21.332  67.290  1.00  0.00    -0.508 OA 
HETATM   10  C   UNL     1      -8.777  18.106  67.577  1.00  0.00    -0.249 A  
HETATM   11  N   UNL     1      -9.851  18.275  66.797  1.00  0.00    -0.323 NA 
HETATM   12  N   UNL     1      -8.367  17.028  68.296  1.00  0.00    -0.220 NA 
HETATM   13  N   UNL     1      -6.852  18.645  68.609  1.00  0.00    -0.265 NA 
HETATM   14  C   UNL     1      -7.178  17.396  68.881  1.00  0.00    -0.250 A  
ENDROOT
BRANCH  12  15
HETATM   15  C   UNL     1      -8.998  15.732  68.427  1.00  0.00    -0.187 C  
BRANCH  15  16
HETATM   16  C   UNL     1      -9.949  15.607  69.622  1.00  0.00    -0.290 C  
HETATM   17  C   UNL     1     -11.466  15.581  69.319  1.00  0.00    -0.349 C  
HETATM   18  C   UNL     1     -11.901  14.378  68.468  1.00  0.00    -0.334 C  
HETATM   19  C   UNL     1     -12.234  15.581  70.651  1.00  0.00    -0.402 C  
HETATM   20  O   UNL     1     -11.312  14.421  67.172  1.00  0.00    -0.315 OA 
HETATM   21  O   UNL     1     -13.637  15.590  70.431  1.00  0.00    -0.806 OA 
HETATM   22  H   UNL     1     -11.580  13.678  66.646  1.00  0.00     0.000 HD 
HETATM   23  H   UNL     1     -14.111  15.590  71.254  1.00  0.00     0.000 HD 
ENDBRANCH  15  16
ENDBRANCH  12  15
TORSDOF 2
ENDMDL
MODEL       65
REMARK 921   NORMALIZED FREE ENERGY PREDICTED BY IDOCK:   -5.92 KCAL/MOL
REMARK 922        TOTAL FREE ENERGY PREDICTED BY IDOCK:   -6.82 KCAL/MOL
REMARK 923 INTER-LIGAND FREE ENERGY PREDICTED BY IDOCK:   -6.61 KCAL/MOL
REMARK 924 INTRA-LIGAND FREE ENERGY PREDICTED BY IDOCK:   -0.20 KCAL/MOL
REMARK 927      BINDING AFFINITY PREDICTED BY RF-SCORE:    0.00 PKD
ROOT
HETATM    1  N   UNL     1      -9.048  11.095  65.519  1.00  0.00    -0.226 NA 
HETATM    2  H1  UNL     1      -8.276  11.455  66.081  1.00  0.00     0.000 HD 
HETATM    3  C   UNL     1     -10.014  11.933  65.071  1.00  0.00    -0.248 C  
HETATM    4  H2  UNL     1      -9.092  10.101  65.293  1.00  0.00     0.000 HD 
HETATM    5  N   UNL     1     -10.998  11.475  64.354  1.00  0.00    -0.336 N  
HETATM    6  H   UNL     1     -11.053  10.478  64.141  1.00  0.00     0.000 HD 
HETATM    7  C   UNL     1     -11.984  12.350  63.875  1.00  0.00    -0.486 C  
HETATM    8  C   UNL     1     -11.776  13.763  64.199  1.00  0.00    -0.364 A  
HETATM    9  O   UNL     1     -12.950  11.959  63.230  1.00  0.00    -0.707 OA 
HETATM   10  C   UNL     1     -10.702  14.133  64.969  1.00  0.00    -0.416 A  
HETATM   11  N   UNL     1      -9.819  13.243  65.436  1.00  0.00    -0.170 NA 
HETATM   12  N   UNL     1     -10.758  15.483  65.113  1.00  0.00    -0.418 NA 
HETATM   13  N   UNL     1     -12.508  14.880  63.854  1.00  0.00    -0.769 NA 
HETATM   14  C   UNL     1     -11.856  15.893  64.393  1.00  0.00    -0.101 A  
ENDROOT
BRANCH  12  15
HETATM   15  C   UNL     1      -9.858  16.356  65.837  1.00  0.00    -0.315 C  
BRANCH  15  16
HETATM   16  C   UNL     1     -10.280  17.829  65.852  1.00  0.00    -0.231 C  
HETATM   17  C   UNL     1      -9.401  18.808  66.666  1.00  0.00    -0.339 C  
HETATM   18  C   UNL     1      -7.960  18.918  66.143  1.00  0.00    -0.235 C  
HETATM   19  C   UNL     1     -10.067  20.194  66.653  1.00  0.00    -0.454 C  
HETATM   20  O   UNL     1      -7.269  17.680  66.269  1.00  0.00    -0.252 OA 
HETATM   21  O   UNL     1      -9.314  21.128  67.415  1.00  0.00    -0.550 OA 
HETATM   22  H   UNL     1      -6.378  17.747  65.946  1.00  0.00     0.000 HD 
HETATM   23  H   UNL     1      -9.726  21.984  67.407  1.00  0.00     0.000 HD 
ENDBRANCH  15  16
ENDBRANCH  12  15
TORSDOF 2
ENDMDL
MODEL       66
REMARK 921   NORMALIZED FREE ENERGY PREDICTED BY IDOCK:   -5.92 KCAL/MOL
REMARK 922        TOTAL FREE ENERGY PREDICTED BY IDOCK:   -6.82 KCAL/MOL
REMARK 923 INTER-LIGAND FREE ENERGY PREDICTED BY IDOCK:   -6.80 KCAL/MOL
REMARK 924 INTRA-LIGAND FREE ENERGY PREDICTED BY IDOCK:   -0.02 KCAL/MOL
REMARK 927      BINDING AFFINITY PREDICTED BY RF-SCORE:    0.00 PKD
ROOT
HETATM    1  N   UNL     1     -11.356   9.783  68.211  1.00  0.00    -0.521 NA 
HETATM    2  H1  UNL     1     -10.835  10.113  67.398  1.00  0.00     0.000 HD 
HETATM    3  C   UNL     1     -11.768  10.659  69.159  1.00  0.00    -0.253 C  
HETATM    4  H2  UNL     1     -11.566   8.789  68.310  1.00  0.00     0.000 HD 
HETATM    5  N   UNL     1     -12.432  10.238  70.195  1.00  0.00    -0.518 N  
HETATM    6  H   UNL     1     -12.630   9.243  70.305  1.00  0.00     0.000 HD 
HETATM    7  C   UNL     1     -12.876  11.151  71.162  1.00  0.00    -0.374 C  
HETATM    8  C   UNL     1     -12.581  12.557  70.875  1.00  0.00    -0.241 A  
HETATM    9  O   UNL     1     -13.470  10.798  72.174  1.00  0.00    -0.379 OA 
HETATM   10  C   UNL     1     -11.867  12.887  69.751  1.00  0.00    -0.310 A  
HETATM   11  N   UNL     1     -11.430  11.962  68.888  1.00  0.00    -0.274 NA 
HETATM   12  N   UNL     1     -11.738  14.239  69.740  1.00  0.00    -0.292 NA 
HETATM   13  N   UNL     1     -12.905  13.703  71.572  1.00  0.00    -0.359 NA 
HETATM   14  C   UNL     1     -12.411  14.691  70.850  1.00  0.00    -0.336 A  
ENDROOT
BRANCH  12  15
HETATM   15  C   UNL     1     -11.069  15.079  68.768  1.00  0.00    -0.261 C  
BRANCH  15  16
HETATM   16  C   UNL     1     -11.378  14.730  67.309  1.00  0.00    -0.366 C  
HETATM   17  C   UNL     1     -11.071  15.810  66.244  1.00  0.00    -0.073 C  
HETATM   18  C   UNL     1      -9.581  16.174  66.151  1.00  0.00    -0.327 C  
HETATM   19  C   UNL     1     -11.571  15.309  64.878  1.00  0.00    -0.289 C  
HETATM   20  O   UNL     1      -9.119  16.770  67.359  1.00  0.00    -0.213 OA 
HETATM   21  O   UNL     1     -11.342  16.279  63.865  1.00  0.00    -1.415 OA 
HETATM   22  H   UNL     1      -8.199  16.996  67.303  1.00  0.00     0.000 HD 
HETATM   23  H   UNL     1     -11.651  15.969  63.021  1.00  0.00     0.000 HD 
ENDBRANCH  15  16
ENDBRANCH  12  15
TORSDOF 2
ENDMDL
MODEL       67
REMARK 921   NORMALIZED FREE ENERGY PREDICTED BY IDOCK:   -5.89 KCAL/MOL
REMARK 922        TOTAL FREE ENERGY PREDICTED BY IDOCK:   -6.78 KCAL/MOL
REMARK 923 INTER-LIGAND FREE ENERGY PREDICTED BY IDOCK:   -6.55 KCAL/MOL
REMARK 924 INTRA-LIGAND FREE ENERGY PREDICTED BY IDOCK:   -0.23 KCAL/MOL
REMARK 927      BINDING AFFINITY PREDICTED BY RF-SCORE:    0.00 PKD
ROOT
HETATM    1  N   UNL     1     -11.900  11.786  67.300  1.00  0.00    -0.624 NA 
HETATM    2  H1  UNL     1     -11.630  11.947  68.270  1.00  0.00     0.000 HD 
HETATM    3  C   UNL     1     -11.840  12.796  66.398  1.00  0.00    -0.408 C  
HETATM    4  H2  UNL     1     -12.216  10.861  67.007  1.00  0.00     0.000 HD 
HETATM    5  N   UNL     1     -12.185  12.591  65.161  1.00  0.00    -0.465 N  
HETATM    6  H   UNL     1     -12.516  11.671  64.869  1.00  0.00     0.000 HD 
HETATM    7  C   UNL     1     -12.100  13.634  64.227  1.00  0.00    -0.434 C  
HETATM    8  C   UNL     1     -11.562  14.894  64.745  1.00  0.00    -0.410 A  
HETATM    9  O   UNL     1     -12.450  13.499  63.060  1.00  0.00    -0.709 OA 
HETATM   10  C   UNL     1     -11.236  14.999  66.074  1.00  0.00    -0.310 A  
HETATM   11  N   UNL     1     -11.383  13.979  66.927  1.00  0.00    -0.316 NA 
HETATM   12  N   UNL     1     -10.772  16.260  66.274  1.00  0.00    -0.239 NA 
HETATM   13  N   UNL     1     -11.302  16.088  64.106  1.00  0.00    -0.595 NA 
HETATM   14  C   UNL     1     -10.804  16.873  65.043  1.00  0.00    -0.064 A  
ENDROOT
BRANCH  12  15
HETATM   15  C   UNL     1     -10.303  16.870  67.500  1.00  0.00    -0.318 C  
BRANCH  15  16
HETATM   16  C   UNL     1      -9.378  18.074  67.296  1.00  0.00    -0.256 C  
HETATM   17  C   UNL     1      -8.355  18.378  68.417  1.00  0.00    -0.328 C  
HETATM   18  C   UNL     1      -7.332  17.252  68.636  1.00  0.00    -0.238 C  
HETATM   19  C   UNL     1      -7.624  19.687  68.073  1.00  0.00    -0.299 C  
HETATM   20  O   UNL     1      -7.965  16.061  69.090  1.00  0.00    -0.219 OA 
HETATM   21  O   UNL     1      -6.692  20.031  69.088  1.00  0.00    -0.319 OA 
HETATM   22  H   UNL     1      -7.334  15.365  69.226  1.00  0.00     0.000 HD 
HETATM   23  H   UNL     1      -6.240  20.840  68.876  1.00  0.00     0.000 HD 
ENDBRANCH  15  16
ENDBRANCH  12  15
TORSDOF 2
ENDMDL
MODEL       68
REMARK 921   NORMALIZED FREE ENERGY PREDICTED BY IDOCK:   -5.87 KCAL/MOL
REMARK 922        TOTAL FREE ENERGY PREDICTED BY IDOCK:   -6.76 KCAL/MOL
REMARK 923 INTER-LIGAND FREE ENERGY PREDICTED BY IDOCK:   -6.54 KCAL/MOL
REMARK 924 INTRA-LIGAND FREE ENERGY PREDICTED BY IDOCK:   -0.22 KCAL/MOL
REMARK 927      BINDING AFFINITY PREDICTED BY RF-SCORE:    0.00 PKD
ROOT
HETATM    1  N   UNL     1      -9.885  20.322  65.880  1.00  0.00    -0.625 NA 
HETATM    2  H1  UNL     1     -10.612  20.131  65.189  1.00  0.00     0.000 HD 
HETATM    3  C   UNL     1      -9.389  19.318  66.643  1.00  0.00    -0.341 C  
HETATM    4  H2  UNL     1      -9.531  21.272  65.996  1.00  0.00     0.000 HD 
HETATM    5  N   UNL     1      -8.463  19.561  67.523  1.00  0.00    -0.294 N  
HETATM    6  H   UNL     1      -8.118  20.513  67.652  1.00  0.00     0.000 HD 
HETATM    7  C   UNL     1      -7.937  18.514  68.294  1.00  0.00    -0.305 C  
HETATM    8  C   UNL     1      -8.468  17.184  67.988  1.00  0.00    -0.219 A  
HETATM    9  O   UNL     1      -7.091  18.701  69.162  1.00  0.00    -0.285 OA 
HETATM   10  C   UNL     1      -9.450  17.046  67.040  1.00  0.00    -0.250 A  
HETATM   11  N   UNL     1      -9.945  18.092  66.368  1.00  0.00    -0.351 NA 
HETATM   12  N   UNL     1      -9.752  15.723  66.965  1.00  0.00    -0.225 NA 
HETATM   13  N   UNL     1      -8.147  15.948  68.509  1.00  0.00    -0.149 NA 
HETATM   14  C   UNL     1      -8.913  15.095  67.855  1.00  0.00    -0.174 A  
ENDROOT
BRANCH  12  15
HETATM   15  C   UNL     1     -10.723  15.061  66.120  1.00  0.00    -0.327 C  
BRANCH  15  16
HETATM   16  C   UNL     1     -10.115  14.226  64.989  1.00  0.00    -0.324 C  
HETATM   17  C   UNL     1     -10.897  12.969  64.539  1.00  0.00    -0.390 C  
HETATM   18  C   UNL     1     -12.285  13.285  63.960  1.00  0.00    -0.410 C  
HETATM   19  C   UNL     1     -10.056  12.215  63.494  1.00  0.00    -0.383 C  
HETATM   20  O   UNL     1     -13.136  13.861  64.945  1.00  0.00    -0.704 OA 
HETATM   21  O   UNL     1     -10.716  11.032  63.068  1.00  0.00    -0.786 OA 
HETATM   22  H   UNL     1     -13.994  14.056  64.588  1.00  0.00     0.000 HD 
HETATM   23  H   UNL     1     -10.196  10.566  62.423  1.00  0.00     0.000 HD 
ENDBRANCH  15  16
ENDBRANCH  12  15
TORSDOF 2
ENDMDL
MODEL       69
REMARK 921   NORMALIZED FREE ENERGY PREDICTED BY IDOCK:   -5.85 KCAL/MOL
REMARK 922        TOTAL FREE ENERGY PREDICTED BY IDOCK:   -6.74 KCAL/MOL
REMARK 923 INTER-LIGAND FREE ENERGY PREDICTED BY IDOCK:   -6.52 KCAL/MOL
REMARK 924 INTRA-LIGAND FREE ENERGY PREDICTED BY IDOCK:   -0.23 KCAL/MOL
REMARK 927      BINDING AFFINITY PREDICTED BY RF-SCORE:    0.00 PKD
ROOT
HETATM    1  N   UNL     1     -11.090  12.661  65.957  1.00  0.00    -0.277 NA 
HETATM    2  H1  UNL     1     -11.127  11.661  65.756  1.00  0.00     0.000 HD 
HETATM    3  C   UNL     1     -11.453  13.125  67.177  1.00  0.00    -0.334 C  
HETATM    4  H2  UNL     1     -10.778  13.313  65.236  1.00  0.00     0.000 HD 
HETATM    5  N   UNL     1     -11.406  14.400  67.433  1.00  0.00    -0.321 N  
HETATM    6  H   UNL     1     -11.109  15.055  66.709  1.00  0.00     0.000 HD 
HETATM    7  C   UNL     1     -11.762  14.873  68.704  1.00  0.00    -0.330 C  
HETATM    8  C   UNL     1     -12.121  13.839  69.678  1.00  0.00    -0.336 A  
HETATM    9  O   UNL     1     -11.771  16.067  68.980  1.00  0.00    -0.370 OA 
HETATM   10  C   UNL     1     -12.143  12.522  69.294  1.00  0.00    -0.161 A  
HETATM   11  N   UNL     1     -11.836  12.136  68.050  1.00  0.00    -0.465 NA 
HETATM   12  N   UNL     1     -12.508  11.794  70.381  1.00  0.00    -0.239 NA 
HETATM   13  N   UNL     1     -12.471  13.942  71.008  1.00  0.00    -0.360 NA 
HETATM   14  C   UNL     1     -12.667  12.698  71.405  1.00  0.00    -0.247 A  
ENDROOT
BRANCH  12  15
HETATM   15  C   UNL     1     -12.679  10.360  70.498  1.00  0.00    -0.278 C  
BRANCH  15  16
HETATM   16  C   UNL     1     -11.528   9.640  71.207  1.00  0.00    -0.463 C  
HETATM   17  C   UNL     1     -11.898   8.457  72.133  1.00  0.00    -0.441 C  
HETATM   18  C   UNL     1     -12.569   7.288  71.395  1.00  0.00    -0.388 C  
HETATM   19  C   UNL     1     -10.622   7.965  72.836  1.00  0.00    -0.368 C  
HETATM   20  O   UNL     1     -13.825   7.675  70.847  1.00  0.00    -0.618 OA 
HETATM   21  O   UNL     1     -10.910   6.895  73.725  1.00  0.00    -0.520 OA 
HETATM   22  H   UNL     1     -14.240   6.953  70.391  1.00  0.00     0.000 HD 
HETATM   23  H   UNL     1     -10.121   6.592  74.159  1.00  0.00     0.000 HD 
ENDBRANCH  15  16
ENDBRANCH  12  15
TORSDOF 2
ENDMDL
MODEL       70
REMARK 921   NORMALIZED FREE ENERGY PREDICTED BY IDOCK:   -5.85 KCAL/MOL
REMARK 922        TOTAL FREE ENERGY PREDICTED BY IDOCK:   -6.74 KCAL/MOL
REMARK 923 INTER-LIGAND FREE ENERGY PREDICTED BY IDOCK:   -6.41 KCAL/MOL
REMARK 924 INTRA-LIGAND FREE ENERGY PREDICTED BY IDOCK:   -0.32 KCAL/MOL
REMARK 927      BINDING AFFINITY PREDICTED BY RF-SCORE:    0.00 PKD
ROOT
HETATM    1  N   UNL     1     -11.663  10.584  68.224  1.00  0.00    -0.744 NA 
HETATM    2  H1  UNL     1     -11.298  11.218  67.513  1.00  0.00     0.000 HD 
HETATM    3  C   UNL     1     -12.111  11.070  69.407  1.00  0.00    -0.318 C  
HETATM    4  H2  UNL     1     -11.690   9.580  68.044  1.00  0.00     0.000 HD 
HETATM    5  N   UNL     1     -12.576  10.261  70.314  1.00  0.00    -0.525 N  
HETATM    6  H   UNL     1     -12.589   9.256  70.142  1.00  0.00     0.000 HD 
HETATM    7  C   UNL     1     -13.059  10.772  71.527  1.00  0.00    -0.414 C  
HETATM    8  C   UNL     1     -13.040  12.232  71.643  1.00  0.00    -0.306 A  
HETATM    9  O   UNL     1     -13.470  10.047  72.426  1.00  0.00    -0.364 OA 
HETATM   10  C   UNL     1     -12.520  12.988  70.623  1.00  0.00    -0.268 A  
HETATM   11  N   UNL     1     -12.030  12.438  69.505  1.00  0.00    -0.288 NA 
HETATM   12  N   UNL     1     -12.624  14.290  70.995  1.00  0.00    -0.335 NA 
HETATM   13  N   UNL     1     -13.475  13.058  72.658  1.00  0.00    -0.517 NA 
HETATM   14  C   UNL     1     -13.238  14.282  72.226  1.00  0.00    -0.417 A  
ENDROOT
BRANCH  12  15
HETATM   15  C   UNL     1     -12.218  15.477  70.271  1.00  0.00    -0.400 C  
BRANCH  15  16
HETATM   16  C   UNL     1     -10.703  15.701  70.222  1.00  0.00    -0.354 C  
HETATM   17  C   UNL     1      -9.925  15.023  69.069  1.00  0.00    -0.246 C  
HETATM   18  C   UNL     1     -10.343  15.516  67.674  1.00  0.00    -0.269 C  
HETATM   19  C   UNL     1      -8.422  15.269  69.279  1.00  0.00    -0.238 C  
HETATM   20  O   UNL     1     -11.698  15.180  67.393  1.00  0.00    -0.306 OA 
HETATM   21  O   UNL     1      -7.656  14.640  68.262  1.00  0.00    -0.105 OA 
HETATM   22  H   UNL     1     -11.957  15.484  66.531  1.00  0.00     0.000 HD 
HETATM   23  H   UNL     1      -6.727  14.791  68.392  1.00  0.00     0.000 HD 
ENDBRANCH  15  16
ENDBRANCH  12  15
TORSDOF 2
ENDMDL
MODEL       71
REMARK 921   NORMALIZED FREE ENERGY PREDICTED BY IDOCK:   -5.85 KCAL/MOL
REMARK 922        TOTAL FREE ENERGY PREDICTED BY IDOCK:   -6.74 KCAL/MOL
REMARK 923 INTER-LIGAND FREE ENERGY PREDICTED BY IDOCK:   -6.48 KCAL/MOL
REMARK 924 INTRA-LIGAND FREE ENERGY PREDICTED BY IDOCK:   -0.26 KCAL/MOL
REMARK 927      BINDING AFFINITY PREDICTED BY RF-SCORE:    0.00 PKD
ROOT
HETATM    1  N   UNL     1     -12.622  11.415  70.383  1.00  0.00    -0.224 NA 
HETATM    2  H1  UNL     1     -13.282  11.948  69.817  1.00  0.00     0.000 HD 
HETATM    3  C   UNL     1     -11.471  10.953  69.836  1.00  0.00    -0.323 C  
HETATM    4  H2  UNL     1     -12.828  11.229  71.365  1.00  0.00     0.000 HD 
HETATM    5  N   UNL     1     -10.629  10.273  70.558  1.00  0.00    -0.421 N  
HETATM    6  H   UNL     1     -10.841  10.073  71.536  1.00  0.00     0.000 HD 
HETATM    7  C   UNL     1      -9.430   9.816  69.992  1.00  0.00    -0.238 C  
HETATM    8  C   UNL     1      -9.208  10.207  68.598  1.00  0.00    -0.157 A  
HETATM    9  O   UNL     1      -8.625   9.140  70.621  1.00  0.00    -0.189 OA 
HETATM   10  C   UNL     1     -10.170  10.922  67.931  1.00  0.00    -0.179 A  
HETATM   11  N   UNL     1     -11.318  11.290  68.513  1.00  0.00    -0.249 NA 
HETATM   12  N   UNL     1      -9.708  11.139  66.672  1.00  0.00    -0.192 NA 
HETATM   13  N   UNL     1      -8.137   9.976  67.761  1.00  0.00    -0.109 NA 
HETATM   14  C   UNL     1      -8.456  10.571  66.627  1.00  0.00    -0.129 A  
ENDROOT
BRANCH  12  15
HETATM   15  C   UNL     1     -10.347  11.843  65.579  1.00  0.00    -0.264 C  
BRANCH  15  16
HETATM   16  C   UNL     1     -10.227  13.368  65.651  1.00  0.00    -0.300 C  
HETATM   17  C   UNL     1     -11.136  14.194  64.709  1.00  0.00    -0.393 C  
HETATM   18  C   UNL     1     -12.636  14.000  64.978  1.00  0.00    -0.390 C  
HETATM   19  C   UNL     1     -10.768  15.680  64.850  1.00  0.00    -0.382 C  
HETATM   20  O   UNL     1     -13.038  12.659  64.723  1.00  0.00    -0.852 OA 
HETATM   21  O   UNL     1     -11.553  16.483  63.979  1.00  0.00    -1.490 OA 
HETATM   22  H   UNL     1     -13.966  12.539  64.889  1.00  0.00     0.000 HD 
HETATM   23  H   UNL     1     -11.326  17.402  64.066  1.00  0.00     0.000 HD 
ENDBRANCH  15  16
ENDBRANCH  12  15
TORSDOF 2
ENDMDL
MODEL       72
REMARK 921   NORMALIZED FREE ENERGY PREDICTED BY IDOCK:   -5.83 KCAL/MOL
REMARK 922        TOTAL FREE ENERGY PREDICTED BY IDOCK:   -6.72 KCAL/MOL
REMARK 923 INTER-LIGAND FREE ENERGY PREDICTED BY IDOCK:   -6.39 KCAL/MOL
REMARK 924 INTRA-LIGAND FREE ENERGY PREDICTED BY IDOCK:   -0.33 KCAL/MOL
REMARK 927      BINDING AFFINITY PREDICTED BY RF-SCORE:    0.00 PKD
ROOT
HETATM    1  N   UNL     1      -9.978  11.412  62.801  1.00  0.00    -0.620 NA 
HETATM    2  H1  UNL     1     -10.210  12.340  62.447  1.00  0.00     0.000 HD 
HETATM    3  C   UNL     1     -10.191  11.105  64.103  1.00  0.00    -0.347 C  
HETATM    4  H2  UNL     1      -9.584  10.712  62.171  1.00  0.00     0.000 HD 
HETATM    5  N   UNL     1      -9.895   9.921  64.554  1.00  0.00    -0.399 N  
HETATM    6  H   UNL     1      -9.486   9.225  63.930  1.00  0.00     0.000 HD 
HETATM    7  C   UNL     1     -10.137   9.602  65.898  1.00  0.00    -0.234 C  
HETATM    8  C   UNL     1     -10.773  10.660  66.687  1.00  0.00    -0.181 A  
HETATM    9  O   UNL     1      -9.839   8.514  66.377  1.00  0.00    -0.253 OA 
HETATM   10  C   UNL     1     -11.037  11.875  66.107  1.00  0.00    -0.326 A  
HETATM   11  N   UNL     1     -10.739  12.135  64.829  1.00  0.00    -0.288 NA 
HETATM   12  N   UNL     1     -11.616  12.655  67.056  1.00  0.00    -0.346 NA 
HETATM   13  N   UNL     1     -11.190  10.672  68.002  1.00  0.00    -0.300 NA 
HETATM   14  C   UNL     1     -11.715  11.870  68.181  1.00  0.00    -0.320 A  
ENDROOT
BRANCH  12  15
HETATM   15  C   UNL     1     -12.079  14.023  66.949  1.00  0.00    -0.430 C  
BRANCH  15  16
HETATM   16  C   UNL     1     -11.014  15.079  67.260  1.00  0.00    -0.326 C  
HETATM   17  C   UNL     1     -11.380  16.167  68.298  1.00  0.00    -0.316 C  
HETATM   18  C   UNL     1     -11.662  15.607  69.701  1.00  0.00    -0.361 C  
HETATM   19  C   UNL     1     -10.231  17.188  68.366  1.00  0.00    -0.340 C  
HETATM   20  O   UNL     1     -12.808  14.762  69.699  1.00  0.00    -0.577 OA 
HETATM   21  O   UNL     1     -10.530  18.230  69.284  1.00  0.00    -0.426 OA 
HETATM   22  H   UNL     1     -12.982  14.416  70.566  1.00  0.00     0.000 HD 
HETATM   23  H   UNL     1      -9.820  18.861  69.325  1.00  0.00     0.000 HD 
ENDBRANCH  15  16
ENDBRANCH  12  15
TORSDOF 2
ENDMDL
MODEL       73
REMARK 921   NORMALIZED FREE ENERGY PREDICTED BY IDOCK:   -5.81 KCAL/MOL
REMARK 922        TOTAL FREE ENERGY PREDICTED BY IDOCK:   -6.70 KCAL/MOL
REMARK 923 INTER-LIGAND FREE ENERGY PREDICTED BY IDOCK:   -6.49 KCAL/MOL
REMARK 924 INTRA-LIGAND FREE ENERGY PREDICTED BY IDOCK:   -0.21 KCAL/MOL
REMARK 927      BINDING AFFINITY PREDICTED BY RF-SCORE:    0.00 PKD
ROOT
HETATM    1  N   UNL     1     -13.148  13.790  65.294  1.00  0.00    -0.744 NA 
HETATM    2  H1  UNL     1     -13.701  13.999  66.126  1.00  0.00     0.000 HD 
HETATM    3  C   UNL     1     -12.112  12.919  65.365  1.00  0.00    -0.454 C  
HETATM    4  H2  UNL     1     -13.375  14.239  64.406  1.00  0.00     0.000 HD 
HETATM    5  N   UNL     1     -11.407  12.652  64.305  1.00  0.00    -0.339 N  
HETATM    6  H   UNL     1     -11.622  13.112  63.420  1.00  0.00     0.000 HD 
HETATM    7  C   UNL     1     -10.350  11.733  64.379  1.00  0.00    -0.307 C  
HETATM    8  C   UNL     1     -10.166  11.097  65.685  1.00  0.00    -0.256 A  
HETATM    9  O   UNL     1      -9.633  11.480  63.417  1.00  0.00    -0.311 OA 
HETATM   10  C   UNL     1     -10.967  11.460  66.738  1.00  0.00    -0.291 A  
HETATM   11  N   UNL     1     -11.931  12.380  66.616  1.00  0.00    -0.596 NA 
HETATM   12  N   UNL     1     -10.577  10.725  67.811  1.00  0.00    -0.211 NA 
HETATM   13  N   UNL     1      -9.271  10.130  66.094  1.00  0.00    -0.154 NA 
HETATM   14  C   UNL     1      -9.564   9.911  67.362  1.00  0.00    -0.155 A  
ENDROOT
BRANCH  12  15
HETATM   15  C   UNL     1     -11.105  10.736  69.160  1.00  0.00    -0.249 C  
BRANCH  15  16
HETATM   16  C   UNL     1     -11.128   9.366  69.843  1.00  0.00    -0.223 C  
HETATM   17  C   UNL     1     -11.475   9.334  71.351  1.00  0.00    -0.439 C  
HETATM   18  C   UNL     1     -12.889   9.845  71.666  1.00  0.00    -0.436 C  
HETATM   19  C   UNL     1     -11.317   7.891  71.861  1.00  0.00    -0.276 C  
HETATM   20  O   UNL     1     -13.028  11.222  71.331  1.00  0.00    -0.407 OA 
HETATM   21  O   UNL     1     -11.594   7.810  73.252  1.00  0.00    -0.644 OA 
HETATM   22  H   UNL     1     -13.902  11.538  71.525  1.00  0.00     0.000 HD 
HETATM   23  H   UNL     1     -11.496   6.918  73.567  1.00  0.00     0.000 HD 
ENDBRANCH  15  16
ENDBRANCH  12  15
TORSDOF 2
ENDMDL
MODEL       74
REMARK 921   NORMALIZED FREE ENERGY PREDICTED BY IDOCK:   -5.81 KCAL/MOL
REMARK 922        TOTAL FREE ENERGY PREDICTED BY IDOCK:   -6.69 KCAL/MOL
REMARK 923 INTER-LIGAND FREE ENERGY PREDICTED BY IDOCK:   -6.39 KCAL/MOL
REMARK 924 INTRA-LIGAND FREE ENERGY PREDICTED BY IDOCK:   -0.30 KCAL/MOL
REMARK 927      BINDING AFFINITY PREDICTED BY RF-SCORE:    0.00 PKD
ROOT
HETATM    1  N   UNL     1     -12.709  10.843  70.950  1.00  0.00    -0.367 NA 
HETATM    2  H1  UNL     1     -13.307  11.665  71.039  1.00  0.00     0.000 HD 
HETATM    3  C   UNL     1     -12.055  10.598  69.789  1.00  0.00    -0.272 C  
HETATM    4  H2  UNL     1     -12.604  10.203  71.738  1.00  0.00     0.000 HD 
HETATM    5  N   UNL     1     -11.293   9.550  69.675  1.00  0.00    -0.429 N  
HETATM    6  H   UNL     1     -11.199   8.900  70.455  1.00  0.00     0.000 HD 
HETATM    7  C   UNL     1     -10.601   9.313  68.478  1.00  0.00    -0.183 C  
HETATM    8  C   UNL     1     -10.769  10.339  67.446  1.00  0.00    -0.281 A  
HETATM    9  O   UNL     1      -9.903   8.320  68.310  1.00  0.00    -0.161 OA 
HETATM   10  C   UNL     1     -11.605  11.403  67.674  1.00  0.00    -0.238 A  
HETATM   11  N   UNL     1     -12.276  11.549  68.822  1.00  0.00    -0.443 NA 
HETATM   12  N   UNL     1     -11.574  12.182  66.562  1.00  0.00    -0.484 NA 
HETATM   13  N   UNL     1     -10.208  10.449  66.190  1.00  0.00    -0.235 NA 
HETATM   14  C   UNL     1     -10.689  11.576  65.701  1.00  0.00    -0.267 A  
ENDROOT
BRANCH  12  15
HETATM   15  C   UNL     1     -12.282  13.418  66.300  1.00  0.00    -0.398 C  
BRANCH  15  16
HETATM   16  C   UNL     1     -11.583  14.674  66.831  1.00  0.00    -0.374 C  
HETATM   17  C   UNL     1     -10.701  15.466  65.836  1.00  0.00    -0.343 C  
HETATM   18  C   UNL     1     -11.484  16.043  64.647  1.00  0.00    -0.250 C  
HETATM   19  C   UNL     1      -9.999  16.602  66.599  1.00  0.00    -0.283 C  
HETATM   20  O   UNL     1     -12.034  15.008  63.839  1.00  0.00    -0.866 OA 
HETATM   21  O   UNL     1      -9.149  17.345  65.737  1.00  0.00    -0.517 OA 
HETATM   22  H   UNL     1     -12.518  15.365  63.104  1.00  0.00     0.000 HD 
HETATM   23  H   UNL     1      -8.715  18.047  66.209  1.00  0.00     0.000 HD 
ENDBRANCH  15  16
ENDBRANCH  12  15
TORSDOF 2
ENDMDL
MODEL       75
REMARK 921   NORMALIZED FREE ENERGY PREDICTED BY IDOCK:   -5.76 KCAL/MOL
REMARK 922        TOTAL FREE ENERGY PREDICTED BY IDOCK:   -6.64 KCAL/MOL
REMARK 923 INTER-LIGAND FREE ENERGY PREDICTED BY IDOCK:   -6.41 KCAL/MOL
REMARK 924 INTRA-LIGAND FREE ENERGY PREDICTED BY IDOCK:   -0.24 KCAL/MOL
REMARK 927      BINDING AFFINITY PREDICTED BY RF-SCORE:    0.00 PKD
ROOT
HETATM    1  N   UNL     1      -8.537  15.602  67.141  1.00  0.00    -0.194 NA 
HETATM    2  H1  UNL     1      -8.109  14.886  67.728  1.00  0.00     0.000 HD 
HETATM    3  C   UNL     1      -9.529  15.273  66.278  1.00  0.00    -0.309 C  
HETATM    4  H2  UNL     1      -8.218  16.569  67.204  1.00  0.00     0.000 HD 
HETATM    5  N   UNL     1     -10.076  16.186  65.530  1.00  0.00    -0.323 N  
HETATM    6  H   UNL     1      -9.748  17.151  65.579  1.00  0.00     0.000 HD 
HETATM    7  C   UNL     1     -11.117  15.844  64.655  1.00  0.00    -0.354 C  
HETATM    8  C   UNL     1     -11.541  14.442  64.705  1.00  0.00    -0.409 A  
HETATM    9  O   UNL     1     -11.636  16.661  63.903  1.00  0.00    -1.204 OA 
HETATM   10  C   UNL     1     -10.887  13.563  65.531  1.00  0.00    -0.288 A  
HETATM   11  N   UNL     1      -9.867  13.942  66.310  1.00  0.00    -0.299 NA 
HETATM   12  N   UNL     1     -11.478  12.351  65.374  1.00  0.00    -0.344 NA 
HETATM   13  N   UNL     1     -12.547  13.784  64.029  1.00  0.00    -0.692 NA 
HETATM   14  C   UNL     1     -12.500  12.543  64.474  1.00  0.00    -0.459 A  
ENDROOT
BRANCH  12  15
HETATM   15  C   UNL     1     -11.156  11.094  66.019  1.00  0.00    -0.048 C  
BRANCH  15  16
HETATM   16  C   UNL     1     -10.193  10.204  65.227  1.00  0.00    -0.261 C  
HETATM   17  C   UNL     1      -9.414   9.127  66.020  1.00  0.00    -0.321 C  
HETATM   18  C   UNL     1     -10.320   8.073  66.676  1.00  0.00    -0.203 C  
HETATM   19  C   UNL     1      -8.420   8.439  65.068  1.00  0.00    -0.141 C  
HETATM   20  O   UNL     1     -11.161   8.658  67.665  1.00  0.00    -0.474 OA 
HETATM   21  O   UNL     1      -7.654   7.459  65.754  1.00  0.00    -0.083 OA 
HETATM   22  H   UNL     1     -11.721   8.007  68.070  1.00  0.00     0.000 HD 
HETATM   23  H   UNL     1      -7.040   7.035  65.166  1.00  0.00     0.000 HD 
ENDBRANCH  15  16
ENDBRANCH  12  15
TORSDOF 2
ENDMDL
MODEL       76
REMARK 921   NORMALIZED FREE ENERGY PREDICTED BY IDOCK:   -5.75 KCAL/MOL
REMARK 922        TOTAL FREE ENERGY PREDICTED BY IDOCK:   -6.63 KCAL/MOL
REMARK 923 INTER-LIGAND FREE ENERGY PREDICTED BY IDOCK:   -6.39 KCAL/MOL
REMARK 924 INTRA-LIGAND FREE ENERGY PREDICTED BY IDOCK:   -0.24 KCAL/MOL
REMARK 927      BINDING AFFINITY PREDICTED BY RF-SCORE:    0.00 PKD
ROOT
HETATM    1  N   UNL     1     -12.240  10.017  70.352  1.00  0.00    -0.450 NA 
HETATM    2  H1  UNL     1     -11.637   9.700  69.592  1.00  0.00     0.000 HD 
HETATM    3  C   UNL     1     -12.339  11.338  70.638  1.00  0.00    -0.383 C  
HETATM    4  H2  UNL     1     -12.769   9.337  70.899  1.00  0.00     0.000 HD 
HETATM    5  N   UNL     1     -13.108  11.742  71.607  1.00  0.00    -0.415 N  
HETATM    6  H   UNL     1     -13.626  11.063  72.165  1.00  0.00     0.000 HD 
HETATM    7  C   UNL     1     -13.224  13.112  71.884  1.00  0.00    -0.431 C  
HETATM    8  C   UNL     1     -12.477  13.997  70.987  1.00  0.00    -0.371 A  
HETATM    9  O   UNL     1     -13.905  13.538  72.810  1.00  0.00    -0.730 OA 
HETATM   10  C   UNL     1     -11.692  13.458  69.999  1.00  0.00    -0.227 A  
HETATM   11  N   UNL     1     -11.585  12.137  69.813  1.00  0.00    -0.289 NA 
HETATM   12  N   UNL     1     -11.120  14.494  69.332  1.00  0.00    -0.263 NA 
HETATM   13  N   UNL     1     -12.403  15.374  70.941  1.00  0.00    -0.363 NA 
HETATM   14  C   UNL     1     -11.606  15.637  69.922  1.00  0.00    -0.347 A  
ENDROOT
BRANCH  12  15
HETATM   15  C   UNL     1     -10.207  14.457  68.208  1.00  0.00    -0.241 C  
BRANCH  15  16
HETATM   16  C   UNL     1      -9.289  15.678  68.097  1.00  0.00    -0.194 C  
HETATM   17  C   UNL     1      -8.906  16.146  66.672  1.00  0.00    -0.298 C  
HETATM   18  C   UNL     1     -10.110  16.602  65.832  1.00  0.00    -0.320 C  
HETATM   19  C   UNL     1      -7.888  17.293  66.789  1.00  0.00    -0.243 C  
HETATM   20  O   UNL     1     -11.008  15.525  65.589  1.00  0.00    -0.333 OA 
HETATM   21  O   UNL     1      -7.477  17.742  65.505  1.00  0.00    -0.491 OA 
HETATM   22  H   UNL     1     -11.751  15.806  65.070  1.00  0.00     0.000 HD 
HETATM   23  H   UNL     1      -6.848  18.450  65.578  1.00  0.00     0.000 HD 
ENDBRANCH  15  16
ENDBRANCH  12  15
TORSDOF 2
ENDMDL
MODEL       77
REMARK 921   NORMALIZED FREE ENERGY PREDICTED BY IDOCK:   -5.75 KCAL/MOL
REMARK 922        TOTAL FREE ENERGY PREDICTED BY IDOCK:   -6.62 KCAL/MOL
REMARK 923 INTER-LIGAND FREE ENERGY PREDICTED BY IDOCK:   -5.93 KCAL/MOL
REMARK 924 INTRA-LIGAND FREE ENERGY PREDICTED BY IDOCK:   -0.69 KCAL/MOL
REMARK 927      BINDING AFFINITY PREDICTED BY RF-SCORE:    0.00 PKD
ROOT
HETATM    1  N   UNL     1     -11.947  13.928  70.843  1.00  0.00    -0.488 NA 
HETATM    2  H1  UNL     1     -12.262  12.962  70.743  1.00  0.00     0.000 HD 
HETATM    3  C   UNL     1     -11.541  14.629  69.757  1.00  0.00    -0.296 C  
HETATM    4  H2  UNL     1     -11.938  14.366  71.765  1.00  0.00     0.000 HD 
HETATM    5  N   UNL     1     -11.139  15.860  69.885  1.00  0.00    -0.313 N  
HETATM    6  H   UNL     1     -11.114  16.295  70.807  1.00  0.00     0.000 HD 
HETATM    7  C   UNL     1     -10.741  16.588  68.755  1.00  0.00    -0.339 C  
HETATM    8  C   UNL     1     -10.868  15.880  67.479  1.00  0.00    -0.305 A  
HETATM    9  O   UNL     1     -10.319  17.736  68.830  1.00  0.00    -0.368 OA 
HETATM   10  C   UNL     1     -11.299  14.578  67.463  1.00  0.00    -0.340 A  
HETATM   11  N   UNL     1     -11.621  13.920  68.583  1.00  0.00    -0.304 NA 
HETATM   12  N   UNL     1     -11.316  14.177  66.165  1.00  0.00    -0.329 NA 
HETATM   13  N   UNL     1     -10.616  16.302  66.190  1.00  0.00    -0.298 NA 
HETATM   14  C   UNL     1     -10.922  15.269  65.428  1.00  0.00    -0.372 A  
ENDROOT
BRANCH  12  15
HETATM   15  C   UNL     1     -11.693  12.890  65.618  1.00  0.00    -0.387 C  
BRANCH  15  16
HETATM   16  C   UNL     1     -10.523  11.922  65.413  1.00  0.00    -0.312 C  
HETATM   17  C   UNL     1      -9.963  11.213  66.670  1.00  0.00    -0.244 C  
HETATM   18  C   UNL     1     -10.984  10.300  67.366  1.00  0.00    -0.252 C  
HETATM   19  C   UNL     1      -8.726  10.396  66.262  1.00  0.00    -0.153 C  
HETATM   20  O   UNL     1     -12.082  11.049  67.878  1.00  0.00    -0.721 OA 
HETATM   21  O   UNL     1      -8.151   9.747  67.388  1.00  0.00    -0.112 OA 
HETATM   22  H   UNL     1     -12.713  10.485  68.308  1.00  0.00     0.000 HD 
HETATM   23  H   UNL     1      -7.386   9.242  67.136  1.00  0.00     0.000 HD 
ENDBRANCH  15  16
ENDBRANCH  12  15
TORSDOF 2
ENDMDL
MODEL       78
REMARK 921   NORMALIZED FREE ENERGY PREDICTED BY IDOCK:   -5.73 KCAL/MOL
REMARK 922        TOTAL FREE ENERGY PREDICTED BY IDOCK:   -6.61 KCAL/MOL
REMARK 923 INTER-LIGAND FREE ENERGY PREDICTED BY IDOCK:   -6.39 KCAL/MOL
REMARK 924 INTRA-LIGAND FREE ENERGY PREDICTED BY IDOCK:   -0.22 KCAL/MOL
REMARK 927      BINDING AFFINITY PREDICTED BY RF-SCORE:    0.00 PKD
ROOT
HETATM    1  N   UNL     1     -13.484  13.992  65.404  1.00  0.00    -0.542 NA 
HETATM    2  H1  UNL     1     -14.232  13.354  65.680  1.00  0.00     0.000 HD 
HETATM    3  C   UNL     1     -12.244  13.859  65.933  1.00  0.00    -0.467 C  
HETATM    4  H2  UNL     1     -13.672  14.732  64.727  1.00  0.00     0.000 HD 
HETATM    5  N   UNL     1     -11.291  14.671  65.580  1.00  0.00    -0.334 N  
HETATM    6  H   UNL     1     -11.480  15.421  64.916  1.00  0.00     0.000 HD 
HETATM    7  C   UNL     1     -10.004  14.515  66.114  1.00  0.00    -0.311 C  
HETATM    8  C   UNL     1      -9.836  13.374  67.017  1.00  0.00    -0.250 A  
HETATM    9  O   UNL     1      -9.084  15.279  65.842  1.00  0.00    -0.291 OA 
HETATM   10  C   UNL     1     -10.915  12.584  67.323  1.00  0.00    -0.261 A  
HETATM   11  N   UNL     1     -12.132  12.812  66.816  1.00  0.00    -0.485 NA 
HETATM   12  N   UNL     1     -10.477  11.619  68.173  1.00  0.00    -0.188 NA 
HETATM   13  N   UNL     1      -8.715  12.904  67.671  1.00  0.00    -0.173 NA 
HETATM   14  C   UNL     1      -9.129  11.838  68.330  1.00  0.00    -0.187 A  
ENDROOT
BRANCH  12  15
HETATM   15  C   UNL     1     -11.227  10.543  68.787  1.00  0.00    -0.262 C  
BRANCH  15  16
HETATM   16  C   UNL     1     -11.772  10.866  70.182  1.00  0.00    -0.433 C  
HETATM   17  C   UNL     1     -12.667   9.799  70.857  1.00  0.00    -0.329 C  
HETATM   18  C   UNL     1     -11.942   8.470  71.122  1.00  0.00    -0.272 C  
HETATM   19  C   UNL     1     -13.204  10.372  72.179  1.00  0.00    -0.312 C  
HETATM   20  O   UNL     1     -11.551   7.843  69.905  1.00  0.00    -0.465 OA 
HETATM   21  O   UNL     1     -14.060   9.442  72.826  1.00  0.00    -0.822 OA 
HETATM   22  H   UNL     1     -11.103   7.021  70.069  1.00  0.00     0.000 HD 
HETATM   23  H   UNL     1     -14.392   9.797  73.643  1.00  0.00     0.000 HD 
ENDBRANCH  15  16
ENDBRANCH  12  15
TORSDOF 2
ENDMDL
MODEL       79
REMARK 921   NORMALIZED FREE ENERGY PREDICTED BY IDOCK:   -5.73 KCAL/MOL
REMARK 922        TOTAL FREE ENERGY PREDICTED BY IDOCK:   -6.60 KCAL/MOL
REMARK 923 INTER-LIGAND FREE ENERGY PREDICTED BY IDOCK:   -6.16 KCAL/MOL
REMARK 924 INTRA-LIGAND FREE ENERGY PREDICTED BY IDOCK:   -0.44 KCAL/MOL
REMARK 927      BINDING AFFINITY PREDICTED BY RF-SCORE:    0.00 PKD
ROOT
HETATM    1  N   UNL     1     -14.163   8.780  73.105  1.00  0.00    -1.172 NA 
HETATM    2  H1  UNL     1     -14.071   7.828  73.459  1.00  0.00     0.000 HD 
HETATM    3  C   UNL     1     -13.189   9.318  72.331  1.00  0.00    -0.426 C  
HETATM    4  H2  UNL     1     -14.991   9.330  73.334  1.00  0.00     0.000 HD 
HETATM    5  N   UNL     1     -13.306  10.532  71.880  1.00  0.00    -0.407 N  
HETATM    6  H   UNL     1     -14.126  11.089  72.121  1.00  0.00     0.000 HD 
HETATM    7  C   UNL     1     -12.305  11.076  71.062  1.00  0.00    -0.385 C  
HETATM    8  C   UNL     1     -11.201  10.168  70.739  1.00  0.00    -0.336 A  
HETATM    9  O   UNL     1     -12.352  12.227  70.645  1.00  0.00    -0.354 OA 
HETATM   10  C   UNL     1     -11.178   8.907  71.277  1.00  0.00    -0.298 A  
HETATM   11  N   UNL     1     -12.142   8.461  72.091  1.00  0.00    -0.349 NA 
HETATM   12  N   UNL     1     -10.055   8.296  70.818  1.00  0.00    -0.189 NA 
HETATM   13  N   UNL     1     -10.093  10.353  69.938  1.00  0.00    -0.168 NA 
HETATM   14  C   UNL     1      -9.445   9.204  69.985  1.00  0.00    -0.198 A  
ENDROOT
BRANCH  12  15
HETATM   15  C   UNL     1      -9.572   6.958  71.095  1.00  0.00    -0.166 C  
BRANCH  15  16
HETATM   16  C   UNL     1      -8.944   6.250  69.890  1.00  0.00    -0.141 C  
HETATM   17  C   UNL     1      -9.873   5.361  69.030  1.00  0.00    -0.231 C  
HETATM   18  C   UNL     1     -11.013   6.139  68.355  1.00  0.00    -0.305 C  
HETATM   19  C   UNL     1      -9.023   4.651  67.962  1.00  0.00    -0.114 C  
HETATM   20  O   UNL     1     -11.900   6.696  69.319  1.00  0.00    -0.629 OA 
HETATM   21  O   UNL     1      -9.824   3.794  67.161  1.00  0.00    -0.288 OA 
HETATM   22  H   UNL     1     -12.605   7.176  68.902  1.00  0.00     0.000 HD 
HETATM   23  H   UNL     1      -9.299   3.355  66.502  1.00  0.00     0.000 HD 
ENDBRANCH  15  16
ENDBRANCH  12  15
TORSDOF 2
ENDMDL
MODEL       80
REMARK 921   NORMALIZED FREE ENERGY PREDICTED BY IDOCK:   -5.69 KCAL/MOL
REMARK 922        TOTAL FREE ENERGY PREDICTED BY IDOCK:   -6.56 KCAL/MOL
REMARK 923 INTER-LIGAND FREE ENERGY PREDICTED BY IDOCK:   -5.96 KCAL/MOL
REMARK 924 INTRA-LIGAND FREE ENERGY PREDICTED BY IDOCK:   -0.59 KCAL/MOL
REMARK 927      BINDING AFFINITY PREDICTED BY RF-SCORE:    0.00 PKD
ROOT
HETATM    1  N   UNL     1      -8.077  16.755  68.830  1.00  0.00    -0.247 NA 
HETATM    2  H1  UNL     1      -7.772  15.807  69.053  1.00  0.00     0.000 HD 
HETATM    3  C   UNL     1      -8.852  16.985  67.743  1.00  0.00    -0.223 C  
HETATM    4  H2  UNL     1      -7.796  17.533  69.429  1.00  0.00     0.000 HD 
HETATM    5  N   UNL     1      -9.240  18.194  67.459  1.00  0.00    -0.256 N  
HETATM    6  H   UNL     1      -8.948  18.975  68.047  1.00  0.00     0.000 HD 
HETATM    7  C   UNL     1     -10.061  18.423  66.346  1.00  0.00    -0.403 C  
HETATM    8  C   UNL     1     -10.460  17.223  65.606  1.00  0.00    -0.181 A  
HETATM    9  O   UNL     1     -10.420  19.548  66.016  1.00  0.00    -0.476 OA 
HETATM   10  C   UNL     1      -9.984  15.996  65.993  1.00  0.00    -0.339 A  
HETATM   11  N   UNL     1      -9.165  15.847  67.040  1.00  0.00    -0.207 NA 
HETATM   12  N   UNL     1     -10.505  15.077  65.139  1.00  0.00    -0.400 NA 
HETATM   13  N   UNL     1     -11.284  17.078  64.509  1.00  0.00    -1.059 NA 
HETATM   14  C   UNL     1     -11.311  15.780  64.275  1.00  0.00    -0.179 A  
ENDROOT
BRANCH  12  15
HETATM   15  C   UNL     1     -10.308  13.642  65.120  1.00  0.00    -0.364 C  
BRANCH  15  16
HETATM   16  C   UNL     1     -11.089  12.881  66.196  1.00  0.00    -0.314 C  
HETATM   17  C   UNL     1     -10.336  11.764  66.958  1.00  0.00    -0.243 C  
HETATM   18  C   UNL     1      -9.135  12.276  67.769  1.00  0.00    -0.191 C  
HETATM   19  C   UNL     1     -11.329  11.051  67.891  1.00  0.00    -0.311 C  
HETATM   20  O   UNL     1      -8.132  12.821  66.918  1.00  0.00    -0.363 OA 
HETATM   21  O   UNL     1     -10.696   9.991  68.594  1.00  0.00    -0.209 OA 
HETATM   22  H   UNL     1      -7.390  13.137  67.419  1.00  0.00     0.000 HD 
HETATM   23  H   UNL     1     -11.309   9.550  69.171  1.00  0.00     0.000 HD 
ENDBRANCH  15  16
ENDBRANCH  12  15
TORSDOF 2
ENDMDL
MODEL       81
REMARK 921   NORMALIZED FREE ENERGY PREDICTED BY IDOCK:   -5.68 KCAL/MOL
REMARK 922        TOTAL FREE ENERGY PREDICTED BY IDOCK:   -6.55 KCAL/MOL
REMARK 923 INTER-LIGAND FREE ENERGY PREDICTED BY IDOCK:   -5.87 KCAL/MOL
REMARK 924 INTRA-LIGAND FREE ENERGY PREDICTED BY IDOCK:   -0.69 KCAL/MOL
REMARK 927      BINDING AFFINITY PREDICTED BY RF-SCORE:    0.00 PKD
ROOT
HETATM    1  N   UNL     1      -5.740  15.147  67.386  1.00  0.00    -0.332 NA 
HETATM    2  H1  UNL     1      -5.778  14.147  67.185  1.00  0.00     0.000 HD 
HETATM    3  C   UNL     1      -6.860  15.810  67.762  1.00  0.00    -0.156 C  
HETATM    4  H2  UNL     1      -4.855  15.648  67.303  1.00  0.00     0.000 HD 
HETATM    5  N   UNL     1      -6.812  17.084  68.018  1.00  0.00    -0.157 N  
HETATM    6  H   UNL     1      -5.932  17.591  67.921  1.00  0.00     0.000 HD 
HETATM    7  C   UNL     1      -7.969  17.762  68.428  1.00  0.00    -0.293 C  
HETATM    8  C   UNL     1      -9.161  16.924  68.584  1.00  0.00    -0.265 A  
HETATM    9  O   UNL     1      -7.981  18.968  68.643  1.00  0.00    -0.333 OA 
HETATM   10  C   UNL     1      -9.098  15.588  68.279  1.00  0.00    -0.186 A  
HETATM   11  N   UNL     1      -7.972  15.008  67.847  1.00  0.00    -0.129 NA 
HETATM   12  N   UNL     1     -10.331  15.066  68.508  1.00  0.00    -0.224 NA 
HETATM   13  N   UNL     1     -10.433  17.244  69.009  1.00  0.00    -0.336 NA 
HETATM   14  C   UNL     1     -11.099  16.105  68.979  1.00  0.00    -0.336 A  
ENDROOT
BRANCH  12  15
HETATM   15  C   UNL     1     -10.784  13.701  68.338  1.00  0.00    -0.258 C  
BRANCH  15  16
HETATM   16  C   UNL     1     -11.853  13.518  67.256  1.00  0.00    -0.427 C  
HETATM   17  C   UNL     1     -11.463  13.896  65.807  1.00  0.00    -0.324 C  
HETATM   18  C   UNL     1     -10.317  13.045  65.238  1.00  0.00    -0.304 C  
HETATM   19  C   UNL     1     -12.707  13.760  64.913  1.00  0.00    -0.271 C  
HETATM   20  O   UNL     1      -9.110  13.254  65.963  1.00  0.00    -0.460 OA 
HETATM   21  O   UNL     1     -12.412  14.127  63.572  1.00  0.00    -1.076 OA 
HETATM   22  H   UNL     1      -8.401  12.728  65.612  1.00  0.00     0.000 HD 
HETATM   23  H   UNL     1     -13.181  14.043  63.019  1.00  0.00     0.000 HD 
ENDBRANCH  15  16
ENDBRANCH  12  15
TORSDOF 2
ENDMDL
MODEL       82
REMARK 921   NORMALIZED FREE ENERGY PREDICTED BY IDOCK:   -5.66 KCAL/MOL
REMARK 922        TOTAL FREE ENERGY PREDICTED BY IDOCK:   -6.52 KCAL/MOL
REMARK 923 INTER-LIGAND FREE ENERGY PREDICTED BY IDOCK:   -6.31 KCAL/MOL
REMARK 924 INTRA-LIGAND FREE ENERGY PREDICTED BY IDOCK:   -0.21 KCAL/MOL
REMARK 927      BINDING AFFINITY PREDICTED BY RF-SCORE:    0.00 PKD
ROOT
HETATM    1  N   UNL     1      -9.935   7.633  68.181  1.00  0.00    -0.169 NA 
HETATM    2  H1  UNL     1      -9.515   7.938  67.302  1.00  0.00     0.000 HD 
HETATM    3  C   UNL     1     -10.526   8.533  69.003  1.00  0.00    -0.200 C  
HETATM    4  H2  UNL     1      -9.909   6.647  68.442  1.00  0.00     0.000 HD 
HETATM    5  N   UNL     1     -11.061   8.145  70.123  1.00  0.00    -0.362 N  
HETATM    6  H   UNL     1     -11.022   7.162  70.394  1.00  0.00     0.000 HD 
HETATM    7  C   UNL     1     -11.692   9.077  70.960  1.00  0.00    -0.296 C  
HETATM    8  C   UNL     1     -11.733  10.449  70.447  1.00  0.00    -0.331 A  
HETATM    9  O   UNL     1     -12.175   8.765  72.042  1.00  0.00    -0.329 OA 
HETATM   10  C   UNL     1     -11.130  10.747  69.251  1.00  0.00    -0.256 A  
HETATM   11  N   UNL     1     -10.502   9.819  68.519  1.00  0.00    -0.203 NA 
HETATM   12  N   UNL     1     -11.317  12.073  69.027  1.00  0.00    -0.255 NA 
HETATM   13  N   UNL     1     -12.305  11.588  70.976  1.00  0.00    -0.361 NA 
HETATM   14  C   UNL     1     -12.062  12.533  70.088  1.00  0.00    -0.292 A  
ENDROOT
BRANCH  12  15
HETATM   15  C   UNL     1     -10.873  12.875  67.906  1.00  0.00    -0.227 C  
BRANCH  15  16
HETATM   16  C   UNL     1     -11.551  12.536  66.575  1.00  0.00    -0.447 C  
HETATM   17  C   UNL     1     -11.581  13.643  65.495  1.00  0.00    -0.337 C  
HETATM   18  C   UNL     1     -10.185  14.071  65.016  1.00  0.00    -0.368 C  
HETATM   19  C   UNL     1     -12.410  13.142  64.301  1.00  0.00    -0.351 C  
HETATM   20  O   UNL     1      -9.438  14.668  66.070  1.00  0.00    -0.381 OA 
HETATM   21  O   UNL     1     -12.498  14.135  63.288  1.00  0.00    -1.146 OA 
HETATM   22  H   UNL     1      -8.575  14.933  65.775  1.00  0.00     0.000 HD 
HETATM   23  H   UNL     1     -13.011  13.825  62.551  1.00  0.00     0.000 HD 
ENDBRANCH  15  16
ENDBRANCH  12  15
TORSDOF 2
ENDMDL
MODEL       83
REMARK 921   NORMALIZED FREE ENERGY PREDICTED BY IDOCK:   -5.66 KCAL/MOL
REMARK 922        TOTAL FREE ENERGY PREDICTED BY IDOCK:   -6.52 KCAL/MOL
REMARK 923 INTER-LIGAND FREE ENERGY PREDICTED BY IDOCK:   -6.27 KCAL/MOL
REMARK 924 INTRA-LIGAND FREE ENERGY PREDICTED BY IDOCK:   -0.25 KCAL/MOL
REMARK 927      BINDING AFFINITY PREDICTED BY RF-SCORE:    0.00 PKD
ROOT
HETATM    1  N   UNL     1      -9.074   9.436  68.224  1.00  0.00    -0.128 NA 
HETATM    2  H1  UNL     1      -8.861  10.328  67.776  1.00  0.00     0.000 HD 
HETATM    3  C   UNL     1     -10.010   9.371  69.202  1.00  0.00    -0.182 C  
HETATM    4  H2  UNL     1      -8.581   8.591  67.936  1.00  0.00     0.000 HD 
HETATM    5  N   UNL     1     -10.282   8.235  69.774  1.00  0.00    -0.199 N  
HETATM    6  H   UNL     1      -9.779   7.391  69.498  1.00  0.00     0.000 HD 
HETATM    7  C   UNL     1     -11.268   8.169  70.769  1.00  0.00    -0.261 C  
HETATM    8  C   UNL     1     -11.961   9.429  71.047  1.00  0.00    -0.315 A  
HETATM    9  O   UNL     1     -11.531   7.129  71.363  1.00  0.00    -0.254 OA 
HETATM   10  C   UNL     1     -11.586  10.571  70.385  1.00  0.00    -0.342 A  
HETATM   11  N   UNL     1     -10.604  10.579  69.476  1.00  0.00    -0.237 NA 
HETATM   12  N   UNL     1     -12.383  11.575  70.836  1.00  0.00    -0.382 NA 
HETATM   13  N   UNL     1     -12.996   9.712  71.913  1.00  0.00    -0.406 NA 
HETATM   14  C   UNL     1     -13.242  10.997  71.741  1.00  0.00    -0.400 A  
ENDROOT
BRANCH  12  15
HETATM   15  C   UNL     1     -12.387  12.972  70.453  1.00  0.00    -0.277 C  
BRANCH  15  16
HETATM   16  C   UNL     1     -13.143  13.891  71.417  1.00  0.00    -0.413 C  
HETATM   17  C   UNL     1     -12.297  14.842  72.297  1.00  0.00    -0.426 C  
HETATM   18  C   UNL     1     -11.485  15.866  71.488  1.00  0.00    -0.410 C  
HETATM   19  C   UNL     1     -13.235  15.575  73.271  1.00  0.00    -0.522 C  
HETATM   20  O   UNL     1     -10.509  15.223  70.675  1.00  0.00    -0.490 OA 
HETATM   21  O   UNL     1     -12.504  16.442  74.127  1.00  0.00    -0.626 OA 
HETATM   22  H   UNL     1     -10.007  15.855  70.174  1.00  0.00     0.000 HD 
HETATM   23  H   UNL     1     -13.084  16.894  74.729  1.00  0.00     0.000 HD 
ENDBRANCH  15  16
ENDBRANCH  12  15
TORSDOF 2
ENDMDL
MODEL       84
REMARK 921   NORMALIZED FREE ENERGY PREDICTED BY IDOCK:   -5.65 KCAL/MOL
REMARK 922        TOTAL FREE ENERGY PREDICTED BY IDOCK:   -6.51 KCAL/MOL
REMARK 923 INTER-LIGAND FREE ENERGY PREDICTED BY IDOCK:   -6.30 KCAL/MOL
REMARK 924 INTRA-LIGAND FREE ENERGY PREDICTED BY IDOCK:   -0.21 KCAL/MOL
REMARK 927      BINDING AFFINITY PREDICTED BY RF-SCORE:    0.00 PKD
ROOT
HETATM    1  N   UNL     1      -8.528  10.673  64.577  1.00  0.00    -0.318 NA 
HETATM    2  H1  UNL     1      -8.189   9.893  65.140  1.00  0.00     0.000 HD 
HETATM    3  C   UNL     1      -9.446  11.532  65.083  1.00  0.00    -0.168 C  
HETATM    4  H2  UNL     1      -8.174  10.808  63.629  1.00  0.00     0.000 HD 
HETATM    5  N   UNL     1      -9.878  12.527  64.365  1.00  0.00    -0.551 N  
HETATM    6  H   UNL     1      -9.537  12.654  63.412  1.00  0.00     0.000 HD 
HETATM    7  C   UNL     1     -10.812  13.425  64.901  1.00  0.00    -0.352 C  
HETATM    8  C   UNL     1     -11.191  13.175  66.294  1.00  0.00    -0.301 A  
HETATM    9  O   UNL     1     -11.277  14.354  64.251  1.00  0.00    -0.262 OA 
HETATM   10  C   UNL     1     -10.676  12.088  66.955  1.00  0.00    -0.244 A  
HETATM   11  N   UNL     1      -9.821  11.239  66.372  1.00  0.00    -0.205 NA 
HETATM   12  N   UNL     1     -11.193  12.099  68.210  1.00  0.00    -0.245 NA 
HETATM   13  N   UNL     1     -12.032  13.874  67.135  1.00  0.00    -0.414 NA 
HETATM   14  C   UNL     1     -11.988  13.219  68.280  1.00  0.00    -0.302 A  
ENDROOT
BRANCH  12  15
HETATM   15  C   UNL     1     -10.964  11.167  69.295  1.00  0.00    -0.247 C  
BRANCH  15  16
HETATM   16  C   UNL     1     -11.947  11.299  70.462  1.00  0.00    -0.467 C  
HETATM   17  C   UNL     1     -12.411   9.991  71.147  1.00  0.00    -0.480 C  
HETATM   18  C   UNL     1     -11.268   9.206  71.809  1.00  0.00    -0.381 C  
HETATM   19  C   UNL     1     -13.481  10.339  72.196  1.00  0.00    -0.226 C  
HETATM   20  O   UNL     1     -10.328   8.750  70.843  1.00  0.00    -0.199 OA 
HETATM   21  O   UNL     1     -13.966   9.167  72.836  1.00  0.00    -0.939 OA 
HETATM   22  H   UNL     1      -9.621   8.264  71.251  1.00  0.00     0.000 HD 
HETATM   23  H   UNL     1     -14.627   9.382  73.484  1.00  0.00     0.000 HD 
ENDBRANCH  15  16
ENDBRANCH  12  15
TORSDOF 2
ENDMDL
MODEL       85
REMARK 921   NORMALIZED FREE ENERGY PREDICTED BY IDOCK:   -5.65 KCAL/MOL
REMARK 922        TOTAL FREE ENERGY PREDICTED BY IDOCK:   -6.51 KCAL/MOL
REMARK 923 INTER-LIGAND FREE ENERGY PREDICTED BY IDOCK:   -6.31 KCAL/MOL
REMARK 924 INTRA-LIGAND FREE ENERGY PREDICTED BY IDOCK:   -0.20 KCAL/MOL
REMARK 927      BINDING AFFINITY PREDICTED BY RF-SCORE:    0.00 PKD
ROOT
HETATM    1  N   UNL     1     -12.738  15.984  69.723  1.00  0.00    -0.546 NA 
HETATM    2  H1  UNL     1     -13.038  15.833  70.686  1.00  0.00     0.000 HD 
HETATM    3  C   UNL     1     -12.242  14.955  68.993  1.00  0.00    -0.136 C  
HETATM    4  H2  UNL     1     -12.811  16.913  69.307  1.00  0.00     0.000 HD 
HETATM    5  N   UNL     1     -11.859  15.147  67.765  1.00  0.00    -0.418 N  
HETATM    6  H   UNL     1     -11.917  16.079  67.352  1.00  0.00     0.000 HD 
HETATM    7  C   UNL     1     -11.368  14.075  67.008  1.00  0.00    -0.330 C  
HETATM    8  C   UNL     1     -11.379  12.775  67.684  1.00  0.00    -0.310 A  
HETATM    9  O   UNL     1     -10.959  14.215  65.861  1.00  0.00    -0.291 OA 
HETATM   10  C   UNL     1     -11.800  12.690  68.987  1.00  0.00    -0.294 A  
HETATM   11  N   UNL     1     -12.216  13.762  69.673  1.00  0.00    -0.329 NA 
HETATM   12  N   UNL     1     -11.703  11.387  69.356  1.00  0.00    -0.307 NA 
HETATM   13  N   UNL     1     -11.018  11.524  67.230  1.00  0.00    -0.255 NA 
HETATM   14  C   UNL     1     -11.251  10.713  68.245  1.00  0.00    -0.301 A  
ENDROOT
BRANCH  12  15
HETATM   15  C   UNL     1     -12.023  10.778  70.630  1.00  0.00    -0.367 C  
BRANCH  15  16
HETATM   16  C   UNL     1     -11.504   9.346  70.797  1.00  0.00    -0.364 C  
HETATM   17  C   UNL     1     -11.725   8.670  72.172  1.00  0.00    -0.442 C  
HETATM   18  C   UNL     1     -13.207   8.492  72.537  1.00  0.00    -0.223 C  
HETATM   19  C   UNL     1     -11.022   7.302  72.165  1.00  0.00    -0.239 C  
HETATM   20  O   UNL     1     -13.857   9.750  72.686  1.00  0.00    -0.674 OA 
HETATM   21  O   UNL     1     -11.167   6.649  73.418  1.00  0.00    -0.489 OA 
HETATM   22  H   UNL     1     -14.773   9.640  72.912  1.00  0.00     0.000 HD 
HETATM   23  H   UNL     1     -10.732   5.804  73.414  1.00  0.00     0.000 HD 
ENDBRANCH  15  16
ENDBRANCH  12  15
TORSDOF 2
ENDMDL
MODEL       86
REMARK 921   NORMALIZED FREE ENERGY PREDICTED BY IDOCK:   -5.64 KCAL/MOL
REMARK 922        TOTAL FREE ENERGY PREDICTED BY IDOCK:   -6.51 KCAL/MOL
REMARK 923 INTER-LIGAND FREE ENERGY PREDICTED BY IDOCK:   -6.16 KCAL/MOL
REMARK 924 INTRA-LIGAND FREE ENERGY PREDICTED BY IDOCK:   -0.35 KCAL/MOL
REMARK 927      BINDING AFFINITY PREDICTED BY RF-SCORE:    0.00 PKD
ROOT
HETATM    1  N   UNL     1     -11.032  10.354  69.520  1.00  0.00    -0.244 NA 
HETATM    2  H1  UNL     1     -10.374  10.064  68.796  1.00  0.00     0.000 HD 
HETATM    3  C   UNL     1     -11.315  11.667  69.699  1.00  0.00    -0.236 C  
HETATM    4  H2  UNL     1     -11.478   9.652  70.112  1.00  0.00     0.000 HD 
HETATM    5  N   UNL     1     -12.153  12.037  70.622  1.00  0.00    -0.466 N  
HETATM    6  H   UNL     1     -12.589  11.338  71.225  1.00  0.00     0.000 HD 
HETATM    7  C   UNL     1     -12.460  13.395  70.788  1.00  0.00    -0.341 C  
HETATM    8  C   UNL     1     -11.817  14.302  69.833  1.00  0.00    -0.322 A  
HETATM    9  O   UNL     1     -13.213  13.794  71.668  1.00  0.00    -0.347 OA 
HETATM   10  C   UNL     1     -10.943  13.801  68.902  1.00  0.00    -0.252 A  
HETATM   11  N   UNL     1     -10.655  12.496  68.823  1.00  0.00    -0.208 NA 
HETATM   12  N   UNL     1     -10.500  14.850  68.163  1.00  0.00    -0.239 NA 
HETATM   13  N   UNL     1     -11.928  15.668  69.679  1.00  0.00    -0.364 NA 
HETATM   14  C   UNL     1     -11.150  15.958  68.654  1.00  0.00    -0.337 A  
ENDROOT
BRANCH  12  15
HETATM   15  C   UNL     1      -9.563  14.851  67.058  1.00  0.00    -0.238 C  
BRANCH  15  16
HETATM   16  C   UNL     1      -9.986  13.983  65.868  1.00  0.00    -0.325 C  
HETATM   17  C   UNL     1     -11.229  14.439  65.067  1.00  0.00    -0.376 C  
HETATM   18  C   UNL     1     -11.053  15.807  64.388  1.00  0.00    -0.157 C  
HETATM   19  C   UNL     1     -11.551  13.370  64.009  1.00  0.00    -0.385 C  
HETATM   20  O   UNL     1     -10.890  16.843  65.350  1.00  0.00    -0.435 OA 
HETATM   21  O   UNL     1     -12.706  13.724  63.263  1.00  0.00    -0.886 OA 
HETATM   22  H   UNL     1     -10.781  17.689  64.931  1.00  0.00     0.000 HD 
HETATM   23  H   UNL     1     -12.905  13.063  62.609  1.00  0.00     0.000 HD 
ENDBRANCH  15  16
ENDBRANCH  12  15
TORSDOF 2
ENDMDL
MODEL       87
REMARK 921   NORMALIZED FREE ENERGY PREDICTED BY IDOCK:   -5.63 KCAL/MOL
REMARK 922        TOTAL FREE ENERGY PREDICTED BY IDOCK:   -6.49 KCAL/MOL
REMARK 923 INTER-LIGAND FREE ENERGY PREDICTED BY IDOCK:   -6.21 KCAL/MOL
REMARK 924 INTRA-LIGAND FREE ENERGY PREDICTED BY IDOCK:   -0.29 KCAL/MOL
REMARK 927      BINDING AFFINITY PREDICTED BY RF-SCORE:    0.00 PKD
ROOT
HETATM    1  N   UNL     1      -5.711  18.009  65.562  1.00  0.00    -0.171 NA 
HETATM    2  H1  UNL     1      -5.661  17.375  64.764  1.00  0.00     0.000 HD 
HETATM    3  C   UNL     1      -6.837  18.074  66.313  1.00  0.00    -0.256 C  
HETATM    4  H2  UNL     1      -4.910  18.597  65.795  1.00  0.00     0.000 HD 
HETATM    5  N   UNL     1      -6.900  18.882  67.331  1.00  0.00    -0.200 N  
HETATM    6  H   UNL     1      -6.106  19.481  67.556  1.00  0.00     0.000 HD 
HETATM    7  C   UNL     1      -8.060  18.928  68.118  1.00  0.00    -0.302 C  
HETATM    8  C   UNL     1      -9.115  17.987  67.733  1.00  0.00    -0.262 A  
HETATM    9  O   UNL     1      -8.181  19.701  69.062  1.00  0.00    -0.309 OA 
HETATM   10  C   UNL     1      -8.941  17.183  66.635  1.00  0.00    -0.253 A  
HETATM   11  N   UNL     1      -7.827  17.218  65.895  1.00  0.00    -0.503 NA 
HETATM   12  N   UNL     1     -10.062  16.426  66.512  1.00  0.00    -0.282 NA 
HETATM   13  N   UNL     1     -10.344  17.735  68.305  1.00  0.00    -0.375 NA 
HETATM   14  C   UNL     1     -10.872  16.776  67.566  1.00  0.00    -0.216 A  
ENDROOT
BRANCH  12  15
HETATM   15  C   UNL     1     -10.375  15.423  65.514  1.00  0.00    -0.387 C  
BRANCH  15  16
HETATM   16  C   UNL     1     -10.100  13.982  65.956  1.00  0.00    -0.327 C  
HETATM   17  C   UNL     1     -11.291  13.181  66.534  1.00  0.00    -0.350 C  
HETATM   18  C   UNL     1     -12.434  12.970  65.529  1.00  0.00    -0.438 C  
HETATM   19  C   UNL     1     -10.773  11.820  67.028  1.00  0.00    -0.246 C  
HETATM   20  O   UNL     1     -13.028  14.208  65.155  1.00  0.00    -0.729 OA 
HETATM   21  O   UNL     1     -11.823  11.053  67.600  1.00  0.00    -0.599 OA 
HETATM   22  H   UNL     1     -13.734  14.078  64.534  1.00  0.00     0.000 HD 
HETATM   23  H   UNL     1     -11.503  10.211  67.905  1.00  0.00     0.000 HD 
ENDBRANCH  15  16
ENDBRANCH  12  15
TORSDOF 2
ENDMDL
MODEL       88
REMARK 921   NORMALIZED FREE ENERGY PREDICTED BY IDOCK:   -5.62 KCAL/MOL
REMARK 922        TOTAL FREE ENERGY PREDICTED BY IDOCK:   -6.49 KCAL/MOL
REMARK 923 INTER-LIGAND FREE ENERGY PREDICTED BY IDOCK:   -6.25 KCAL/MOL
REMARK 924 INTRA-LIGAND FREE ENERGY PREDICTED BY IDOCK:   -0.23 KCAL/MOL
REMARK 927      BINDING AFFINITY PREDICTED BY RF-SCORE:    0.00 PKD
ROOT
HETATM    1  N   UNL     1     -13.236   8.777  72.160  1.00  0.00    -0.387 NA 
HETATM    2  H1  UNL     1     -12.775   8.012  71.666  1.00  0.00     0.000 HD 
HETATM    3  C   UNL     1     -13.017  10.061  71.786  1.00  0.00    -0.458 C  
HETATM    4  H2  UNL     1     -13.864   8.573  72.938  1.00  0.00     0.000 HD 
HETATM    5  N   UNL     1     -13.605  11.035  72.416  1.00  0.00    -0.401 N  
HETATM    6  H   UNL     1     -14.221  10.835  73.204  1.00  0.00     0.000 HD 
HETATM    7  C   UNL     1     -13.392  12.361  72.011  1.00  0.00    -0.407 C  
HETATM    8  C   UNL     1     -12.532  12.525  70.837  1.00  0.00    -0.269 A  
HETATM    9  O   UNL     1     -13.893  13.314  72.597  1.00  0.00    -0.712 OA 
HETATM   10  C   UNL     1     -11.959  11.423  70.254  1.00  0.00    -0.373 A  
HETATM   11  N   UNL     1     -12.164  10.184  70.717  1.00  0.00    -0.317 NA 
HETATM   12  N   UNL     1     -11.219  11.864  69.204  1.00  0.00    -0.248 NA 
HETATM   13  N   UNL     1     -12.155  13.662  70.152  1.00  0.00    -0.347 NA 
HETATM   14  C   UNL     1     -11.394  13.228  69.166  1.00  0.00    -0.282 A  
ENDROOT
BRANCH  12  15
HETATM   15  C   UNL     1     -10.419  11.097  68.272  1.00  0.00    -0.191 C  
BRANCH  15  16
HETATM   16  C   UNL     1     -10.860  11.218  66.810  1.00  0.00    -0.334 C  
HETATM   17  C   UNL     1      -9.822  11.764  65.801  1.00  0.00    -0.267 C  
HETATM   18  C   UNL     1      -8.575  10.876  65.662  1.00  0.00    -0.160 C  
HETATM   19  C   UNL     1     -10.503  11.923  64.432  1.00  0.00    -0.311 C  
HETATM   20  O   UNL     1      -7.843  10.819  66.882  1.00  0.00    -0.119 OA 
HETATM   21  O   UNL     1      -9.600  12.453  63.472  1.00  0.00    -0.672 OA 
HETATM   22  H   UNL     1      -7.073  10.270  66.796  1.00  0.00     0.000 HD 
HETATM   23  H   UNL     1     -10.022  12.552  62.626  1.00  0.00     0.000 HD 
ENDBRANCH  15  16
ENDBRANCH  12  15
TORSDOF 2
ENDMDL
MODEL       89
REMARK 921   NORMALIZED FREE ENERGY PREDICTED BY IDOCK:   -5.60 KCAL/MOL
REMARK 922        TOTAL FREE ENERGY PREDICTED BY IDOCK:   -6.46 KCAL/MOL
REMARK 923 INTER-LIGAND FREE ENERGY PREDICTED BY IDOCK:   -5.84 KCAL/MOL
REMARK 924 INTRA-LIGAND FREE ENERGY PREDICTED BY IDOCK:   -0.62 KCAL/MOL
REMARK 927      BINDING AFFINITY PREDICTED BY RF-SCORE:    0.00 PKD
ROOT
HETATM    1  N   UNL     1     -12.096  13.976  68.244  1.00  0.00    -0.512 NA 
HETATM    2  H1  UNL     1     -11.615  13.471  68.989  1.00  0.00     0.000 HD 
HETATM    3  C   UNL     1     -11.851  13.675  66.946  1.00  0.00    -0.411 C  
HETATM    4  H2  UNL     1     -12.765  14.710  68.478  1.00  0.00     0.000 HD 
HETATM    5  N   UNL     1     -12.465  14.318  65.997  1.00  0.00    -0.423 N  
HETATM    6  H   UNL     1     -13.122  15.063  66.228  1.00  0.00     0.000 HD 
HETATM    7  C   UNL     1     -12.223  13.987  64.656  1.00  0.00    -0.435 C  
HETATM    8  C   UNL     1     -11.302  12.868  64.445  1.00  0.00    -0.358 A  
HETATM    9  O   UNL     1     -12.748  14.591  63.727  1.00  0.00    -0.780 OA 
HETATM   10  C   UNL     1     -10.706  12.265  65.523  1.00  0.00    -0.279 A  
HETATM   11  N   UNL     1     -10.942  12.657  66.780  1.00  0.00    -0.254 NA 
HETATM   12  N   UNL     1      -9.910  11.276  65.040  1.00  0.00    -0.249 NA 
HETATM   13  N   UNL     1     -10.883  12.257  63.281  1.00  0.00    -0.390 NA 
HETATM   14  C   UNL     1     -10.075  11.292  63.675  1.00  0.00    -0.382 A  
ENDROOT
BRANCH  12  15
HETATM   15  C   UNL     1      -9.067  10.351  65.770  1.00  0.00    -0.168 C  
BRANCH  15  16
HETATM   16  C   UNL     1      -9.806   9.135  66.338  1.00  0.00    -0.350 C  
HETATM   17  C   UNL     1      -9.487   8.733  67.798  1.00  0.00    -0.164 C  
HETATM   18  C   UNL     1      -9.858   9.813  68.827  1.00  0.00    -0.169 C  
HETATM   19  C   UNL     1     -10.231   7.427  68.122  1.00  0.00    -0.187 C  
HETATM   20  O   UNL     1      -9.085  10.993  68.639  1.00  0.00    -0.166 OA 
HETATM   21  O   UNL     1      -9.947   6.994  69.445  1.00  0.00    -0.159 OA 
HETATM   22  H   UNL     1      -9.314  11.661  69.275  1.00  0.00     0.000 HD 
HETATM   23  H   UNL     1     -10.407   6.187  69.645  1.00  0.00     0.000 HD 
ENDBRANCH  15  16
ENDBRANCH  12  15
TORSDOF 2
ENDMDL
MODEL       90
REMARK 921   NORMALIZED FREE ENERGY PREDICTED BY IDOCK:   -5.58 KCAL/MOL
REMARK 922        TOTAL FREE ENERGY PREDICTED BY IDOCK:   -6.44 KCAL/MOL
REMARK 923 INTER-LIGAND FREE ENERGY PREDICTED BY IDOCK:   -5.73 KCAL/MOL
REMARK 924 INTRA-LIGAND FREE ENERGY PREDICTED BY IDOCK:   -0.71 KCAL/MOL
REMARK 927      BINDING AFFINITY PREDICTED BY RF-SCORE:    0.00 PKD
ROOT
HETATM    1  N   UNL     1     -11.512  11.802  70.108  1.00  0.00    -0.510 NA 
HETATM    2  H1  UNL     1     -10.660  11.917  69.559  1.00  0.00     0.000 HD 
HETATM    3  C   UNL     1     -11.898  10.570  70.518  1.00  0.00    -0.347 C  
HETATM    4  H2  UNL     1     -12.074  12.618  70.351  1.00  0.00     0.000 HD 
HETATM    5  N   UNL     1     -12.984  10.423  71.219  1.00  0.00    -0.394 N  
HETATM    6  H   UNL     1     -13.557  11.236  71.449  1.00  0.00     0.000 HD 
HETATM    7  C   UNL     1     -13.368   9.148  71.659  1.00  0.00    -0.383 C  
HETATM    8  C   UNL     1     -12.445   8.064  71.315  1.00  0.00    -0.253 A  
HETATM    9  O   UNL     1     -14.402   8.956  72.288  1.00  0.00    -0.435 OA 
HETATM   10  C   UNL     1     -11.328   8.334  70.565  1.00  0.00    -0.219 A  
HETATM   11  N   UNL     1     -11.040   9.568  70.135  1.00  0.00    -0.247 NA 
HETATM   12  N   UNL     1     -10.665   7.161  70.396  1.00  0.00    -0.228 NA 
HETATM   13  N   UNL     1     -12.484   6.720  71.623  1.00  0.00    -0.361 NA 
HETATM   14  C   UNL     1     -11.391   6.215  71.082  1.00  0.00    -0.275 A  
ENDROOT
BRANCH  12  15
HETATM   15  C   UNL     1      -9.432   6.910  69.679  1.00  0.00    -0.147 C  
BRANCH  15  16
HETATM   16  C   UNL     1      -9.542   5.845  68.583  1.00  0.00    -0.145 C  
HETATM   17  C   UNL     1     -10.546   6.113  67.436  1.00  0.00    -0.352 C  
HETATM   18  C   UNL     1     -10.209   7.361  66.604  1.00  0.00    -0.177 C  
HETATM   19  C   UNL     1     -10.591   4.876  66.524  1.00  0.00    -0.184 C  
HETATM   20  O   UNL     1     -10.293   8.544  67.391  1.00  0.00    -0.243 OA 
HETATM   21  O   UNL     1     -11.523   5.055  65.467  1.00  0.00    -0.830 OA 
HETATM   22  H   UNL     1     -10.085   9.315  66.877  1.00  0.00     0.000 HD 
HETATM   23  H   UNL     1     -11.551   4.290  64.904  1.00  0.00     0.000 HD 
ENDBRANCH  15  16
ENDBRANCH  12  15
TORSDOF 2
ENDMDL
MODEL       91
REMARK 921   NORMALIZED FREE ENERGY PREDICTED BY IDOCK:   -5.58 KCAL/MOL
REMARK 922        TOTAL FREE ENERGY PREDICTED BY IDOCK:   -6.43 KCAL/MOL
REMARK 923 INTER-LIGAND FREE ENERGY PREDICTED BY IDOCK:   -5.79 KCAL/MOL
REMARK 924 INTRA-LIGAND FREE ENERGY PREDICTED BY IDOCK:   -0.64 KCAL/MOL
REMARK 927      BINDING AFFINITY PREDICTED BY RF-SCORE:    0.00 PKD
ROOT
HETATM    1  N   UNL     1     -13.951   8.990  73.100  1.00  0.00    -1.215 NA 
HETATM    2  H1  UNL     1     -13.779   8.201  73.724  1.00  0.00     0.000 HD 
HETATM    3  C   UNL     1     -12.974   9.425  72.267  1.00  0.00    -0.400 C  
HETATM    4  H2  UNL     1     -14.860   9.452  73.102  1.00  0.00     0.000 HD 
HETATM    5  N   UNL     1     -13.192  10.430  71.471  1.00  0.00    -0.396 N  
HETATM    6  H   UNL     1     -14.096  10.904  71.483  1.00  0.00     0.000 HD 
HETATM    7  C   UNL     1     -12.186  10.862  70.595  1.00  0.00    -0.376 C  
HETATM    8  C   UNL     1     -10.950  10.076  70.627  1.00  0.00    -0.322 A  
HETATM    9  O   UNL     1     -12.331  11.828  69.855  1.00  0.00    -0.223 OA 
HETATM   10  C   UNL     1     -10.828   9.037  71.514  1.00  0.00    -0.346 A  
HETATM   11  N   UNL     1     -11.810   8.701  72.359  1.00  0.00    -0.362 NA 
HETATM   12  N   UNL     1      -9.596   8.495  71.330  1.00  0.00    -0.193 NA 
HETATM   13  N   UNL     1      -9.795  10.189  69.881  1.00  0.00    -0.217 NA 
HETATM   14  C   UNL     1      -9.018   9.211  70.307  1.00  0.00    -0.217 A  
ENDROOT
BRANCH  12  15
HETATM   15  C   UNL     1      -8.983   7.379  72.020  1.00  0.00    -0.124 C  
BRANCH  15  16
HETATM   16  C   UNL     1      -9.359   6.004  71.459  1.00  0.00    -0.161 C  
HETATM   17  C   UNL     1      -9.797   4.922  72.476  1.00  0.00    -0.202 C  
HETATM   18  C   UNL     1     -11.074   5.287  73.248  1.00  0.00    -0.316 C  
HETATM   19  C   UNL     1     -10.004   3.597  71.724  1.00  0.00    -0.140 C  
HETATM   20  O   UNL     1     -10.874   6.436  74.064  1.00  0.00    -0.428 OA 
HETATM   21  O   UNL     1     -10.377   2.557  72.617  1.00  0.00    -0.153 OA 
HETATM   22  H   UNL     1     -11.663   6.662  74.542  1.00  0.00     0.000 HD 
HETATM   23  H   UNL     1     -10.504   1.738  72.152  1.00  0.00     0.000 HD 
ENDBRANCH  15  16
ENDBRANCH  12  15
TORSDOF 2
ENDMDL
MODEL       92
REMARK 921   NORMALIZED FREE ENERGY PREDICTED BY IDOCK:   -5.56 KCAL/MOL
REMARK 922        TOTAL FREE ENERGY PREDICTED BY IDOCK:   -6.42 KCAL/MOL
REMARK 923 INTER-LIGAND FREE ENERGY PREDICTED BY IDOCK:   -5.84 KCAL/MOL
REMARK 924 INTRA-LIGAND FREE ENERGY PREDICTED BY IDOCK:   -0.58 KCAL/MOL
REMARK 927      BINDING AFFINITY PREDICTED BY RF-SCORE:    0.00 PKD
ROOT
HETATM    1  N   UNL     1     -13.646  14.175  72.170  1.00  0.00    -0.429 NA 
HETATM    2  H1  UNL     1     -13.479  15.056  71.682  1.00  0.00     0.000 HD 
HETATM    3  C   UNL     1     -13.201  13.008  71.644  1.00  0.00    -0.336 C  
HETATM    4  H2  UNL     1     -14.151  14.174  73.057  1.00  0.00     0.000 HD 
HETATM    5  N   UNL     1     -13.414  11.886  72.267  1.00  0.00    -0.548 N  
HETATM    6  H   UNL     1     -13.933  11.881  73.146  1.00  0.00     0.000 HD 
HETATM    7  C   UNL     1     -12.932  10.684  71.729  1.00  0.00    -0.472 C  
HETATM    8  C   UNL     1     -12.159  10.818  70.493  1.00  0.00    -0.366 A  
HETATM    9  O   UNL     1     -13.142   9.599  72.259  1.00  0.00    -0.414 OA 
HETATM   10  C   UNL     1     -12.001  12.055  69.920  1.00  0.00    -0.318 A  
HETATM   11  N   UNL     1     -12.526  13.162  70.457  1.00  0.00    -0.289 NA 
HETATM   12  N   UNL     1     -11.256  11.884  68.797  1.00  0.00    -0.238 NA 
HETATM   13  N   UNL     1     -11.510   9.867  69.733  1.00  0.00    -0.189 NA 
HETATM   14  C   UNL     1     -10.957  10.543  68.743  1.00  0.00    -0.251 A  
ENDROOT
BRANCH  12  15
HETATM   15  C   UNL     1     -10.815  12.879  67.841  1.00  0.00    -0.227 C  
BRANCH  15  16
HETATM   16  C   UNL     1      -9.737  13.831  68.368  1.00  0.00    -0.219 C  
HETATM   17  C   UNL     1      -9.961  15.346  68.143  1.00  0.00    -0.221 C  
HETATM   18  C   UNL     1     -11.212  15.893  68.849  1.00  0.00    -0.343 C  
HETATM   19  C   UNL     1      -8.715  16.104  68.629  1.00  0.00    -0.214 C  
HETATM   20  O   UNL     1     -12.399  15.308  68.324  1.00  0.00    -0.507 OA 
HETATM   21  O   UNL     1      -8.854  17.502  68.416  1.00  0.00    -0.262 OA 
HETATM   22  H   UNL     1     -13.172  15.646  68.760  1.00  0.00     0.000 HD 
HETATM   23  H   UNL     1      -8.083  17.970  68.716  1.00  0.00     0.000 HD 
ENDBRANCH  15  16
ENDBRANCH  12  15
TORSDOF 2
ENDMDL
MODEL       93
REMARK 921   NORMALIZED FREE ENERGY PREDICTED BY IDOCK:   -5.55 KCAL/MOL
REMARK 922        TOTAL FREE ENERGY PREDICTED BY IDOCK:   -6.41 KCAL/MOL
REMARK 923 INTER-LIGAND FREE ENERGY PREDICTED BY IDOCK:   -5.76 KCAL/MOL
REMARK 924 INTRA-LIGAND FREE ENERGY PREDICTED BY IDOCK:   -0.65 KCAL/MOL
REMARK 927      BINDING AFFINITY PREDICTED BY RF-SCORE:    0.00 PKD
ROOT
HETATM    1  N   UNL     1      -8.230  11.974  66.633  1.00  0.00    -0.356 NA 
HETATM    2  H1  UNL     1      -7.447  12.619  66.518  1.00  0.00     0.000 HD 
HETATM    3  C   UNL     1      -9.317  12.343  67.353  1.00  0.00    -0.181 C  
HETATM    4  H2  UNL     1      -8.193  11.049  66.205  1.00  0.00     0.000 HD 
HETATM    5  N   UNL     1     -10.315  11.522  67.499  1.00  0.00    -0.190 N  
HETATM    6  H   UNL     1     -10.274  10.590  67.085  1.00  0.00     0.000 HD 
HETATM    7  C   UNL     1     -11.447  11.917  68.226  1.00  0.00    -0.311 C  
HETATM    8  C   UNL     1     -11.418  13.292  68.730  1.00  0.00    -0.306 A  
HETATM    9  O   UNL     1     -12.395  11.164  68.424  1.00  0.00    -0.556 OA 
HETATM   10  C   UNL     1     -10.307  14.069  68.520  1.00  0.00    -0.247 A  
HETATM   11  N   UNL     1      -9.236  13.619  67.857  1.00  0.00    -0.194 NA 
HETATM   12  N   UNL     1     -10.550  15.278  69.091  1.00  0.00    -0.239 NA 
HETATM   13  N   UNL     1     -12.364  14.011  69.430  1.00  0.00    -0.287 NA 
HETATM   14  C   UNL     1     -11.824  15.203  69.604  1.00  0.00    -0.334 A  
ENDROOT
BRANCH  12  15
HETATM   15  C   UNL     1      -9.693  16.444  69.147  1.00  0.00    -0.260 C  
BRANCH  15  16
HETATM   16  C   UNL     1     -10.363  17.745  68.695  1.00  0.00    -0.351 C  
HETATM   17  C   UNL     1      -9.931  18.325  67.326  1.00  0.00    -0.343 C  
HETATM   18  C   UNL     1     -10.249  17.400  66.141  1.00  0.00    -0.328 C  
HETATM   19  C   UNL     1     -10.623  19.684  67.128  1.00  0.00    -0.487 C  
HETATM   20  O   UNL     1      -9.515  16.183  66.223  1.00  0.00    -0.268 OA 
HETATM   21  O   UNL     1     -10.235  20.277  65.896  1.00  0.00    -0.517 OA 
HETATM   22  H   UNL     1      -9.711  15.612  65.491  1.00  0.00     0.000 HD 
HETATM   23  H   UNL     1     -10.663  21.117  65.774  1.00  0.00     0.000 HD 
ENDBRANCH  15  16
ENDBRANCH  12  15
TORSDOF 2
ENDMDL
MODEL       94
REMARK 921   NORMALIZED FREE ENERGY PREDICTED BY IDOCK:   -5.54 KCAL/MOL
REMARK 922        TOTAL FREE ENERGY PREDICTED BY IDOCK:   -6.39 KCAL/MOL
REMARK 923 INTER-LIGAND FREE ENERGY PREDICTED BY IDOCK:   -5.71 KCAL/MOL
REMARK 924 INTRA-LIGAND FREE ENERGY PREDICTED BY IDOCK:   -0.69 KCAL/MOL
REMARK 927      BINDING AFFINITY PREDICTED BY RF-SCORE:    0.00 PKD
ROOT
HETATM    1  N   UNL     1     -12.365  13.989  68.413  1.00  0.00    -0.504 NA 
HETATM    2  H1  UNL     1     -11.983  13.411  69.163  1.00  0.00     0.000 HD 
HETATM    3  C   UNL     1     -12.104  13.686  67.119  1.00  0.00    -0.362 C  
HETATM    4  H2  UNL     1     -12.947  14.796  68.640  1.00  0.00     0.000 HD 
HETATM    5  N   UNL     1     -12.592  14.422  66.163  1.00  0.00    -0.415 N  
HETATM    6  H   UNL     1     -13.160  15.239  66.387  1.00  0.00     0.000 HD 
HETATM    7  C   UNL     1     -12.336  14.092  64.824  1.00  0.00    -0.413 C  
HETATM    8  C   UNL     1     -11.554  12.870  64.620  1.00  0.00    -0.346 A  
HETATM    9  O   UNL     1     -12.741  14.776  63.892  1.00  0.00    -0.794 OA 
HETATM   10  C   UNL     1     -11.085  12.174  65.705  1.00  0.00    -0.319 A  
HETATM   11  N   UNL     1     -11.324  12.567  66.962  1.00  0.00    -0.308 NA 
HETATM   12  N   UNL     1     -10.398  11.103  65.228  1.00  0.00    -0.268 NA 
HETATM   13  N   UNL     1     -11.166  12.237  63.458  1.00  0.00    -0.451 NA 
HETATM   14  C   UNL     1     -10.502  11.169  63.859  1.00  0.00    -0.381 A  
ENDROOT
BRANCH  12  15
HETATM   15  C   UNL     1      -9.710  10.064  65.966  1.00  0.00    -0.240 C  
BRANCH  15  16
HETATM   16  C   UNL     1      -8.183  10.173  65.938  1.00  0.00    -0.138 C  
HETATM   17  C   UNL     1      -7.540  11.310  66.769  1.00  0.00    -0.151 C  
HETATM   18  C   UNL     1      -7.801  11.190  68.278  1.00  0.00    -0.123 C  
HETATM   19  C   UNL     1      -6.025  11.317  66.501  1.00  0.00    -0.144 C  
HETATM   20  O   UNL     1      -9.187  11.317  68.575  1.00  0.00    -0.175 OA 
HETATM   21  O   UNL     1      -5.387  12.365  67.217  1.00  0.00    -0.175 OA 
HETATM   22  H   UNL     1      -9.349  11.243  69.507  1.00  0.00     0.000 HD 
HETATM   23  H   UNL     1      -4.451  12.370  67.051  1.00  0.00     0.000 HD 
ENDBRANCH  15  16
ENDBRANCH  12  15
TORSDOF 2
ENDMDL
MODEL       95
REMARK 921   NORMALIZED FREE ENERGY PREDICTED BY IDOCK:   -5.53 KCAL/MOL
REMARK 922        TOTAL FREE ENERGY PREDICTED BY IDOCK:   -6.38 KCAL/MOL
REMARK 923 INTER-LIGAND FREE ENERGY PREDICTED BY IDOCK:   -5.69 KCAL/MOL
REMARK 924 INTRA-LIGAND FREE ENERGY PREDICTED BY IDOCK:   -0.69 KCAL/MOL
REMARK 927      BINDING AFFINITY PREDICTED BY RF-SCORE:    0.00 PKD
ROOT
HETATM    1  N   UNL     1     -12.901  15.684  70.767  1.00  0.00    -0.482 NA 
HETATM    2  H1  UNL     1     -12.563  16.480  71.308  1.00  0.00     0.000 HD 
HETATM    3  C   UNL     1     -12.137  15.156  69.780  1.00  0.00    -0.319 C  
HETATM    4  H2  UNL     1     -13.818  15.285  70.969  1.00  0.00     0.000 HD 
HETATM    5  N   UNL     1     -12.568  14.141  69.090  1.00  0.00    -0.416 N  
HETATM    6  H   UNL     1     -13.491  13.751  69.279  1.00  0.00     0.000 HD 
HETATM    7  C   UNL     1     -11.764  13.584  68.085  1.00  0.00    -0.361 C  
HETATM    8  C   UNL     1     -10.439  14.192  67.936  1.00  0.00    -0.237 A  
HETATM    9  O   UNL     1     -12.143  12.654  67.383  1.00  0.00    -0.432 OA 
HETATM   10  C   UNL     1     -10.092  15.265  68.717  1.00  0.00    -0.219 A  
HETATM   11  N   UNL     1     -10.923  15.782  69.630  1.00  0.00    -0.278 NA 
HETATM   12  N   UNL     1      -8.829  15.623  68.369  1.00  0.00    -0.179 NA 
HETATM   13  N   UNL     1      -9.394  13.871  67.096  1.00  0.00    -0.233 NA 
HETATM   14  C   UNL     1      -8.437  14.727  67.401  1.00  0.00    -0.201 A  
ENDROOT
BRANCH  12  15
HETATM   15  C   UNL     1      -8.011  16.695  68.896  1.00  0.00    -0.236 C  
BRANCH  15  16
HETATM   16  C   UNL     1      -7.610  17.754  67.864  1.00  0.00    -0.212 C  
HETATM   17  C   UNL     1      -8.745  18.615  67.259  1.00  0.00    -0.280 C  
HETATM   18  C   UNL     1      -9.480  19.477  68.298  1.00  0.00    -0.366 C  
HETATM   19  C   UNL     1      -8.147  19.515  66.164  1.00  0.00    -0.333 C  
HETATM   20  O   UNL     1     -10.161  18.668  69.251  1.00  0.00    -0.475 OA 
HETATM   21  O   UNL     1      -9.155  20.308  65.552  1.00  0.00    -0.435 OA 
HETATM   22  H   UNL     1     -10.616  19.200  69.893  1.00  0.00     0.000 HD 
HETATM   23  H   UNL     1      -8.785  20.864  64.875  1.00  0.00     0.000 HD 
ENDBRANCH  15  16
ENDBRANCH  12  15
TORSDOF 2
ENDMDL
MODEL       96
REMARK 921   NORMALIZED FREE ENERGY PREDICTED BY IDOCK:   -5.53 KCAL/MOL
REMARK 922        TOTAL FREE ENERGY PREDICTED BY IDOCK:   -6.38 KCAL/MOL
REMARK 923 INTER-LIGAND FREE ENERGY PREDICTED BY IDOCK:   -6.30 KCAL/MOL
REMARK 924 INTRA-LIGAND FREE ENERGY PREDICTED BY IDOCK:   -0.08 KCAL/MOL
REMARK 927      BINDING AFFINITY PREDICTED BY RF-SCORE:    0.00 PKD
ROOT
HETATM    1  N   UNL     1     -12.162  14.546  68.087  1.00  0.00    -0.593 NA 
HETATM    2  H1  UNL     1     -12.114  14.658  69.100  1.00  0.00     0.000 HD 
HETATM    3  C   UNL     1     -11.756  13.390  67.508  1.00  0.00    -0.366 C  
HETATM    4  H2  UNL     1     -12.517  15.308  67.508  1.00  0.00     0.000 HD 
HETATM    5  N   UNL     1     -11.818  13.247  66.216  1.00  0.00    -0.375 N  
HETATM    6  H   UNL     1     -12.157  14.013  65.634  1.00  0.00     0.000 HD 
HETATM    7  C   UNL     1     -11.417  12.041  65.624  1.00  0.00    -0.316 C  
HETATM    8  C   UNL     1     -10.998  10.995  66.560  1.00  0.00    -0.166 A  
HETATM    9  O   UNL     1     -11.420  11.874  64.410  1.00  0.00    -0.340 OA 
HETATM   10  C   UNL     1     -10.967  11.259  67.906  1.00  0.00    -0.248 A  
HETATM   11  N   UNL     1     -11.318  12.449  68.407  1.00  0.00    -0.261 NA 
HETATM   12  N   UNL     1     -10.541  10.128  68.527  1.00  0.00    -0.204 NA 
HETATM   13  N   UNL     1     -10.594   9.696  66.331  1.00  0.00    -0.097 NA 
HETATM   14  C   UNL     1     -10.357   9.198  67.530  1.00  0.00    -0.261 A  
ENDROOT
BRANCH  12  15
HETATM   15  C   UNL     1     -10.338   9.890  69.941  1.00  0.00    -0.258 C  
BRANCH  15  16
HETATM   16  C   UNL     1     -11.516  10.304  70.829  1.00  0.00    -0.438 C  
HETATM   17  C   UNL     1     -12.325   9.171  71.503  1.00  0.00    -0.421 C  
HETATM   18  C   UNL     1     -11.497   8.326  72.484  1.00  0.00    -0.384 C  
HETATM   19  C   UNL     1     -13.525   9.793  72.236  1.00  0.00    -0.349 C  
HETATM   20  O   UNL     1     -10.457   7.625  71.811  1.00  0.00    -0.202 OA 
HETATM   21  O   UNL     1     -14.323   8.790  72.849  1.00  0.00    -1.023 OA 
HETATM   22  H   UNL     1      -9.945   7.102  72.416  1.00  0.00     0.000 HD 
HETATM   23  H   UNL     1     -15.065   9.175  73.302  1.00  0.00     0.000 HD 
ENDBRANCH  15  16
ENDBRANCH  12  15
TORSDOF 2
ENDMDL
MODEL       97
REMARK 921   NORMALIZED FREE ENERGY PREDICTED BY IDOCK:   -5.51 KCAL/MOL
REMARK 922        TOTAL FREE ENERGY PREDICTED BY IDOCK:   -6.36 KCAL/MOL
REMARK 923 INTER-LIGAND FREE ENERGY PREDICTED BY IDOCK:   -5.72 KCAL/MOL
REMARK 924 INTRA-LIGAND FREE ENERGY PREDICTED BY IDOCK:   -0.64 KCAL/MOL
REMARK 927      BINDING AFFINITY PREDICTED BY RF-SCORE:    0.00 PKD
ROOT
HETATM    1  N   UNL     1     -11.815  11.254  70.728  1.00  0.00    -0.397 NA 
HETATM    2  H1  UNL     1     -12.227  12.133  71.039  1.00  0.00     0.000 HD 
HETATM    3  C   UNL     1     -11.506  11.070  69.421  1.00  0.00    -0.294 C  
HETATM    4  H2  UNL     1     -11.635  10.510  71.403  1.00  0.00     0.000 HD 
HETATM    5  N   UNL     1     -10.980   9.948  69.024  1.00  0.00    -0.321 N  
HETATM    6  H   UNL     1     -10.814   9.197  69.694  1.00  0.00     0.000 HD 
HETATM    7  C   UNL     1     -10.642   9.771  67.675  1.00  0.00    -0.276 C  
HETATM    8  C   UNL     1     -10.877  10.934  66.815  1.00  0.00    -0.224 A  
HETATM    9  O   UNL     1     -10.181   8.719  67.247  1.00  0.00    -0.219 OA 
HETATM   10  C   UNL     1     -11.443  12.067  67.342  1.00  0.00    -0.336 A  
HETATM   11  N   UNL     1     -11.787  12.158  68.631  1.00  0.00    -0.318 NA 
HETATM   12  N   UNL     1     -11.546  12.970  66.332  1.00  0.00    -0.345 NA 
HETATM   13  N   UNL     1     -10.620  11.123  65.472  1.00  0.00    -0.251 NA 
HETATM   14  C   UNL     1     -11.006  12.360  65.224  1.00  0.00    -0.298 A  
ENDROOT
BRANCH  12  15
HETATM   15  C   UNL     1     -12.078  14.316  66.370  1.00  0.00    -0.419 C  
BRANCH  15  16
HETATM   16  C   UNL     1     -11.036  15.402  66.655  1.00  0.00    -0.275 C  
HETATM   17  C   UNL     1     -11.357  16.411  67.783  1.00  0.00    -0.034 C  
HETATM   18  C   UNL     1     -11.493  15.760  69.169  1.00  0.00    -0.380 C  
HETATM   19  C   UNL     1     -10.251  17.479  67.816  1.00  0.00    -0.349 C  
HETATM   20  O   UNL     1     -12.599  14.864  69.212  1.00  0.00    -0.572 OA 
HETATM   21  O   UNL     1     -10.513  18.453  68.817  1.00  0.00    -0.411 OA 
HETATM   22  H   UNL     1     -12.684  14.462  70.068  1.00  0.00     0.000 HD 
HETATM   23  H   UNL     1      -9.830  19.113  68.837  1.00  0.00     0.000 HD 
ENDBRANCH  15  16
ENDBRANCH  12  15
TORSDOF 2
ENDMDL
MODEL       98
REMARK 921   NORMALIZED FREE ENERGY PREDICTED BY IDOCK:   -5.49 KCAL/MOL
REMARK 922        TOTAL FREE ENERGY PREDICTED BY IDOCK:   -6.34 KCAL/MOL
REMARK 923 INTER-LIGAND FREE ENERGY PREDICTED BY IDOCK:   -5.63 KCAL/MOL
REMARK 924 INTRA-LIGAND FREE ENERGY PREDICTED BY IDOCK:   -0.71 KCAL/MOL
REMARK 927      BINDING AFFINITY PREDICTED BY RF-SCORE:    0.00 PKD
ROOT
HETATM    1  N   UNL     1     -10.400  19.827  69.458  1.00  0.00    -0.559 NA 
HETATM    2  H1  UNL     1     -11.414  19.729  69.508  1.00  0.00     0.000 HD 
HETATM    3  C   UNL     1      -9.654  18.890  68.825  1.00  0.00    -0.382 C  
HETATM    4  H2  UNL     1      -9.946  20.634  69.888  1.00  0.00     0.000 HD 
HETATM    5  N   UNL     1      -8.361  19.016  68.761  1.00  0.00    -0.352 N  
HETATM    6  H   UNL     1      -7.903  19.813  69.204  1.00  0.00     0.000 HD 
HETATM    7  C   UNL     1      -7.595  18.055  68.085  1.00  0.00    -0.259 C  
HETATM    8  C   UNL     1      -8.362  16.983  67.445  1.00  0.00    -0.191 A  
HETATM    9  O   UNL     1      -6.372  18.110  68.032  1.00  0.00    -0.177 OA 
HETATM   10  C   UNL     1      -9.726  16.947  67.582  1.00  0.00    -0.249 A  
HETATM   11  N   UNL     1     -10.397  17.871  68.281  1.00  0.00    -0.380 NA 
HETATM   12  N   UNL     1     -10.170  15.860  66.899  1.00  0.00    -0.270 NA 
HETATM   13  N   UNL     1      -7.944  15.920  66.672  1.00  0.00    -0.252 NA 
HETATM   14  C   UNL     1      -9.053  15.285  66.339  1.00  0.00    -0.312 A  
ENDROOT
BRANCH  12  15
HETATM   15  C   UNL     1     -11.527  15.381  66.738  1.00  0.00    -0.045 C  
BRANCH  15  16
HETATM   16  C   UNL     1     -11.743  13.929  67.177  1.00  0.00    -0.419 C  
HETATM   17  C   UNL     1     -11.446  13.587  68.657  1.00  0.00    -0.343 C  
HETATM   18  C   UNL     1     -12.346  14.334  69.652  1.00  0.00    -0.266 C  
HETATM   19  C   UNL     1     -11.602  12.069  68.850  1.00  0.00    -0.321 C  
HETATM   20  O   UNL     1     -12.125  15.739  69.595  1.00  0.00    -0.363 OA 
HETATM   21  O   UNL     1     -11.309  11.694  70.189  1.00  0.00    -0.489 OA 
HETATM   22  H   UNL     1     -12.682  16.202  70.210  1.00  0.00     0.000 HD 
HETATM   23  H   UNL     1     -11.405  10.756  70.308  1.00  0.00     0.000 HD 
ENDBRANCH  15  16
ENDBRANCH  12  15
TORSDOF 2
ENDMDL
MODEL       99
REMARK 921   NORMALIZED FREE ENERGY PREDICTED BY IDOCK:   -5.49 KCAL/MOL
REMARK 922        TOTAL FREE ENERGY PREDICTED BY IDOCK:   -6.34 KCAL/MOL
REMARK 923 INTER-LIGAND FREE ENERGY PREDICTED BY IDOCK:   -5.69 KCAL/MOL
REMARK 924 INTRA-LIGAND FREE ENERGY PREDICTED BY IDOCK:   -0.65 KCAL/MOL
REMARK 927      BINDING AFFINITY PREDICTED BY RF-SCORE:    0.00 PKD
ROOT
HETATM    1  N   UNL     1     -13.301   6.927  71.907  1.00  0.00    -0.515 NA 
HETATM    2  H1  UNL     1     -13.865   6.921  71.057  1.00  0.00     0.000 HD 
HETATM    3  C   UNL     1     -12.035   7.410  71.882  1.00  0.00    -0.302 C  
HETATM    4  H2  UNL     1     -13.691   6.568  72.779  1.00  0.00     0.000 HD 
HETATM    5  N   UNL     1     -11.316   7.418  72.966  1.00  0.00    -0.567 N  
HETATM    6  H   UNL     1     -11.698   7.044  73.835  1.00  0.00     0.000 HD 
HETATM    7  C   UNL     1     -10.014   7.939  72.940  1.00  0.00    -0.294 C  
HETATM    8  C   UNL     1      -9.589   8.494  71.652  1.00  0.00    -0.249 A  
HETATM    9  O   UNL     1      -9.285   7.932  73.925  1.00  0.00    -0.267 OA 
HETATM   10  C   UNL     1     -10.431   8.426  70.572  1.00  0.00    -0.207 A  
HETATM   11  N   UNL     1     -11.648   7.873  70.649  1.00  0.00    -0.248 NA 
HETATM   12  N   UNL     1      -9.787   9.005  69.525  1.00  0.00    -0.175 NA 
HETATM   13  N   UNL     1      -8.414   9.118  71.288  1.00  0.00    -0.325 NA 
HETATM   14  C   UNL     1      -8.578   9.435  70.018  1.00  0.00    -0.203 A  
ENDROOT
BRANCH  12  15
HETATM   15  C   UNL     1     -10.247   9.183  68.163  1.00  0.00    -0.207 C  
BRANCH  15  16
HETATM   16  C   UNL     1     -10.015  10.586  67.594  1.00  0.00    -0.202 C  
HETATM   17  C   UNL     1     -11.253  11.504  67.453  1.00  0.00    -0.367 C  
HETATM   18  C   UNL     1     -11.929  11.835  68.793  1.00  0.00    -0.257 C  
HETATM   19  C   UNL     1     -10.823  12.803  66.751  1.00  0.00    -0.264 C  
HETATM   20  O   UNL     1     -12.461  10.665  69.405  1.00  0.00    -0.655 OA 
HETATM   21  O   UNL     1     -11.932  13.673  66.566  1.00  0.00    -0.381 OA 
HETATM   22  H   UNL     1     -12.879  10.869  70.233  1.00  0.00     0.000 HD 
HETATM   23  H   UNL     1     -11.666  14.476  66.133  1.00  0.00     0.000 HD 
ENDBRANCH  15  16
ENDBRANCH  12  15
TORSDOF 2
ENDMDL
MODEL      100
REMARK 921   NORMALIZED FREE ENERGY PREDICTED BY IDOCK:   -5.49 KCAL/MOL
REMARK 922        TOTAL FREE ENERGY PREDICTED BY IDOCK:   -6.33 KCAL/MOL
REMARK 923 INTER-LIGAND FREE ENERGY PREDICTED BY IDOCK:   -5.99 KCAL/MOL
REMARK 924 INTRA-LIGAND FREE ENERGY PREDICTED BY IDOCK:   -0.35 KCAL/MOL
REMARK 927      BINDING AFFINITY PREDICTED BY RF-SCORE:    0.00 PKD
ROOT
HETATM    1  N   UNL     1     -13.911  15.646  72.691  1.00  0.00    -0.581 NA 
HETATM    2  H1  UNL     1     -13.875  16.586  72.296  1.00  0.00     0.000 HD 
HETATM    3  C   UNL     1     -13.455  14.588  71.977  1.00  0.00    -0.384 C  
HETATM    4  H2  UNL     1     -14.291  15.503  73.627  1.00  0.00     0.000 HD 
HETATM    5  N   UNL     1     -13.501  13.390  72.482  1.00  0.00    -0.573 N  
HETATM    6  H   UNL     1     -13.895  13.242  73.411  1.00  0.00     0.000 HD 
HETATM    7  C   UNL     1     -13.008  12.301  71.748  1.00  0.00    -0.325 C  
HETATM    8  C   UNL     1     -12.419  12.639  70.449  1.00  0.00    -0.143 A  
HETATM    9  O   UNL     1     -13.065  11.150  72.164  1.00  0.00    -0.463 OA 
HETATM   10  C   UNL     1     -12.430  13.940  70.015  1.00  0.00    -0.266 A  
HETATM   11  N   UNL     1     -12.958  14.930  70.743  1.00  0.00    -0.368 NA 
HETATM   12  N   UNL     1     -11.831  13.960  68.796  1.00  0.00    -0.344 NA 
HETATM   13  N   UNL     1     -11.809  11.838  69.506  1.00  0.00    -0.324 NA 
HETATM   14  C   UNL     1     -11.444  12.665  68.544  1.00  0.00    -0.311 A  
ENDROOT
BRANCH  12  15
HETATM   15  C   UNL     1     -11.596  15.089  67.919  1.00  0.00    -0.333 C  
BRANCH  15  16
HETATM   16  C   UNL     1     -10.513  16.056  68.407  1.00  0.00    -0.263 C  
HETATM   17  C   UNL     1      -9.045  15.700  68.072  1.00  0.00    -0.183 C  
HETATM   18  C   UNL     1      -8.752  15.664  66.564  1.00  0.00    -0.307 C  
HETATM   19  C   UNL     1      -8.123  16.723  68.757  1.00  0.00    -0.252 C  
HETATM   20  O   UNL     1      -9.490  14.632  65.919  1.00  0.00    -0.436 OA 
HETATM   21  O   UNL     1      -6.756  16.424  68.507  1.00  0.00    -0.133 OA 
HETATM   22  H   UNL     1      -9.310  14.609  64.987  1.00  0.00     0.000 HD 
HETATM   23  H   UNL     1      -6.187  17.056  68.931  1.00  0.00     0.000 HD 
ENDBRANCH  15  16
ENDBRANCH  12  15
TORSDOF 2
ENDMDL
MODEL      101
REMARK 921   NORMALIZED FREE ENERGY PREDICTED BY IDOCK:   -5.49 KCAL/MOL
REMARK 922        TOTAL FREE ENERGY PREDICTED BY IDOCK:   -6.33 KCAL/MOL
REMARK 923 INTER-LIGAND FREE ENERGY PREDICTED BY IDOCK:   -5.72 KCAL/MOL
REMARK 924 INTRA-LIGAND FREE ENERGY PREDICTED BY IDOCK:   -0.61 KCAL/MOL
REMARK 927      BINDING AFFINITY PREDICTED BY RF-SCORE:    0.00 PKD
ROOT
HETATM    1  N   UNL     1     -10.120   7.595  68.370  1.00  0.00    -0.181 NA 
HETATM    2  H1  UNL     1      -9.628   7.900  67.530  1.00  0.00     0.000 HD 
HETATM    3  C   UNL     1     -10.734   8.502  69.169  1.00  0.00    -0.110 C  
HETATM    4  H2  UNL     1     -10.150   6.604  68.610  1.00  0.00     0.000 HD 
HETATM    5  N   UNL     1     -11.362   8.113  70.239  1.00  0.00    -0.429 N  
HETATM    6  H   UNL     1     -11.380   7.124  70.490  1.00  0.00     0.000 HD 
HETATM    7  C   UNL     1     -12.014   9.053  71.050  1.00  0.00    -0.269 C  
HETATM    8  C   UNL     1     -11.966  10.435  70.566  1.00  0.00    -0.334 A  
HETATM    9  O   UNL     1     -12.585   8.740  72.088  1.00  0.00    -0.353 OA 
HETATM   10  C   UNL     1     -11.268  10.732  69.424  1.00  0.00    -0.276 A  
HETATM   11  N   UNL     1     -10.625   9.795  68.717  1.00  0.00    -0.213 NA 
HETATM   12  N   UNL     1     -11.388  12.069  69.216  1.00  0.00    -0.265 NA 
HETATM   13  N   UNL     1     -12.530  11.585  71.079  1.00  0.00    -0.384 NA 
HETATM   14  C   UNL     1     -12.188  12.538  70.232  1.00  0.00    -0.267 A  
ENDROOT
BRANCH  12  15
HETATM   15  C   UNL     1     -10.834  12.875  68.148  1.00  0.00    -0.236 C  
BRANCH  15  16
HETATM   16  C   UNL     1     -11.754  13.036  66.933  1.00  0.00    -0.441 C  
HETATM   17  C   UNL     1     -11.116  12.855  65.535  1.00  0.00    -0.306 C  
HETATM   18  C   UNL     1     -10.552  11.446  65.295  1.00  0.00    -0.277 C  
HETATM   19  C   UNL     1     -12.173  13.182  64.467  1.00  0.00    -0.406 C  
HETATM   20  O   UNL     1      -9.474  11.163  66.182  1.00  0.00    -0.191 OA 
HETATM   21  O   UNL     1     -11.630  13.062  63.160  1.00  0.00    -0.781 OA 
HETATM   22  H   UNL     1      -9.125  10.292  66.034  1.00  0.00     0.000 HD 
HETATM   23  H   UNL     1     -12.283  13.264  62.500  1.00  0.00     0.000 HD 
ENDBRANCH  15  16
ENDBRANCH  12  15
TORSDOF 2
ENDMDL
MODEL      102
REMARK 921   NORMALIZED FREE ENERGY PREDICTED BY IDOCK:   -5.42 KCAL/MOL
REMARK 922        TOTAL FREE ENERGY PREDICTED BY IDOCK:   -6.26 KCAL/MOL
REMARK 923 INTER-LIGAND FREE ENERGY PREDICTED BY IDOCK:   -5.74 KCAL/MOL
REMARK 924 INTRA-LIGAND FREE ENERGY PREDICTED BY IDOCK:   -0.52 KCAL/MOL
REMARK 927      BINDING AFFINITY PREDICTED BY RF-SCORE:    0.00 PKD
ROOT
HETATM    1  N   UNL     1     -10.159  20.424  65.858  1.00  0.00    -0.556 NA 
HETATM    2  H1  UNL     1     -11.156  20.268  65.704  1.00  0.00     0.000 HD 
HETATM    3  C   UNL     1      -9.425  19.517  66.547  1.00  0.00    -0.375 C  
HETATM    4  H2  UNL     1      -9.714  21.266  65.491  1.00  0.00     0.000 HD 
HETATM    5  N   UNL     1      -8.155  19.716  66.743  1.00  0.00    -0.283 N  
HETATM    6  H   UNL     1      -7.710  20.564  66.391  1.00  0.00     0.000 HD 
HETATM    7  C   UNL     1      -7.395  18.763  67.438  1.00  0.00    -0.222 C  
HETATM    8  C   UNL     1      -8.126  17.562  67.851  1.00  0.00    -0.230 A  
HETATM    9  O   UNL     1      -6.205  18.925  67.681  1.00  0.00    -0.199 OA 
HETATM   10  C   UNL     1      -9.470  17.462  67.595  1.00  0.00    -0.251 A  
HETATM   11  N   UNL     1     -10.150  18.428  66.966  1.00  0.00    -0.344 NA 
HETATM   12  N   UNL     1      -9.883  16.264  68.084  1.00  0.00    -0.226 NA 
HETATM   13  N   UNL     1      -7.690  16.425  68.499  1.00  0.00    -0.184 NA 
HETATM   14  C   UNL     1      -8.759  15.659  68.596  1.00  0.00    -0.193 A  
ENDROOT
BRANCH  12  15
HETATM   15  C   UNL     1     -11.210  15.686  68.066  1.00  0.00    -0.339 C  
BRANCH  15  16
HETATM   16  C   UNL     1     -11.334  14.360  68.824  1.00  0.00    -0.299 C  
HETATM   17  C   UNL     1     -11.578  13.085  67.981  1.00  0.00    -0.383 C  
HETATM   18  C   UNL     1     -10.433  12.764  67.007  1.00  0.00    -0.237 C  
HETATM   19  C   UNL     1     -11.797  11.899  68.936  1.00  0.00    -0.307 C  
HETATM   20  O   UNL     1     -10.294  13.782  66.021  1.00  0.00    -0.293 OA 
HETATM   21  O   UNL     1     -12.058  10.705  68.213  1.00  0.00    -0.817 OA 
HETATM   22  H   UNL     1      -9.587  13.584  65.419  1.00  0.00     0.000 HD 
HETATM   23  H   UNL     1     -12.193   9.972  68.804  1.00  0.00     0.000 HD 
ENDBRANCH  15  16
ENDBRANCH  12  15
TORSDOF 2
ENDMDL
MODEL      103
REMARK 921   NORMALIZED FREE ENERGY PREDICTED BY IDOCK:   -5.41 KCAL/MOL
REMARK 922        TOTAL FREE ENERGY PREDICTED BY IDOCK:   -6.25 KCAL/MOL
REMARK 923 INTER-LIGAND FREE ENERGY PREDICTED BY IDOCK:   -5.80 KCAL/MOL
REMARK 924 INTRA-LIGAND FREE ENERGY PREDICTED BY IDOCK:   -0.45 KCAL/MOL
REMARK 927      BINDING AFFINITY PREDICTED BY RF-SCORE:    0.00 PKD
ROOT
HETATM    1  N   UNL     1     -13.244  12.842  64.743  1.00  0.00    -0.754 NA 
HETATM    2  H1  UNL     1     -13.709  13.680  64.393  1.00  0.00     0.000 HD 
HETATM    3  C   UNL     1     -12.007  12.926  65.291  1.00  0.00    -0.419 C  
HETATM    4  H2  UNL     1     -13.712  11.937  64.681  1.00  0.00     0.000 HD 
HETATM    5  N   UNL     1     -11.415  11.858  65.738  1.00  0.00    -0.308 N  
HETATM    6  H   UNL     1     -11.874  10.950  65.662  1.00  0.00     0.000 HD 
HETATM    7  C   UNL     1     -10.144  11.954  66.323  1.00  0.00    -0.220 C  
HETATM    8  C   UNL     1      -9.604  13.313  66.425  1.00  0.00    -0.254 A  
HETATM    9  O   UNL     1      -9.530  10.972  66.723  1.00  0.00    -0.177 OA 
HETATM   10  C   UNL     1     -10.316  14.367  65.913  1.00  0.00    -0.314 A  
HETATM   11  N   UNL     1     -11.506  14.205  65.323  1.00  0.00    -0.319 NA 
HETATM   12  N   UNL     1      -9.587  15.491  66.139  1.00  0.00    -0.303 NA 
HETATM   13  N   UNL     1      -8.426  13.771  66.977  1.00  0.00    -0.176 NA 
HETATM   14  C   UNL     1      -8.462  15.080  66.815  1.00  0.00    -0.204 A  
ENDROOT
BRANCH  12  15
HETATM   15  C   UNL     1      -9.899  16.861  65.790  1.00  0.00    -0.137 C  
BRANCH  15  16
HETATM   16  C   UNL     1      -9.366  17.904  66.776  1.00  0.00    -0.279 C  
HETATM   17  C   UNL     1     -10.331  18.385  67.887  1.00  0.00    -0.425 C  
HETATM   18  C   UNL     1     -10.768  17.266  68.846  1.00  0.00    -0.197 C  
HETATM   19  C   UNL     1      -9.646  19.511  68.679  1.00  0.00    -0.411 C  
HETATM   20  O   UNL     1     -11.526  16.271  68.166  1.00  0.00    -0.309 OA 
HETATM   21  O   UNL     1     -10.503  20.012  69.695  1.00  0.00    -0.593 OA 
HETATM   22  H   UNL     1     -11.797  15.579  68.758  1.00  0.00     0.000 HD 
HETATM   23  H   UNL     1     -10.080  20.709  70.185  1.00  0.00     0.000 HD 
ENDBRANCH  15  16
ENDBRANCH  12  15
TORSDOF 2
ENDMDL
MODEL      104
REMARK 921   NORMALIZED FREE ENERGY PREDICTED BY IDOCK:   -5.38 KCAL/MOL
REMARK 922        TOTAL FREE ENERGY PREDICTED BY IDOCK:   -6.21 KCAL/MOL
REMARK 923 INTER-LIGAND FREE ENERGY PREDICTED BY IDOCK:   -5.64 KCAL/MOL
REMARK 924 INTRA-LIGAND FREE ENERGY PREDICTED BY IDOCK:   -0.57 KCAL/MOL
REMARK 927      BINDING AFFINITY PREDICTED BY RF-SCORE:    0.00 PKD
ROOT
HETATM    1  N   UNL     1      -9.471   9.907  63.670  1.00  0.00    -0.421 NA 
HETATM    2  H1  UNL     1      -8.766   9.651  64.362  1.00  0.00     0.000 HD 
HETATM    3  C   UNL     1     -10.443  10.797  63.984  1.00  0.00    -0.217 C  
HETATM    4  H2  UNL     1      -9.443   9.491  62.739  1.00  0.00     0.000 HD 
HETATM    5  N   UNL     1     -11.342  11.123  63.103  1.00  0.00    -0.764 N  
HETATM    6  H   UNL     1     -11.326  10.697  62.176  1.00  0.00     0.000 HD 
HETATM    7  C   UNL     1     -12.333  12.061  63.426  1.00  0.00    -0.523 C  
HETATM    8  C   UNL     1     -12.227  12.646  64.765  1.00  0.00    -0.465 A  
HETATM    9  O   UNL     1     -13.223  12.371  62.642  1.00  0.00     0.288 OA 
HETATM   10  C   UNL     1     -11.238  12.221  65.616  1.00  0.00    -0.333 A  
HETATM   11  N   UNL     1     -10.348  11.286  65.265  1.00  0.00    -0.268 NA 
HETATM   12  N   UNL     1     -11.379  12.919  66.773  1.00  0.00    -0.305 NA 
HETATM   13  N   UNL     1     -12.989  13.615  65.384  1.00  0.00    -0.699 NA 
HETATM   14  C   UNL     1     -12.437  13.774  66.572  1.00  0.00    -0.309 A  
ENDROOT
BRANCH  12  15
HETATM   15  C   UNL     1     -10.586  12.839  67.983  1.00  0.00    -0.226 C  
BRANCH  15  16
HETATM   16  C   UNL     1     -10.116  14.193  68.523  1.00  0.00    -0.243 C  
HETATM   17  C   UNL     1      -8.589  14.429  68.608  1.00  0.00    -0.161 C  
HETATM   18  C   UNL     1      -7.886  14.395  67.241  1.00  0.00    -0.163 C  
HETATM   19  C   UNL     1      -8.338  15.785  69.289  1.00  0.00    -0.249 C  
HETATM   20  O   UNL     1      -7.982  13.107  66.643  1.00  0.00    -0.379 OA 
HETATM   21  O   UNL     1      -6.946  16.038  69.421  1.00  0.00    -0.201 OA 
HETATM   22  H   UNL     1      -7.548  13.085  65.799  1.00  0.00     0.000 HD 
HETATM   23  H   UNL     1      -6.792  16.876  69.843  1.00  0.00     0.000 HD 
ENDBRANCH  15  16
ENDBRANCH  12  15
TORSDOF 2
ENDMDL
MODEL      105
REMARK 921   NORMALIZED FREE ENERGY PREDICTED BY IDOCK:   -5.38 KCAL/MOL
REMARK 922        TOTAL FREE ENERGY PREDICTED BY IDOCK:   -6.21 KCAL/MOL
REMARK 923 INTER-LIGAND FREE ENERGY PREDICTED BY IDOCK:   -6.00 KCAL/MOL
REMARK 924 INTRA-LIGAND FREE ENERGY PREDICTED BY IDOCK:   -0.21 KCAL/MOL
REMARK 927      BINDING AFFINITY PREDICTED BY RF-SCORE:    0.00 PKD
ROOT
HETATM    1  N   UNL     1     -11.114  19.997  64.970  1.00  0.00     0.024 NA 
HETATM    2  H1  UNL     1     -11.206  19.548  64.058  1.00  0.00     0.000 HD 
HETATM    3  C   UNL     1     -10.607  19.309  66.021  1.00  0.00    -0.461 C  
HETATM    4  H2  UNL     1     -11.406  20.968  65.090  1.00  0.00     0.000 HD 
HETATM    5  N   UNL     1     -10.491  19.881  67.183  1.00  0.00    -0.444 N  
HETATM    6  H   UNL     1     -10.796  20.847  67.310  1.00  0.00     0.000 HD 
HETATM    7  C   UNL     1      -9.945  19.172  68.263  1.00  0.00    -0.403 C  
HETATM    8  C   UNL     1      -9.493  17.813  67.952  1.00  0.00    -0.270 A  
HETATM    9  O   UNL     1      -9.851  19.655  69.385  1.00  0.00    -0.383 OA 
HETATM   10  C   UNL     1      -9.671  17.309  66.689  1.00  0.00    -0.288 A  
HETATM   11  N   UNL     1     -10.242  18.021  65.711  1.00  0.00    -0.597 NA 
HETATM   12  N   UNL     1      -9.171  16.046  66.687  1.00  0.00    -0.228 NA 
HETATM   13  N   UNL     1      -8.876  16.869  68.747  1.00  0.00    -0.266 NA 
HETATM   14  C   UNL     1      -8.672  15.836  67.952  1.00  0.00    -0.170 A  
ENDROOT
BRANCH  12  15
HETATM   15  C   UNL     1      -9.120  15.092  65.599  1.00  0.00     0.350 C  
BRANCH  15  16
HETATM   16  C   UNL     1     -10.491  14.599  65.124  1.00  0.00    -0.440 C  
HETATM   17  C   UNL     1     -10.546  13.209  64.446  1.00  0.00    -0.441 C  
HETATM   18  C   UNL     1     -10.122  12.058  65.372  1.00  0.00    -0.256 C  
HETATM   19  C   UNL     1     -11.977  12.968  63.937  1.00  0.00    -0.485 C  
HETATM   20  O   UNL     1      -8.756  12.178  65.753  1.00  0.00    -0.393 OA 
HETATM   21  O   UNL     1     -12.077  11.714  63.276  1.00  0.00    -0.851 OA 
HETATM   22  H   UNL     1      -8.493  11.467  66.325  1.00  0.00     0.000 HD 
HETATM   23  H   UNL     1     -12.962  11.565  62.961  1.00  0.00     0.000 HD 
ENDBRANCH  15  16
ENDBRANCH  12  15
TORSDOF 2
ENDMDL
MODEL      106
REMARK 921   NORMALIZED FREE ENERGY PREDICTED BY IDOCK:   -5.36 KCAL/MOL
REMARK 922        TOTAL FREE ENERGY PREDICTED BY IDOCK:   -6.19 KCAL/MOL
REMARK 923 INTER-LIGAND FREE ENERGY PREDICTED BY IDOCK:   -5.96 KCAL/MOL
REMARK 924 INTRA-LIGAND FREE ENERGY PREDICTED BY IDOCK:   -0.23 KCAL/MOL
REMARK 927      BINDING AFFINITY PREDICTED BY RF-SCORE:    0.00 PKD
ROOT
HETATM    1  N   UNL     1     -13.401  15.829  70.566  1.00  0.00    -0.757 NA 
HETATM    2  H1  UNL     1     -14.159  15.180  70.776  1.00  0.00     0.000 HD 
HETATM    3  C   UNL     1     -12.261  15.383  69.985  1.00  0.00    -0.361 C  
HETATM    4  H2  UNL     1     -13.501  16.819  70.795  1.00  0.00     0.000 HD 
HETATM    5  N   UNL     1     -11.294  16.211  69.717  1.00  0.00    -0.335 N  
HETATM    6  H   UNL     1     -11.386  17.198  69.960  1.00  0.00     0.000 HD 
HETATM    7  C   UNL     1     -10.126  15.747  69.096  1.00  0.00    -0.238 C  
HETATM    8  C   UNL     1     -10.126  14.324  68.747  1.00  0.00    -0.217 A  
HETATM    9  O   UNL     1      -9.173  16.481  68.859  1.00  0.00    -0.247 OA 
HETATM   10  C   UNL     1     -11.202  13.542  69.083  1.00  0.00    -0.260 A  
HETATM   11  N   UNL     1     -12.271  14.035  69.719  1.00  0.00    -0.342 NA 
HETATM   12  N   UNL     1     -10.934  12.283  68.649  1.00  0.00    -0.228 NA 
HETATM   13  N   UNL     1      -9.180  13.559  68.097  1.00  0.00    -0.204 NA 
HETATM   14  C   UNL     1      -9.707  12.351  68.030  1.00  0.00    -0.210 A  
ENDROOT
BRANCH  12  15
HETATM   15  C   UNL     1     -11.749  11.091  68.762  1.00  0.00    -0.314 C  
BRANCH  15  16
HETATM   16  C   UNL     1     -12.340  10.857  70.155  1.00  0.00    -0.399 C  
HETATM   17  C   UNL     1     -11.921   9.563  70.893  1.00  0.00    -0.372 C  
HETATM   18  C   UNL     1     -10.416   9.487  71.193  1.00  0.00    -0.288 C  
HETATM   19  C   UNL     1     -12.719   9.464  72.204  1.00  0.00    -0.382 C  
HETATM   20  O   UNL     1      -9.652   9.438  69.993  1.00  0.00    -0.194 OA 
HETATM   21  O   UNL     1     -12.396   8.273  72.908  1.00  0.00    -0.607 OA 
HETATM   22  H   UNL     1      -8.721   9.391  70.178  1.00  0.00     0.000 HD 
HETATM   23  H   UNL     1     -12.889   8.212  73.718  1.00  0.00     0.000 HD 
ENDBRANCH  15  16
ENDBRANCH  12  15
TORSDOF 2
ENDMDL
MODEL      107
REMARK 921   NORMALIZED FREE ENERGY PREDICTED BY IDOCK:   -5.35 KCAL/MOL
REMARK 922        TOTAL FREE ENERGY PREDICTED BY IDOCK:   -6.19 KCAL/MOL
REMARK 923 INTER-LIGAND FREE ENERGY PREDICTED BY IDOCK:   -5.58 KCAL/MOL
REMARK 924 INTRA-LIGAND FREE ENERGY PREDICTED BY IDOCK:   -0.61 KCAL/MOL
REMARK 927      BINDING AFFINITY PREDICTED BY RF-SCORE:    0.00 PKD
ROOT
HETATM    1  N   UNL     1      -9.313   9.020  64.676  1.00  0.00    -0.381 NA 
HETATM    2  H1  UNL     1      -9.177   9.887  64.156  1.00  0.00     0.000 HD 
HETATM    3  C   UNL     1      -9.737   9.055  65.963  1.00  0.00    -0.269 C  
HETATM    4  H2  UNL     1      -9.129   8.123  64.226  1.00  0.00     0.000 HD 
HETATM    5  N   UNL     1      -9.910   7.950  66.626  1.00  0.00    -0.290 N  
HETATM    6  H   UNL     1      -9.711   7.052  66.183  1.00  0.00     0.000 HD 
HETATM    7  C   UNL     1     -10.370   7.991  67.950  1.00  0.00    -0.222 C  
HETATM    8  C   UNL     1     -10.672   9.329  68.465  1.00  0.00    -0.142 A  
HETATM    9  O   UNL     1     -10.511   6.979  68.627  1.00  0.00    -0.190 OA 
HETATM   10  C   UNL     1     -10.445  10.429  67.676  1.00  0.00    -0.233 A  
HETATM   11  N   UNL     1      -9.960  10.327  66.433  1.00  0.00    -0.219 NA 
HETATM   12  N   UNL     1     -10.805  11.521  68.399  1.00  0.00    -0.198 NA 
HETATM   13  N   UNL     1     -11.178   9.728  69.685  1.00  0.00    -0.214 NA 
HETATM   14  C   UNL     1     -11.271  11.042  69.600  1.00  0.00    -0.278 A  
ENDROOT
BRANCH  12  15
HETATM   15  C   UNL     1     -10.755  12.918  68.018  1.00  0.00    -0.228 C  
BRANCH  15  16
HETATM   16  C   UNL     1     -11.849  13.345  67.034  1.00  0.00    -0.443 C  
HETATM   17  C   UNL     1     -11.406  14.160  65.795  1.00  0.00    -0.317 C  
HETATM   18  C   UNL     1     -10.454  13.392  64.865  1.00  0.00    -0.390 C  
HETATM   19  C   UNL     1     -12.660  14.591  65.017  1.00  0.00    -0.242 C  
HETATM   20  O   UNL     1      -9.222  13.097  65.515  1.00  0.00    -0.372 OA 
HETATM   21  O   UNL     1     -12.312  15.372  63.882  1.00  0.00    -0.950 OA 
HETATM   22  H   UNL     1      -8.634  12.623  64.941  1.00  0.00     0.000 HD 
HETATM   23  H   UNL     1     -13.087  15.638  63.401  1.00  0.00     0.000 HD 
ENDBRANCH  15  16
ENDBRANCH  12  15
TORSDOF 2
ENDMDL
MODEL      108
REMARK 921   NORMALIZED FREE ENERGY PREDICTED BY IDOCK:   -5.35 KCAL/MOL
REMARK 922        TOTAL FREE ENERGY PREDICTED BY IDOCK:   -6.18 KCAL/MOL
REMARK 923 INTER-LIGAND FREE ENERGY PREDICTED BY IDOCK:   -5.81 KCAL/MOL
REMARK 924 INTRA-LIGAND FREE ENERGY PREDICTED BY IDOCK:   -0.37 KCAL/MOL
REMARK 927      BINDING AFFINITY PREDICTED BY RF-SCORE:    0.00 PKD
ROOT
HETATM    1  N   UNL     1      -8.458  12.248  68.785  1.00  0.00    -0.361 NA 
HETATM    2  H1  UNL     1      -7.649  12.786  69.094  1.00  0.00     0.000 HD 
HETATM    3  C   UNL     1      -9.323  12.772  67.883  1.00  0.00    -0.208 C  
HETATM    4  H2  UNL     1      -8.617  11.310  69.155  1.00  0.00     0.000 HD 
HETATM    5  N   UNL     1     -10.354  12.085  67.488  1.00  0.00    -0.199 N  
HETATM    6  H   UNL     1     -10.524  11.154  67.869  1.00  0.00     0.000 HD 
HETATM    7  C   UNL     1     -11.234  12.624  66.537  1.00  0.00    -0.296 C  
HETATM    8  C   UNL     1     -10.863  13.944  66.022  1.00  0.00    -0.290 A  
HETATM    9  O   UNL     1     -12.239  12.031  66.164  1.00  0.00    -0.552 OA 
HETATM   10  C   UNL     1      -9.753  14.581  66.516  1.00  0.00    -0.285 A  
HETATM   11  N   UNL     1      -8.977  14.032  67.458  1.00  0.00    -0.185 NA 
HETATM   12  N   UNL     1      -9.653  15.772  65.871  1.00  0.00    -0.340 NA 
HETATM   13  N   UNL     1     -11.463  14.733  65.062  1.00  0.00    -0.375 NA 
HETATM   14  C   UNL     1     -10.698  15.805  64.977  1.00  0.00    -0.421 A  
ENDROOT
BRANCH  12  15
HETATM   15  C   UNL     1      -8.657  16.811  66.033  1.00  0.00    -0.178 C  
BRANCH  15  16
HETATM   16  C   UNL     1      -9.220  18.165  66.477  1.00  0.00    -0.290 C  
HETATM   17  C   UNL     1      -9.421  18.382  67.996  1.00  0.00    -0.305 C  
HETATM   18  C   UNL     1      -8.113  18.326  68.802  1.00  0.00    -0.241 C  
HETATM   19  C   UNL     1     -10.107  19.742  68.211  1.00  0.00    -0.458 C  
HETATM   20  O   UNL     1      -7.521  17.033  68.735  1.00  0.00    -0.221 OA 
HETATM   21  O   UNL     1     -10.344  19.980  69.591  1.00  0.00    -0.603 OA 
HETATM   22  H   UNL     1      -6.713  16.997  69.233  1.00  0.00     0.000 HD 
HETATM   23  H   UNL     1     -10.769  20.820  69.724  1.00  0.00     0.000 HD 
ENDBRANCH  15  16
ENDBRANCH  12  15
TORSDOF 2
ENDMDL
MODEL      109
REMARK 921   NORMALIZED FREE ENERGY PREDICTED BY IDOCK:   -5.29 KCAL/MOL
REMARK 922        TOTAL FREE ENERGY PREDICTED BY IDOCK:   -6.12 KCAL/MOL
REMARK 923 INTER-LIGAND FREE ENERGY PREDICTED BY IDOCK:   -5.41 KCAL/MOL
REMARK 924 INTRA-LIGAND FREE ENERGY PREDICTED BY IDOCK:   -0.71 KCAL/MOL
REMARK 927      BINDING AFFINITY PREDICTED BY RF-SCORE:    0.00 PKD
ROOT
HETATM    1  N   UNL     1      -8.702   8.527  63.160  1.00  0.00    -0.426 NA 
HETATM    2  H1  UNL     1      -9.666   8.383  62.858  1.00  0.00     0.000 HD 
HETATM    3  C   UNL     1      -8.416   9.445  64.115  1.00  0.00    -0.190 C  
HETATM    4  H2  UNL     1      -7.950   7.978  62.741  1.00  0.00     0.000 HD 
HETATM    5  N   UNL     1      -7.188   9.628  64.501  1.00  0.00    -0.115 N  
HETATM    6  H   UNL     1      -6.433   9.092  64.072  1.00  0.00     0.000 HD 
HETATM    7  C   UNL     1      -6.900  10.563  65.505  1.00  0.00    -0.100 C  
HETATM    8  C   UNL     1      -8.066  11.237  66.084  1.00  0.00    -0.065 A  
HETATM    9  O   UNL     1      -5.755  10.799  65.873  1.00  0.00    -0.117 OA 
HETATM   10  C   UNL     1      -9.319  10.968  65.594  1.00  0.00    -0.214 A  
HETATM   11  N   UNL     1      -9.524  10.097  64.600  1.00  0.00    -0.275 NA 
HETATM   12  N   UNL     1     -10.196  11.725  66.303  1.00  0.00    -0.215 NA 
HETATM   13  N   UNL     1      -8.153  12.161  67.104  1.00  0.00    -0.174 NA 
HETATM   14  C   UNL     1      -9.443  12.410  67.227  1.00  0.00    -0.191 A  
ENDROOT
BRANCH  12  15
HETATM   15  C   UNL     1     -11.636  11.807  66.171  1.00  0.00    -0.142 C  
BRANCH  15  16
HETATM   16  C   UNL     1     -12.170  13.220  65.918  1.00  0.00    -0.497 C  
HETATM   17  C   UNL     1     -11.689  13.938  64.634  1.00  0.00    -0.413 C  
HETATM   18  C   UNL     1     -12.110  13.226  63.339  1.00  0.00    -0.439 C  
HETATM   19  C   UNL     1     -12.237  15.375  64.641  1.00  0.00    -0.054 C  
HETATM   20  O   UNL     1     -11.507  11.941  63.237  1.00  0.00    -0.637 OA 
HETATM   21  O   UNL     1     -11.798  16.093  63.495  1.00  0.00    -1.146 OA 
HETATM   22  H   UNL     1     -11.766  11.501  62.436  1.00  0.00     0.000 HD 
HETATM   23  H   UNL     1     -12.137  16.981  63.500  1.00  0.00     0.000 HD 
ENDBRANCH  15  16
ENDBRANCH  12  15
TORSDOF 2
ENDMDL
MODEL      110
REMARK 921   NORMALIZED FREE ENERGY PREDICTED BY IDOCK:   -5.29 KCAL/MOL
REMARK 922        TOTAL FREE ENERGY PREDICTED BY IDOCK:   -6.11 KCAL/MOL
REMARK 923 INTER-LIGAND FREE ENERGY PREDICTED BY IDOCK:   -6.98 KCAL/MOL
REMARK 924 INTRA-LIGAND FREE ENERGY PREDICTED BY IDOCK:    0.86 KCAL/MOL
REMARK 927      BINDING AFFINITY PREDICTED BY RF-SCORE:    0.00 PKD
ROOT
HETATM    1  N   UNL     1     -10.525  17.592  67.401  1.00  0.00    -0.362 NA 
HETATM    2  H1  UNL     1     -10.450  17.419  66.398  1.00  0.00     0.000 HD 
HETATM    3  C   UNL     1     -10.941  16.607  68.234  1.00  0.00    -0.341 C  
HETATM    4  H2  UNL     1     -10.286  18.510  67.778  1.00  0.00     0.000 HD 
HETATM    5  N   UNL     1     -11.036  16.828  69.512  1.00  0.00    -0.336 N  
HETATM    6  H   UNL     1     -10.814  17.749  69.889  1.00  0.00     0.000 HD 
HETATM    7  C   UNL     1     -11.446  15.799  70.372  1.00  0.00    -0.365 C  
HETATM    8  C   UNL     1     -11.689  14.505  69.728  1.00  0.00    -0.303 A  
HETATM    9  O   UNL     1     -11.589  15.969  71.578  1.00  0.00    -0.425 OA 
HETATM   10  C   UNL     1     -11.562  14.389  68.367  1.00  0.00    -0.319 A  
HETATM   11  N   UNL     1     -11.211  15.423  67.593  1.00  0.00    -0.324 NA 
HETATM   12  N   UNL     1     -11.845  13.100  68.047  1.00  0.00    -0.362 NA 
HETATM   13  N   UNL     1     -12.050  13.288  70.267  1.00  0.00    -0.355 NA 
HETATM   14  C   UNL     1     -12.107  12.464  69.238  1.00  0.00    -0.165 A  
ENDROOT
BRANCH  12  15
HETATM   15  C   UNL     1     -11.855  12.470  66.743  1.00  0.00    -0.346 C  
BRANCH  15  16
HETATM   16  C   UNL     1     -12.447  13.335  65.625  1.00  0.00    -0.510 C  
HETATM   17  C   UNL     1     -11.578  14.504  65.101  1.00  0.00    -0.371 C  
HETATM   18  C   UNL     1     -10.260  14.047  64.456  1.00  0.00    -0.037 C  
HETATM   19  C   UNL     1     -12.403  15.311  64.085  1.00  0.00    -0.044 C  
HETATM   20  O   UNL     1      -9.411  13.414  65.407  1.00  0.00    -0.489 OA 
HETATM   21  O   UNL     1     -11.662  16.419  63.593  1.00  0.00    -1.520 OA 
HETATM   22  H   UNL     1      -8.597  13.132  65.009  1.00  0.00     0.000 HD 
HETATM   23  H   UNL     1     -12.172  16.918  62.966  1.00  0.00     0.000 HD 
ENDBRANCH  15  16
ENDBRANCH  12  15
TORSDOF 2
ENDMDL
MODEL      111
REMARK 921   NORMALIZED FREE ENERGY PREDICTED BY IDOCK:   -5.27 KCAL/MOL
REMARK 922        TOTAL FREE ENERGY PREDICTED BY IDOCK:   -6.10 KCAL/MOL
REMARK 923 INTER-LIGAND FREE ENERGY PREDICTED BY IDOCK:   -5.81 KCAL/MOL
REMARK 924 INTRA-LIGAND FREE ENERGY PREDICTED BY IDOCK:   -0.28 KCAL/MOL
REMARK 927      BINDING AFFINITY PREDICTED BY RF-SCORE:    0.00 PKD
ROOT
HETATM    1  N   UNL     1     -12.999  15.554  70.638  1.00  0.00    -0.617 NA 
HETATM    2  H1  UNL     1     -13.669  14.788  70.566  1.00  0.00     0.000 HD 
HETATM    3  C   UNL     1     -12.011  15.686  69.720  1.00  0.00    -0.354 C  
HETATM    4  H2  UNL     1     -13.074  16.224  71.404  1.00  0.00     0.000 HD 
HETATM    5  N   UNL     1     -11.157  16.663  69.812  1.00  0.00    -0.391 N  
HETATM    6  H   UNL     1     -11.220  17.324  70.586  1.00  0.00     0.000 HD 
HETATM    7  C   UNL     1     -10.150  16.807  68.847  1.00  0.00    -0.285 C  
HETATM    8  C   UNL     1     -10.188  15.832  67.754  1.00  0.00    -0.251 A  
HETATM    9  O   UNL     1      -9.300  17.687  68.913  1.00  0.00    -0.246 OA 
HETATM   10  C   UNL     1     -11.133  14.837  67.762  1.00  0.00    -0.299 A  
HETATM   11  N   UNL     1     -12.042  14.725  68.738  1.00  0.00    -0.238 NA 
HETATM   12  N   UNL     1     -10.934  14.086  66.648  1.00  0.00    -0.297 NA 
HETATM   13  N   UNL     1      -9.394  15.710  66.633  1.00  0.00    -0.245 NA 
HETATM   14  C   UNL     1      -9.886  14.674  65.979  1.00  0.00    -0.322 A  
ENDROOT
BRANCH  12  15
HETATM   15  C   UNL     1     -11.665  12.920  66.198  1.00  0.00    -0.396 C  
BRANCH  15  16
HETATM   16  C   UNL     1     -11.275  11.616  66.902  1.00  0.00    -0.376 C  
HETATM   17  C   UNL     1     -10.651  10.501  66.029  1.00  0.00    -0.164 C  
HETATM   18  C   UNL     1      -9.314  10.902  65.384  1.00  0.00    -0.208 C  
HETATM   19  C   UNL     1     -10.454   9.248  66.899  1.00  0.00    -0.214 C  
HETATM   20  O   UNL     1      -9.486  11.975  64.465  1.00  0.00    -0.447 OA 
HETATM   21  O   UNL     1      -9.911   8.179  66.137  1.00  0.00    -0.463 OA 
HETATM   22  H   UNL     1      -8.660  12.223  64.066  1.00  0.00     0.000 HD 
HETATM   23  H   UNL     1      -9.791   7.405  66.675  1.00  0.00     0.000 HD 
ENDBRANCH  15  16
ENDBRANCH  12  15
TORSDOF 2
ENDMDL
MODEL      112
REMARK 921   NORMALIZED FREE ENERGY PREDICTED BY IDOCK:   -5.26 KCAL/MOL
REMARK 922        TOTAL FREE ENERGY PREDICTED BY IDOCK:   -6.08 KCAL/MOL
REMARK 923 INTER-LIGAND FREE ENERGY PREDICTED BY IDOCK:   -5.86 KCAL/MOL
REMARK 924 INTRA-LIGAND FREE ENERGY PREDICTED BY IDOCK:   -0.23 KCAL/MOL
REMARK 927      BINDING AFFINITY PREDICTED BY RF-SCORE:    0.00 PKD
ROOT
HETATM    1  N   UNL     1     -13.011   9.144  72.105  1.00  0.00    -0.402 NA 
HETATM    2  H1  UNL     1     -12.460   8.450  71.599  1.00  0.00     0.000 HD 
HETATM    3  C   UNL     1     -12.912  10.457  71.786  1.00  0.00    -0.475 C  
HETATM    4  H2  UNL     1     -13.638   8.848  72.854  1.00  0.00     0.000 HD 
HETATM    5  N   UNL     1     -13.614  11.343  72.431  1.00  0.00    -0.398 N  
HETATM    6  H   UNL     1     -14.230  11.051  73.190  1.00  0.00     0.000 HD 
HETATM    7  C   UNL     1     -13.525  12.698  72.082  1.00  0.00    -0.460 C  
HETATM    8  C   UNL     1     -12.651  12.994  70.944  1.00  0.00    -0.280 A  
HETATM    9  O   UNL     1     -14.137  13.572  72.685  1.00  0.00    -0.762 OA 
HETATM   10  C   UNL     1     -11.952  11.979  70.341  1.00  0.00    -0.291 A  
HETATM   11  N   UNL     1     -12.044  10.708  70.751  1.00  0.00    -0.341 NA 
HETATM   12  N   UNL     1     -11.229  12.533  69.334  1.00  0.00    -0.194 NA 
HETATM   13  N   UNL     1     -12.371  14.189  70.314  1.00  0.00    -0.340 NA 
HETATM   14  C   UNL     1     -11.541  13.872  69.339  1.00  0.00    -0.297 A  
ENDROOT
BRANCH  12  15
HETATM   15  C   UNL     1     -10.328  11.887  68.401  1.00  0.00    -0.209 C  
BRANCH  15  16
HETATM   16  C   UNL     1     -10.861  10.579  67.808  1.00  0.00    -0.347 C  
HETATM   17  C   UNL     1      -9.935   9.342  67.879  1.00  0.00    -0.228 C  
HETATM   18  C   UNL     1      -9.605   8.904  69.315  1.00  0.00    -0.162 C  
HETATM   19  C   UNL     1     -10.604   8.183  67.122  1.00  0.00    -0.285 C  
HETATM   20  O   UNL     1      -8.862   9.905  70.003  1.00  0.00    -0.241 OA 
HETATM   21  O   UNL     1      -9.779   7.026  67.128  1.00  0.00    -0.144 OA 
HETATM   22  H   UNL     1      -8.659   9.634  70.890  1.00  0.00     0.000 HD 
HETATM   23  H   UNL     1     -10.192   6.310  66.660  1.00  0.00     0.000 HD 
ENDBRANCH  15  16
ENDBRANCH  12  15
TORSDOF 2
ENDMDL
MODEL      113
REMARK 921   NORMALIZED FREE ENERGY PREDICTED BY IDOCK:   -5.26 KCAL/MOL
REMARK 922        TOTAL FREE ENERGY PREDICTED BY IDOCK:   -6.08 KCAL/MOL
REMARK 923 INTER-LIGAND FREE ENERGY PREDICTED BY IDOCK:   -5.87 KCAL/MOL
REMARK 924 INTRA-LIGAND FREE ENERGY PREDICTED BY IDOCK:   -0.21 KCAL/MOL
REMARK 927      BINDING AFFINITY PREDICTED BY RF-SCORE:    0.00 PKD
ROOT
HETATM    1  N   UNL     1      -9.051   7.996  65.860  1.00  0.00    -0.326 NA 
HETATM    2  H1  UNL     1      -9.095   7.494  66.747  1.00  0.00     0.000 HD 
HETATM    3  C   UNL     1      -9.708   9.171  65.707  1.00  0.00    -0.229 C  
HETATM    4  H2  UNL     1      -8.509   7.612  65.085  1.00  0.00     0.000 HD 
HETATM    5  N   UNL     1      -9.652   9.812  64.577  1.00  0.00    -0.425 N  
HETATM    6  H   UNL     1      -9.124   9.422  63.795  1.00  0.00     0.000 HD 
HETATM    7  C   UNL     1     -10.316  11.038  64.432  1.00  0.00    -0.358 C  
HETATM    8  C   UNL     1     -10.997  11.526  65.633  1.00  0.00    -0.236 A  
HETATM    9  O   UNL     1     -10.324  11.658  63.374  1.00  0.00    -0.382 OA 
HETATM   10  C   UNL     1     -10.996  10.762  66.773  1.00  0.00    -0.148 A  
HETATM   11  N   UNL     1     -10.381   9.575  66.835  1.00  0.00    -0.244 NA 
HETATM   12  N   UNL     1     -11.696  11.446  67.715  1.00  0.00    -0.590 NA 
HETATM   13  N   UNL     1     -11.695  12.694  65.857  1.00  0.00    -0.398 NA 
HETATM   14  C   UNL     1     -12.074  12.627  67.120  1.00  0.00    -0.122 A  
ENDROOT
BRANCH  12  15
HETATM   15  C   UNL     1     -11.984  11.069  69.083  1.00  0.00    -0.324 C  
BRANCH  15  16
HETATM   16  C   UNL     1     -12.048  12.244  70.064  1.00  0.00    -0.346 C  
HETATM   17  C   UNL     1     -13.208  12.247  71.089  1.00  0.00     0.044 C  
HETATM   18  C   UNL     1     -13.175  11.053  72.056  1.00  0.00    -0.342 C  
HETATM   19  C   UNL     1     -13.159  13.563  71.883  1.00  0.00    -0.384 C  
HETATM   20  O   UNL     1     -13.357   9.822  71.365  1.00  0.00    -0.379 OA 
HETATM   21  O   UNL     1     -14.224  13.633  72.819  1.00  0.00    -0.676 OA 
HETATM   22  H   UNL     1     -13.336   9.085  71.963  1.00  0.00     0.000 HD 
HETATM   23  H   UNL     1     -14.194  14.446  73.310  1.00  0.00     0.000 HD 
ENDBRANCH  15  16
ENDBRANCH  12  15
TORSDOF 2
ENDMDL
MODEL      114
REMARK 921   NORMALIZED FREE ENERGY PREDICTED BY IDOCK:   -5.24 KCAL/MOL
REMARK 922        TOTAL FREE ENERGY PREDICTED BY IDOCK:   -6.06 KCAL/MOL
REMARK 923 INTER-LIGAND FREE ENERGY PREDICTED BY IDOCK:   -5.37 KCAL/MOL
REMARK 924 INTRA-LIGAND FREE ENERGY PREDICTED BY IDOCK:   -0.69 KCAL/MOL
REMARK 927      BINDING AFFINITY PREDICTED BY RF-SCORE:    0.00 PKD
ROOT
HETATM    1  N   UNL     1      -6.348  14.088  68.278  1.00  0.00    -0.101 NA 
HETATM    2  H1  UNL     1      -6.721  13.194  68.599  1.00  0.00     0.000 HD 
HETATM    3  C   UNL     1      -7.128  14.935  67.564  1.00  0.00    -0.189 C  
HETATM    4  H2  UNL     1      -5.385  14.345  68.497  1.00  0.00     0.000 HD 
HETATM    5  N   UNL     1      -6.654  16.076  67.156  1.00  0.00    -0.182 N  
HETATM    6  H   UNL     1      -5.686  16.328  67.359  1.00  0.00     0.000 HD 
HETATM    7  C   UNL     1      -7.472  16.958  66.436  1.00  0.00    -0.288 C  
HETATM    8  C   UNL     1      -8.855  16.515  66.248  1.00  0.00    -0.329 A  
HETATM    9  O   UNL     1      -7.058  18.025  65.997  1.00  0.00    -0.267 OA 
HETATM   10  C   UNL     1      -9.246  15.287  66.718  1.00  0.00    -0.250 A  
HETATM   11  N   UNL     1      -8.404  14.468  67.359  1.00  0.00    -0.188 NA 
HETATM   12  N   UNL     1     -10.559  15.137  66.405  1.00  0.00    -0.298 NA 
HETATM   13  N   UNL     1      -9.924  17.142  65.641  1.00  0.00    -0.577 NA 
HETATM   14  C   UNL     1     -10.933  16.302  65.778  1.00  0.00    -0.062 A  
ENDROOT
BRANCH  12  15
HETATM   15  C   UNL     1     -11.435  14.017  66.680  1.00  0.00    -0.364 C  
BRANCH  15  16
HETATM   16  C   UNL     1     -11.891  13.249  65.435  1.00  0.00    -0.392 C  
HETATM   17  C   UNL     1     -10.805  12.484  64.640  1.00  0.00    -0.343 C  
HETATM   18  C   UNL     1     -10.127  11.366  65.447  1.00  0.00    -0.261 C  
HETATM   19  C   UNL     1     -11.447  11.896  63.373  1.00  0.00    -0.376 C  
HETATM   20  O   UNL     1      -9.405  11.894  66.556  1.00  0.00    -0.205 OA 
HETATM   21  O   UNL     1     -10.484  11.208  62.587  1.00  0.00    -0.701 OA 
HETATM   22  H   UNL     1      -8.986  11.203  67.055  1.00  0.00     0.000 HD 
HETATM   23  H   UNL     1     -10.881  10.844  61.803  1.00  0.00     0.000 HD 
ENDBRANCH  15  16
ENDBRANCH  12  15
TORSDOF 2
ENDMDL
MODEL      115
REMARK 921   NORMALIZED FREE ENERGY PREDICTED BY IDOCK:   -5.23 KCAL/MOL
REMARK 922        TOTAL FREE ENERGY PREDICTED BY IDOCK:   -6.05 KCAL/MOL
REMARK 923 INTER-LIGAND FREE ENERGY PREDICTED BY IDOCK:   -5.43 KCAL/MOL
REMARK 924 INTRA-LIGAND FREE ENERGY PREDICTED BY IDOCK:   -0.61 KCAL/MOL
REMARK 927      BINDING AFFINITY PREDICTED BY RF-SCORE:    0.00 PKD
ROOT
HETATM    1  N   UNL     1      -7.158  11.103  66.240  1.00  0.00    -0.301 NA 
HETATM    2  H1  UNL     1      -7.168  11.540  67.162  1.00  0.00     0.000 HD 
HETATM    3  C   UNL     1      -8.260  11.145  65.452  1.00  0.00     0.159 C  
HETATM    4  H2  UNL     1      -6.315  10.631  65.910  1.00  0.00     0.000 HD 
HETATM    5  N   UNL     1      -8.247  10.588  64.277  1.00  0.00    -0.310 N  
HETATM    6  H   UNL     1      -7.411  10.102  63.952  1.00  0.00     0.000 HD 
HETATM    7  C   UNL     1      -9.383  10.654  63.457  1.00  0.00    -0.290 C  
HETATM    8  C   UNL     1     -10.505  11.420  64.005  1.00  0.00    -0.378 A  
HETATM    9  O   UNL     1      -9.431  10.111  62.360  1.00  0.00    -0.298 OA 
HETATM   10  C   UNL     1     -10.409  11.962  65.262  1.00  0.00    -0.276 A  
HETATM   11  N   UNL     1      -9.313  11.825  66.016  1.00  0.00    -0.229 NA 
HETATM   12  N   UNL     1     -11.579  12.606  65.511  1.00  0.00    -0.351 NA 
HETATM   13  N   UNL     1     -11.735  11.724  63.460  1.00  0.00    -0.441 NA 
HETATM   14  C   UNL     1     -12.340  12.457  64.375  1.00  0.00    -0.447 A  
ENDROOT
BRANCH  12  15
HETATM   15  C   UNL     1     -11.979  13.335  66.696  1.00  0.00    -0.388 C  
BRANCH  15  16
HETATM   16  C   UNL     1     -11.481  14.783  66.747  1.00  0.00    -0.343 C  
HETATM   17  C   UNL     1     -10.895  15.281  68.090  1.00  0.00    -0.273 C  
HETATM   18  C   UNL     1      -9.635  14.518  68.531  1.00  0.00    -0.220 C  
HETATM   19  C   UNL     1     -10.577  16.780  67.961  1.00  0.00    -0.347 C  
HETATM   20  O   UNL     1      -9.926  13.149  68.792  1.00  0.00    -0.399 OA 
HETATM   21  O   UNL     1     -10.063  17.299  69.180  1.00  0.00    -0.302 OA 
HETATM   22  H   UNL     1      -9.148  12.677  69.065  1.00  0.00     0.000 HD 
HETATM   23  H   UNL     1      -9.867  18.225  69.100  1.00  0.00     0.000 HD 
ENDBRANCH  15  16
ENDBRANCH  12  15
TORSDOF 2
ENDMDL
MODEL      116
REMARK 921   NORMALIZED FREE ENERGY PREDICTED BY IDOCK:   -5.22 KCAL/MOL
REMARK 922        TOTAL FREE ENERGY PREDICTED BY IDOCK:   -6.03 KCAL/MOL
REMARK 923 INTER-LIGAND FREE ENERGY PREDICTED BY IDOCK:   -5.36 KCAL/MOL
REMARK 924 INTRA-LIGAND FREE ENERGY PREDICTED BY IDOCK:   -0.67 KCAL/MOL
REMARK 927      BINDING AFFINITY PREDICTED BY RF-SCORE:    0.00 PKD
ROOT
HETATM    1  N   UNL     1      -9.881  12.996  64.284  1.00  0.00    -0.654 NA 
HETATM    2  H1  UNL     1      -9.815  13.973  63.998  1.00  0.00     0.000 HD 
HETATM    3  C   UNL     1     -10.330  12.676  65.522  1.00  0.00    -0.286 C  
HETATM    4  H2  UNL     1      -9.608  12.257  63.635  1.00  0.00     0.000 HD 
HETATM    5  N   UNL     1     -10.414  11.430  65.886  1.00  0.00    -0.252 N  
HETATM    6  H   UNL     1     -10.127  10.690  65.245  1.00  0.00     0.000 HD 
HETATM    7  C   UNL     1     -10.900  11.103  67.160  1.00  0.00    -0.273 C  
HETATM    8  C   UNL     1     -11.332  12.242  67.975  1.00  0.00    -0.293 A  
HETATM    9  O   UNL     1     -10.961   9.947  67.562  1.00  0.00    -0.282 OA 
HETATM   10  C   UNL     1     -11.191  13.517  67.490  1.00  0.00    -0.283 A  
HETATM   11  N   UNL     1     -10.676  13.768  66.281  1.00  0.00    -0.284 NA 
HETATM   12  N   UNL     1     -11.661  14.363  68.444  1.00  0.00    -0.319 NA 
HETATM   13  N   UNL     1     -11.894  12.282  69.234  1.00  0.00    -0.313 NA 
HETATM   14  C   UNL     1     -12.104  13.563  69.471  1.00  0.00    -0.297 A  
ENDROOT
BRANCH  12  15
HETATM   15  C   UNL     1     -11.732  15.809  68.419  1.00  0.00    -0.271 C  
BRANCH  15  16
HETATM   16  C   UNL     1     -10.481  16.514  68.953  1.00  0.00    -0.304 C  
HETATM   17  C   UNL     1      -9.257  16.593  68.008  1.00  0.00    -0.223 C  
HETATM   18  C   UNL     1      -9.524  17.394  66.724  1.00  0.00    -0.273 C  
HETATM   19  C   UNL     1      -8.082  17.218  68.778  1.00  0.00    -0.242 C  
HETATM   20  O   UNL     1     -10.515  16.764  65.919  1.00  0.00    -0.346 OA 
HETATM   21  O   UNL     1      -6.919  17.286  67.965  1.00  0.00    -0.169 OA 
HETATM   22  H   UNL     1     -10.680  17.258  65.125  1.00  0.00     0.000 HD 
HETATM   23  H   UNL     1      -6.193  17.672  68.441  1.00  0.00     0.000 HD 
ENDBRANCH  15  16
ENDBRANCH  12  15
TORSDOF 2
ENDMDL
MODEL      117
REMARK 921   NORMALIZED FREE ENERGY PREDICTED BY IDOCK:   -5.20 KCAL/MOL
REMARK 922        TOTAL FREE ENERGY PREDICTED BY IDOCK:   -6.01 KCAL/MOL
REMARK 923 INTER-LIGAND FREE ENERGY PREDICTED BY IDOCK:   -5.49 KCAL/MOL
REMARK 924 INTRA-LIGAND FREE ENERGY PREDICTED BY IDOCK:   -0.52 KCAL/MOL
REMARK 927      BINDING AFFINITY PREDICTED BY RF-SCORE:    0.00 PKD
ROOT
HETATM    1  N   UNL     1     -10.819  15.248  68.413  1.00  0.00    -0.248 NA 
HETATM    2  H1  UNL     1     -10.622  14.537  67.708  1.00  0.00     0.000 HD 
HETATM    3  C   UNL     1     -11.483  14.918  69.548  1.00  0.00    -0.297 C  
HETATM    4  H2  UNL     1     -10.515  16.210  68.263  1.00  0.00     0.000 HD 
HETATM    5  N   UNL     1     -11.734  15.825  70.446  1.00  0.00    -0.346 N  
HETATM    6  H   UNL     1     -11.446  16.791  70.291  1.00  0.00     0.000 HD 
HETATM    7  C   UNL     1     -12.402  15.474  71.628  1.00  0.00    -0.403 C  
HETATM    8  C   UNL     1     -12.722  14.051  71.766  1.00  0.00    -0.319 A  
HETATM    9  O   UNL     1     -12.695  16.299  72.485  1.00  0.00    -0.407 OA 
HETATM   10  C   UNL     1     -12.415  13.183  70.750  1.00  0.00    -0.308 A  
HETATM   11  N   UNL     1     -11.817  13.588  69.623  1.00  0.00    -0.319 NA 
HETATM   12  N   UNL     1     -12.822  11.947  71.140  1.00  0.00    -0.311 NA 
HETATM   13  N   UNL     1     -13.322  13.362  72.800  1.00  0.00    -0.526 NA 
HETATM   14  C   UNL     1     -13.339  12.103  72.405  1.00  0.00    -0.010 A  
ENDROOT
BRANCH  12  15
HETATM   15  C   UNL     1     -12.726  10.692  70.424  1.00  0.00    -0.265 C  
BRANCH  15  16
HETATM   16  C   UNL     1     -11.349  10.026  70.494  1.00  0.00    -0.409 C  
HETATM   17  C   UNL     1     -10.820   9.359  69.202  1.00  0.00    -0.176 C  
HETATM   18  C   UNL     1     -10.613  10.346  68.042  1.00  0.00    -0.221 C  
HETATM   19  C   UNL     1      -9.494   8.648  69.523  1.00  0.00    -0.162 C  
HETATM   20  O   UNL     1     -11.848  10.921  67.628  1.00  0.00    -0.632 OA 
HETATM   21  O   UNL     1      -8.978   7.990  68.375  1.00  0.00    -0.134 OA 
HETATM   22  H   UNL     1     -11.721  11.531  66.911  1.00  0.00     0.000 HD 
HETATM   23  H   UNL     1      -8.159   7.550  68.574  1.00  0.00     0.000 HD 
ENDBRANCH  15  16
ENDBRANCH  12  15
TORSDOF 2
ENDMDL
MODEL      118
REMARK 921   NORMALIZED FREE ENERGY PREDICTED BY IDOCK:   -5.19 KCAL/MOL
REMARK 922        TOTAL FREE ENERGY PREDICTED BY IDOCK:   -6.01 KCAL/MOL
REMARK 923 INTER-LIGAND FREE ENERGY PREDICTED BY IDOCK:   -5.46 KCAL/MOL
REMARK 924 INTRA-LIGAND FREE ENERGY PREDICTED BY IDOCK:   -0.55 KCAL/MOL
REMARK 927      BINDING AFFINITY PREDICTED BY RF-SCORE:    0.00 PKD
ROOT
HETATM    1  N   UNL     1     -10.925   8.397  69.407  1.00  0.00    -0.431 NA 
HETATM    2  H1  UNL     1     -11.618   8.972  69.887  1.00  0.00     0.000 HD 
HETATM    3  C   UNL     1     -10.481   8.749  68.176  1.00  0.00    -0.191 C  
HETATM    4  H2  UNL     1     -10.566   7.554  69.855  1.00  0.00     0.000 HD 
HETATM    5  N   UNL     1      -9.598   8.016  67.564  1.00  0.00    -0.148 N  
HETATM    6  H   UNL     1      -9.249   7.164  68.004  1.00  0.00     0.000 HD 
HETATM    7  C   UNL     1      -9.125   8.397  66.300  1.00  0.00    -0.194 C  
HETATM    8  C   UNL     1      -9.657   9.663  65.789  1.00  0.00    -0.263 A  
HETATM    9  O   UNL     1      -8.323   7.718  65.668  1.00  0.00    -0.128 OA 
HETATM   10  C   UNL     1     -10.591  10.352  66.520  1.00  0.00    -0.151 A  
HETATM   11  N   UNL     1     -11.038   9.912  67.702  1.00  0.00    -0.204 NA 
HETATM   12  N   UNL     1     -10.905  11.470  65.816  1.00  0.00    -0.279 NA 
HETATM   13  N   UNL     1      -9.378  10.348  64.625  1.00  0.00    -0.229 NA 
HETATM   14  C   UNL     1     -10.121  11.438  64.687  1.00  0.00    -0.280 A  
ENDROOT
BRANCH  12  15
HETATM   15  C   UNL     1     -11.841  12.523  66.154  1.00  0.00    -0.397 C  
BRANCH  15  16
HETATM   16  C   UNL     1     -11.939  13.642  65.113  1.00  0.00    -0.391 C  
HETATM   17  C   UNL     1     -11.337  15.016  65.494  1.00  0.00    -0.312 C  
HETATM   18  C   UNL     1      -9.821  14.974  65.742  1.00  0.00    -0.353 C  
HETATM   19  C   UNL     1     -11.654  16.019  64.372  1.00  0.00    -0.212 C  
HETATM   20  O   UNL     1      -9.504  14.159  66.865  1.00  0.00    -0.246 OA 
HETATM   21  O   UNL     1     -11.150  17.310  64.685  1.00  0.00    -1.052 OA 
HETATM   22  H   UNL     1      -8.567  14.133  67.019  1.00  0.00     0.000 HD 
HETATM   23  H   UNL     1     -11.346  17.930  63.992  1.00  0.00     0.000 HD 
ENDBRANCH  15  16
ENDBRANCH  12  15
TORSDOF 2
ENDMDL
MODEL      119
REMARK 921   NORMALIZED FREE ENERGY PREDICTED BY IDOCK:   -5.19 KCAL/MOL
REMARK 922        TOTAL FREE ENERGY PREDICTED BY IDOCK:   -6.00 KCAL/MOL
REMARK 923 INTER-LIGAND FREE ENERGY PREDICTED BY IDOCK:   -5.69 KCAL/MOL
REMARK 924 INTRA-LIGAND FREE ENERGY PREDICTED BY IDOCK:   -0.31 KCAL/MOL
REMARK 927      BINDING AFFINITY PREDICTED BY RF-SCORE:    0.00 PKD
ROOT
HETATM    1  N   UNL     1     -12.826  10.201  70.627  1.00  0.00    -0.518 NA 
HETATM    2  H1  UNL     1     -12.430   9.782  69.785  1.00  0.00     0.000 HD 
HETATM    3  C   UNL     1     -12.704  11.533  70.848  1.00  0.00    -0.278 C  
HETATM    4  H2  UNL     1     -13.317   9.616  71.304  1.00  0.00     0.000 HD 
HETATM    5  N   UNL     1     -13.209  12.068  71.920  1.00  0.00    -0.450 N  
HETATM    6  H   UNL     1     -13.686  11.482  72.607  1.00  0.00     0.000 HD 
HETATM    7  C   UNL     1     -13.099  13.449  72.134  1.00  0.00    -0.388 C  
HETATM    8  C   UNL     1     -12.441  14.196  71.059  1.00  0.00    -0.367 A  
HETATM    9  O   UNL     1     -13.524  13.992  73.147  1.00  0.00    -0.593 OA 
HETATM   10  C   UNL     1     -11.939  13.526  69.973  1.00  0.00    -0.340 A  
HETATM   11  N   UNL     1     -12.035  12.197  69.848  1.00  0.00    -0.325 NA 
HETATM   12  N   UNL     1     -11.388  14.454  69.148  1.00  0.00    -0.262 NA 
HETATM   13  N   UNL     1     -12.208  15.549  70.919  1.00  0.00    -0.366 NA 
HETATM   14  C   UNL     1     -11.603  15.670  69.752  1.00  0.00    -0.352 A  
ENDROOT
BRANCH  12  15
HETATM   15  C   UNL     1     -10.727  14.258  67.874  1.00  0.00    -0.240 C  
BRANCH  15  16
HETATM   16  C   UNL     1      -9.474  13.379  67.939  1.00  0.00    -0.216 C  
HETATM   17  C   UNL     1      -8.131  14.033  67.535  1.00  0.00    -0.197 C  
HETATM   18  C   UNL     1      -7.720  15.202  68.444  1.00  0.00    -0.118 C  
HETATM   19  C   UNL     1      -7.035  12.954  67.548  1.00  0.00    -0.149 C  
HETATM   20  O   UNL     1      -8.646  16.280  68.350  1.00  0.00    -0.185 OA 
HETATM   21  O   UNL     1      -5.783  13.495  67.153  1.00  0.00    -0.342 OA 
HETATM   22  H   UNL     1      -8.393  17.002  68.911  1.00  0.00     0.000 HD 
HETATM   23  H   UNL     1      -5.106  12.828  67.161  1.00  0.00     0.000 HD 
ENDBRANCH  15  16
ENDBRANCH  12  15
TORSDOF 2
ENDMDL
MODEL      120
REMARK 921   NORMALIZED FREE ENERGY PREDICTED BY IDOCK:   -5.15 KCAL/MOL
REMARK 922        TOTAL FREE ENERGY PREDICTED BY IDOCK:   -5.96 KCAL/MOL
REMARK 923 INTER-LIGAND FREE ENERGY PREDICTED BY IDOCK:   -5.73 KCAL/MOL
REMARK 924 INTRA-LIGAND FREE ENERGY PREDICTED BY IDOCK:   -0.23 KCAL/MOL
REMARK 927      BINDING AFFINITY PREDICTED BY RF-SCORE:    0.00 PKD
ROOT
HETATM    1  N   UNL     1     -10.760  11.416  62.956  1.00  0.00    -0.768 NA 
HETATM    2  H1  UNL     1     -11.176  12.227  62.497  1.00  0.00     0.000 HD 
HETATM    3  C   UNL     1     -10.299  11.513  64.226  1.00  0.00    -0.323 C  
HETATM    4  H2  UNL     1     -10.690  10.530  62.456  1.00  0.00     0.000 HD 
HETATM    5  N   UNL     1      -9.767  10.480  64.811  1.00  0.00    -0.277 N  
HETATM    6  H   UNL     1      -9.682   9.597  64.308  1.00  0.00     0.000 HD 
HETATM    7  C   UNL     1      -9.312  10.580  66.134  1.00  0.00    -0.176 C  
HETATM    8  C   UNL     1      -9.533  11.879  66.774  1.00  0.00    -0.201 A  
HETATM    9  O   UNL     1      -8.770   9.645  66.712  1.00  0.00    -0.132 OA 
HETATM   10  C   UNL     1     -10.099  12.903  66.058  1.00  0.00    -0.285 A  
HETATM   11  N   UNL     1     -10.472  12.759  64.781  1.00  0.00    -0.319 NA 
HETATM   12  N   UNL     1     -10.179  13.976  66.887  1.00  0.00    -0.257 NA 
HETATM   13  N   UNL     1      -9.258  12.305  68.057  1.00  0.00    -0.190 NA 
HETATM   14  C   UNL     1      -9.684  13.554  68.098  1.00  0.00    -0.233 A  
ENDROOT
BRANCH  12  15
HETATM   15  C   UNL     1     -10.698  15.299  66.611  1.00  0.00    -0.309 C  
BRANCH  15  16
HETATM   16  C   UNL     1     -10.006  16.425  67.385  1.00  0.00    -0.251 C  
HETATM   17  C   UNL     1      -9.436  17.604  66.559  1.00  0.00    -0.294 C  
HETATM   18  C   UNL     1     -10.509  18.389  65.790  1.00  0.00    -0.227 C  
HETATM   19  C   UNL     1      -8.680  18.548  67.509  1.00  0.00    -0.262 C  
HETATM   20  O   UNL     1     -11.136  17.577  64.803  1.00  0.00    -0.959 OA 
HETATM   21  O   UNL     1      -8.107  19.636  66.796  1.00  0.00    -0.271 OA 
HETATM   22  H   UNL     1     -11.800  18.062  64.328  1.00  0.00     0.000 HD 
HETATM   23  H   UNL     1      -7.639  20.219  67.383  1.00  0.00     0.000 HD 
ENDBRANCH  15  16
ENDBRANCH  12  15
TORSDOF 2
ENDMDL
MODEL      121
REMARK 921   NORMALIZED FREE ENERGY PREDICTED BY IDOCK:   -5.10 KCAL/MOL
REMARK 922        TOTAL FREE ENERGY PREDICTED BY IDOCK:   -5.90 KCAL/MOL
REMARK 923 INTER-LIGAND FREE ENERGY PREDICTED BY IDOCK:   -6.08 KCAL/MOL
REMARK 924 INTRA-LIGAND FREE ENERGY PREDICTED BY IDOCK:    0.18 KCAL/MOL
REMARK 927      BINDING AFFINITY PREDICTED BY RF-SCORE:    0.00 PKD
ROOT
HETATM    1  N   UNL     1     -12.417  11.632  63.112  1.00  0.00    -0.949 NA 
HETATM    2  H1  UNL     1     -12.129  10.679  63.337  1.00  0.00     0.000 HD 
HETATM    3  C   UNL     1     -11.881  12.682  63.781  1.00  0.00    -0.498 C  
HETATM    4  H2  UNL     1     -13.110  11.794  62.381  1.00  0.00     0.000 HD 
HETATM    5  N   UNL     1     -12.248  13.896  63.494  1.00  0.00    -1.050 N  
HETATM    6  H   UNL     1     -12.952  14.060  62.774  1.00  0.00     0.000 HD 
HETATM    7  C   UNL     1     -11.674  14.981  64.173  1.00  0.00    -0.110 C  
HETATM    8  C   UNL     1     -10.638  14.630  65.147  1.00  0.00    -0.421 A  
HETATM    9  O   UNL     1     -12.016  16.139  63.965  1.00  0.00    -0.897 OA 
HETATM   10  C   UNL     1     -10.335  13.311  65.374  1.00  0.00    -0.306 A  
HETATM   11  N   UNL     1     -10.952  12.317  64.724  1.00  0.00    -0.293 NA 
HETATM   12  N   UNL     1      -9.357  13.281  66.315  1.00  0.00    -0.179 NA 
HETATM   13  N   UNL     1      -9.848  15.432  65.944  1.00  0.00    -0.328 NA 
HETATM   14  C   UNL     1      -9.074  14.594  66.608  1.00  0.00    -0.258 A  
ENDROOT
BRANCH  12  15
HETATM   15  C   UNL     1      -8.695  12.132  66.898  1.00  0.00    -0.194 C  
BRANCH  15  16
HETATM   16  C   UNL     1      -8.649  10.898  65.991  1.00  0.00    -0.179 C  
HETATM   17  C   UNL     1      -7.315  10.115  65.930  1.00  0.00    -0.121 C  
HETATM   18  C   UNL     1      -6.898   9.508  67.278  1.00  0.00    -0.084 C  
HETATM   19  C   UNL     1      -7.447   9.004  64.876  1.00  0.00    -0.105 C  
HETATM   20  O   UNL     1      -6.635  10.521  68.243  1.00  0.00    -0.059 OA 
HETATM   21  O   UNL     1      -6.236   8.271  64.755  1.00  0.00    -0.055 OA 
HETATM   22  H   UNL     1      -6.377  10.146  69.076  1.00  0.00     0.000 HD 
HETATM   23  H   UNL     1      -6.317   7.584  64.103  1.00  0.00     0.000 HD 
ENDBRANCH  15  16
ENDBRANCH  12  15
TORSDOF 2
ENDMDL
MODEL      122
REMARK 921   NORMALIZED FREE ENERGY PREDICTED BY IDOCK:   -5.09 KCAL/MOL
REMARK 922        TOTAL FREE ENERGY PREDICTED BY IDOCK:   -5.89 KCAL/MOL
REMARK 923 INTER-LIGAND FREE ENERGY PREDICTED BY IDOCK:   -5.36 KCAL/MOL
REMARK 924 INTRA-LIGAND FREE ENERGY PREDICTED BY IDOCK:   -0.54 KCAL/MOL
REMARK 927      BINDING AFFINITY PREDICTED BY RF-SCORE:    0.00 PKD
ROOT
HETATM    1  N   UNL     1     -10.119  10.478  62.377  1.00  0.00    -0.746 NA 
HETATM    2  H1  UNL     1     -10.486  11.364  62.029  1.00  0.00     0.000 HD 
HETATM    3  C   UNL     1      -9.639  10.389  63.641  1.00  0.00    -0.310 C  
HETATM    4  H2  UNL     1     -10.112   9.657  61.772  1.00  0.00     0.000 HD 
HETATM    5  N   UNL     1      -9.170   9.260  64.086  1.00  0.00    -0.412 N  
HETATM    6  H   UNL     1      -9.148   8.441  63.477  1.00  0.00     0.000 HD 
HETATM    7  C   UNL     1      -8.695   9.167  65.402  1.00  0.00    -0.186 C  
HETATM    8  C   UNL     1      -8.823  10.389  66.200  1.00  0.00    -0.158 A  
HETATM    9  O   UNL     1      -8.209   8.136  65.852  1.00  0.00    -0.108 OA 
HETATM   10  C   UNL     1      -9.329  11.527  65.625  1.00  0.00    -0.204 A  
HETATM   11  N   UNL     1      -9.724  11.565  64.347  1.00  0.00    -0.225 NA 
HETATM   12  N   UNL     1      -9.330  12.492  66.580  1.00  0.00    -0.238 NA 
HETATM   13  N   UNL     1      -8.508  10.635  67.520  1.00  0.00    -0.121 NA 
HETATM   14  C   UNL     1      -8.850  11.894  67.721  1.00  0.00    -0.166 A  
ENDROOT
BRANCH  12  15
HETATM   15  C   UNL     1      -9.764  13.870  66.477  1.00  0.00    -0.294 C  
BRANCH  15  16
HETATM   16  C   UNL     1     -10.035  14.551  67.822  1.00  0.00    -0.225 C  
HETATM   17  C   UNL     1     -11.506  14.620  68.296  1.00  0.00    -0.337 C  
HETATM   18  C   UNL     1     -12.141  13.240  68.529  1.00  0.00    -0.221 C  
HETATM   19  C   UNL     1     -11.568  15.447  69.590  1.00  0.00    -0.331 C  
HETATM   20  O   UNL     1     -12.225  12.498  67.317  1.00  0.00    -0.454 OA 
HETATM   21  O   UNL     1     -12.905  15.569  70.054  1.00  0.00    -0.621 OA 
HETATM   22  H   UNL     1     -12.617  11.645  67.460  1.00  0.00     0.000 HD 
HETATM   23  H   UNL     1     -12.943  16.081  70.854  1.00  0.00     0.000 HD 
ENDBRANCH  15  16
ENDBRANCH  12  15
TORSDOF 2
ENDMDL
MODEL      123
REMARK 921   NORMALIZED FREE ENERGY PREDICTED BY IDOCK:   -5.09 KCAL/MOL
REMARK 922        TOTAL FREE ENERGY PREDICTED BY IDOCK:   -5.89 KCAL/MOL
REMARK 923 INTER-LIGAND FREE ENERGY PREDICTED BY IDOCK:   -5.65 KCAL/MOL
REMARK 924 INTRA-LIGAND FREE ENERGY PREDICTED BY IDOCK:   -0.24 KCAL/MOL
REMARK 927      BINDING AFFINITY PREDICTED BY RF-SCORE:    0.00 PKD
ROOT
HETATM    1  N   UNL     1     -11.453  12.096  62.956  1.00  0.00    -0.662 NA 
HETATM    2  H1  UNL     1     -11.768  13.063  62.868  1.00  0.00     0.000 HD 
HETATM    3  C   UNL     1     -10.782  11.696  64.063  1.00  0.00    -0.384 C  
HETATM    4  H2  UNL     1     -11.644  11.429  62.208  1.00  0.00     0.000 HD 
HETATM    5  N   UNL     1     -10.380  10.464  64.176  1.00  0.00    -0.413 N  
HETATM    6  H   UNL     1     -10.556   9.799  63.422  1.00  0.00     0.000 HD 
HETATM    7  C   UNL     1      -9.706  10.049  65.333  1.00  0.00    -0.302 C  
HETATM    8  C   UNL     1      -9.556  11.073  66.370  1.00  0.00    -0.198 A  
HETATM    9  O   UNL     1      -9.275   8.909  65.468  1.00  0.00    -0.220 OA 
HETATM   10  C   UNL     1     -10.014  12.346  66.140  1.00  0.00    -0.253 A  
HETATM   11  N   UNL     1     -10.610  12.692  64.993  1.00  0.00    -0.294 NA 
HETATM   12  N   UNL     1      -9.743  13.076  67.252  1.00  0.00    -0.220 NA 
HETATM   13  N   UNL     1      -8.997  11.000  67.629  1.00  0.00    -0.140 NA 
HETATM   14  C   UNL     1      -9.152  12.208  68.139  1.00  0.00    -0.196 A  
ENDROOT
BRANCH  12  15
HETATM   15  C   UNL     1     -10.025  14.473  67.511  1.00  0.00    -0.224 C  
BRANCH  15  16
HETATM   16  C   UNL     1     -11.253  14.719  68.393  1.00  0.00    -0.298 C  
HETATM   17  C   UNL     1     -11.037  15.525  69.696  1.00  0.00    -0.280 C  
HETATM   18  C   UNL     1     -10.552  16.964  69.455  1.00  0.00    -0.292 C  
HETATM   19  C   UNL     1     -12.356  15.546  70.486  1.00  0.00    -0.418 C  
HETATM   20  O   UNL     1      -9.265  16.980  68.847  1.00  0.00    -0.264 OA 
HETATM   21  O   UNL     1     -12.206  16.249  71.711  1.00  0.00    -0.591 OA 
HETATM   22  H   UNL     1      -8.965  17.868  68.698  1.00  0.00     0.000 HD 
HETATM   23  H   UNL     1     -13.022  16.261  72.199  1.00  0.00     0.000 HD 
ENDBRANCH  15  16
ENDBRANCH  12  15
TORSDOF 2
ENDMDL
MODEL      124
REMARK 921   NORMALIZED FREE ENERGY PREDICTED BY IDOCK:   -5.08 KCAL/MOL
REMARK 922        TOTAL FREE ENERGY PREDICTED BY IDOCK:   -5.87 KCAL/MOL
REMARK 923 INTER-LIGAND FREE ENERGY PREDICTED BY IDOCK:   -5.51 KCAL/MOL
REMARK 924 INTRA-LIGAND FREE ENERGY PREDICTED BY IDOCK:   -0.36 KCAL/MOL
REMARK 927      BINDING AFFINITY PREDICTED BY RF-SCORE:    0.00 PKD
ROOT
HETATM    1  N   UNL     1      -8.857  15.523  66.296  1.00  0.00    -0.367 NA 
HETATM    2  H1  UNL     1      -8.119  14.882  66.588  1.00  0.00     0.000 HD 
HETATM    3  C   UNL     1      -9.878  15.080  65.523  1.00  0.00    -0.317 C  
HETATM    4  H2  UNL     1      -8.827  16.500  66.588  1.00  0.00     0.000 HD 
HETATM    5  N   UNL     1     -10.820  15.897  65.150  1.00  0.00    -0.431 N  
HETATM    6  H   UNL     1     -10.783  16.878  65.427  1.00  0.00     0.000 HD 
HETATM    7  C   UNL     1     -11.885  15.429  64.368  1.00  0.00    -0.256 C  
HETATM    8  C   UNL     1     -11.862  13.994  64.075  1.00  0.00    -0.308 A  
HETATM    9  O   UNL     1     -12.774  16.169  63.961  1.00  0.00    -0.441 OA 
HETATM   10  C   UNL     1     -10.813  13.227  64.515  1.00  0.00    -0.394 A  
HETATM   11  N   UNL     1      -9.799  13.742  65.220  1.00  0.00    -0.189 NA 
HETATM   12  N   UNL     1     -11.047  11.954  64.102  1.00  0.00    -0.348 NA 
HETATM   13  N   UNL     1     -12.759  13.204  63.386  1.00  0.00    -0.648 NA 
HETATM   14  C   UNL     1     -12.255  11.986  63.447  1.00  0.00    -0.519 A  
ENDROOT
BRANCH  12  15
HETATM   15  C   UNL     1     -10.239  10.770  64.310  1.00  0.00    -0.354 C  
BRANCH  15  16
HETATM   16  C   UNL     1     -10.392  10.133  65.695  1.00  0.00    -0.210 C  
HETATM   17  C   UNL     1      -9.102   9.926  66.524  1.00  0.00    -0.179 C  
HETATM   18  C   UNL     1      -8.383  11.238  66.879  1.00  0.00    -0.155 C  
HETATM   19  C   UNL     1      -9.462   9.165  67.811  1.00  0.00    -0.140 C  
HETATM   20  O   UNL     1      -7.914  11.902  65.710  1.00  0.00    -0.139 OA 
HETATM   21  O   UNL     1      -8.305   8.919  68.598  1.00  0.00    -0.121 OA 
HETATM   22  H   UNL     1      -7.470  12.712  65.929  1.00  0.00     0.000 HD 
HETATM   23  H   UNL     1      -8.527   8.449  69.393  1.00  0.00     0.000 HD 
ENDBRANCH  15  16
ENDBRANCH  12  15
TORSDOF 2
ENDMDL
MODEL      125
REMARK 921   NORMALIZED FREE ENERGY PREDICTED BY IDOCK:   -5.07 KCAL/MOL
REMARK 922        TOTAL FREE ENERGY PREDICTED BY IDOCK:   -5.87 KCAL/MOL
REMARK 923 INTER-LIGAND FREE ENERGY PREDICTED BY IDOCK:   -5.65 KCAL/MOL
REMARK 924 INTRA-LIGAND FREE ENERGY PREDICTED BY IDOCK:   -0.22 KCAL/MOL
REMARK 927      BINDING AFFINITY PREDICTED BY RF-SCORE:    0.00 PKD
ROOT
HETATM    1  N   UNL     1      -7.611   8.554  69.515  1.00  0.00    -0.087 NA 
HETATM    2  H1  UNL     1      -7.416   9.009  68.623  1.00  0.00     0.000 HD 
HETATM    3  C   UNL     1      -8.764   8.817  70.177  1.00  0.00    -0.149 C  
HETATM    4  H2  UNL     1      -6.936   7.899  69.910  1.00  0.00     0.000 HD 
HETATM    5  N   UNL     1      -9.013   8.237  71.314  1.00  0.00    -0.148 N  
HETATM    6  H   UNL     1      -8.332   7.594  71.719  1.00  0.00     0.000 HD 
HETATM    7  C   UNL     1     -10.217   8.496  71.984  1.00  0.00    -0.321 C  
HETATM    8  C   UNL     1     -11.140   9.394  71.286  1.00  0.00    -0.376 A  
HETATM    9  O   UNL     1     -10.479   8.004  73.076  1.00  0.00    -0.342 OA 
HETATM   10  C   UNL     1     -10.769   9.955  70.090  1.00  0.00    -0.308 A  
HETATM   11  N   UNL     1      -9.584   9.704  69.522  1.00  0.00    -0.185 NA 
HETATM   12  N   UNL     1     -11.801  10.736  69.676  1.00  0.00    -0.307 NA 
HETATM   13  N   UNL     1     -12.408   9.820  71.626  1.00  0.00    -0.388 NA 
HETATM   14  C   UNL     1     -12.784  10.597  70.628  1.00  0.00    -0.359 A  
ENDROOT
BRANCH  12  15
HETATM   15  C   UNL     1     -11.905  11.542  68.477  1.00  0.00    -0.297 C  
BRANCH  15  16
HETATM   16  C   UNL     1     -11.750  13.048  68.710  1.00  0.00    -0.363 C  
HETATM   17  C   UNL     1     -11.319  13.910  67.499  1.00  0.00    -0.342 C  
HETATM   18  C   UNL     1     -12.330  13.891  66.342  1.00  0.00    -0.426 C  
HETATM   19  C   UNL     1     -11.100  15.355  67.978  1.00  0.00    -0.312 C  
HETATM   20  O   UNL     1     -12.453  12.587  65.784  1.00  0.00    -0.626 OA 
HETATM   21  O   UNL     1     -10.671  16.186  66.909  1.00  0.00    -0.314 OA 
HETATM   22  H   UNL     1     -13.078  12.576  65.069  1.00  0.00     0.000 HD 
HETATM   23  H   UNL     1     -10.536  17.079  67.205  1.00  0.00     0.000 HD 
ENDBRANCH  15  16
ENDBRANCH  12  15
TORSDOF 2
ENDMDL
MODEL      126
REMARK 921   NORMALIZED FREE ENERGY PREDICTED BY IDOCK:   -5.07 KCAL/MOL
REMARK 922        TOTAL FREE ENERGY PREDICTED BY IDOCK:   -5.87 KCAL/MOL
REMARK 923 INTER-LIGAND FREE ENERGY PREDICTED BY IDOCK:   -5.52 KCAL/MOL
REMARK 924 INTRA-LIGAND FREE ENERGY PREDICTED BY IDOCK:   -0.35 KCAL/MOL
REMARK 927      BINDING AFFINITY PREDICTED BY RF-SCORE:    0.00 PKD
ROOT
HETATM    1  N   UNL     1     -14.394   8.615  72.256  1.00  0.00    -0.571 NA 
HETATM    2  H1  UNL     1     -15.008   9.049  71.567  1.00  0.00     0.000 HD 
HETATM    3  C   UNL     1     -13.052   8.614  72.069  1.00  0.00    -0.381 C  
HETATM    4  H2  UNL     1     -14.791   8.179  73.089  1.00  0.00     0.000 HD 
HETATM    5  N   UNL     1     -12.268   8.061  72.947  1.00  0.00    -0.598 N  
HETATM    6  H   UNL     1     -12.664   7.611  73.773  1.00  0.00     0.000 HD 
HETATM    7  C   UNL     1     -10.878   8.082  72.760  1.00  0.00    -0.369 C  
HETATM    8  C   UNL     1     -10.420   8.800  71.567  1.00  0.00    -0.303 A  
HETATM    9  O   UNL     1     -10.103   7.541  73.539  1.00  0.00    -0.315 OA 
HETATM   10  C   UNL     1     -11.339   9.342  70.705  1.00  0.00    -0.275 A  
HETATM   11  N   UNL     1     -12.657   9.248  70.915  1.00  0.00    -0.173 NA 
HETATM   12  N   UNL     1     -10.644   9.935  69.700  1.00  0.00    -0.232 NA 
HETATM   13  N   UNL     1      -9.145   9.054  71.108  1.00  0.00    -0.245 NA 
HETATM   14  C   UNL     1      -9.315   9.759  70.005  1.00  0.00    -0.235 A  
ENDROOT
BRANCH  12  15
HETATM   15  C   UNL     1     -11.149  10.644  68.542  1.00  0.00    -0.263 C  
BRANCH  15  16
HETATM   16  C   UNL     1     -11.961  11.900  68.873  1.00  0.00    -0.313 C  
HETATM   17  C   UNL     1     -11.171  13.151  69.330  1.00  0.00    -0.210 C  
HETATM   18  C   UNL     1     -10.208  13.692  68.262  1.00  0.00    -0.243 C  
HETATM   19  C   UNL     1     -12.175  14.246  69.730  1.00  0.00    -0.339 C  
HETATM   20  O   UNL     1      -9.181  12.751  67.968  1.00  0.00    -0.196 OA 
HETATM   21  O   UNL     1     -11.502  15.410  70.189  1.00  0.00    -0.266 OA 
HETATM   22  H   UNL     1      -8.586  13.086  67.308  1.00  0.00     0.000 HD 
HETATM   23  H   UNL     1     -12.122  16.086  70.437  1.00  0.00     0.000 HD 
ENDBRANCH  15  16
ENDBRANCH  12  15
TORSDOF 2
ENDMDL
MODEL      127
REMARK 921   NORMALIZED FREE ENERGY PREDICTED BY IDOCK:   -5.07 KCAL/MOL
REMARK 922        TOTAL FREE ENERGY PREDICTED BY IDOCK:   -5.87 KCAL/MOL
REMARK 923 INTER-LIGAND FREE ENERGY PREDICTED BY IDOCK:   -5.36 KCAL/MOL
REMARK 924 INTRA-LIGAND FREE ENERGY PREDICTED BY IDOCK:   -0.51 KCAL/MOL
REMARK 927      BINDING AFFINITY PREDICTED BY RF-SCORE:    0.00 PKD
ROOT
HETATM    1  N   UNL     1     -13.642   8.091  72.493  1.00  0.00    -0.530 NA 
HETATM    2  H1  UNL     1     -13.334   7.203  72.096  1.00  0.00     0.000 HD 
HETATM    3  C   UNL     1     -13.257   9.261  71.929  1.00  0.00    -0.423 C  
HETATM    4  H2  UNL     1     -14.243   8.097  73.318  1.00  0.00     0.000 HD 
HETATM    5  N   UNL     1     -13.650  10.393  72.436  1.00  0.00    -0.517 N  
HETATM    6  H   UNL     1     -14.237  10.402  73.270  1.00  0.00     0.000 HD 
HETATM    7  C   UNL     1     -13.266  11.601  71.835  1.00  0.00    -0.369 C  
HETATM    8  C   UNL     1     -12.468  11.465  70.614  1.00  0.00    -0.327 A  
HETATM    9  O   UNL     1     -13.579  12.691  72.298  1.00  0.00    -0.547 OA 
HETATM   10  C   UNL     1     -12.106  10.218  70.173  1.00  0.00    -0.202 A  
HETATM   11  N   UNL     1     -12.465   9.101  70.818  1.00  0.00    -0.096 NA 
HETATM   12  N   UNL     1     -11.376  10.389  69.040  1.00  0.00    -0.237 NA 
HETATM   13  N   UNL     1     -11.969  12.424  69.757  1.00  0.00    -0.310 NA 
HETATM   14  C   UNL     1     -11.347  11.745  68.812  1.00  0.00    -0.267 A  
ENDROOT
BRANCH  12  15
HETATM   15  C   UNL     1     -10.763   9.385  68.195  1.00  0.00    -0.178 C  
BRANCH  15  16
HETATM   16  C   UNL     1      -9.464   8.795  68.753  1.00  0.00    -0.142 C  
HETATM   17  C   UNL     1      -9.594   7.710  69.849  1.00  0.00    -0.160 C  
HETATM   18  C   UNL     1     -10.316   6.440  69.372  1.00  0.00    -0.209 C  
HETATM   19  C   UNL     1      -8.186   7.351  70.354  1.00  0.00    -0.121 C  
HETATM   20  O   UNL     1     -11.669   6.714  69.026  1.00  0.00    -0.608 OA 
HETATM   21  O   UNL     1      -8.249   6.379  71.388  1.00  0.00    -0.119 OA 
HETATM   22  H   UNL     1     -12.115   5.930  68.731  1.00  0.00     0.000 HD 
HETATM   23  H   UNL     1      -7.379   6.157  71.700  1.00  0.00     0.000 HD 
ENDBRANCH  15  16
ENDBRANCH  12  15
TORSDOF 2
ENDMDL
MODEL      128
REMARK 921   NORMALIZED FREE ENERGY PREDICTED BY IDOCK:   -5.07 KCAL/MOL
REMARK 922        TOTAL FREE ENERGY PREDICTED BY IDOCK:   -5.87 KCAL/MOL
REMARK 923 INTER-LIGAND FREE ENERGY PREDICTED BY IDOCK:   -5.98 KCAL/MOL
REMARK 924 INTRA-LIGAND FREE ENERGY PREDICTED BY IDOCK:    0.12 KCAL/MOL
REMARK 927      BINDING AFFINITY PREDICTED BY RF-SCORE:    0.00 PKD
ROOT
HETATM    1  N   UNL     1     -10.502  11.145  63.098  1.00  0.00    -0.731 NA 
HETATM    2  H1  UNL     1     -10.793  12.084  62.823  1.00  0.00     0.000 HD 
HETATM    3  C   UNL     1     -10.392  10.822  64.410  1.00  0.00    -0.335 C  
HETATM    4  H2  UNL     1     -10.293  10.448  62.384  1.00  0.00     0.000 HD 
HETATM    5  N   UNL     1     -10.021   9.626  64.761  1.00  0.00    -0.329 N  
HETATM    6  H   UNL     1      -9.796   8.932  64.048  1.00  0.00     0.000 HD 
HETATM    7  C   UNL     1      -9.930   9.291  66.120  1.00  0.00    -0.277 C  
HETATM    8  C   UNL     1     -10.327  10.349  67.052  1.00  0.00    -0.240 A  
HETATM    9  O   UNL     1      -9.548   8.190  66.499  1.00  0.00    -0.207 OA 
HETATM   10  C   UNL     1     -10.697  11.578  66.569  1.00  0.00    -0.273 A  
HETATM   11  N   UNL     1     -10.719  11.852  65.259  1.00  0.00    -0.275 NA 
HETATM   12  N   UNL     1     -11.004  12.354  67.640  1.00  0.00    -0.227 NA 
HETATM   13  N   UNL     1     -10.404  10.348  68.429  1.00  0.00    -0.165 NA 
HETATM   14  C   UNL     1     -10.839  11.553  68.746  1.00  0.00    -0.216 A  
ENDROOT
BRANCH  12  15
HETATM   15  C   UNL     1     -11.448  13.733  67.664  1.00  0.00    -0.323 C  
BRANCH  15  16
HETATM   16  C   UNL     1     -12.085  14.217  66.358  1.00  0.00    -0.475 C  
HETATM   17  C   UNL     1     -11.315  15.291  65.552  1.00  0.00    -0.220 C  
HETATM   18  C   UNL     1      -9.941  14.816  65.054  1.00  0.00    -0.169 C  
HETATM   19  C   UNL     1     -12.181  15.723  64.357  1.00  0.00     0.079 C  
HETATM   20  O   UNL     1      -9.065  14.538  66.141  1.00  0.00    -0.482 OA 
HETATM   21  O   UNL     1     -11.534  16.734  63.598  1.00  0.00    -1.117 OA 
HETATM   22  H   UNL     1      -8.216  14.244  65.834  1.00  0.00     0.000 HD 
HETATM   23  H   UNL     1     -12.069  17.001  62.860  1.00  0.00     0.000 HD 
ENDBRANCH  15  16
ENDBRANCH  12  15
TORSDOF 2
ENDMDL
MODEL      129
REMARK 921   NORMALIZED FREE ENERGY PREDICTED BY IDOCK:   -5.06 KCAL/MOL
REMARK 922        TOTAL FREE ENERGY PREDICTED BY IDOCK:   -5.86 KCAL/MOL
REMARK 923 INTER-LIGAND FREE ENERGY PREDICTED BY IDOCK:   -5.35 KCAL/MOL
REMARK 924 INTRA-LIGAND FREE ENERGY PREDICTED BY IDOCK:   -0.51 KCAL/MOL
REMARK 927      BINDING AFFINITY PREDICTED BY RF-SCORE:    0.00 PKD
ROOT
HETATM    1  N   UNL     1     -10.133  16.987  68.053  1.00  0.00    -0.290 NA 
HETATM    2  H1  UNL     1      -9.838  16.606  67.154  1.00  0.00     0.000 HD 
HETATM    3  C   UNL     1     -10.787  16.204  68.945  1.00  0.00    -0.305 C  
HETATM    4  H2  UNL     1      -9.933  17.962  68.282  1.00  0.00     0.000 HD 
HETATM    5  N   UNL     1     -11.162  16.690  70.092  1.00  0.00    -0.435 N  
HETATM    6  H   UNL     1     -10.978  17.668  70.317  1.00  0.00     0.000 HD 
HETATM    7  C   UNL     1     -11.819  15.870  71.020  1.00  0.00    -0.428 C  
HETATM    8  C   UNL     1     -11.983  14.472  70.612  1.00  0.00    -0.319 A  
HETATM    9  O   UNL     1     -12.226  16.292  72.096  1.00  0.00    -0.476 OA 
HETATM   10  C   UNL     1     -11.552  14.070  69.373  1.00  0.00    -0.297 A  
HETATM   11  N   UNL     1     -10.972  14.914  68.512  1.00  0.00    -0.246 NA 
HETATM   12  N   UNL     1     -11.831  12.745  69.263  1.00  0.00    -0.310 NA 
HETATM   13  N   UNL     1     -12.530  13.399  71.285  1.00  0.00    -0.324 NA 
HETATM   14  C   UNL     1     -12.397  12.377  70.461  1.00  0.00    -0.262 A  
ENDROOT
BRANCH  12  15
HETATM   15  C   UNL     1     -11.576  11.854  68.149  1.00  0.00    -0.334 C  
BRANCH  15  16
HETATM   16  C   UNL     1     -10.116  11.411  68.013  1.00  0.00    -0.193 C  
HETATM   17  C   UNL     1      -9.438  11.626  66.638  1.00  0.00    -0.213 C  
HETATM   18  C   UNL     1      -9.340  13.103  66.227  1.00  0.00    -0.127 C  
HETATM   19  C   UNL     1      -8.033  11.002  66.681  1.00  0.00    -0.156 C  
HETATM   20  O   UNL     1     -10.630  13.675  66.044  1.00  0.00    -0.282 OA 
HETATM   21  O   UNL     1      -7.375  11.142  65.430  1.00  0.00    -0.350 OA 
HETATM   22  H   UNL     1     -10.570  14.588  65.789  1.00  0.00     0.000 HD 
HETATM   23  H   UNL     1      -6.507  10.757  65.457  1.00  0.00     0.000 HD 
ENDBRANCH  15  16
ENDBRANCH  12  15
TORSDOF 2
ENDMDL
MODEL      130
REMARK 921   NORMALIZED FREE ENERGY PREDICTED BY IDOCK:   -5.05 KCAL/MOL
REMARK 922        TOTAL FREE ENERGY PREDICTED BY IDOCK:   -5.85 KCAL/MOL
REMARK 923 INTER-LIGAND FREE ENERGY PREDICTED BY IDOCK:   -5.36 KCAL/MOL
REMARK 924 INTRA-LIGAND FREE ENERGY PREDICTED BY IDOCK:   -0.48 KCAL/MOL
REMARK 927      BINDING AFFINITY PREDICTED BY RF-SCORE:    0.00 PKD
ROOT
HETATM    1  N   UNL     1     -11.112   6.321  69.803  1.00  0.00    -0.372 NA 
HETATM    2  H1  UNL     1     -10.353   6.327  69.120  1.00  0.00     0.000 HD 
HETATM    3  C   UNL     1     -11.618   7.488  70.270  1.00  0.00    -0.091 C  
HETATM    4  H2  UNL     1     -11.491   5.433  70.134  1.00  0.00     0.000 HD 
HETATM    5  N   UNL     1     -12.586   7.480  71.139  1.00  0.00    -0.492 N  
HETATM    6  H   UNL     1     -12.956   6.594  71.484  1.00  0.00     0.000 HD 
HETATM    7  C   UNL     1     -13.121   8.691  71.603  1.00  0.00    -0.346 C  
HETATM    8  C   UNL     1     -12.549   9.898  71.001  1.00  0.00    -0.336 A  
HETATM    9  O   UNL     1     -14.006   8.735  72.450  1.00  0.00    -0.435 OA 
HETATM   10  C   UNL     1     -11.525   9.787  70.095  1.00  0.00    -0.216 A  
HETATM   11  N   UNL     1     -11.025   8.601  69.727  1.00  0.00    -0.181 NA 
HETATM   12  N   UNL     1     -11.192  11.046  69.710  1.00  0.00    -0.271 NA 
HETATM   13  N   UNL     1     -12.865  11.228  71.185  1.00  0.00    -0.374 NA 
HETATM   14  C   UNL     1     -12.054  11.885  70.377  1.00  0.00    -0.333 A  
ENDROOT
BRANCH  12  15
HETATM   15  C   UNL     1     -10.172  11.468  68.773  1.00  0.00    -0.192 C  
BRANCH  15  16
HETATM   16  C   UNL     1      -9.942  12.982  68.725  1.00  0.00    -0.022 C  
HETATM   17  C   UNL     1     -10.280  13.707  67.400  1.00  0.00    -0.241 C  
HETATM   18  C   UNL     1     -11.765  13.620  67.015  1.00  0.00    -0.384 C  
HETATM   19  C   UNL     1      -9.859  15.181  67.526  1.00  0.00    -0.220 C  
HETATM   20  O   UNL     1     -12.153  12.275  66.756  1.00  0.00    -0.593 OA 
HETATM   21  O   UNL     1     -10.119  15.889  66.322  1.00  0.00    -0.266 OA 
HETATM   22  H   UNL     1     -13.071  12.221  66.518  1.00  0.00     0.000 HD 
HETATM   23  H   UNL     1      -9.858  16.799  66.400  1.00  0.00     0.000 HD 
ENDBRANCH  15  16
ENDBRANCH  12  15
TORSDOF 2
ENDMDL
MODEL      131
REMARK 921   NORMALIZED FREE ENERGY PREDICTED BY IDOCK:   -5.05 KCAL/MOL
REMARK 922        TOTAL FREE ENERGY PREDICTED BY IDOCK:   -5.84 KCAL/MOL
REMARK 923 INTER-LIGAND FREE ENERGY PREDICTED BY IDOCK:   -5.50 KCAL/MOL
REMARK 924 INTRA-LIGAND FREE ENERGY PREDICTED BY IDOCK:   -0.34 KCAL/MOL
REMARK 927      BINDING AFFINITY PREDICTED BY RF-SCORE:    0.00 PKD
ROOT
HETATM    1  N   UNL     1      -7.033   6.869  64.162  1.00  0.00    -0.050 NA 
HETATM    2  H1  UNL     1      -6.622   7.575  63.552  1.00  0.00     0.000 HD 
HETATM    3  C   UNL     1      -7.949   7.225  65.096  1.00  0.00    -0.128 C  
HETATM    4  H2  UNL     1      -6.755   5.892  64.070  1.00  0.00     0.000 HD 
HETATM    5  N   UNL     1      -8.474   6.325  65.875  1.00  0.00    -0.141 N  
HETATM    6  H   UNL     1      -8.185   5.349  65.795  1.00  0.00     0.000 HD 
HETATM    7  C   UNL     1      -9.437   6.695  66.825  1.00  0.00    -0.160 C  
HETATM    8  C   UNL     1      -9.812   8.111  66.815  1.00  0.00    -0.259 A  
HETATM    9  O   UNL     1      -9.930   5.890  67.606  1.00  0.00    -0.121 OA 
HETATM   10  C   UNL     1      -9.187   8.974  65.951  1.00  0.00    -0.230 A  
HETATM   11  N   UNL     1      -8.239   8.568  65.098  1.00  0.00    -0.144 NA 
HETATM   12  N   UNL     1      -9.721  10.206  66.159  1.00  0.00    -0.204 NA 
HETATM   13  N   UNL     1     -10.743   8.798  67.566  1.00  0.00    -0.215 NA 
HETATM   14  C   UNL     1     -10.682  10.041  67.128  1.00  0.00    -0.212 A  
ENDROOT
BRANCH  12  15
HETATM   15  C   UNL     1      -9.401  11.456  65.502  1.00  0.00    -0.208 C  
BRANCH  15  16
HETATM   16  C   UNL     1     -10.427  12.571  65.727  1.00  0.00    -0.296 C  
HETATM   17  C   UNL     1     -11.079  13.196  64.470  1.00  0.00    -0.380 C  
HETATM   18  C   UNL     1     -11.903  12.195  63.645  1.00  0.00    -0.516 C  
HETATM   19  C   UNL     1     -11.971  14.368  64.911  1.00  0.00    -0.426 C  
HETATM   20  O   UNL     1     -11.079  11.167  63.106  1.00  0.00    -0.811 OA 
HETATM   21  O   UNL     1     -12.571  15.001  63.789  1.00  0.00    -0.997 OA 
HETATM   22  H   UNL     1     -11.589  10.549  62.596  1.00  0.00     0.000 HD 
HETATM   23  H   UNL     1     -13.122  15.726  64.061  1.00  0.00     0.000 HD 
ENDBRANCH  15  16
ENDBRANCH  12  15
TORSDOF 2
ENDMDL
MODEL      132
REMARK 921   NORMALIZED FREE ENERGY PREDICTED BY IDOCK:   -5.03 KCAL/MOL
REMARK 922        TOTAL FREE ENERGY PREDICTED BY IDOCK:   -5.83 KCAL/MOL
REMARK 923 INTER-LIGAND FREE ENERGY PREDICTED BY IDOCK:   -5.59 KCAL/MOL
REMARK 924 INTRA-LIGAND FREE ENERGY PREDICTED BY IDOCK:   -0.23 KCAL/MOL
REMARK 927      BINDING AFFINITY PREDICTED BY RF-SCORE:    0.00 PKD
ROOT
HETATM    1  N   UNL     1     -13.523   6.986  72.005  1.00  0.00    -0.556 NA 
HETATM    2  H1  UNL     1     -14.111   7.044  71.174  1.00  0.00     0.000 HD 
HETATM    3  C   UNL     1     -12.238   7.413  71.963  1.00  0.00    -0.280 C  
HETATM    4  H2  UNL     1     -13.904   6.605  72.872  1.00  0.00     0.000 HD 
HETATM    5  N   UNL     1     -11.488   7.339  73.023  1.00  0.00    -0.575 N  
HETATM    6  H   UNL     1     -11.862   6.944  73.887  1.00  0.00     0.000 HD 
HETATM    7  C   UNL     1     -10.165   7.802  72.980  1.00  0.00    -0.330 C  
HETATM    8  C   UNL     1      -9.752   8.396  71.706  1.00  0.00    -0.237 A  
HETATM    9  O   UNL     1      -9.409   7.718  73.942  1.00  0.00    -0.277 OA 
HETATM   10  C   UNL     1     -10.627   8.416  70.650  1.00  0.00    -0.208 A  
HETATM   11  N   UNL     1     -11.865   7.914  70.740  1.00  0.00    -0.231 NA 
HETATM   12  N   UNL     1      -9.987   9.012  69.610  1.00  0.00    -0.185 NA 
HETATM   13  N   UNL     1      -8.561   8.983  71.334  1.00  0.00    -0.327 NA 
HETATM   14  C   UNL     1      -8.746   9.365  70.084  1.00  0.00    -0.221 A  
ENDROOT
BRANCH  12  15
HETATM   15  C   UNL     1     -10.477   9.272  68.272  1.00  0.00    -0.215 C  
BRANCH  15  16
HETATM   16  C   UNL     1     -10.687  10.755  67.952  1.00  0.00    -0.282 C  
HETATM   17  C   UNL     1      -9.904  11.335  66.749  1.00  0.00    -0.227 C  
HETATM   18  C   UNL     1     -10.273  10.686  65.406  1.00  0.00    -0.273 C  
HETATM   19  C   UNL     1     -10.158  12.851  66.683  1.00  0.00    -0.245 C  
HETATM   20  O   UNL     1      -9.923   9.307  65.385  1.00  0.00    -0.438 OA 
HETATM   21  O   UNL     1      -9.436  13.442  65.612  1.00  0.00    -0.485 OA 
HETATM   22  H   UNL     1     -10.151   8.905  64.555  1.00  0.00     0.000 HD 
HETATM   23  H   UNL     1      -9.592  14.378  65.572  1.00  0.00     0.000 HD 
ENDBRANCH  15  16
ENDBRANCH  12  15
TORSDOF 2
ENDMDL
MODEL      133
REMARK 921   NORMALIZED FREE ENERGY PREDICTED BY IDOCK:   -4.96 KCAL/MOL
REMARK 922        TOTAL FREE ENERGY PREDICTED BY IDOCK:   -5.75 KCAL/MOL
REMARK 923 INTER-LIGAND FREE ENERGY PREDICTED BY IDOCK:   -5.27 KCAL/MOL
REMARK 924 INTRA-LIGAND FREE ENERGY PREDICTED BY IDOCK:   -0.48 KCAL/MOL
REMARK 927      BINDING AFFINITY PREDICTED BY RF-SCORE:    0.00 PKD
ROOT
HETATM    1  N   UNL     1     -11.334   9.746  71.446  1.00  0.00    -0.367 NA 
HETATM    2  H1  UNL     1     -11.235  10.758  71.534  1.00  0.00     0.000 HD 
HETATM    3  C   UNL     1     -11.069   9.135  70.266  1.00  0.00    -0.239 C  
HETATM    4  H2  UNL     1     -11.633   9.193  72.250  1.00  0.00     0.000 HD 
HETATM    5  N   UNL     1     -11.196   7.845  70.154  1.00  0.00    -0.408 N  
HETATM    6  H   UNL     1     -11.510   7.292  70.952  1.00  0.00     0.000 HD 
HETATM    7  C   UNL     1     -10.899   7.214  68.937  1.00  0.00    -0.129 C  
HETATM    8  C   UNL     1     -10.408   8.099  67.878  1.00  0.00    -0.220 A  
HETATM    9  O   UNL     1     -11.041   6.008  68.772  1.00  0.00    -0.336 OA 
HETATM   10  C   UNL     1     -10.320   9.449  68.107  1.00  0.00    -0.211 A  
HETATM   11  N   UNL     1     -10.662   9.998  69.278  1.00  0.00    -0.213 NA 
HETATM   12  N   UNL     1      -9.845  10.018  66.968  1.00  0.00    -0.181 NA 
HETATM   13  N   UNL     1      -9.985   7.816  66.596  1.00  0.00    -0.243 NA 
HETATM   14  C   UNL     1      -9.629   8.982  66.090  1.00  0.00    -0.272 A  
ENDROOT
BRANCH  12  15
HETATM   15  C   UNL     1      -9.576  11.415  66.696  1.00  0.00    -0.191 C  
BRANCH  15  16
HETATM   16  C   UNL     1      -9.999  11.881  65.299  1.00  0.00    -0.280 C  
HETATM   17  C   UNL     1     -11.502  11.779  64.945  1.00  0.00    -0.269 C  
HETATM   18  C   UNL     1     -12.403  12.651  65.834  1.00  0.00    -0.176 C  
HETATM   19  C   UNL     1     -11.688  12.173  63.470  1.00  0.00    -0.490 C  
HETATM   20  O   UNL     1     -12.360  12.222  67.191  1.00  0.00    -0.379 OA 
HETATM   21  O   UNL     1     -13.050  12.066  63.082  1.00  0.00    -0.667 OA 
HETATM   22  H   UNL     1     -12.916  12.761  67.741  1.00  0.00     0.000 HD 
HETATM   23  H   UNL     1     -13.164  12.310  62.170  1.00  0.00     0.000 HD 
ENDBRANCH  15  16
ENDBRANCH  12  15
TORSDOF 2
ENDMDL
MODEL      134
REMARK 921   NORMALIZED FREE ENERGY PREDICTED BY IDOCK:   -4.94 KCAL/MOL
REMARK 922        TOTAL FREE ENERGY PREDICTED BY IDOCK:   -5.73 KCAL/MOL
REMARK 923 INTER-LIGAND FREE ENERGY PREDICTED BY IDOCK:   -5.49 KCAL/MOL
REMARK 924 INTRA-LIGAND FREE ENERGY PREDICTED BY IDOCK:   -0.24 KCAL/MOL
REMARK 927      BINDING AFFINITY PREDICTED BY RF-SCORE:    0.00 PKD
ROOT
HETATM    1  N   UNL     1      -7.867   8.668  72.257  1.00  0.00    -0.338 NA 
HETATM    2  H1  UNL     1      -7.525   9.592  71.990  1.00  0.00     0.000 HD 
HETATM    3  C   UNL     1      -9.193   8.396  72.221  1.00  0.00    -0.259 C  
HETATM    4  H2  UNL     1      -7.207   7.948  72.551  1.00  0.00     0.000 HD 
HETATM    5  N   UNL     1      -9.630   7.218  72.561  1.00  0.00    -0.149 N  
HETATM    6  H   UNL     1      -8.973   6.501  72.871  1.00  0.00     0.000 HD 
HETATM    7  C   UNL     1     -11.002   6.934  72.500  1.00  0.00    -0.260 C  
HETATM    8  C   UNL     1     -11.842   8.021  71.992  1.00  0.00    -0.326 A  
HETATM    9  O   UNL     1     -11.463   5.853  72.847  1.00  0.00    -0.256 OA 
HETATM   10  C   UNL     1     -11.274   9.226  71.668  1.00  0.00    -0.379 A  
HETATM   11  N   UNL     1      -9.960   9.451  71.791  1.00  0.00    -0.107 NA 
HETATM   12  N   UNL     1     -12.273  10.037  71.234  1.00  0.00    -0.371 NA 
HETATM   13  N   UNL     1     -13.201   8.070  71.760  1.00  0.00    -0.341 NA 
HETATM   14  C   UNL     1     -13.420   9.280  71.280  1.00  0.00    -0.249 A  
ENDROOT
BRANCH  12  15
HETATM   15  C   UNL     1     -12.195  11.410  70.778  1.00  0.00    -0.376 C  
BRANCH  15  16
HETATM   16  C   UNL     1     -11.918  11.565  69.280  1.00  0.00    -0.397 C  
HETATM   17  C   UNL     1     -12.130  12.969  68.664  1.00  0.00    -0.189 C  
HETATM   18  C   UNL     1     -11.201  14.043  69.250  1.00  0.00    -0.261 C  
HETATM   19  C   UNL     1     -11.923  12.874  67.143  1.00  0.00    -0.310 C  
HETATM   20  O   UNL     1     -11.463  14.254  70.633  1.00  0.00    -0.492 OA 
HETATM   21  O   UNL     1     -12.137  14.133  66.520  1.00  0.00    -0.428 OA 
HETATM   22  H   UNL     1     -10.889  14.917  70.996  1.00  0.00     0.000 HD 
HETATM   23  H   UNL     1     -12.010  14.074  65.580  1.00  0.00     0.000 HD 
ENDBRANCH  15  16
ENDBRANCH  12  15
TORSDOF 2
ENDMDL
MODEL      135
REMARK 921   NORMALIZED FREE ENERGY PREDICTED BY IDOCK:   -4.94 KCAL/MOL
REMARK 922        TOTAL FREE ENERGY PREDICTED BY IDOCK:   -5.72 KCAL/MOL
REMARK 923 INTER-LIGAND FREE ENERGY PREDICTED BY IDOCK:   -5.43 KCAL/MOL
REMARK 924 INTRA-LIGAND FREE ENERGY PREDICTED BY IDOCK:   -0.29 KCAL/MOL
REMARK 927      BINDING AFFINITY PREDICTED BY RF-SCORE:    0.00 PKD
ROOT
HETATM    1  N   UNL     1     -11.934  14.879  69.589  1.00  0.00    -0.311 NA 
HETATM    2  H1  UNL     1     -12.717  14.280  69.326  1.00  0.00     0.000 HD 
HETATM    3  C   UNL     1     -10.676  14.572  69.189  1.00  0.00    -0.252 C  
HETATM    4  H2  UNL     1     -12.099  15.712  70.155  1.00  0.00     0.000 HD 
HETATM    5  N   UNL     1      -9.678  15.336  69.525  1.00  0.00    -0.339 N  
HETATM    6  H   UNL     1      -9.838  16.161  70.104  1.00  0.00     0.000 HD 
HETATM    7  C   UNL     1      -8.381  15.027  69.090  1.00  0.00    -0.187 C  
HETATM    8  C   UNL     1      -8.277  13.851  68.222  1.00  0.00    -0.158 A  
HETATM    9  O   UNL     1      -7.405  15.694  69.413  1.00  0.00    -0.194 OA 
HETATM   10  C   UNL     1      -9.399  13.114  67.938  1.00  0.00    -0.215 A  
HETATM   11  N   UNL     1     -10.604  13.435  68.422  1.00  0.00    -0.243 NA 
HETATM   12  N   UNL     1      -9.014  12.095  67.127  1.00  0.00    -0.182 NA 
HETATM   13  N   UNL     1      -7.184  13.298  67.588  1.00  0.00    -0.150 NA 
HETATM   14  C   UNL     1      -7.665  12.267  66.919  1.00  0.00    -0.015 A  
ENDROOT
BRANCH  12  15
HETATM   15  C   UNL     1      -9.821  11.039  66.550  1.00  0.00    -0.203 C  
BRANCH  15  16
HETATM   16  C   UNL     1     -11.133  11.517  65.921  1.00  0.00    -0.274 C  
HETATM   17  C   UNL     1     -11.030  12.515  64.743  1.00  0.00    -0.339 C  
HETATM   18  C   UNL     1     -10.305  11.942  63.515  1.00  0.00    -0.458 C  
HETATM   19  C   UNL     1     -12.449  12.959  64.349  1.00  0.00    -0.375 C  
HETATM   20  O   UNL     1      -8.944  11.648  63.811  1.00  0.00    -0.420 OA 
HETATM   21  O   UNL     1     -12.411  13.903  63.289  1.00  0.00    -1.113 OA 
HETATM   22  H   UNL     1      -8.495  11.293  63.052  1.00  0.00     0.000 HD 
HETATM   23  H   UNL     1     -13.288  14.178  63.046  1.00  0.00     0.000 HD 
ENDBRANCH  15  16
ENDBRANCH  12  15
TORSDOF 2
ENDMDL
MODEL      136
REMARK 921   NORMALIZED FREE ENERGY PREDICTED BY IDOCK:   -4.93 KCAL/MOL
REMARK 922        TOTAL FREE ENERGY PREDICTED BY IDOCK:   -5.71 KCAL/MOL
REMARK 923 INTER-LIGAND FREE ENERGY PREDICTED BY IDOCK:   -5.55 KCAL/MOL
REMARK 924 INTRA-LIGAND FREE ENERGY PREDICTED BY IDOCK:   -0.16 KCAL/MOL
REMARK 927      BINDING AFFINITY PREDICTED BY RF-SCORE:    0.00 PKD
ROOT
HETATM    1  N   UNL     1      -9.255  10.609  62.584  1.00  0.00    -0.281 NA 
HETATM    2  H1  UNL     1      -8.763   9.718  62.662  1.00  0.00     0.000 HD 
HETATM    3  C   UNL     1      -9.970  11.087  63.632  1.00  0.00    -0.361 C  
HETATM    4  H2  UNL     1      -9.209  11.141  61.715  1.00  0.00     0.000 HD 
HETATM    5  N   UNL     1     -10.598  12.222  63.532  1.00  0.00    -0.457 N  
HETATM    6  H   UNL     1     -10.567  12.748  62.658  1.00  0.00     0.000 HD 
HETATM    7  C   UNL     1     -11.319  12.723  64.626  1.00  0.00    -0.321 C  
HETATM    8  C   UNL     1     -11.251  11.910  65.843  1.00  0.00    -0.322 A  
HETATM    9  O   UNL     1     -11.958  13.767  64.568  1.00  0.00    -0.389 OA 
HETATM   10  C   UNL     1     -10.562  10.724  65.832  1.00  0.00    -0.147 A  
HETATM   11  N   UNL     1      -9.931  10.276  64.740  1.00  0.00    -0.341 NA 
HETATM   12  N   UNL     1     -10.668  10.187  67.075  1.00  0.00    -0.227 NA 
HETATM   13  N   UNL     1     -11.790  12.123  67.095  1.00  0.00    -0.591 NA 
HETATM   14  C   UNL     1     -11.398  11.088  67.814  1.00  0.00    -0.292 A  
ENDROOT
BRANCH  12  15
HETATM   15  C   UNL     1     -10.120   8.943  67.576  1.00  0.00    -0.227 C  
BRANCH  15  16
HETATM   16  C   UNL     1     -10.623   7.691  66.852  1.00  0.00    -0.359 C  
HETATM   17  C   UNL     1     -10.100   6.325  67.356  1.00  0.00    -0.191 C  
HETATM   18  C   UNL     1     -10.502   6.011  68.805  1.00  0.00    -0.248 C  
HETATM   19  C   UNL     1     -10.623   5.223  66.419  1.00  0.00    -0.276 C  
HETATM   20  O   UNL     1      -9.919   6.937  69.716  1.00  0.00    -0.176 OA 
HETATM   21  O   UNL     1     -10.145   3.946  66.819  1.00  0.00    -0.344 OA 
HETATM   22  H   UNL     1     -10.167   6.743  70.611  1.00  0.00     0.000 HD 
HETATM   23  H   UNL     1     -10.468   3.265  66.240  1.00  0.00     0.000 HD 
ENDBRANCH  15  16
ENDBRANCH  12  15
TORSDOF 2
ENDMDL
MODEL      137
REMARK 921   NORMALIZED FREE ENERGY PREDICTED BY IDOCK:   -4.93 KCAL/MOL
REMARK 922        TOTAL FREE ENERGY PREDICTED BY IDOCK:   -5.71 KCAL/MOL
REMARK 923 INTER-LIGAND FREE ENERGY PREDICTED BY IDOCK:   -5.26 KCAL/MOL
REMARK 924 INTRA-LIGAND FREE ENERGY PREDICTED BY IDOCK:   -0.45 KCAL/MOL
REMARK 927      BINDING AFFINITY PREDICTED BY RF-SCORE:    0.00 PKD
ROOT
HETATM    1  N   UNL     1     -11.395  16.558  70.329  1.00  0.00    -0.463 NA 
HETATM    2  H1  UNL     1     -10.947  16.708  69.425  1.00  0.00     0.000 HD 
HETATM    3  C   UNL     1     -11.848  15.328  70.672  1.00  0.00    -0.335 C  
HETATM    4  H2  UNL     1     -11.501  17.339  70.979  1.00  0.00     0.000 HD 
HETATM    5  N   UNL     1     -12.419  15.138  71.825  1.00  0.00    -0.321 N  
HETATM    6  H   UNL     1     -12.541  15.920  72.469  1.00  0.00     0.000 HD 
HETATM    7  C   UNL     1     -12.866  13.858  72.183  1.00  0.00    -0.298 C  
HETATM    8  C   UNL     1     -12.592  12.803  71.204  1.00  0.00    -0.271 A  
HETATM    9  O   UNL     1     -13.445  13.638  73.241  1.00  0.00    -0.359 OA 
HETATM   10  C   UNL     1     -11.987  13.121  70.014  1.00  0.00    -0.321 A  
HETATM   11  N   UNL     1     -11.624  14.372  69.711  1.00  0.00    -0.284 NA 
HETATM   12  N   UNL     1     -11.861  11.967  69.308  1.00  0.00    -0.319 NA 
HETATM   13  N   UNL     1     -12.845  11.448  71.250  1.00  0.00    -0.407 NA 
HETATM   14  C   UNL     1     -12.370  10.975  70.113  1.00  0.00    -0.311 A  
ENDROOT
BRANCH  12  15
HETATM   15  C   UNL     1     -11.290  11.766  67.992  1.00  0.00    -0.288 C  
BRANCH  15  16
HETATM   16  C   UNL     1     -11.076  10.298  67.612  1.00  0.00    -0.319 C  
HETATM   17  C   UNL     1      -9.621   9.839  67.355  1.00  0.00    -0.187 C  
HETATM   18  C   UNL     1      -8.712   9.961  68.588  1.00  0.00    -0.124 C  
HETATM   19  C   UNL     1      -9.645   8.381  66.867  1.00  0.00    -0.202 C  
HETATM   20  O   UNL     1      -8.558  11.320  68.984  1.00  0.00    -0.335 OA 
HETATM   21  O   UNL     1      -8.332   7.917  66.585  1.00  0.00    -0.118 OA 
HETATM   22  H   UNL     1      -7.997  11.395  69.746  1.00  0.00     0.000 HD 
HETATM   23  H   UNL     1      -8.347   7.016  66.283  1.00  0.00     0.000 HD 
ENDBRANCH  15  16
ENDBRANCH  12  15
TORSDOF 2
ENDMDL
MODEL      138
REMARK 921   NORMALIZED FREE ENERGY PREDICTED BY IDOCK:   -4.92 KCAL/MOL
REMARK 922        TOTAL FREE ENERGY PREDICTED BY IDOCK:   -5.69 KCAL/MOL
REMARK 923 INTER-LIGAND FREE ENERGY PREDICTED BY IDOCK:   -5.36 KCAL/MOL
REMARK 924 INTRA-LIGAND FREE ENERGY PREDICTED BY IDOCK:   -0.33 KCAL/MOL
REMARK 927      BINDING AFFINITY PREDICTED BY RF-SCORE:    0.00 PKD
ROOT
HETATM    1  N   UNL     1     -12.610  15.739  70.771  1.00  0.00    -0.463 NA 
HETATM    2  H1  UNL     1     -12.192  16.363  71.461  1.00  0.00     0.000 HD 
HETATM    3  C   UNL     1     -11.960  15.468  69.613  1.00  0.00    -0.359 C  
HETATM    4  H2  UNL     1     -13.521  15.317  70.953  1.00  0.00     0.000 HD 
HETATM    5  N   UNL     1     -12.493  14.673  68.733  1.00  0.00    -0.567 N  
HETATM    6  H   UNL     1     -13.412  14.262  68.906  1.00  0.00     0.000 HD 
HETATM    7  C   UNL     1     -11.807  14.378  67.546  1.00  0.00    -0.386 C  
HETATM    8  C   UNL     1     -10.476  14.981  67.429  1.00  0.00    -0.257 A  
HETATM    9  O   UNL     1     -12.285  13.666  66.671  1.00  0.00    -0.415 OA 
HETATM   10  C   UNL     1     -10.016  15.811  68.419  1.00  0.00    -0.217 A  
HETATM   11  N   UNL     1     -10.740  16.090  69.509  1.00  0.00    -0.273 NA 
HETATM   12  N   UNL     1      -8.775  16.224  68.051  1.00  0.00    -0.176 NA 
HETATM   13  N   UNL     1      -9.525  14.867  66.437  1.00  0.00    -0.283 NA 
HETATM   14  C   UNL     1      -8.509  15.600  66.855  1.00  0.00    -0.251 A  
ENDROOT
BRANCH  12  15
HETATM   15  C   UNL     1      -7.869  17.110  68.751  1.00  0.00    -0.258 C  
BRANCH  15  16
HETATM   16  C   UNL     1      -7.896  18.561  68.261  1.00  0.00    -0.323 C  
HETATM   17  C   UNL     1      -6.537  19.217  67.919  1.00  0.00    -0.254 C  
HETATM   18  C   UNL     1      -5.796  18.527  66.763  1.00  0.00    -0.150 C  
HETATM   19  C   UNL     1      -6.778  20.696  67.575  1.00  0.00    -0.322 C  
HETATM   20  O   UNL     1      -5.435  17.193  67.104  1.00  0.00    -0.127 OA 
HETATM   21  O   UNL     1      -5.555  21.357  67.282  1.00  0.00    -0.283 OA 
HETATM   22  H   UNL     1      -4.977  16.766  66.390  1.00  0.00     0.000 HD 
HETATM   23  H   UNL     1      -5.705  22.271  67.070  1.00  0.00     0.000 HD 
ENDBRANCH  15  16
ENDBRANCH  12  15
TORSDOF 2
ENDMDL
MODEL      139
REMARK 921   NORMALIZED FREE ENERGY PREDICTED BY IDOCK:   -4.87 KCAL/MOL
REMARK 922        TOTAL FREE ENERGY PREDICTED BY IDOCK:   -5.65 KCAL/MOL
REMARK 923 INTER-LIGAND FREE ENERGY PREDICTED BY IDOCK:   -4.98 KCAL/MOL
REMARK 924 INTRA-LIGAND FREE ENERGY PREDICTED BY IDOCK:   -0.67 KCAL/MOL
REMARK 927      BINDING AFFINITY PREDICTED BY RF-SCORE:    0.00 PKD
ROOT
HETATM    1  N   UNL     1      -9.778  18.058  67.869  1.00  0.00    -0.287 NA 
HETATM    2  H1  UNL     1      -9.412  17.777  68.779  1.00  0.00     0.000 HD 
HETATM    3  C   UNL     1     -10.188  17.121  66.980  1.00  0.00    -0.313 C  
HETATM    4  H2  UNL     1      -9.837  19.048  67.628  1.00  0.00     0.000 HD 
HETATM    5  N   UNL     1     -10.656  17.478  65.820  1.00  0.00    -0.273 N  
HETATM    6  H   UNL     1     -10.700  18.467  65.570  1.00  0.00     0.000 HD 
HETATM    7  C   UNL     1     -11.100  16.505  64.913  1.00  0.00    -0.190 C  
HETATM    8  C   UNL     1     -11.038  15.124  65.398  1.00  0.00    -0.367 A  
HETATM    9  O   UNL     1     -11.511  16.791  63.794  1.00  0.00    -0.902 OA 
HETATM   10  C   UNL     1     -10.519  14.863  66.641  1.00  0.00    -0.292 A  
HETATM   11  N   UNL     1     -10.068  15.833  67.444  1.00  0.00    -0.242 NA 
HETATM   12  N   UNL     1     -10.580  13.518  66.825  1.00  0.00    -0.271 NA 
HETATM   13  N   UNL     1     -11.429  13.945  64.799  1.00  0.00    -0.347 NA 
HETATM   14  C   UNL     1     -11.168  13.008  65.691  1.00  0.00    -0.283 A  
ENDROOT
BRANCH  12  15
HETATM   15  C   UNL     1     -10.156  12.739  67.971  1.00  0.00    -0.230 C  
BRANCH  15  16
HETATM   16  C   UNL     1      -8.942  11.842  67.713  1.00  0.00    -0.173 C  
HETATM   17  C   UNL     1      -7.573  12.540  67.534  1.00  0.00    -0.156 C  
HETATM   18  C   UNL     1      -7.111  13.312  68.780  1.00  0.00    -0.100 C  
HETATM   19  C   UNL     1      -6.525  11.477  67.162  1.00  0.00    -0.123 C  
HETATM   20  O   UNL     1      -7.990  14.393  69.073  1.00  0.00    -0.215 OA 
HETATM   21  O   UNL     1      -5.250  12.070  66.955  1.00  0.00    -0.215 OA 
HETATM   22  H   UNL     1      -7.705  14.871  69.842  1.00  0.00     0.000 HD 
HETATM   23  H   UNL     1      -4.603  11.413  66.724  1.00  0.00     0.000 HD 
ENDBRANCH  15  16
ENDBRANCH  12  15
TORSDOF 2
ENDMDL
MODEL      140
REMARK 921   NORMALIZED FREE ENERGY PREDICTED BY IDOCK:   -4.87 KCAL/MOL
REMARK 922        TOTAL FREE ENERGY PREDICTED BY IDOCK:   -5.65 KCAL/MOL
REMARK 923 INTER-LIGAND FREE ENERGY PREDICTED BY IDOCK:   -5.44 KCAL/MOL
REMARK 924 INTRA-LIGAND FREE ENERGY PREDICTED BY IDOCK:   -0.21 KCAL/MOL
REMARK 927      BINDING AFFINITY PREDICTED BY RF-SCORE:    0.00 PKD
ROOT
HETATM    1  N   UNL     1     -10.252   4.757  69.831  1.00  0.00    -0.235 NA 
HETATM    2  H1  UNL     1     -10.038   4.609  68.844  1.00  0.00     0.000 HD 
HETATM    3  C   UNL     1     -10.495   6.005  70.297  1.00  0.00    -0.242 C  
HETATM    4  H2  UNL     1     -10.284   3.960  70.468  1.00  0.00     0.000 HD 
HETATM    5  N   UNL     1     -10.769   6.193  71.555  1.00  0.00    -0.243 N  
HETATM    6  H   UNL     1     -10.785   5.401  72.197  1.00  0.00     0.000 HD 
HETATM    7  C   UNL     1     -11.041   7.485  72.028  1.00  0.00    -0.247 C  
HETATM    8  C   UNL     1     -11.041   8.537  71.008  1.00  0.00    -0.260 A  
HETATM    9  O   UNL     1     -11.266   7.716  73.211  1.00  0.00    -0.358 OA 
HETATM   10  C   UNL     1     -10.732   8.224  69.709  1.00  0.00    -0.221 A  
HETATM   11  N   UNL     1     -10.435   6.976  69.327  1.00  0.00    -0.204 NA 
HETATM   12  N   UNL     1     -10.804   9.375  68.991  1.00  0.00    -0.181 NA 
HETATM   13  N   UNL     1     -11.310   9.886  71.111  1.00  0.00    -0.376 NA 
HETATM   14  C   UNL     1     -11.187  10.351  69.882  1.00  0.00    -0.306 A  
ENDROOT
BRANCH  12  15
HETATM   15  C   UNL     1     -10.565   9.580  67.578  1.00  0.00    -0.275 C  
BRANCH  15  16
HETATM   16  C   UNL     1     -11.012  10.947  67.051  1.00  0.00    -0.310 C  
HETATM   17  C   UNL     1     -10.195  11.558  65.887  1.00  0.00    -0.286 C  
HETATM   18  C   UNL     1     -10.236  10.717  64.602  1.00  0.00    -0.350 C  
HETATM   19  C   UNL     1     -10.727  12.972  65.602  1.00  0.00    -0.275 C  
HETATM   20  O   UNL     1      -9.624   9.447  64.795  1.00  0.00    -0.446 OA 
HETATM   21  O   UNL     1      -9.989  13.593  64.559  1.00  0.00    -0.622 OA 
HETATM   22  H   UNL     1      -9.649   8.927  64.001  1.00  0.00     0.000 HD 
HETATM   23  H   UNL     1     -10.318  14.468  64.384  1.00  0.00     0.000 HD 
ENDBRANCH  15  16
ENDBRANCH  12  15
TORSDOF 2
ENDMDL
MODEL      141
REMARK 921   NORMALIZED FREE ENERGY PREDICTED BY IDOCK:   -4.86 KCAL/MOL
REMARK 922        TOTAL FREE ENERGY PREDICTED BY IDOCK:   -5.63 KCAL/MOL
REMARK 923 INTER-LIGAND FREE ENERGY PREDICTED BY IDOCK:   -5.38 KCAL/MOL
REMARK 924 INTRA-LIGAND FREE ENERGY PREDICTED BY IDOCK:   -0.25 KCAL/MOL
REMARK 927      BINDING AFFINITY PREDICTED BY RF-SCORE:    0.00 PKD
ROOT
HETATM    1  N   UNL     1      -8.952  10.613  65.455  1.00  0.00    -0.183 NA 
HETATM    2  H1  UNL     1      -8.306  10.959  66.165  1.00  0.00     0.000 HD 
HETATM    3  C   UNL     1      -9.935  11.414  64.979  1.00  0.00    -0.266 C  
HETATM    4  H2  UNL     1      -8.857   9.660  65.102  1.00  0.00     0.000 HD 
HETATM    5  N   UNL     1     -10.759  10.974  64.074  1.00  0.00    -0.479 N  
HETATM    6  H   UNL     1     -10.677  10.017  63.731  1.00  0.00     0.000 HD 
HETATM    7  C   UNL     1     -11.762  11.815  63.570  1.00  0.00    -0.383 C  
HETATM    8  C   UNL     1     -11.753  13.182  64.096  1.00  0.00    -0.418 A  
HETATM    9  O   UNL     1     -12.585  11.433  62.746  1.00  0.00     0.067 OA 
HETATM   10  C   UNL     1     -10.839  13.536  65.055  1.00  0.00    -0.340 A  
HETATM   11  N   UNL     1      -9.934  12.673  65.531  1.00  0.00    -0.253 NA 
HETATM   12  N   UNL     1     -11.060  14.842  65.358  1.00  0.00    -0.340 NA 
HETATM   13  N   UNL     1     -12.551  14.266  63.791  1.00  0.00    -0.782 NA 
HETATM   14  C   UNL     1     -12.090  15.248  64.542  1.00  0.00    -0.245 A  
ENDROOT
BRANCH  12  15
HETATM   15  C   UNL     1     -10.365  15.683  66.310  1.00  0.00    -0.306 C  
BRANCH  15  16
HETATM   16  C   UNL     1      -8.995  16.178  65.836  1.00  0.00    -0.241 C  
HETATM   17  C   UNL     1      -8.317  17.289  66.673  1.00  0.00    -0.291 C  
HETATM   18  C   UNL     1      -7.996  16.862  68.114  1.00  0.00    -0.195 C  
HETATM   19  C   UNL     1      -7.026  17.723  65.959  1.00  0.00    -0.300 C  
HETATM   20  O   UNL     1      -9.185  16.585  68.847  1.00  0.00    -0.247 OA 
HETATM   21  O   UNL     1      -6.377  18.767  66.670  1.00  0.00    -0.182 OA 
HETATM   22  H   UNL     1      -8.987  16.321  69.738  1.00  0.00     0.000 HD 
HETATM   23  H   UNL     1      -5.579  19.036  66.228  1.00  0.00     0.000 HD 
ENDBRANCH  15  16
ENDBRANCH  12  15
TORSDOF 2
ENDMDL
MODEL      142
REMARK 921   NORMALIZED FREE ENERGY PREDICTED BY IDOCK:   -4.84 KCAL/MOL
REMARK 922        TOTAL FREE ENERGY PREDICTED BY IDOCK:   -5.62 KCAL/MOL
REMARK 923 INTER-LIGAND FREE ENERGY PREDICTED BY IDOCK:   -5.27 KCAL/MOL
REMARK 924 INTRA-LIGAND FREE ENERGY PREDICTED BY IDOCK:   -0.35 KCAL/MOL
REMARK 927      BINDING AFFINITY PREDICTED BY RF-SCORE:    0.00 PKD
ROOT
HETATM    1  N   UNL     1     -10.077  20.709  66.068  1.00  0.00    -0.428 NA 
HETATM    2  H1  UNL     1     -11.047  20.398  66.123  1.00  0.00     0.000 HD 
HETATM    3  C   UNL     1      -9.104  20.027  66.721  1.00  0.00    -0.363 C  
HETATM    4  H2  UNL     1      -9.838  21.535  65.519  1.00  0.00     0.000 HD 
HETATM    5  N   UNL     1      -7.867  20.423  66.650  1.00  0.00    -0.466 N  
HETATM    6  H   UNL     1      -7.628  21.258  66.115  1.00  0.00     0.000 HD 
HETATM    7  C   UNL     1      -6.861  19.701  67.310  1.00  0.00    -0.202 C  
HETATM    8  C   UNL     1      -7.312  18.492  68.003  1.00  0.00    -0.248 A  
HETATM    9  O   UNL     1      -5.688  20.057  67.304  1.00  0.00    -0.166 OA 
HETATM   10  C   UNL     1      -8.647  18.173  68.016  1.00  0.00    -0.265 A  
HETATM   11  N   UNL     1      -9.566  18.929  67.405  1.00  0.00    -0.302 NA 
HETATM   12  N   UNL     1      -8.777  17.021  68.724  1.00  0.00    -0.263 NA 
HETATM   13  N   UNL     1      -6.600  17.539  68.700  1.00  0.00    -0.197 NA 
HETATM   14  C   UNL     1      -7.502  16.660  69.093  1.00  0.00    -0.207 A  
ENDROOT
BRANCH  12  15
HETATM   15  C   UNL     1      -9.980  16.274  69.029  1.00  0.00    -0.256 C  
BRANCH  15  16
HETATM   16  C   UNL     1     -10.830  15.916  67.806  1.00  0.00    -0.324 C  
HETATM   17  C   UNL     1     -10.165  15.044  66.714  1.00  0.00    -0.260 C  
HETATM   18  C   UNL     1      -9.754  13.649  67.208  1.00  0.00    -0.243 C  
HETATM   19  C   UNL     1     -11.138  14.912  65.531  1.00  0.00    -0.352 C  
HETATM   20  O   UNL     1      -8.749  13.732  68.213  1.00  0.00    -0.172 OA 
HETATM   21  O   UNL     1     -10.564  14.145  64.482  1.00  0.00    -0.557 OA 
HETATM   22  H   UNL     1      -8.495  12.869  68.519  1.00  0.00     0.000 HD 
HETATM   23  H   UNL     1     -11.166  14.064  63.751  1.00  0.00     0.000 HD 
ENDBRANCH  15  16
ENDBRANCH  12  15
TORSDOF 2
ENDMDL
MODEL      143
REMARK 921   NORMALIZED FREE ENERGY PREDICTED BY IDOCK:   -4.84 KCAL/MOL
REMARK 922        TOTAL FREE ENERGY PREDICTED BY IDOCK:   -5.61 KCAL/MOL
REMARK 923 INTER-LIGAND FREE ENERGY PREDICTED BY IDOCK:   -5.04 KCAL/MOL
REMARK 924 INTRA-LIGAND FREE ENERGY PREDICTED BY IDOCK:   -0.57 KCAL/MOL
REMARK 927      BINDING AFFINITY PREDICTED BY RF-SCORE:    0.00 PKD
ROOT
HETATM    1  N   UNL     1      -9.360   8.449  65.512  1.00  0.00    -0.427 NA 
HETATM    2  H1  UNL     1      -9.453   8.855  64.581  1.00  0.00     0.000 HD 
HETATM    3  C   UNL     1      -9.870   9.092  66.590  1.00  0.00    -0.248 C  
HETATM    4  H2  UNL     1      -8.882   7.555  65.632  1.00  0.00     0.000 HD 
HETATM    5  N   UNL     1      -9.752   8.574  67.778  1.00  0.00    -0.156 N  
HETATM    6  H   UNL     1      -9.261   7.689  67.902  1.00  0.00     0.000 HD 
HETATM    7  C   UNL     1     -10.301   9.233  68.888  1.00  0.00    -0.214 C  
HETATM    8  C   UNL     1     -11.028  10.468  68.584  1.00  0.00    -0.248 A  
HETATM    9  O   UNL     1     -10.182   8.804  70.030  1.00  0.00    -0.188 OA 
HETATM   10  C   UNL     1     -11.084  10.925  67.292  1.00  0.00    -0.283 A  
HETATM   11  N   UNL     1     -10.499  10.273  66.280  1.00  0.00    -0.185 NA 
HETATM   12  N   UNL     1     -11.807  12.074  67.303  1.00  0.00    -0.598 NA 
HETATM   13  N   UNL     1     -11.720  11.329  69.412  1.00  0.00    -0.308 NA 
HETATM   14  C   UNL     1     -12.196  12.262  68.609  1.00  0.00     0.104 A  
ENDROOT
BRANCH  12  15
HETATM   15  C   UNL     1     -12.151  12.941  66.195  1.00  0.00    -0.393 C  
BRANCH  15  16
HETATM   16  C   UNL     1     -11.950  14.434  66.473  1.00  0.00    -0.406 C  
HETATM   17  C   UNL     1     -10.581  14.867  67.051  1.00  0.00    -0.289 C  
HETATM   18  C   UNL     1      -9.399  14.579  66.111  1.00  0.00    -0.209 C  
HETATM   19  C   UNL     1     -10.636  16.371  67.371  1.00  0.00    -0.306 C  
HETATM   20  O   UNL     1      -9.235  13.180  65.902  1.00  0.00    -0.465 OA 
HETATM   21  O   UNL     1      -9.411  16.816  67.935  1.00  0.00    -0.224 OA 
HETATM   22  H   UNL     1      -8.505  13.001  65.322  1.00  0.00     0.000 HD 
HETATM   23  H   UNL     1      -9.445  17.745  68.134  1.00  0.00     0.000 HD 
ENDBRANCH  15  16
ENDBRANCH  12  15
TORSDOF 2
ENDMDL
MODEL      144
REMARK 921   NORMALIZED FREE ENERGY PREDICTED BY IDOCK:   -4.83 KCAL/MOL
REMARK 922        TOTAL FREE ENERGY PREDICTED BY IDOCK:   -5.60 KCAL/MOL
REMARK 923 INTER-LIGAND FREE ENERGY PREDICTED BY IDOCK:   -5.57 KCAL/MOL
REMARK 924 INTRA-LIGAND FREE ENERGY PREDICTED BY IDOCK:   -0.04 KCAL/MOL
REMARK 927      BINDING AFFINITY PREDICTED BY RF-SCORE:    0.00 PKD
ROOT
HETATM    1  N   UNL     1      -8.982  10.989  63.508  1.00  0.00    -0.366 NA 
HETATM    2  H1  UNL     1      -8.229  10.707  64.136  1.00  0.00     0.000 HD 
HETATM    3  C   UNL     1     -10.040  11.689  63.983  1.00  0.00    -0.323 C  
HETATM    4  H2  UNL     1      -8.937  10.743  62.519  1.00  0.00     0.000 HD 
HETATM    5  N   UNL     1     -11.000  12.049  63.182  1.00  0.00    -0.692 N  
HETATM    6  H   UNL     1     -10.965  11.790  62.195  1.00  0.00     0.000 HD 
HETATM    7  C   UNL     1     -12.083  12.792  63.674  1.00  0.00    -0.543 C  
HETATM    8  C   UNL     1     -12.001  13.150  65.092  1.00  0.00    -0.394 A  
HETATM    9  O   UNL     1     -13.028  13.120  62.967  1.00  0.00    -0.217 OA 
HETATM   10  C   UNL     1     -10.942  12.710  65.845  1.00  0.00    -0.278 A  
HETATM   11  N   UNL     1      -9.961  11.963  65.327  1.00  0.00    -0.250 NA 
HETATM   12  N   UNL     1     -11.125  13.180  67.107  1.00  0.00    -0.272 NA 
HETATM   13  N   UNL     1     -12.851  13.900  65.878  1.00  0.00    -0.432 NA 
HETATM   14  C   UNL     1     -12.282  13.922  67.069  1.00  0.00    -0.355 A  
ENDROOT
BRANCH  12  15
HETATM   15  C   UNL     1     -10.289  12.992  68.274  1.00  0.00    -0.252 C  
BRANCH  15  16
HETATM   16  C   UNL     1      -9.036  12.146  68.028  1.00  0.00    -0.189 C  
HETATM   17  C   UNL     1      -9.021  10.716  68.619  1.00  0.00    -0.170 C  
HETATM   18  C   UNL     1     -10.114   9.803  68.043  1.00  0.00    -0.171 C  
HETATM   19  C   UNL     1      -7.637  10.095  68.368  1.00  0.00    -0.087 C  
HETATM   20  O   UNL     1     -11.414  10.278  68.377  1.00  0.00    -0.488 OA 
HETATM   21  O   UNL     1      -7.557   8.788  68.921  1.00  0.00    -0.088 OA 
HETATM   22  H   UNL     1     -12.090   9.714  68.022  1.00  0.00     0.000 HD 
HETATM   23  H   UNL     1      -6.702   8.405  68.766  1.00  0.00     0.000 HD 
ENDBRANCH  15  16
ENDBRANCH  12  15
TORSDOF 2
ENDMDL
MODEL      145
REMARK 921   NORMALIZED FREE ENERGY PREDICTED BY IDOCK:   -4.83 KCAL/MOL
REMARK 922        TOTAL FREE ENERGY PREDICTED BY IDOCK:   -5.60 KCAL/MOL
REMARK 923 INTER-LIGAND FREE ENERGY PREDICTED BY IDOCK:   -5.34 KCAL/MOL
REMARK 924 INTRA-LIGAND FREE ENERGY PREDICTED BY IDOCK:   -0.26 KCAL/MOL
REMARK 927      BINDING AFFINITY PREDICTED BY RF-SCORE:    0.00 PKD
ROOT
HETATM    1  N   UNL     1      -6.526  15.592  67.884  1.00  0.00    -0.135 NA 
HETATM    2  H1  UNL     1      -6.089  14.700  67.654  1.00  0.00     0.000 HD 
HETATM    3  C   UNL     1      -7.877  15.706  67.901  1.00  0.00    -0.133 C  
HETATM    4  H2  UNL     1      -5.945  16.402  68.103  1.00  0.00     0.000 HD 
HETATM    5  N   UNL     1      -8.435  16.843  68.196  1.00  0.00    -0.210 N  
HETATM    6  H   UNL     1      -7.856  17.658  68.400  1.00  0.00     0.000 HD 
HETATM    7  C   UNL     1      -9.833  16.949  68.234  1.00  0.00    -0.266 C  
HETATM    8  C   UNL     1     -10.561  15.705  67.976  1.00  0.00    -0.271 A  
HETATM    9  O   UNL     1     -10.403  18.008  68.468  1.00  0.00    -0.373 OA 
HETATM   10  C   UNL     1      -9.867  14.562  67.669  1.00  0.00    -0.223 A  
HETATM   11  N   UNL     1      -8.531  14.535  67.603  1.00  0.00    -0.170 NA 
HETATM   12  N   UNL     1     -10.782  13.576  67.477  1.00  0.00    -0.257 NA 
HETATM   13  N   UNL     1     -11.915  15.440  67.981  1.00  0.00    -0.120 NA 
HETATM   14  C   UNL     1     -12.010  14.152  67.707  1.00  0.00    -0.354 A  
ENDROOT
BRANCH  12  15
HETATM   15  C   UNL     1     -10.561  12.187  67.132  1.00  0.00    -0.226 C  
BRANCH  15  16
HETATM   16  C   UNL     1      -9.863  11.972  65.786  1.00  0.00    -0.263 C  
HETATM   17  C   UNL     1     -10.710  11.372  64.638  1.00  0.00    -0.378 C  
HETATM   18  C   UNL     1     -11.893  12.260  64.220  1.00  0.00    -0.403 C  
HETATM   19  C   UNL     1      -9.793  11.123  63.430  1.00  0.00    -0.361 C  
HETATM   20  O   UNL     1     -12.834  12.398  65.279  1.00  0.00    -0.557 OA 
HETATM   21  O   UNL     1     -10.515  10.541  62.354  1.00  0.00    -0.638 OA 
HETATM   22  H   UNL     1     -13.565  12.947  65.021  1.00  0.00     0.000 HD 
HETATM   23  H   UNL     1      -9.948  10.386  61.607  1.00  0.00     0.000 HD 
ENDBRANCH  15  16
ENDBRANCH  12  15
TORSDOF 2
ENDMDL
MODEL      146
REMARK 921   NORMALIZED FREE ENERGY PREDICTED BY IDOCK:   -4.80 KCAL/MOL
REMARK 922        TOTAL FREE ENERGY PREDICTED BY IDOCK:   -5.57 KCAL/MOL
REMARK 923 INTER-LIGAND FREE ENERGY PREDICTED BY IDOCK:   -5.35 KCAL/MOL
REMARK 924 INTRA-LIGAND FREE ENERGY PREDICTED BY IDOCK:   -0.22 KCAL/MOL
REMARK 927      BINDING AFFINITY PREDICTED BY RF-SCORE:    0.00 PKD
ROOT
HETATM    1  N   UNL     1      -6.919   9.734  70.006  1.00  0.00    -0.089 NA 
HETATM    2  H1  UNL     1      -6.238  10.374  69.597  1.00  0.00     0.000 HD 
HETATM    3  C   UNL     1      -8.246   9.964  69.855  1.00  0.00    -0.184 C  
HETATM    4  H2  UNL     1      -6.601   8.918  70.529  1.00  0.00     0.000 HD 
HETATM    5  N   UNL     1      -9.116   9.148  70.376  1.00  0.00    -0.212 N  
HETATM    6  H   UNL     1      -8.799   8.340  70.914  1.00  0.00     0.000 HD 
HETATM    7  C   UNL     1     -10.487   9.378  70.199  1.00  0.00    -0.240 C  
HETATM    8  C   UNL     1     -10.824  10.536  69.367  1.00  0.00    -0.249 A  
HETATM    9  O   UNL     1     -11.343   8.660  70.703  1.00  0.00    -0.261 OA 
HETATM   10  C   UNL     1      -9.823  11.332  68.872  1.00  0.00    -0.139 A  
HETATM   11  N   UNL     1      -8.530  11.086  69.115  1.00  0.00    -0.074 NA 
HETATM   12  N   UNL     1     -10.415  12.319  68.150  1.00  0.00    -0.210 NA 
HETATM   13  N   UNL     1     -12.049  11.018  68.954  1.00  0.00    -0.511 NA 
HETATM   14  C   UNL     1     -11.765  12.068  68.205  1.00  0.00    -0.334 A  
ENDROOT
BRANCH  12  15
HETATM   15  C   UNL     1      -9.796  13.412  67.429  1.00  0.00    -0.227 C  
BRANCH  15  16
HETATM   16  C   UNL     1     -10.323  13.610  66.005  1.00  0.00    -0.305 C  
HETATM   17  C   UNL     1     -10.803  15.030  65.620  1.00  0.00    -0.356 C  
HETATM   18  C   UNL     1      -9.690  16.089  65.675  1.00  0.00    -0.238 C  
HETATM   19  C   UNL     1     -11.404  14.979  64.205  1.00  0.00    -0.073 C  
HETATM   20  O   UNL     1      -9.205  16.260  67.002  1.00  0.00    -0.205 OA 
HETATM   21  O   UNL     1     -11.891  16.255  63.813  1.00  0.00    -1.445 OA 
HETATM   22  H   UNL     1      -8.517  16.915  67.036  1.00  0.00     0.000 HD 
HETATM   23  H   UNL     1     -12.263  16.223  62.939  1.00  0.00     0.000 HD 
ENDBRANCH  15  16
ENDBRANCH  12  15
TORSDOF 2
ENDMDL
MODEL      147
REMARK 921   NORMALIZED FREE ENERGY PREDICTED BY IDOCK:   -4.80 KCAL/MOL
REMARK 922        TOTAL FREE ENERGY PREDICTED BY IDOCK:   -5.57 KCAL/MOL
REMARK 923 INTER-LIGAND FREE ENERGY PREDICTED BY IDOCK:   -5.71 KCAL/MOL
REMARK 924 INTRA-LIGAND FREE ENERGY PREDICTED BY IDOCK:    0.14 KCAL/MOL
REMARK 927      BINDING AFFINITY PREDICTED BY RF-SCORE:    0.00 PKD
ROOT
HETATM    1  N   UNL     1     -11.230  15.684  67.541  1.00  0.00    -0.290 NA 
HETATM    2  H1  UNL     1     -10.621  15.196  66.883  1.00  0.00     0.000 HD 
HETATM    3  C   UNL     1     -11.802  15.010  68.568  1.00  0.00    -0.291 C  
HETATM    4  H2  UNL     1     -11.408  16.682  67.425  1.00  0.00     0.000 HD 
HETATM    5  N   UNL     1     -12.578  15.632  69.407  1.00  0.00    -0.526 N  
HETATM    6  H   UNL     1     -12.771  16.626  69.284  1.00  0.00     0.000 HD 
HETATM    7  C   UNL     1     -13.150  14.935  70.481  1.00  0.00    -0.254 C  
HETATM    8  C   UNL     1     -12.764  13.526  70.589  1.00  0.00    -0.205 A  
HETATM    9  O   UNL     1     -13.918  15.468  71.274  1.00  0.00    -0.543 OA 
HETATM   10  C   UNL     1     -11.941  12.972  69.641  1.00  0.00    -0.302 A  
HETATM   11  N   UNL     1     -11.463  13.680  68.611  1.00  0.00    -0.283 NA 
HETATM   12  N   UNL     1     -11.754  11.671  69.983  1.00  0.00    -0.330 NA 
HETATM   13  N   UNL     1     -13.094  12.574  71.531  1.00  0.00    -0.348 NA 
HETATM   14  C   UNL     1     -12.451  11.485  71.154  1.00  0.00    -0.337 A  
ENDROOT
BRANCH  12  15
HETATM   15  C   UNL     1     -10.970  10.658  69.306  1.00  0.00    -0.245 C  
BRANCH  15  16
HETATM   16  C   UNL     1     -10.900  10.823  67.785  1.00  0.00    -0.320 C  
HETATM   17  C   UNL     1     -10.094   9.764  66.995  1.00  0.00    -0.277 C  
HETATM   18  C   UNL     1     -10.668   8.343  67.113  1.00  0.00    -0.152 C  
HETATM   19  C   UNL     1     -10.045  10.185  65.517  1.00  0.00    -0.268 C  
HETATM   20  O   UNL     1     -10.601   7.869  68.454  1.00  0.00    -0.316 OA 
HETATM   21  O   UNL     1      -9.287   9.260  64.749  1.00  0.00    -0.429 OA 
HETATM   22  H   UNL     1     -10.956   6.991  68.527  1.00  0.00     0.000 HD 
HETATM   23  H   UNL     1      -9.257   9.521  63.836  1.00  0.00     0.000 HD 
ENDBRANCH  15  16
ENDBRANCH  12  15
TORSDOF 2
ENDMDL
MODEL      148
REMARK 921   NORMALIZED FREE ENERGY PREDICTED BY IDOCK:   -4.80 KCAL/MOL
REMARK 922        TOTAL FREE ENERGY PREDICTED BY IDOCK:   -5.57 KCAL/MOL
REMARK 923 INTER-LIGAND FREE ENERGY PREDICTED BY IDOCK:   -5.26 KCAL/MOL
REMARK 924 INTRA-LIGAND FREE ENERGY PREDICTED BY IDOCK:   -0.31 KCAL/MOL
REMARK 927      BINDING AFFINITY PREDICTED BY RF-SCORE:    0.00 PKD
ROOT
HETATM    1  N   UNL     1     -11.563  15.873  69.097  1.00  0.00    -0.380 NA 
HETATM    2  H1  UNL     1     -11.000  15.789  69.944  1.00  0.00     0.000 HD 
HETATM    3  C   UNL     1     -11.625  14.847  68.214  1.00  0.00    -0.334 C  
HETATM    4  H2  UNL     1     -12.082  16.732  68.916  1.00  0.00     0.000 HD 
HETATM    5  N   UNL     1     -12.344  14.954  67.135  1.00  0.00    -0.297 N  
HETATM    6  H   UNL     1     -12.851  15.818  66.943  1.00  0.00     0.000 HD 
HETATM    7  C   UNL     1     -12.422  13.881  66.236  1.00  0.00    -0.409 C  
HETATM    8  C   UNL     1     -11.696  12.674  66.638  1.00  0.00    -0.398 A  
HETATM    9  O   UNL     1     -13.054  13.949  65.188  1.00  0.00    -0.773 OA 
HETATM   10  C   UNL     1     -10.964  12.675  67.799  1.00  0.00    -0.234 A  
HETATM   11  N   UNL     1     -10.891  13.749  68.594  1.00  0.00    -0.256 NA 
HETATM   12  N   UNL     1     -10.401  11.445  67.919  1.00  0.00    -0.178 NA 
HETATM   13  N   UNL     1     -11.598  11.440  66.028  1.00  0.00    -0.192 NA 
HETATM   14  C   UNL     1     -10.840  10.722  66.835  1.00  0.00    -0.229 A  
ENDROOT
BRANCH  12  15
HETATM   15  C   UNL     1      -9.538  10.941  68.967  1.00  0.00    -0.156 C  
BRANCH  15  16
HETATM   16  C   UNL     1     -10.262  10.143  70.056  1.00  0.00    -0.271 C  
HETATM   17  C   UNL     1     -10.649   8.682  69.722  1.00  0.00    -0.224 C  
HETATM   18  C   UNL     1      -9.440   7.776  69.445  1.00  0.00    -0.156 C  
HETATM   19  C   UNL     1     -11.470   8.113  70.891  1.00  0.00    -0.271 C  
HETATM   20  O   UNL     1      -8.734   8.197  68.282  1.00  0.00    -0.132 OA 
HETATM   21  O   UNL     1     -11.880   6.779  70.623  1.00  0.00    -0.370 OA 
HETATM   22  H   UNL     1      -7.987   7.637  68.110  1.00  0.00     0.000 HD 
HETATM   23  H   UNL     1     -12.388   6.427  71.346  1.00  0.00     0.000 HD 
ENDBRANCH  15  16
ENDBRANCH  12  15
TORSDOF 2
ENDMDL
MODEL      149
REMARK 921   NORMALIZED FREE ENERGY PREDICTED BY IDOCK:   -4.79 KCAL/MOL
REMARK 922        TOTAL FREE ENERGY PREDICTED BY IDOCK:   -5.56 KCAL/MOL
REMARK 923 INTER-LIGAND FREE ENERGY PREDICTED BY IDOCK:   -5.22 KCAL/MOL
REMARK 924 INTRA-LIGAND FREE ENERGY PREDICTED BY IDOCK:   -0.34 KCAL/MOL
REMARK 927      BINDING AFFINITY PREDICTED BY RF-SCORE:    0.00 PKD
ROOT
HETATM    1  N   UNL     1     -13.723  11.267  72.443  1.00  0.00    -0.310 NA 
HETATM    2  H1  UNL     1     -13.398  10.322  72.237  1.00  0.00     0.000 HD 
HETATM    3  C   UNL     1     -13.275  12.317  71.712  1.00  0.00    -0.326 C  
HETATM    4  H2  UNL     1     -14.387  11.423  73.202  1.00  0.00     0.000 HD 
HETATM    5  N   UNL     1     -13.689  13.522  71.974  1.00  0.00    -0.472 N  
HETATM    6  H   UNL     1     -14.341  13.681  72.742  1.00  0.00     0.000 HD 
HETATM    7  C   UNL     1     -13.239  14.601  71.200  1.00  0.00    -0.372 C  
HETATM    8  C   UNL     1     -12.348  14.248  70.092  1.00  0.00    -0.353 A  
HETATM    9  O   UNL     1     -13.571  15.758  71.433  1.00  0.00    -0.526 OA 
HETATM   10  C   UNL     1     -11.971  12.941  69.913  1.00  0.00    -0.307 A  
HETATM   11  N   UNL     1     -12.399  11.959  70.716  1.00  0.00    -0.366 NA 
HETATM   12  N   UNL     1     -11.151  12.905  68.831  1.00  0.00    -0.254 NA 
HETATM   13  N   UNL     1     -11.767  15.036  69.121  1.00  0.00    -0.305 NA 
HETATM   14  C   UNL     1     -11.082  14.197  68.367  1.00  0.00    -0.252 A  
ENDROOT
BRANCH  12  15
HETATM   15  C   UNL     1     -10.488  11.764  68.233  1.00  0.00    -0.206 C  
BRANCH  15  16
HETATM   16  C   UNL     1      -9.672  12.093  66.979  1.00  0.00    -0.208 C  
HETATM   17  C   UNL     1     -10.328  11.792  65.609  1.00  0.00    -0.293 C  
HETATM   18  C   UNL     1     -11.607  12.603  65.351  1.00  0.00    -0.363 C  
HETATM   19  C   UNL     1      -9.300  12.072  64.500  1.00  0.00     0.266 C  
HETATM   20  O   UNL     1     -12.630  12.264  66.282  1.00  0.00    -0.184 OA 
HETATM   21  O   UNL     1      -9.842  11.782  63.219  1.00  0.00    -0.392 OA 
HETATM   22  H   UNL     1     -13.421  12.765  66.122  1.00  0.00     0.000 HD 
HETATM   23  H   UNL     1      -9.206  11.955  62.534  1.00  0.00     0.000 HD 
ENDBRANCH  15  16
ENDBRANCH  12  15
TORSDOF 2
ENDMDL
MODEL      150
REMARK 921   NORMALIZED FREE ENERGY PREDICTED BY IDOCK:   -4.79 KCAL/MOL
REMARK 922        TOTAL FREE ENERGY PREDICTED BY IDOCK:   -5.55 KCAL/MOL
REMARK 923 INTER-LIGAND FREE ENERGY PREDICTED BY IDOCK:   -5.23 KCAL/MOL
REMARK 924 INTRA-LIGAND FREE ENERGY PREDICTED BY IDOCK:   -0.32 KCAL/MOL
REMARK 927      BINDING AFFINITY PREDICTED BY RF-SCORE:    0.00 PKD
ROOT
HETATM    1  N   UNL     1     -14.088   8.873  73.121  1.00  0.00    -1.225 NA 
HETATM    2  H1  UNL     1     -13.984   8.070  73.741  1.00  0.00     0.000 HD 
HETATM    3  C   UNL     1     -13.049   9.283  72.354  1.00  0.00    -0.406 C  
HETATM    4  H2  UNL     1     -14.979   9.369  73.077  1.00  0.00     0.000 HD 
HETATM    5  N   UNL     1     -13.183  10.307  71.563  1.00  0.00    -0.391 N  
HETATM    6  H   UNL     1     -14.067  10.814  71.530  1.00  0.00     0.000 HD 
HETATM    7  C   UNL     1     -12.111  10.714  70.755  1.00  0.00    -0.374 C  
HETATM    8  C   UNL     1     -10.909   9.882  70.847  1.00  0.00    -0.286 A  
HETATM    9  O   UNL     1     -12.176  11.695  70.024  1.00  0.00    -0.296 OA 
HETATM   10  C   UNL     1     -10.877   8.826  71.723  1.00  0.00    -0.345 A  
HETATM   11  N   UNL     1     -11.920   8.515  72.503  1.00  0.00    -0.373 NA 
HETATM   12  N   UNL     1      -9.657   8.242  71.603  1.00  0.00    -0.179 NA 
HETATM   13  N   UNL     1      -9.708   9.962  70.172  1.00  0.00    -0.241 NA 
HETATM   14  C   UNL     1      -8.994   8.950  70.628  1.00  0.00    -0.199 A  
ENDROOT
BRANCH  12  15
HETATM   15  C   UNL     1      -9.127   7.094  72.309  1.00  0.00    -0.132 C  
BRANCH  15  16
HETATM   16  C   UNL     1      -9.549   5.741  71.727  1.00  0.00    -0.178 C  
HETATM   17  C   UNL     1      -8.954   5.347  70.353  1.00  0.00    -0.155 C  
HETATM   18  C   UNL     1      -7.425   5.200  70.367  1.00  0.00    -0.067 C  
HETATM   19  C   UNL     1      -9.601   4.028  69.899  1.00  0.00    -0.211 C  
HETATM   20  O   UNL     1      -6.789   6.441  70.651  1.00  0.00    -0.059 OA 
HETATM   21  O   UNL     1      -9.112   3.634  68.624  1.00  0.00    -0.117 OA 
HETATM   22  H   UNL     1      -5.843   6.351  70.659  1.00  0.00     0.000 HD 
HETATM   23  H   UNL     1      -9.512   2.819  68.343  1.00  0.00     0.000 HD 
ENDBRANCH  15  16
ENDBRANCH  12  15
TORSDOF 2
ENDMDL
MODEL      151
REMARK 921   NORMALIZED FREE ENERGY PREDICTED BY IDOCK:   -4.78 KCAL/MOL
REMARK 922        TOTAL FREE ENERGY PREDICTED BY IDOCK:   -5.54 KCAL/MOL
REMARK 923 INTER-LIGAND FREE ENERGY PREDICTED BY IDOCK:   -5.25 KCAL/MOL
REMARK 924 INTRA-LIGAND FREE ENERGY PREDICTED BY IDOCK:   -0.28 KCAL/MOL
REMARK 927      BINDING AFFINITY PREDICTED BY RF-SCORE:    0.00 PKD
ROOT
HETATM    1  N   UNL     1     -10.133  16.987  68.053  1.00  0.00    -0.290 NA 
HETATM    2  H1  UNL     1      -9.838  16.606  67.154  1.00  0.00     0.000 HD 
HETATM    3  C   UNL     1     -10.787  16.204  68.945  1.00  0.00    -0.305 C  
HETATM    4  H2  UNL     1      -9.933  17.962  68.282  1.00  0.00     0.000 HD 
HETATM    5  N   UNL     1     -11.162  16.690  70.092  1.00  0.00    -0.435 N  
HETATM    6  H   UNL     1     -10.978  17.668  70.317  1.00  0.00     0.000 HD 
HETATM    7  C   UNL     1     -11.819  15.870  71.020  1.00  0.00    -0.428 C  
HETATM    8  C   UNL     1     -11.983  14.472  70.612  1.00  0.00    -0.319 A  
HETATM    9  O   UNL     1     -12.226  16.292  72.096  1.00  0.00    -0.476 OA 
HETATM   10  C   UNL     1     -11.552  14.070  69.373  1.00  0.00    -0.297 A  
HETATM   11  N   UNL     1     -10.972  14.914  68.512  1.00  0.00    -0.246 NA 
HETATM   12  N   UNL     1     -11.831  12.745  69.263  1.00  0.00    -0.310 NA 
HETATM   13  N   UNL     1     -12.530  13.399  71.285  1.00  0.00    -0.324 NA 
HETATM   14  C   UNL     1     -12.397  12.377  70.461  1.00  0.00    -0.262 A  
ENDROOT
BRANCH  12  15
HETATM   15  C   UNL     1     -11.576  11.854  68.149  1.00  0.00    -0.334 C  
BRANCH  15  16
HETATM   16  C   UNL     1     -10.116  11.411  68.013  1.00  0.00    -0.193 C  
HETATM   17  C   UNL     1      -9.501  10.629  69.199  1.00  0.00    -0.185 C  
HETATM   18  C   UNL     1     -10.195   9.285  69.472  1.00  0.00    -0.207 C  
HETATM   19  C   UNL     1      -8.008  10.397  68.912  1.00  0.00    -0.123 C  
HETATM   20  O   UNL     1     -11.547   9.474  69.876  1.00  0.00    -0.427 OA 
HETATM   21  O   UNL     1      -7.385   9.708  69.987  1.00  0.00    -0.094 OA 
HETATM   22  H   UNL     1     -11.976   8.644  70.045  1.00  0.00     0.000 HD 
HETATM   23  H   UNL     1      -6.462   9.564  69.810  1.00  0.00     0.000 HD 
ENDBRANCH  15  16
ENDBRANCH  12  15
TORSDOF 2
ENDMDL
MODEL      152
REMARK 921   NORMALIZED FREE ENERGY PREDICTED BY IDOCK:   -4.75 KCAL/MOL
REMARK 922        TOTAL FREE ENERGY PREDICTED BY IDOCK:   -5.51 KCAL/MOL
REMARK 923 INTER-LIGAND FREE ENERGY PREDICTED BY IDOCK:   -4.89 KCAL/MOL
REMARK 924 INTRA-LIGAND FREE ENERGY PREDICTED BY IDOCK:   -0.61 KCAL/MOL
REMARK 927      BINDING AFFINITY PREDICTED BY RF-SCORE:    0.00 PKD
ROOT
HETATM    1  N   UNL     1      -9.816   9.850  67.069  1.00  0.00    -0.181 NA 
HETATM    2  H1  UNL     1      -9.810   8.829  67.060  1.00  0.00     0.000 HD 
HETATM    3  C   UNL     1     -10.486  10.520  68.038  1.00  0.00    -0.197 C  
HETATM    4  H2  UNL     1      -9.315  10.367  66.346  1.00  0.00     0.000 HD 
HETATM    5  N   UNL     1     -10.493  11.821  68.049  1.00  0.00    -0.193 N  
HETATM    6  H   UNL     1     -10.007  12.340  67.317  1.00  0.00     0.000 HD 
HETATM    7  C   UNL     1     -11.169  12.509  69.066  1.00  0.00    -0.268 C  
HETATM    8  C   UNL     1     -11.787  11.663  70.090  1.00  0.00    -0.344 A  
HETATM    9  O   UNL     1     -11.237  13.733  69.097  1.00  0.00    -0.252 OA 
HETATM   10  C   UNL     1     -11.721  10.297  69.974  1.00  0.00    -0.254 A  
HETATM   11  N   UNL     1     -11.099   9.698  68.952  1.00  0.00    -0.121 NA 
HETATM   12  N   UNL     1     -12.372   9.772  71.044  1.00  0.00    -0.322 NA 
HETATM   13  N   UNL     1     -12.477  12.000  71.236  1.00  0.00    -0.265 NA 
HETATM   14  C   UNL     1     -12.787  10.846  71.797  1.00  0.00    -0.404 A  
ENDROOT
BRANCH  12  15
HETATM   15  C   UNL     1     -12.585   8.381  71.383  1.00  0.00    -0.277 C  
BRANCH  15  16
HETATM   16  C   UNL     1     -11.350   7.669  71.946  1.00  0.00    -0.308 C  
HETATM   17  C   UNL     1     -11.018   6.271  71.372  1.00  0.00    -0.327 C  
HETATM   18  C   UNL     1     -10.694   6.284  69.870  1.00  0.00    -0.294 C  
HETATM   19  C   UNL     1      -9.831   5.688  72.156  1.00  0.00    -0.158 C  
HETATM   20  O   UNL     1     -11.822   6.690  69.102  1.00  0.00    -0.592 OA 
HETATM   21  O   UNL     1      -9.502   4.386  71.690  1.00  0.00    -0.137 OA 
HETATM   22  H   UNL     1     -11.623   6.698  68.174  1.00  0.00     0.000 HD 
HETATM   23  H   UNL     1      -8.769   4.026  72.175  1.00  0.00     0.000 HD 
ENDBRANCH  15  16
ENDBRANCH  12  15
TORSDOF 2
ENDMDL
MODEL      153
REMARK 921   NORMALIZED FREE ENERGY PREDICTED BY IDOCK:   -4.74 KCAL/MOL
REMARK 922        TOTAL FREE ENERGY PREDICTED BY IDOCK:   -5.50 KCAL/MOL
REMARK 923 INTER-LIGAND FREE ENERGY PREDICTED BY IDOCK:   -5.29 KCAL/MOL
REMARK 924 INTRA-LIGAND FREE ENERGY PREDICTED BY IDOCK:   -0.21 KCAL/MOL
REMARK 927      BINDING AFFINITY PREDICTED BY RF-SCORE:    0.00 PKD
ROOT
HETATM    1  N   UNL     1     -12.150  13.422  70.340  1.00  0.00    -0.424 NA 
HETATM    2  H1  UNL     1     -11.628  13.916  69.616  1.00  0.00     0.000 HD 
HETATM    3  C   UNL     1     -12.047  12.076  70.458  1.00  0.00    -0.311 C  
HETATM    4  H2  UNL     1     -12.753  13.944  70.978  1.00  0.00     0.000 HD 
HETATM    5  N   UNL     1     -12.714  11.446  71.381  1.00  0.00    -0.403 N  
HETATM    6  H   UNL     1     -13.329  11.964  72.009  1.00  0.00     0.000 HD 
HETATM    7  C   UNL     1     -12.586  10.056  71.512  1.00  0.00    -0.425 C  
HETATM    8  C   UNL     1     -11.637   9.426  70.591  1.00  0.00    -0.269 A  
HETATM    9  O   UNL     1     -13.223   9.415  72.340  1.00  0.00    -0.434 OA 
HETATM   10  C   UNL     1     -10.992  10.189  69.652  1.00  0.00    -0.264 A  
HETATM   11  N   UNL     1     -11.191  11.508  69.546  1.00  0.00    -0.253 NA 
HETATM   12  N   UNL     1     -10.187   9.356  68.942  1.00  0.00    -0.194 NA 
HETATM   13  N   UNL     1     -11.237   8.111  70.476  1.00  0.00    -0.263 NA 
HETATM   14  C   UNL     1     -10.349   8.110  69.500  1.00  0.00    -0.222 A  
ENDROOT
BRANCH  12  15
HETATM   15  C   UNL     1      -9.302   9.671  67.839  1.00  0.00    -0.128 C  
BRANCH  15  16
HETATM   16  C   UNL     1     -10.017  10.118  66.561  1.00  0.00    -0.283 C  
HETATM   17  C   UNL     1      -9.188  10.926  65.533  1.00  0.00    -0.232 C  
HETATM   18  C   UNL     1      -8.002  10.141  64.951  1.00  0.00    -0.150 C  
HETATM   19  C   UNL     1     -10.120  11.380  64.398  1.00  0.00    -0.291 C  
HETATM   20  O   UNL     1      -7.048   9.823  65.958  1.00  0.00    -0.094 OA 
HETATM   21  O   UNL     1      -9.414  12.155  63.439  1.00  0.00    -0.654 OA 
HETATM   22  H   UNL     1      -6.315   9.338  65.599  1.00  0.00     0.000 HD 
HETATM   23  H   UNL     1      -9.991  12.436  62.737  1.00  0.00     0.000 HD 
ENDBRANCH  15  16
ENDBRANCH  12  15
TORSDOF 2
ENDMDL
MODEL      154
REMARK 921   NORMALIZED FREE ENERGY PREDICTED BY IDOCK:   -4.74 KCAL/MOL
REMARK 922        TOTAL FREE ENERGY PREDICTED BY IDOCK:   -5.50 KCAL/MOL
REMARK 923 INTER-LIGAND FREE ENERGY PREDICTED BY IDOCK:   -5.38 KCAL/MOL
REMARK 924 INTRA-LIGAND FREE ENERGY PREDICTED BY IDOCK:   -0.13 KCAL/MOL
REMARK 927      BINDING AFFINITY PREDICTED BY RF-SCORE:    0.00 PKD
ROOT
HETATM    1  N   UNL     1      -9.980  10.557  64.373  1.00  0.00    -0.342 NA 
HETATM    2  H1  UNL     1     -10.241  11.516  64.143  1.00  0.00     0.000 HD 
HETATM    3  C   UNL     1     -10.121  10.097  65.639  1.00  0.00    -0.254 C  
HETATM    4  H2  UNL     1      -9.613   9.942  63.646  1.00  0.00     0.000 HD 
HETATM    5  N   UNL     1      -9.789   8.873  65.933  1.00  0.00    -0.452 N  
HETATM    6  H   UNL     1      -9.407   8.262  65.211  1.00  0.00     0.000 HD 
HETATM    7  C   UNL     1      -9.958   8.395  67.240  1.00  0.00    -0.227 C  
HETATM    8  C   UNL     1     -10.563   9.344  68.179  1.00  0.00    -0.212 A  
HETATM    9  O   UNL     1      -9.624   7.264  67.573  1.00  0.00    -0.136 OA 
HETATM   10  C   UNL     1     -10.869  10.614  67.760  1.00  0.00    -0.286 A  
HETATM   11  N   UNL     1     -10.641  11.026  66.508  1.00  0.00    -0.258 NA 
HETATM   12  N   UNL     1     -11.406  11.268  68.823  1.00  0.00    -0.243 NA 
HETATM   13  N   UNL     1     -10.910   9.195  69.505  1.00  0.00    -0.215 NA 
HETATM   14  C   UNL     1     -11.437  10.355  69.851  1.00  0.00    -0.297 A  
ENDROOT
BRANCH  12  15
HETATM   15  C   UNL     1     -11.888  12.631  68.900  1.00  0.00    -0.302 C  
BRANCH  15  16
HETATM   16  C   UNL     1     -10.855  13.692  68.507  1.00  0.00    -0.275 C  
HETATM   17  C   UNL     1     -11.359  15.147  68.355  1.00  0.00    -0.326 C  
HETATM   18  C   UNL     1     -11.915  15.743  69.658  1.00  0.00    -0.317 C  
HETATM   19  C   UNL     1     -10.202  16.017  67.836  1.00  0.00    -0.258 C  
HETATM   20  O   UNL     1     -13.075  15.042  70.093  1.00  0.00    -0.618 OA 
HETATM   21  O   UNL     1     -10.620  17.361  67.648  1.00  0.00    -0.360 OA 
HETATM   22  H   UNL     1     -13.418  15.410  70.899  1.00  0.00     0.000 HD 
HETATM   23  H   UNL     1      -9.904  17.898  67.327  1.00  0.00     0.000 HD 
ENDBRANCH  15  16
ENDBRANCH  12  15
TORSDOF 2
ENDMDL
MODEL      155
REMARK 921   NORMALIZED FREE ENERGY PREDICTED BY IDOCK:   -4.74 KCAL/MOL
REMARK 922        TOTAL FREE ENERGY PREDICTED BY IDOCK:   -5.50 KCAL/MOL
REMARK 923 INTER-LIGAND FREE ENERGY PREDICTED BY IDOCK:   -5.22 KCAL/MOL
REMARK 924 INTRA-LIGAND FREE ENERGY PREDICTED BY IDOCK:   -0.28 KCAL/MOL
REMARK 927      BINDING AFFINITY PREDICTED BY RF-SCORE:    0.00 PKD
ROOT
HETATM    1  N   UNL     1     -14.271   9.035  73.193  1.00  0.00    -1.190 NA 
HETATM    2  H1  UNL     1     -14.213   8.060  73.489  1.00  0.00     0.000 HD 
HETATM    3  C   UNL     1     -13.328   9.556  72.372  1.00  0.00    -0.384 C  
HETATM    4  H2  UNL     1     -15.043   9.619  73.516  1.00  0.00     0.000 HD 
HETATM    5  N   UNL     1     -13.402  10.799  71.994  1.00  0.00    -0.524 N  
HETATM    6  H   UNL     1     -14.164  11.389  72.329  1.00  0.00     0.000 HD 
HETATM    7  C   UNL     1     -12.436  11.327  71.126  1.00  0.00    -0.373 C  
HETATM    8  C   UNL     1     -11.419  10.376  70.670  1.00  0.00    -0.349 A  
HETATM    9  O   UNL     1     -12.442  12.501  70.774  1.00  0.00    -0.350 OA 
HETATM   10  C   UNL     1     -11.435   9.087  71.139  1.00  0.00    -0.308 A  
HETATM   11  N   UNL     1     -12.359   8.654  72.004  1.00  0.00    -0.346 NA 
HETATM   12  N   UNL     1     -10.391   8.437  70.561  1.00  0.00    -0.196 NA 
HETATM   13  N   UNL     1     -10.368  10.539  69.792  1.00  0.00    -0.209 NA 
HETATM   14  C   UNL     1      -9.792   9.353  69.728  1.00  0.00    -0.201 A  
ENDROOT
BRANCH  12  15
HETATM   15  C   UNL     1      -9.974   7.060  70.729  1.00  0.00    -0.190 C  
BRANCH  15  16
HETATM   16  C   UNL     1      -9.783   6.629  72.186  1.00  0.00    -0.159 C  
HETATM   17  C   UNL     1      -8.337   6.337  72.653  1.00  0.00    -0.120 C  
HETATM   18  C   UNL     1      -7.411   7.562  72.583  1.00  0.00    -0.075 C  
HETATM   19  C   UNL     1      -8.385   5.803  74.095  1.00  0.00    -0.110 C  
HETATM   20  O   UNL     1      -7.235   8.000  71.240  1.00  0.00    -0.056 OA 
HETATM   21  O   UNL     1      -7.082   5.488  74.564  1.00  0.00    -0.081 OA 
HETATM   22  H   UNL     1      -6.663   8.756  71.195  1.00  0.00     0.000 HD 
HETATM   23  H   UNL     1      -7.112   5.157  75.455  1.00  0.00     0.000 HD 
ENDBRANCH  15  16
ENDBRANCH  12  15
TORSDOF 2
ENDMDL
MODEL      156
REMARK 921   NORMALIZED FREE ENERGY PREDICTED BY IDOCK:   -4.74 KCAL/MOL
REMARK 922        TOTAL FREE ENERGY PREDICTED BY IDOCK:   -5.50 KCAL/MOL
REMARK 923 INTER-LIGAND FREE ENERGY PREDICTED BY IDOCK:   -5.35 KCAL/MOL
REMARK 924 INTRA-LIGAND FREE ENERGY PREDICTED BY IDOCK:   -0.15 KCAL/MOL
REMARK 927      BINDING AFFINITY PREDICTED BY RF-SCORE:    0.00 PKD
ROOT
HETATM    1  N   UNL     1     -11.360   6.652  66.829  1.00  0.00    -0.795 NA 
HETATM    2  H1  UNL     1     -12.010   7.428  66.955  1.00  0.00     0.000 HD 
HETATM    3  C   UNL     1     -10.829   6.025  67.907  1.00  0.00    -0.290 C  
HETATM    4  H2  UNL     1     -11.108   6.347  65.889  1.00  0.00     0.000 HD 
HETATM    5  N   UNL     1     -10.000   5.035  67.747  1.00  0.00    -0.160 N  
HETATM    6  H   UNL     1      -9.735   4.739  66.807  1.00  0.00     0.000 HD 
HETATM    7  C   UNL     1      -9.472   4.375  68.866  1.00  0.00    -0.165 C  
HETATM    8  C   UNL     1      -9.963   4.851  70.161  1.00  0.00    -0.255 A  
HETATM    9  O   UNL     1      -8.658   3.464  68.765  1.00  0.00    -0.075 OA 
HETATM   10  C   UNL     1     -10.835   5.909  70.212  1.00  0.00    -0.320 A  
HETATM   11  N   UNL     1     -11.268   6.529  69.108  1.00  0.00    -0.320 NA 
HETATM   12  N   UNL     1     -11.116   6.135  71.521  1.00  0.00    -0.276 NA 
HETATM   13  N   UNL     1      -9.696   4.407  71.440  1.00  0.00    -0.168 NA 
HETATM   14  C   UNL     1     -10.423   5.178  72.226  1.00  0.00    -0.219 A  
ENDROOT
BRANCH  12  15
HETATM   15  C   UNL     1     -11.980   7.141  72.103  1.00  0.00    -0.266 C  
BRANCH  15  16
HETATM   16  C   UNL     1     -12.383   8.263  71.142  1.00  0.00    -0.224 C  
HETATM   17  C   UNL     1     -11.663   9.624  71.303  1.00  0.00    -0.458 C  
HETATM   18  C   UNL     1     -10.149   9.550  71.054  1.00  0.00    -0.229 C  
HETATM   19  C   UNL     1     -12.302  10.635  70.336  1.00  0.00    -0.343 C  
HETATM   20  O   UNL     1      -9.506   8.727  72.022  1.00  0.00    -0.281 OA 
HETATM   21  O   UNL     1     -11.698  11.914  70.465  1.00  0.00    -0.508 OA 
HETATM   22  H   UNL     1      -8.570   8.681  71.869  1.00  0.00     0.000 HD 
HETATM   23  H   UNL     1     -12.092  12.539  69.867  1.00  0.00     0.000 HD 
ENDBRANCH  15  16
ENDBRANCH  12  15
TORSDOF 2
ENDMDL
MODEL      157
REMARK 921   NORMALIZED FREE ENERGY PREDICTED BY IDOCK:   -4.73 KCAL/MOL
REMARK 922        TOTAL FREE ENERGY PREDICTED BY IDOCK:   -5.48 KCAL/MOL
REMARK 923 INTER-LIGAND FREE ENERGY PREDICTED BY IDOCK:   -5.28 KCAL/MOL
REMARK 924 INTRA-LIGAND FREE ENERGY PREDICTED BY IDOCK:   -0.20 KCAL/MOL
REMARK 927      BINDING AFFINITY PREDICTED BY RF-SCORE:    0.00 PKD
ROOT
HETATM    1  N   UNL     1      -7.997  10.999  65.479  1.00  0.00    -0.365 NA 
HETATM    2  H1  UNL     1      -7.501  10.161  65.785  1.00  0.00     0.000 HD 
HETATM    3  C   UNL     1      -9.020  11.494  66.216  1.00  0.00    -0.196 C  
HETATM    4  H2  UNL     1      -7.722  11.464  64.614  1.00  0.00     0.000 HD 
HETATM    5  N   UNL     1      -9.652  12.562  65.826  1.00  0.00    -0.410 N  
HETATM    6  H   UNL     1      -9.389  13.020  64.953  1.00  0.00     0.000 HD 
HETATM    7  C   UNL     1     -10.695  13.084  66.604  1.00  0.00    -0.274 C  
HETATM    8  C   UNL     1     -10.951  12.376  67.861  1.00  0.00    -0.228 A  
HETATM    9  O   UNL     1     -11.345  14.064  66.258  1.00  0.00    -0.318 OA 
HETATM   10  C   UNL     1     -10.225  11.254  68.170  1.00  0.00    -0.180 A  
HETATM   11  N   UNL     1      -9.270  10.778  67.361  1.00  0.00    -0.147 NA 
HETATM   12  N   UNL     1     -10.669  10.807  69.373  1.00  0.00    -0.227 NA 
HETATM   13  N   UNL     1     -11.853  12.638  68.871  1.00  0.00    -0.311 NA 
HETATM   14  C   UNL     1     -11.638  11.698  69.771  1.00  0.00    -0.315 A  
ENDROOT
BRANCH  12  15
HETATM   15  C   UNL     1     -10.228   9.655  70.133  1.00  0.00    -0.264 C  
BRANCH  15  16
HETATM   16  C   UNL     1     -11.363   8.784  70.680  1.00  0.00    -0.289 C  
HETATM   17  C   UNL     1     -10.968   7.609  71.606  1.00  0.00    -0.267 C  
HETATM   18  C   UNL     1     -10.284   8.057  72.908  1.00  0.00    -0.314 C  
HETATM   19  C   UNL     1     -12.232   6.797  71.935  1.00  0.00    -0.335 C  
HETATM   20  O   UNL     1      -9.039   8.694  72.644  1.00  0.00    -0.324 OA 
HETATM   21  O   UNL     1     -11.921   5.683  72.760  1.00  0.00    -0.518 OA 
HETATM   22  H   UNL     1      -8.616   8.971  73.448  1.00  0.00     0.000 HD 
HETATM   23  H   UNL     1     -12.702   5.181  72.963  1.00  0.00     0.000 HD 
ENDBRANCH  15  16
ENDBRANCH  12  15
TORSDOF 2
ENDMDL
MODEL      158
REMARK 921   NORMALIZED FREE ENERGY PREDICTED BY IDOCK:   -4.72 KCAL/MOL
REMARK 922        TOTAL FREE ENERGY PREDICTED BY IDOCK:   -5.48 KCAL/MOL
REMARK 923 INTER-LIGAND FREE ENERGY PREDICTED BY IDOCK:   -4.79 KCAL/MOL
REMARK 924 INTRA-LIGAND FREE ENERGY PREDICTED BY IDOCK:   -0.69 KCAL/MOL
REMARK 927      BINDING AFFINITY PREDICTED BY RF-SCORE:    0.00 PKD
ROOT
HETATM    1  N   UNL     1     -14.107   8.126  71.169  1.00  0.00    -0.646 NA 
HETATM    2  H1  UNL     1     -14.445   8.478  70.273  1.00  0.00     0.000 HD 
HETATM    3  C   UNL     1     -12.783   8.156  71.457  1.00  0.00    -0.308 C  
HETATM    4  H2  UNL     1     -14.767   7.750  71.850  1.00  0.00     0.000 HD 
HETATM    5  N   UNL     1     -12.351   7.708  72.599  1.00  0.00    -0.555 N  
HETATM    6  H   UNL     1     -13.008   7.317  73.275  1.00  0.00     0.000 HD 
HETATM    7  C   UNL     1     -10.983   7.762  72.902  1.00  0.00    -0.407 C  
HETATM    8  C   UNL     1     -10.142   8.390  71.880  1.00  0.00    -0.267 A  
HETATM    9  O   UNL     1     -10.525   7.317  73.948  1.00  0.00    -0.353 OA 
HETATM   10  C   UNL     1     -10.705   8.823  70.707  1.00  0.00    -0.228 A  
HETATM   11  N   UNL     1     -12.015   8.702  70.457  1.00  0.00    -0.046 NA 
HETATM   12  N   UNL     1      -9.707   9.352  69.953  1.00  0.00    -0.198 NA 
HETATM   13  N   UNL     1      -8.787   8.648  71.868  1.00  0.00    -0.264 NA 
HETATM   14  C   UNL     1      -8.566   9.249  70.714  1.00  0.00    -0.203 A  
ENDROOT
BRANCH  12  15
HETATM   15  C   UNL     1      -9.781   9.941  68.632  1.00  0.00    -0.157 C  
BRANCH  15  16
HETATM   16  C   UNL     1      -8.795   9.352  67.619  1.00  0.00    -0.118 C  
HETATM   17  C   UNL     1      -8.857   7.824  67.378  1.00  0.00    -0.128 C  
HETATM   18  C   UNL     1     -10.198   7.349  66.797  1.00  0.00    -0.242 C  
HETATM   19  C   UNL     1      -7.710   7.429  66.433  1.00  0.00    -0.093 C  
HETATM   20  O   UNL     1     -11.266   7.577  67.710  1.00  0.00    -0.479 OA 
HETATM   21  O   UNL     1      -7.701   6.027  66.202  1.00  0.00    -0.098 OA 
HETATM   22  H   UNL     1     -12.095   7.284  67.351  1.00  0.00     0.000 HD 
HETATM   23  H   UNL     1      -6.992   5.783  65.618  1.00  0.00     0.000 HD 
ENDBRANCH  15  16
ENDBRANCH  12  15
TORSDOF 2
ENDMDL
MODEL      159
REMARK 921   NORMALIZED FREE ENERGY PREDICTED BY IDOCK:   -4.71 KCAL/MOL
REMARK 922        TOTAL FREE ENERGY PREDICTED BY IDOCK:   -5.47 KCAL/MOL
REMARK 923 INTER-LIGAND FREE ENERGY PREDICTED BY IDOCK:   -4.83 KCAL/MOL
REMARK 924 INTRA-LIGAND FREE ENERGY PREDICTED BY IDOCK:   -0.64 KCAL/MOL
REMARK 927      BINDING AFFINITY PREDICTED BY RF-SCORE:    0.00 PKD
ROOT
HETATM    1  N   UNL     1     -13.130  14.125  70.012  1.00  0.00    -0.262 NA 
HETATM    2  H1  UNL     1     -13.153  13.171  70.373  1.00  0.00     0.000 HD 
HETATM    3  C   UNL     1     -12.066  14.556  69.292  1.00  0.00    -0.290 C  
HETATM    4  H2  UNL     1     -13.910  14.757  70.195  1.00  0.00     0.000 HD 
HETATM    5  N   UNL     1     -12.036  15.772  68.832  1.00  0.00    -0.548 N  
HETATM    6  H   UNL     1     -12.808  16.411  69.026  1.00  0.00     0.000 HD 
HETATM    7  C   UNL     1     -10.943  16.206  68.068  1.00  0.00    -0.338 C  
HETATM    8  C   UNL     1      -9.919  15.191  67.809  1.00  0.00    -0.225 A  
HETATM    9  O   UNL     1     -10.852  17.354  67.647  1.00  0.00    -0.338 OA 
HETATM   10  C   UNL     1     -10.052  13.937  68.350  1.00  0.00    -0.237 A  
HETATM   11  N   UNL     1     -11.099  13.597  69.111  1.00  0.00    -0.250 NA 
HETATM   12  N   UNL     1      -8.973  13.213  67.956  1.00  0.00    -0.189 NA 
HETATM   13  N   UNL     1      -8.757  15.257  67.069  1.00  0.00    -0.216 NA 
HETATM   14  C   UNL     1      -8.231  14.049  67.155  1.00  0.00    -0.125 A  
ENDROOT
BRANCH  12  15
HETATM   15  C   UNL     1      -8.642  11.837  68.261  1.00  0.00    -0.162 C  
BRANCH  15  16
HETATM   16  C   UNL     1      -9.263  10.810  67.310  1.00  0.00    -0.158 C  
HETATM   17  C   UNL     1     -10.002   9.610  67.949  1.00  0.00    -0.201 C  
HETATM   18  C   UNL     1     -11.226  10.018  68.784  1.00  0.00    -0.122 C  
HETATM   19  C   UNL     1     -10.432   8.645  66.831  1.00  0.00    -0.258 C  
HETATM   20  O   UNL     1     -10.845  10.801  69.910  1.00  0.00    -0.360 OA 
HETATM   21  O   UNL     1     -11.091   7.506  67.367  1.00  0.00    -0.547 OA 
HETATM   22  H   UNL     1     -11.601  11.054  70.427  1.00  0.00     0.000 HD 
HETATM   23  H   UNL     1     -11.356   6.910  66.677  1.00  0.00     0.000 HD 
ENDBRANCH  15  16
ENDBRANCH  12  15
TORSDOF 2
ENDMDL
MODEL      160
REMARK 921   NORMALIZED FREE ENERGY PREDICTED BY IDOCK:   -4.69 KCAL/MOL
REMARK 922        TOTAL FREE ENERGY PREDICTED BY IDOCK:   -5.45 KCAL/MOL
REMARK 923 INTER-LIGAND FREE ENERGY PREDICTED BY IDOCK:   -5.47 KCAL/MOL
REMARK 924 INTRA-LIGAND FREE ENERGY PREDICTED BY IDOCK:    0.03 KCAL/MOL
REMARK 927      BINDING AFFINITY PREDICTED BY RF-SCORE:    0.00 PKD
ROOT
HETATM    1  N   UNL     1      -9.779  18.039  67.860  1.00  0.00    -0.287 NA 
HETATM    2  H1  UNL     1      -9.316  17.754  68.724  1.00  0.00     0.000 HD 
HETATM    3  C   UNL     1     -10.135  17.111  66.939  1.00  0.00    -0.298 C  
HETATM    4  H2  UNL     1      -9.974  19.026  67.690  1.00  0.00     0.000 HD 
HETATM    5  N   UNL     1     -10.724  17.474  65.838  1.00  0.00    -0.222 N  
HETATM    6  H   UNL     1     -10.906  18.461  65.658  1.00  0.00     0.000 HD 
HETATM    7  C   UNL     1     -11.110  16.507  64.898  1.00  0.00    -0.190 C  
HETATM    8  C   UNL     1     -10.846  15.119  65.285  1.00  0.00    -0.400 A  
HETATM    9  O   UNL     1     -11.633  16.804  63.830  1.00  0.00    -0.920 OA 
HETATM   10  C   UNL     1     -10.212  14.853  66.471  1.00  0.00    -0.275 A  
HETATM   11  N   UNL     1      -9.825  15.824  67.307  1.00  0.00    -0.228 NA 
HETATM   12  N   UNL     1     -10.095  13.503  66.569  1.00  0.00    -0.275 NA 
HETATM   13  N   UNL     1     -11.133  13.937  64.635  1.00  0.00    -0.378 NA 
HETATM   14  C   UNL     1     -10.696  12.990  65.444  1.00  0.00    -0.291 A  
ENDROOT
BRANCH  12  15
HETATM   15  C   UNL     1      -9.499  12.718  67.631  1.00  0.00    -0.190 C  
BRANCH  15  16
HETATM   16  C   UNL     1      -9.959  11.258  67.674  1.00  0.00    -0.197 C  
HETATM   17  C   UNL     1      -9.451  10.323  66.551  1.00  0.00    -0.212 C  
HETATM   18  C   UNL     1      -7.924  10.152  66.538  1.00  0.00    -0.118 C  
HETATM   19  C   UNL     1     -10.128   8.951  66.710  1.00  0.00    -0.280 C  
HETATM   20  O   UNL     1      -7.269  11.384  66.255  1.00  0.00    -0.328 OA 
HETATM   21  O   UNL     1      -9.720   8.060  65.682  1.00  0.00    -0.385 OA 
HETATM   22  H   UNL     1      -6.325  11.279  66.247  1.00  0.00     0.000 HD 
HETATM   23  H   UNL     1     -10.138   7.212  65.780  1.00  0.00     0.000 HD 
ENDBRANCH  15  16
ENDBRANCH  12  15
TORSDOF 2
ENDMDL
MODEL      161
REMARK 921   NORMALIZED FREE ENERGY PREDICTED BY IDOCK:   -4.66 KCAL/MOL
REMARK 922        TOTAL FREE ENERGY PREDICTED BY IDOCK:   -5.41 KCAL/MOL
REMARK 923 INTER-LIGAND FREE ENERGY PREDICTED BY IDOCK:   -5.21 KCAL/MOL
REMARK 924 INTRA-LIGAND FREE ENERGY PREDICTED BY IDOCK:   -0.20 KCAL/MOL
REMARK 927      BINDING AFFINITY PREDICTED BY RF-SCORE:    0.00 PKD
ROOT
HETATM    1  N   UNL     1     -11.790   6.966  70.289  1.00  0.00    -0.581 NA 
HETATM    2  H1  UNL     1     -12.688   7.432  70.157  1.00  0.00     0.000 HD 
HETATM    3  C   UNL     1     -10.668   7.473  69.723  1.00  0.00    -0.242 C  
HETATM    4  H2  UNL     1     -11.737   6.115  70.850  1.00  0.00     0.000 HD 
HETATM    5  N   UNL     1      -9.523   6.879  69.892  1.00  0.00    -0.157 N  
HETATM    6  H   UNL     1      -9.471   6.019  70.439  1.00  0.00     0.000 HD 
HETATM    7  C   UNL     1      -8.362   7.420  69.322  1.00  0.00    -0.132 C  
HETATM    8  C   UNL     1      -8.549   8.682  68.603  1.00  0.00    -0.131 A  
HETATM    9  O   UNL     1      -7.268   6.875  69.421  1.00  0.00    -0.083 OA 
HETATM   10  C   UNL     1      -9.806   9.217  68.483  1.00  0.00    -0.158 A  
HETATM   11  N   UNL     1     -10.885   8.628  69.011  1.00  0.00    -0.093 NA 
HETATM   12  N   UNL     1      -9.685  10.370  67.775  1.00  0.00    -0.158 NA 
HETATM   13  N   UNL     1      -7.633   9.500  67.973  1.00  0.00    -0.086 NA 
HETATM   14  C   UNL     1      -8.343  10.514  67.514  1.00  0.00    -0.118 A  
ENDROOT
BRANCH  12  15
HETATM   15  C   UNL     1     -10.719  11.304  67.378  1.00  0.00    -0.242 C  
BRANCH  15  16
HETATM   16  C   UNL     1     -10.626  11.772  65.922  1.00  0.00    -0.314 C  
HETATM   17  C   UNL     1     -11.804  12.611  65.373  1.00  0.00    -0.473 C  
HETATM   18  C   UNL     1     -11.998  13.949  66.103  1.00  0.00    -0.423 C  
HETATM   19  C   UNL     1     -11.570  12.864  63.874  1.00  0.00    -0.453 C  
HETATM   20  O   UNL     1     -12.352  13.747  67.467  1.00  0.00    -0.425 OA 
HETATM   21  O   UNL     1     -12.642  13.606  63.309  1.00  0.00    -0.939 OA 
HETATM   22  H   UNL     1     -12.472  14.574  67.918  1.00  0.00     0.000 HD 
HETATM   23  H   UNL     1     -12.498  13.761  62.383  1.00  0.00     0.000 HD 
ENDBRANCH  15  16
ENDBRANCH  12  15
TORSDOF 2
ENDMDL
MODEL      162
REMARK 921   NORMALIZED FREE ENERGY PREDICTED BY IDOCK:   -4.66 KCAL/MOL
REMARK 922        TOTAL FREE ENERGY PREDICTED BY IDOCK:   -5.41 KCAL/MOL
REMARK 923 INTER-LIGAND FREE ENERGY PREDICTED BY IDOCK:   -5.20 KCAL/MOL
REMARK 924 INTRA-LIGAND FREE ENERGY PREDICTED BY IDOCK:   -0.21 KCAL/MOL
REMARK 927      BINDING AFFINITY PREDICTED BY RF-SCORE:    0.00 PKD
ROOT
HETATM    1  N   UNL     1      -8.489   6.193  70.304  1.00  0.00    -0.124 NA 
HETATM    2  H1  UNL     1      -7.934   6.865  69.774  1.00  0.00     0.000 HD 
HETATM    3  C   UNL     1      -9.662   6.570  70.868  1.00  0.00    -0.176 C  
HETATM    4  H2  UNL     1      -8.160   5.233  70.409  1.00  0.00     0.000 HD 
HETATM    5  N   UNL     1     -10.370   5.713  71.543  1.00  0.00    -0.214 N  
HETATM    6  H   UNL     1     -10.036   4.757  71.663  1.00  0.00     0.000 HD 
HETATM    7  C   UNL     1     -11.594   6.103  72.106  1.00  0.00    -0.317 C  
HETATM    8  C   UNL     1     -11.999   7.483  71.826  1.00  0.00    -0.301 A  
HETATM    9  O   UNL     1     -12.276   5.342  72.782  1.00  0.00    -0.125 OA 
HETATM   10  C   UNL     1     -11.168   8.303  71.106  1.00  0.00    -0.258 A  
HETATM   11  N   UNL     1      -9.988   7.884  70.633  1.00  0.00    -0.186 NA 
HETATM   12  N   UNL     1     -11.784   9.509  71.003  1.00  0.00    -0.318 NA 
HETATM   13  N   UNL     1     -13.142   8.171  72.176  1.00  0.00    -0.279 NA 
HETATM   14  C   UNL     1     -12.993   9.370  71.644  1.00  0.00    -0.391 A  
ENDROOT
BRANCH  12  15
HETATM   15  C   UNL     1     -11.321  10.711  70.342  1.00  0.00    -0.304 C  
BRANCH  15  16
HETATM   16  C   UNL     1     -12.210  11.939  70.566  1.00  0.00    -0.426 C  
HETATM   17  C   UNL     1     -11.825  13.236  69.814  1.00  0.00    -0.394 C  
HETATM   18  C   UNL     1     -11.885  13.101  68.285  1.00  0.00    -0.349 C  
HETATM   19  C   UNL     1     -12.760  14.367  70.275  1.00  0.00    -0.263 C  
HETATM   20  O   UNL     1     -10.931  12.157  67.812  1.00  0.00    -0.213 OA 
HETATM   21  O   UNL     1     -12.429  15.593  69.638  1.00  0.00    -0.560 OA 
HETATM   22  H   UNL     1     -10.968  12.073  66.867  1.00  0.00     0.000 HD 
HETATM   23  H   UNL     1     -13.007  16.291  69.923  1.00  0.00     0.000 HD 
ENDBRANCH  15  16
ENDBRANCH  12  15
TORSDOF 2
ENDMDL
MODEL      163
REMARK 921   NORMALIZED FREE ENERGY PREDICTED BY IDOCK:   -4.65 KCAL/MOL
REMARK 922        TOTAL FREE ENERGY PREDICTED BY IDOCK:   -5.40 KCAL/MOL
REMARK 923 INTER-LIGAND FREE ENERGY PREDICTED BY IDOCK:   -5.12 KCAL/MOL
REMARK 924 INTRA-LIGAND FREE ENERGY PREDICTED BY IDOCK:   -0.28 KCAL/MOL
REMARK 927      BINDING AFFINITY PREDICTED BY RF-SCORE:    0.00 PKD
ROOT
HETATM    1  N   UNL     1     -12.031  10.110  71.448  1.00  0.00    -0.374 NA 
HETATM    2  H1  UNL     1     -12.600  10.948  71.568  1.00  0.00     0.000 HD 
HETATM    3  C   UNL     1     -11.496   9.816  70.238  1.00  0.00    -0.255 C  
HETATM    4  H2  UNL     1     -11.863   9.491  72.242  1.00  0.00     0.000 HD 
HETATM    5  N   UNL     1     -10.770   8.748  70.085  1.00  0.00    -0.222 N  
HETATM    6  H   UNL     1     -10.614   8.119  70.873  1.00  0.00     0.000 HD 
HETATM    7  C   UNL     1     -10.201   8.460  68.836  1.00  0.00    -0.210 C  
HETATM    8  C   UNL     1     -10.448   9.457  67.792  1.00  0.00    -0.254 A  
HETATM    9  O   UNL     1      -9.543   7.446  68.634  1.00  0.00    -0.145 OA 
HETATM   10  C   UNL     1     -11.236  10.547  68.065  1.00  0.00    -0.294 A  
HETATM   11  N   UNL     1     -11.790  10.743  69.267  1.00  0.00    -0.302 NA 
HETATM   12  N   UNL     1     -11.297  11.292  66.931  1.00  0.00    -0.413 NA 
HETATM   13  N   UNL     1     -10.008   9.517  66.486  1.00  0.00    -0.243 NA 
HETATM   14  C   UNL     1     -10.511  10.640  66.009  1.00  0.00    -0.183 A  
ENDROOT
BRANCH  12  15
HETATM   15  C   UNL     1     -12.002  12.535  66.699  1.00  0.00    -0.281 C  
BRANCH  15  16
HETATM   16  C   UNL     1     -11.812  13.586  67.797  1.00  0.00    -0.398 C  
HETATM   17  C   UNL     1     -10.362  14.023  68.114  1.00  0.00    -0.241 C  
HETATM   18  C   UNL     1      -9.653  14.700  66.931  1.00  0.00    -0.244 C  
HETATM   19  C   UNL     1     -10.389  14.977  69.320  1.00  0.00    -0.246 C  
HETATM   20  O   UNL     1      -9.488  13.798  65.842  1.00  0.00    -0.483 OA 
HETATM   21  O   UNL     1      -9.075  15.386  69.675  1.00  0.00    -0.330 OA 
HETATM   22  H   UNL     1      -9.050  14.216  65.111  1.00  0.00     0.000 HD 
HETATM   23  H   UNL     1      -9.092  15.975  70.421  1.00  0.00     0.000 HD 
ENDBRANCH  15  16
ENDBRANCH  12  15
TORSDOF 2
ENDMDL
MODEL      164
REMARK 921   NORMALIZED FREE ENERGY PREDICTED BY IDOCK:   -4.64 KCAL/MOL
REMARK 922        TOTAL FREE ENERGY PREDICTED BY IDOCK:   -5.39 KCAL/MOL
REMARK 923 INTER-LIGAND FREE ENERGY PREDICTED BY IDOCK:   -5.15 KCAL/MOL
REMARK 924 INTRA-LIGAND FREE ENERGY PREDICTED BY IDOCK:   -0.24 KCAL/MOL
REMARK 927      BINDING AFFINITY PREDICTED BY RF-SCORE:    0.00 PKD
ROOT
HETATM    1  N   UNL     1      -5.485  16.598  66.796  1.00  0.00    -0.347 NA 
HETATM    2  H1  UNL     1      -5.913  15.672  66.797  1.00  0.00     0.000 HD 
HETATM    3  C   UNL     1      -6.258  17.708  66.877  1.00  0.00    -0.164 C  
HETATM    4  H2  UNL     1      -4.470  16.688  66.733  1.00  0.00     0.000 HD 
HETATM    5  N   UNL     1      -5.711  18.888  66.876  1.00  0.00    -0.152 N  
HETATM    6  H   UNL     1      -4.698  18.981  66.797  1.00  0.00     0.000 HD 
HETATM    7  C   UNL     1      -6.515  20.033  66.983  1.00  0.00    -0.194 C  
HETATM    8  C   UNL     1      -7.948  19.777  67.143  1.00  0.00    -0.288 A  
HETATM    9  O   UNL     1      -6.049  21.166  66.947  1.00  0.00    -0.254 OA 
HETATM   10  C   UNL     1      -8.415  18.487  67.125  1.00  0.00    -0.265 A  
HETATM   11  N   UNL     1      -7.601  17.436  66.973  1.00  0.00    -0.193 NA 
HETATM   12  N   UNL     1      -9.762  18.546  67.288  1.00  0.00    -0.293 NA 
HETATM   13  N   UNL     1      -9.001  20.650  67.321  1.00  0.00    -0.313 NA 
HETATM   14  C   UNL     1     -10.067  19.880  67.432  1.00  0.00    -0.430 A  
ENDROOT
BRANCH  12  15
HETATM   15  C   UNL     1     -10.719  17.460  67.337  1.00  0.00    -0.251 C  
BRANCH  15  16
HETATM   16  C   UNL     1     -10.673  16.632  68.625  1.00  0.00    -0.349 C  
HETATM   17  C   UNL     1     -11.626  15.417  68.719  1.00  0.00    -0.382 C  
HETATM   18  C   UNL     1     -11.348  14.336  67.662  1.00  0.00    -0.324 C  
HETATM   19  C   UNL     1     -11.511  14.810  70.127  1.00  0.00    -0.266 C  
HETATM   20  O   UNL     1     -11.579  14.829  66.346  1.00  0.00    -0.356 OA 
HETATM   21  O   UNL     1     -12.391  13.705  70.279  1.00  0.00    -0.333 OA 
HETATM   22  H   UNL     1     -11.407  14.161  65.693  1.00  0.00     0.000 HD 
HETATM   23  H   UNL     1     -12.321  13.330  71.149  1.00  0.00     0.000 HD 
ENDBRANCH  15  16
ENDBRANCH  12  15
TORSDOF 2
ENDMDL
MODEL      165
REMARK 921   NORMALIZED FREE ENERGY PREDICTED BY IDOCK:   -4.64 KCAL/MOL
REMARK 922        TOTAL FREE ENERGY PREDICTED BY IDOCK:   -5.39 KCAL/MOL
REMARK 923 INTER-LIGAND FREE ENERGY PREDICTED BY IDOCK:   -5.04 KCAL/MOL
REMARK 924 INTRA-LIGAND FREE ENERGY PREDICTED BY IDOCK:   -0.34 KCAL/MOL
REMARK 927      BINDING AFFINITY PREDICTED BY RF-SCORE:    0.00 PKD
ROOT
HETATM    1  N   UNL     1      -6.237  16.073  67.052  1.00  0.00    -0.322 NA 
HETATM    2  H1  UNL     1      -5.810  15.243  66.638  1.00  0.00     0.000 HD 
HETATM    3  C   UNL     1      -7.565  16.094  67.322  1.00  0.00    -0.184 C  
HETATM    4  H2  UNL     1      -5.662  16.889  67.263  1.00  0.00     0.000 HD 
HETATM    5  N   UNL     1      -8.109  17.151  67.850  1.00  0.00    -0.197 N  
HETATM    6  H   UNL     1      -7.539  17.974  68.047  1.00  0.00     0.000 HD 
HETATM    7  C   UNL     1      -9.479  17.160  68.148  1.00  0.00    -0.269 C  
HETATM    8  C   UNL     1     -10.186  15.907  67.872  1.00  0.00    -0.251 A  
HETATM    9  O   UNL     1     -10.043  18.146  68.609  1.00  0.00    -0.370 OA 
HETATM   10  C   UNL     1      -9.511  14.855  67.308  1.00  0.00    -0.213 A  
HETATM   11  N   UNL     1      -8.210  14.924  67.003  1.00  0.00    -0.213 NA 
HETATM   12  N   UNL     1     -10.401  13.840  67.161  1.00  0.00    -0.260 NA 
HETATM   13  N   UNL     1     -11.503  15.555  68.084  1.00  0.00    -0.341 NA 
HETATM   14  C   UNL     1     -11.590  14.303  67.675  1.00  0.00    -0.368 A  
ENDROOT
BRANCH  12  15
HETATM   15  C   UNL     1     -10.186  12.516  66.614  1.00  0.00    -0.230 C  
BRANCH  15  16
HETATM   16  C   UNL     1      -9.143  11.682  67.363  1.00  0.00    -0.169 C  
HETATM   17  C   UNL     1      -9.533  11.154  68.764  1.00  0.00    -0.173 C  
HETATM   18  C   UNL     1     -10.727  10.186  68.744  1.00  0.00    -0.220 C  
HETATM   19  C   UNL     1      -8.310  10.459  69.385  1.00  0.00    -0.142 C  
HETATM   20  O   UNL     1     -11.913  10.838  68.301  1.00  0.00    -0.768 OA 
HETATM   21  O   UNL     1      -8.605   9.981  70.690  1.00  0.00    -0.356 OA 
HETATM   22  H   UNL     1     -12.651  10.240  68.288  1.00  0.00     0.000 HD 
HETATM   23  H   UNL     1      -7.848   9.552  71.074  1.00  0.00     0.000 HD 
ENDBRANCH  15  16
ENDBRANCH  12  15
TORSDOF 2
ENDMDL
MODEL      166
REMARK 921   NORMALIZED FREE ENERGY PREDICTED BY IDOCK:   -4.62 KCAL/MOL
REMARK 922        TOTAL FREE ENERGY PREDICTED BY IDOCK:   -5.36 KCAL/MOL
REMARK 923 INTER-LIGAND FREE ENERGY PREDICTED BY IDOCK:   -5.11 KCAL/MOL
REMARK 924 INTRA-LIGAND FREE ENERGY PREDICTED BY IDOCK:   -0.25 KCAL/MOL
REMARK 927      BINDING AFFINITY PREDICTED BY RF-SCORE:    0.00 PKD
ROOT
HETATM    1  N   UNL     1     -10.119  19.075  69.233  1.00  0.00    -0.474 NA 
HETATM    2  H1  UNL     1      -9.886  18.383  69.945  1.00  0.00     0.000 HD 
HETATM    3  C   UNL     1     -10.332  18.690  67.951  1.00  0.00    -0.398 C  
HETATM    4  H2  UNL     1     -10.193  20.061  69.486  1.00  0.00     0.000 HD 
HETATM    5  N   UNL     1     -10.630  19.572  67.043  1.00  0.00    -0.470 N  
HETATM    6  H   UNL     1     -10.688  20.560  67.290  1.00  0.00     0.000 HD 
HETATM    7  C   UNL     1     -10.870  19.165  65.722  1.00  0.00    -0.205 C  
HETATM    8  C   UNL     1     -10.810  17.719  65.494  1.00  0.00     0.087 A  
HETATM    9  O   UNL     1     -11.115  19.962  64.825  1.00  0.00    -0.044 OA 
HETATM   10  C   UNL     1     -10.480  16.880  66.528  1.00  0.00    -0.253 A  
HETATM   11  N   UNL     1     -10.216  17.334  67.758  1.00  0.00    -0.317 NA 
HETATM   12  N   UNL     1     -10.495  15.613  66.037  1.00  0.00    -0.315 NA 
HETATM   13  N   UNL     1     -11.036  16.981  64.350  1.00  0.00    -0.986 NA 
HETATM   14  C   UNL     1     -10.867  15.725  64.718  1.00  0.00    -0.344 A  
ENDROOT
BRANCH  12  15
HETATM   15  C   UNL     1     -10.216  14.370  66.725  1.00  0.00    -0.270 C  
BRANCH  15  16
HETATM   16  C   UNL     1      -8.746  14.176  67.111  1.00  0.00    -0.239 C  
HETATM   17  C   UNL     1      -8.456  13.464  68.454  1.00  0.00    -0.135 C  
HETATM   18  C   UNL     1      -8.969  12.016  68.504  1.00  0.00    -0.098 C  
HETATM   19  C   UNL     1      -6.939  13.488  68.705  1.00  0.00    -0.102 C  
HETATM   20  O   UNL     1     -10.389  11.968  68.411  1.00  0.00    -0.204 OA 
HETATM   21  O   UNL     1      -6.619  12.872  69.945  1.00  0.00    -0.338 OA 
HETATM   22  H   UNL     1     -10.707  11.073  68.442  1.00  0.00     0.000 HD 
HETATM   23  H   UNL     1      -5.681  12.887  70.101  1.00  0.00     0.000 HD 
ENDBRANCH  15  16
ENDBRANCH  12  15
TORSDOF 2
ENDMDL
MODEL      167
REMARK 921   NORMALIZED FREE ENERGY PREDICTED BY IDOCK:   -4.60 KCAL/MOL
REMARK 922        TOTAL FREE ENERGY PREDICTED BY IDOCK:   -5.34 KCAL/MOL
REMARK 923 INTER-LIGAND FREE ENERGY PREDICTED BY IDOCK:   -5.14 KCAL/MOL
REMARK 924 INTRA-LIGAND FREE ENERGY PREDICTED BY IDOCK:   -0.20 KCAL/MOL
REMARK 927      BINDING AFFINITY PREDICTED BY RF-SCORE:    0.00 PKD
ROOT
HETATM    1  N   UNL     1     -11.844  13.372  66.889  1.00  0.00    -0.390 NA 
HETATM    2  H1  UNL     1     -12.199  13.598  67.819  1.00  0.00     0.000 HD 
HETATM    3  C   UNL     1     -11.228  12.187  66.664  1.00  0.00    -0.324 C  
HETATM    4  H2  UNL     1     -11.954  14.042  66.127  1.00  0.00     0.000 HD 
HETATM    5  N   UNL     1     -10.775  11.899  65.479  1.00  0.00    -0.275 N  
HETATM    6  H   UNL     1     -10.869  12.573  64.719  1.00  0.00     0.000 HD 
HETATM    7  C   UNL     1     -10.158  10.662  65.245  1.00  0.00    -0.297 C  
HETATM    8  C   UNL     1     -10.125   9.753  66.394  1.00  0.00    -0.243 A  
HETATM    9  O   UNL     1      -9.681  10.362  64.156  1.00  0.00    -0.297 OA 
HETATM   10  C   UNL     1     -10.629  10.165  67.601  1.00  0.00    -0.265 A  
HETATM   11  N   UNL     1     -11.165  11.379  67.773  1.00  0.00    -0.261 NA 
HETATM   12  N   UNL     1     -10.466   9.138  68.475  1.00  0.00    -0.213 NA 
HETATM   13  N   UNL     1      -9.646   8.464  66.505  1.00  0.00    -0.218 NA 
HETATM   14  C   UNL     1      -9.892   8.117  67.755  1.00  0.00    -0.166 A  
ENDROOT
BRANCH  12  15
HETATM   15  C   UNL     1     -10.831   9.071  69.875  1.00  0.00    -0.218 C  
BRANCH  15  16
HETATM   16  C   UNL     1      -9.809   8.354  70.763  1.00  0.00    -0.215 C  
HETATM   17  C   UNL     1      -9.995   8.476  72.295  1.00  0.00    -0.385 C  
HETATM   18  C   UNL     1     -11.311   7.864  72.803  1.00  0.00    -0.393 C  
HETATM   19  C   UNL     1      -8.803   7.797  72.990  1.00  0.00    -0.192 C  
HETATM   20  O   UNL     1     -12.439   8.561  72.284  1.00  0.00    -0.359 OA 
HETATM   21  O   UNL     1      -8.907   7.907  74.402  1.00  0.00    -0.433 OA 
HETATM   22  H   UNL     1     -13.251   8.183  72.598  1.00  0.00     0.000 HD 
HETATM   23  H   UNL     1      -8.170   7.488  74.832  1.00  0.00     0.000 HD 
ENDBRANCH  15  16
ENDBRANCH  12  15
TORSDOF 2
ENDMDL
MODEL      168
REMARK 921   NORMALIZED FREE ENERGY PREDICTED BY IDOCK:   -4.56 KCAL/MOL
REMARK 922        TOTAL FREE ENERGY PREDICTED BY IDOCK:   -5.30 KCAL/MOL
REMARK 923 INTER-LIGAND FREE ENERGY PREDICTED BY IDOCK:   -4.89 KCAL/MOL
REMARK 924 INTRA-LIGAND FREE ENERGY PREDICTED BY IDOCK:   -0.41 KCAL/MOL
REMARK 927      BINDING AFFINITY PREDICTED BY RF-SCORE:    0.00 PKD
ROOT
HETATM    1  N   UNL     1     -12.995  11.644  71.787  1.00  0.00    -0.424 NA 
HETATM    2  H1  UNL     1     -13.310  10.852  72.348  1.00  0.00     0.000 HD 
HETATM    3  C   UNL     1     -12.102  11.458  70.785  1.00  0.00    -0.332 C  
HETATM    4  H2  UNL     1     -13.354  12.579  71.981  1.00  0.00     0.000 HD 
HETATM    5  N   UNL     1     -11.700  12.467  70.070  1.00  0.00    -0.514 N  
HETATM    6  H   UNL     1     -12.045  13.406  70.272  1.00  0.00     0.000 HD 
HETATM    7  C   UNL     1     -10.792  12.265  69.020  1.00  0.00    -0.150 C  
HETATM    8  C   UNL     1     -10.405  10.872  68.788  1.00  0.00    -0.198 A  
HETATM    9  O   UNL     1     -10.356  13.190  68.344  1.00  0.00    -0.245 OA 
HETATM   10  C   UNL     1     -10.888   9.886  69.611  1.00  0.00    -0.253 A  
HETATM   11  N   UNL     1     -11.717  10.148  70.627  1.00  0.00    -0.312 NA 
HETATM   12  N   UNL     1     -10.369   8.709  69.173  1.00  0.00    -0.215 NA 
HETATM   13  N   UNL     1      -9.584  10.316  67.828  1.00  0.00    -0.151 NA 
HETATM   14  C   UNL     1      -9.608   9.019  68.071  1.00  0.00    -0.148 A  
ENDROOT
BRANCH  12  15
HETATM   15  C   UNL     1     -10.570   7.376  69.703  1.00  0.00    -0.236 C  
BRANCH  15  16
HETATM   16  C   UNL     1      -9.580   6.331  69.180  1.00  0.00    -0.148 C  
HETATM   17  C   UNL     1     -10.128   5.266  68.200  1.00  0.00    -0.211 C  
HETATM   18  C   UNL     1     -10.657   5.858  66.884  1.00  0.00    -0.315 C  
HETATM   19  C   UNL     1      -9.012   4.250  67.903  1.00  0.00    -0.122 C  
HETATM   20  O   UNL     1     -11.783   6.699  67.111  1.00  0.00    -0.632 OA 
HETATM   21  O   UNL     1      -9.473   3.229  67.029  1.00  0.00    -0.283 OA 
HETATM   22  H   UNL     1     -12.110   7.065  66.298  1.00  0.00     0.000 HD 
HETATM   23  H   UNL     1      -8.783   2.601  66.846  1.00  0.00     0.000 HD 
ENDBRANCH  15  16
ENDBRANCH  12  15
TORSDOF 2
ENDMDL
MODEL      169
REMARK 921   NORMALIZED FREE ENERGY PREDICTED BY IDOCK:   -4.55 KCAL/MOL
REMARK 922        TOTAL FREE ENERGY PREDICTED BY IDOCK:   -5.28 KCAL/MOL
REMARK 923 INTER-LIGAND FREE ENERGY PREDICTED BY IDOCK:   -5.56 KCAL/MOL
REMARK 924 INTRA-LIGAND FREE ENERGY PREDICTED BY IDOCK:    0.28 KCAL/MOL
REMARK 927      BINDING AFFINITY PREDICTED BY RF-SCORE:    0.00 PKD
ROOT
HETATM    1  N   UNL     1     -11.791  16.779  72.317  1.00  0.00    -0.497 NA 
HETATM    2  H1  UNL     1     -11.126  17.351  71.796  1.00  0.00     0.000 HD 
HETATM    3  C   UNL     1     -12.149  15.556  71.855  1.00  0.00    -0.412 C  
HETATM    4  H2  UNL     1     -12.189  17.129  73.190  1.00  0.00     0.000 HD 
HETATM    5  N   UNL     1     -12.997  14.827  72.519  1.00  0.00    -0.363 N  
HETATM    6  H   UNL     1     -13.407  15.181  73.384  1.00  0.00     0.000 HD 
HETATM    7  C   UNL     1     -13.347  13.553  72.048  1.00  0.00    -0.475 C  
HETATM    8  C   UNL     1     -12.657  13.128  70.827  1.00  0.00    -0.260 A  
HETATM    9  O   UNL     1     -14.170  12.847  72.618  1.00  0.00    -0.523 OA 
HETATM   10  C   UNL     1     -11.784  13.984  70.206  1.00  0.00    -0.238 A  
HETATM   11  N   UNL     1     -11.526  15.208  70.681  1.00  0.00    -0.284 NA 
HETATM   12  N   UNL     1     -11.301  13.340  69.112  1.00  0.00    -0.278 NA 
HETATM   13  N   UNL     1     -12.723  11.942  70.127  1.00  0.00     0.080 NA 
HETATM   14  C   UNL     1     -11.878  12.092  69.124  1.00  0.00    -0.305 A  
ENDROOT
BRANCH  12  15
HETATM   15  C   UNL     1     -10.352  13.813  68.126  1.00  0.00    -0.252 C  
BRANCH  15  16
HETATM   16  C   UNL     1      -9.521  12.709  67.465  1.00  0.00    -0.186 C  
HETATM   17  C   UNL     1     -10.294  11.577  66.747  1.00  0.00    -0.262 C  
HETATM   18  C   UNL     1     -11.135  12.067  65.558  1.00  0.00    -0.313 C  
HETATM   19  C   UNL     1      -9.285  10.518  66.270  1.00  0.00    -0.168 C  
HETATM   20  O   UNL     1     -12.171  12.946  65.985  1.00  0.00    -0.452 OA 
HETATM   21  O   UNL     1      -9.947   9.437  65.629  1.00  0.00    -0.380 OA 
HETATM   22  H   UNL     1     -12.691  13.249  65.250  1.00  0.00     0.000 HD 
HETATM   23  H   UNL     1      -9.323   8.783  65.335  1.00  0.00     0.000 HD 
ENDBRANCH  15  16
ENDBRANCH  12  15
TORSDOF 2
ENDMDL
MODEL      170
REMARK 921   NORMALIZED FREE ENERGY PREDICTED BY IDOCK:   -4.53 KCAL/MOL
REMARK 922        TOTAL FREE ENERGY PREDICTED BY IDOCK:   -5.27 KCAL/MOL
REMARK 923 INTER-LIGAND FREE ENERGY PREDICTED BY IDOCK:   -4.79 KCAL/MOL
REMARK 924 INTRA-LIGAND FREE ENERGY PREDICTED BY IDOCK:   -0.48 KCAL/MOL
REMARK 927      BINDING AFFINITY PREDICTED BY RF-SCORE:    0.00 PKD
ROOT
HETATM    1  N   UNL     1      -8.425  19.820  67.459  1.00  0.00    -0.312 NA 
HETATM    2  H1  UNL     1      -9.132  20.176  66.815  1.00  0.00     0.000 HD 
HETATM    3  C   UNL     1      -8.429  18.515  67.823  1.00  0.00    -0.270 C  
HETATM    4  H2  UNL     1      -7.712  20.449  67.830  1.00  0.00     0.000 HD 
HETATM    5  N   UNL     1      -7.527  18.061  68.643  1.00  0.00    -0.281 N  
HETATM    6  H   UNL     1      -6.823  18.691  69.028  1.00  0.00     0.000 HD 
HETATM    7  C   UNL     1      -7.522  16.704  68.999  1.00  0.00    -0.232 C  
HETATM    8  C   UNL     1      -8.546  15.884  68.346  1.00  0.00    -0.178 A  
HETATM    9  O   UNL     1      -6.718  16.239  69.798  1.00  0.00    -0.196 OA 
HETATM   10  C   UNL     1      -9.451  16.472  67.500  1.00  0.00    -0.224 A  
HETATM   11  N   UNL     1      -9.433  17.783  67.235  1.00  0.00    -0.251 NA 
HETATM   12  N   UNL     1     -10.274  15.490  67.048  1.00  0.00    -0.265 NA 
HETATM   13  N   UNL     1      -8.795  14.529  68.426  1.00  0.00    -0.175 NA 
HETATM   14  C   UNL     1      -9.816  14.324  67.616  1.00  0.00    -0.224 A  
ENDROOT
BRANCH  12  15
HETATM   15  C   UNL     1     -11.394  15.593  66.135  1.00  0.00     0.069 C  
BRANCH  15  16
HETATM   16  C   UNL     1     -12.164  14.285  65.927  1.00  0.00    -0.422 C  
HETATM   17  C   UNL     1     -11.972  13.559  64.574  1.00  0.00    -0.451 C  
HETATM   18  C   UNL     1     -10.528  13.095  64.327  1.00  0.00    -0.389 C  
HETATM   19  C   UNL     1     -12.923  12.351  64.526  1.00  0.00    -0.068 C  
HETATM   20  O   UNL     1      -9.639  14.202  64.229  1.00  0.00    -0.188 OA 
HETATM   21  O   UNL     1     -12.810  11.664  63.287  1.00  0.00    -0.732 OA 
HETATM   22  H   UNL     1      -8.746  13.916  64.076  1.00  0.00     0.000 HD 
HETATM   23  H   UNL     1     -13.398  10.918  63.257  1.00  0.00     0.000 HD 
ENDBRANCH  15  16
ENDBRANCH  12  15
TORSDOF 2
ENDMDL
MODEL      171
REMARK 921   NORMALIZED FREE ENERGY PREDICTED BY IDOCK:   -4.53 KCAL/MOL
REMARK 922        TOTAL FREE ENERGY PREDICTED BY IDOCK:   -5.26 KCAL/MOL
REMARK 923 INTER-LIGAND FREE ENERGY PREDICTED BY IDOCK:   -5.01 KCAL/MOL
REMARK 924 INTRA-LIGAND FREE ENERGY PREDICTED BY IDOCK:   -0.25 KCAL/MOL
REMARK 927      BINDING AFFINITY PREDICTED BY RF-SCORE:    0.00 PKD
ROOT
HETATM    1  N   UNL     1     -12.952   8.269  72.796  1.00  0.00    -0.603 NA 
HETATM    2  H1  UNL     1     -12.484   7.414  72.495  1.00  0.00     0.000 HD 
HETATM    3  C   UNL     1     -12.737   9.434  72.137  1.00  0.00    -0.382 C  
HETATM    4  H2  UNL     1     -13.585   8.247  73.596  1.00  0.00     0.000 HD 
HETATM    5  N   UNL     1     -13.334  10.523  72.521  1.00  0.00    -0.429 N  
HETATM    6  H   UNL     1     -13.955  10.507  73.331  1.00  0.00     0.000 HD 
HETATM    7  C   UNL     1     -13.125  11.721  71.823  1.00  0.00    -0.375 C  
HETATM    8  C   UNL     1     -12.256  11.615  70.648  1.00  0.00    -0.366 A  
HETATM    9  O   UNL     1     -13.634  12.780  72.170  1.00  0.00    -0.521 OA 
HETATM   10  C   UNL     1     -11.673  10.412  70.339  1.00  0.00    -0.331 A  
HETATM   11  N   UNL     1     -11.876   9.312  71.073  1.00  0.00    -0.295 NA 
HETATM   12  N   UNL     1     -10.928  10.604  69.220  1.00  0.00    -0.227 NA 
HETATM   13  N   UNL     1     -11.880  12.566  69.721  1.00  0.00    -0.328 NA 
HETATM   14  C   UNL     1     -11.109  11.920  68.866  1.00  0.00    -0.247 A  
ENDROOT
BRANCH  12  15
HETATM   15  C   UNL     1     -10.117   9.647  68.495  1.00  0.00    -0.175 C  
BRANCH  15  16
HETATM   16  C   UNL     1      -9.360  10.235  67.300  1.00  0.00    -0.169 C  
HETATM   17  C   UNL     1      -7.832  10.428  67.458  1.00  0.00    -0.106 C  
HETATM   18  C   UNL     1      -7.067   9.113  67.676  1.00  0.00    -0.082 C  
HETATM   19  C   UNL     1      -7.296  11.141  66.205  1.00  0.00    -0.055 C  
HETATM   20  O   UNL     1      -7.443   8.494  68.902  1.00  0.00    -0.087 OA 
HETATM   21  O   UNL     1      -5.898  11.373  66.311  1.00  0.00    -0.231 OA 
HETATM   22  H   UNL     1      -6.971   7.682  69.037  1.00  0.00     0.000 HD 
HETATM   23  H   UNL     1      -5.566  11.814  65.537  1.00  0.00     0.000 HD 
ENDBRANCH  15  16
ENDBRANCH  12  15
TORSDOF 2
ENDMDL
MODEL      172
REMARK 921   NORMALIZED FREE ENERGY PREDICTED BY IDOCK:   -4.52 KCAL/MOL
REMARK 922        TOTAL FREE ENERGY PREDICTED BY IDOCK:   -5.25 KCAL/MOL
REMARK 923 INTER-LIGAND FREE ENERGY PREDICTED BY IDOCK:   -5.02 KCAL/MOL
REMARK 924 INTRA-LIGAND FREE ENERGY PREDICTED BY IDOCK:   -0.23 KCAL/MOL
REMARK 927      BINDING AFFINITY PREDICTED BY RF-SCORE:    0.00 PKD
ROOT
HETATM    1  N   UNL     1     -11.328   4.443  65.073  1.00  0.00    -1.102 NA 
HETATM    2  H1  UNL     1     -11.837   5.130  64.516  1.00  0.00     0.000 HD 
HETATM    3  C   UNL     1     -10.663   4.828  66.190  1.00  0.00    -0.122 C  
HETATM    4  H2  UNL     1     -11.320   3.463  64.789  1.00  0.00     0.000 HD 
HETATM    5  N   UNL     1     -10.015   3.952  66.900  1.00  0.00    -0.321 N  
HETATM    6  H   UNL     1      -9.992   2.974  66.609  1.00  0.00     0.000 HD 
HETATM    7  C   UNL     1      -9.347   4.352  68.067  1.00  0.00    -0.146 C  
HETATM    8  C   UNL     1      -9.491   5.767  68.415  1.00  0.00    -0.122 A  
HETATM    9  O   UNL     1      -8.691   3.571  68.747  1.00  0.00    -0.086 OA 
HETATM   10  C   UNL     1     -10.196   6.603  67.587  1.00  0.00    -0.177 A  
HETATM   11  N   UNL     1     -10.773   6.170  66.460  1.00  0.00    -0.197 NA 
HETATM   12  N   UNL     1     -10.164   7.841  68.145  1.00  0.00    -0.196 NA 
HETATM   13  N   UNL     1      -9.017   6.477  69.499  1.00  0.00    -0.137 NA 
HETATM   14  C   UNL     1      -9.461   7.707  69.320  1.00  0.00    -0.158 A  
ENDROOT
BRANCH  12  15
HETATM   15  C   UNL     1     -10.756   9.071  67.661  1.00  0.00    -0.163 C  
BRANCH  15  16
HETATM   16  C   UNL     1      -9.834   9.910  66.770  1.00  0.00    -0.256 C  
HETATM   17  C   UNL     1     -10.481  11.075  65.983  1.00  0.00    -0.304 C  
HETATM   18  C   UNL     1     -11.090  12.160  66.885  1.00  0.00    -0.297 C  
HETATM   19  C   UNL     1      -9.416  11.698  65.065  1.00  0.00    -0.108 C  
HETATM   20  O   UNL     1     -12.174  11.646  67.651  1.00  0.00    -0.544 OA 
HETATM   21  O   UNL     1      -9.966  12.757  64.293  1.00  0.00    -0.579 OA 
HETATM   22  H   UNL     1     -12.551  12.317  68.209  1.00  0.00     0.000 HD 
HETATM   23  H   UNL     1      -9.308  13.142  63.726  1.00  0.00     0.000 HD 
ENDBRANCH  15  16
ENDBRANCH  12  15
TORSDOF 2
ENDMDL
MODEL      173
REMARK 921   NORMALIZED FREE ENERGY PREDICTED BY IDOCK:   -4.51 KCAL/MOL
REMARK 922        TOTAL FREE ENERGY PREDICTED BY IDOCK:   -5.24 KCAL/MOL
REMARK 923 INTER-LIGAND FREE ENERGY PREDICTED BY IDOCK:   -4.69 KCAL/MOL
REMARK 924 INTRA-LIGAND FREE ENERGY PREDICTED BY IDOCK:   -0.55 KCAL/MOL
REMARK 927      BINDING AFFINITY PREDICTED BY RF-SCORE:    0.00 PKD
ROOT
HETATM    1  N   UNL     1     -10.487   7.967  69.198  1.00  0.00    -0.235 NA 
HETATM    2  H1  UNL     1      -9.918   7.898  68.353  1.00  0.00     0.000 HD 
HETATM    3  C   UNL     1     -10.996   9.163  69.581  1.00  0.00    -0.153 C  
HETATM    4  H2  UNL     1     -10.672   7.133  69.755  1.00  0.00     0.000 HD 
HETATM    5  N   UNL     1     -11.721   9.251  70.658  1.00  0.00    -0.369 N  
HETATM    6  H   UNL     1     -11.895   8.421  71.226  1.00  0.00     0.000 HD 
HETATM    7  C   UNL     1     -12.265  10.486  71.038  1.00  0.00    -0.400 C  
HETATM    8  C   UNL     1     -11.994  11.596  70.122  1.00  0.00    -0.359 A  
HETATM    9  O   UNL     1     -12.921  10.626  72.064  1.00  0.00    -0.461 OA 
HETATM   10  C   UNL     1     -11.210  11.389  69.015  1.00  0.00    -0.256 A  
HETATM   11  N   UNL     1     -10.681  10.194  68.730  1.00  0.00    -0.210 NA 
HETATM   12  N   UNL     1     -11.124  12.574  68.357  1.00  0.00    -0.241 NA 
HETATM   13  N   UNL     1     -12.406  12.912  70.160  1.00  0.00    -0.232 NA 
HETATM   14  C   UNL     1     -11.892  13.461  69.075  1.00  0.00    -0.335 A  
ENDROOT
BRANCH  12  15
HETATM   15  C   UNL     1     -10.412  12.884  67.135  1.00  0.00    -0.238 C  
BRANCH  15  16
HETATM   16  C   UNL     1      -9.629  14.200  67.174  1.00  0.00    -0.244 C  
HETATM   17  C   UNL     1      -8.693  14.430  68.385  1.00  0.00    -0.180 C  
HETATM   18  C   UNL     1      -7.554  13.403  68.484  1.00  0.00    -0.127 C  
HETATM   19  C   UNL     1      -8.109  15.849  68.292  1.00  0.00    -0.144 C  
HETATM   20  O   UNL     1      -8.059  12.091  68.709  1.00  0.00    -0.292 OA 
HETATM   21  O   UNL     1      -7.264  16.125  69.401  1.00  0.00    -0.219 OA 
HETATM   22  H   UNL     1      -7.355  11.456  68.770  1.00  0.00     0.000 HD 
HETATM   23  H   UNL     1      -6.903  17.003  69.343  1.00  0.00     0.000 HD 
ENDBRANCH  15  16
ENDBRANCH  12  15
TORSDOF 2
ENDMDL
MODEL      174
REMARK 921   NORMALIZED FREE ENERGY PREDICTED BY IDOCK:   -4.51 KCAL/MOL
REMARK 922        TOTAL FREE ENERGY PREDICTED BY IDOCK:   -5.24 KCAL/MOL
REMARK 923 INTER-LIGAND FREE ENERGY PREDICTED BY IDOCK:   -4.86 KCAL/MOL
REMARK 924 INTRA-LIGAND FREE ENERGY PREDICTED BY IDOCK:   -0.38 KCAL/MOL
REMARK 927      BINDING AFFINITY PREDICTED BY RF-SCORE:    0.00 PKD
ROOT
HETATM    1  N   UNL     1     -12.274  11.148  68.829  1.00  0.00    -0.676 NA 
HETATM    2  H1  UNL     1     -11.463  11.277  68.223  1.00  0.00     0.000 HD 
HETATM    3  C   UNL     1     -12.181  10.374  69.938  1.00  0.00    -0.146 C  
HETATM    4  H2  UNL     1     -13.158  11.603  68.599  1.00  0.00     0.000 HD 
HETATM    5  N   UNL     1     -13.215  10.210  70.710  1.00  0.00    -0.558 N  
HETATM    6  H   UNL     1     -14.104  10.651  70.473  1.00  0.00     0.000 HD 
HETATM    7  C   UNL     1     -13.108   9.426  71.868  1.00  0.00    -0.424 C  
HETATM    8  C   UNL     1     -11.772   8.886  72.135  1.00  0.00    -0.341 A  
HETATM    9  O   UNL     1     -14.063   9.211  72.604  1.00  0.00    -0.512 OA 
HETATM   10  C   UNL     1     -10.754   9.119  71.246  1.00  0.00    -0.331 A  
HETATM   11  N   UNL     1     -10.931   9.839  70.132  1.00  0.00    -0.270 NA 
HETATM   12  N   UNL     1      -9.645   8.506  71.736  1.00  0.00    -0.239 NA 
HETATM   13  N   UNL     1     -11.305   8.128  73.188  1.00  0.00    -0.166 NA 
HETATM   14  C   UNL     1     -10.024   7.943  72.932  1.00  0.00    -0.294 A  
ENDROOT
BRANCH  12  15
HETATM   15  C   UNL     1      -8.313   8.453  71.171  1.00  0.00    -0.137 C  
BRANCH  15  16
HETATM   16  C   UNL     1      -8.180   7.546  69.944  1.00  0.00    -0.131 C  
HETATM   17  C   UNL     1      -8.708   8.097  68.598  1.00  0.00    -0.134 C  
HETATM   18  C   UNL     1      -7.968   9.356  68.118  1.00  0.00    -0.091 C  
HETATM   19  C   UNL     1      -8.596   6.990  67.536  1.00  0.00    -0.121 C  
HETATM   20  O   UNL     1      -8.166  10.445  69.013  1.00  0.00    -0.121 OA 
HETATM   21  O   UNL     1      -9.098   7.434  66.283  1.00  0.00    -0.166 OA 
HETATM   22  H   UNL     1      -7.709  11.223  68.717  1.00  0.00     0.000 HD 
HETATM   23  H   UNL     1      -9.030   6.749  65.627  1.00  0.00     0.000 HD 
ENDBRANCH  15  16
ENDBRANCH  12  15
TORSDOF 2
ENDMDL
MODEL      175
REMARK 921   NORMALIZED FREE ENERGY PREDICTED BY IDOCK:   -4.48 KCAL/MOL
REMARK 922        TOTAL FREE ENERGY PREDICTED BY IDOCK:   -5.21 KCAL/MOL
REMARK 923 INTER-LIGAND FREE ENERGY PREDICTED BY IDOCK:   -4.88 KCAL/MOL
REMARK 924 INTRA-LIGAND FREE ENERGY PREDICTED BY IDOCK:   -0.32 KCAL/MOL
REMARK 927      BINDING AFFINITY PREDICTED BY RF-SCORE:    0.00 PKD
ROOT
HETATM    1  N   UNL     1     -13.423  12.045  72.356  1.00  0.00    -0.525 NA 
HETATM    2  H1  UNL     1     -13.886  11.422  73.019  1.00  0.00     0.000 HD 
HETATM    3  C   UNL     1     -12.582  11.542  71.420  1.00  0.00    -0.314 C  
HETATM    4  H2  UNL     1     -13.595  13.050  72.398  1.00  0.00     0.000 HD 
HETATM    5  N   UNL     1     -11.992  12.336  70.575  1.00  0.00    -0.512 N  
HETATM    6  H   UNL     1     -12.150  13.343  70.625  1.00  0.00     0.000 HD 
HETATM    7  C   UNL     1     -11.140  11.809  69.595  1.00  0.00    -0.070 C  
HETATM    8  C   UNL     1     -11.029  10.348  69.584  1.00  0.00    -0.277 A  
HETATM    9  O   UNL     1     -10.533  12.520  68.802  1.00  0.00    -0.213 OA 
HETATM   10  C   UNL     1     -11.693   9.608  70.530  1.00  0.00    -0.242 A  
HETATM   11  N   UNL     1     -12.457  10.175  71.470  1.00  0.00    -0.399 NA 
HETATM   12  N   UNL     1     -11.411   8.302  70.287  1.00  0.00    -0.141 NA 
HETATM   13  N   UNL     1     -10.330   9.507  68.743  1.00  0.00    -0.202 NA 
HETATM   14  C   UNL     1     -10.603   8.290  69.175  1.00  0.00    -0.165 A  
ENDROOT
BRANCH  12  15
HETATM   15  C   UNL     1     -11.866   7.128  71.003  1.00  0.00    -0.333 C  
BRANCH  15  16
HETATM   16  C   UNL     1     -10.846   5.986  71.060  1.00  0.00    -0.345 C  
HETATM   17  C   UNL     1      -9.747   6.073  72.146  1.00  0.00    -0.171 C  
HETATM   18  C   UNL     1     -10.299   6.050  73.580  1.00  0.00    -0.256 C  
HETATM   19  C   UNL     1      -8.765   4.907  71.946  1.00  0.00    -0.128 C  
HETATM   20  O   UNL     1     -11.105   7.193  73.843  1.00  0.00    -0.499 OA 
HETATM   21  O   UNL     1      -7.714   4.957  72.901  1.00  0.00    -0.090 OA 
HETATM   22  H   UNL     1     -11.446   7.179  74.729  1.00  0.00     0.000 HD 
HETATM   23  H   UNL     1      -7.107   4.236  72.777  1.00  0.00     0.000 HD 
ENDBRANCH  15  16
ENDBRANCH  12  15
TORSDOF 2
ENDMDL
MODEL      176
REMARK 921   NORMALIZED FREE ENERGY PREDICTED BY IDOCK:   -4.47 KCAL/MOL
REMARK 922        TOTAL FREE ENERGY PREDICTED BY IDOCK:   -5.20 KCAL/MOL
REMARK 923 INTER-LIGAND FREE ENERGY PREDICTED BY IDOCK:   -4.58 KCAL/MOL
REMARK 924 INTRA-LIGAND FREE ENERGY PREDICTED BY IDOCK:   -0.62 KCAL/MOL
REMARK 927      BINDING AFFINITY PREDICTED BY RF-SCORE:    0.00 PKD
ROOT
HETATM    1  N   UNL     1      -5.811  13.894  67.468  1.00  0.00    -0.353 NA 
HETATM    2  H1  UNL     1      -6.361  14.751  67.528  1.00  0.00     0.000 HD 
HETATM    3  C   UNL     1      -6.428  12.695  67.338  1.00  0.00    -0.149 C  
HETATM    4  H2  UNL     1      -4.792  13.941  67.505  1.00  0.00     0.000 HD 
HETATM    5  N   UNL     1      -5.727  11.602  67.261  1.00  0.00    -0.090 N  
HETATM    6  H   UNL     1      -4.709  11.644  67.314  1.00  0.00     0.000 HD 
HETATM    7  C   UNL     1      -6.370  10.366  67.105  1.00  0.00    -0.067 C  
HETATM    8  C   UNL     1      -7.829  10.431  66.989  1.00  0.00    -0.112 A  
HETATM    9  O   UNL     1      -5.754   9.307  67.067  1.00  0.00    -0.044 OA 
HETATM   10  C   UNL     1      -8.466  11.641  67.090  1.00  0.00    -0.162 A  
HETATM   11  N   UNL     1      -7.798  12.784  67.286  1.00  0.00    -0.169 NA 
HETATM   12  N   UNL     1      -9.797  11.407  66.952  1.00  0.00    -0.191 NA 
HETATM   13  N   UNL     1      -8.758   9.432  66.783  1.00  0.00    -0.127 NA 
HETATM   14  C   UNL     1      -9.921  10.054  66.737  1.00  0.00    -0.210 A  
ENDROOT
BRANCH  12  15
HETATM   15  C   UNL     1     -10.893  12.353  66.984  1.00  0.00    -0.246 C  
BRANCH  15  16
HETATM   16  C   UNL     1     -11.301  12.897  65.611  1.00  0.00    -0.344 C  
HETATM   17  C   UNL     1     -11.524  14.424  65.494  1.00  0.00    -0.340 C  
HETATM   18  C   UNL     1     -10.261  15.252  65.778  1.00  0.00    -0.349 C  
HETATM   19  C   UNL     1     -12.046  14.737  64.082  1.00  0.00    -0.299 C  
HETATM   20  O   UNL     1      -9.829  15.090  67.125  1.00  0.00    -0.229 OA 
HETATM   21  O   UNL     1     -12.299  16.127  63.930  1.00  0.00    -1.100 OA 
HETATM   22  H   UNL     1      -9.048  15.601  67.301  1.00  0.00     0.000 HD 
HETATM   23  H   UNL     1     -12.622  16.320  63.057  1.00  0.00     0.000 HD 
ENDBRANCH  15  16
ENDBRANCH  12  15
TORSDOF 2
ENDMDL
MODEL      177
REMARK 921   NORMALIZED FREE ENERGY PREDICTED BY IDOCK:   -4.40 KCAL/MOL
REMARK 922        TOTAL FREE ENERGY PREDICTED BY IDOCK:   -5.12 KCAL/MOL
REMARK 923 INTER-LIGAND FREE ENERGY PREDICTED BY IDOCK:   -5.37 KCAL/MOL
REMARK 924 INTRA-LIGAND FREE ENERGY PREDICTED BY IDOCK:    0.25 KCAL/MOL
REMARK 927      BINDING AFFINITY PREDICTED BY RF-SCORE:    0.00 PKD
ROOT
HETATM    1  N   UNL     1     -12.297  11.199  68.621  1.00  0.00    -0.662 NA 
HETATM    2  H1  UNL     1     -11.546  11.564  68.035  1.00  0.00     0.000 HD 
HETATM    3  C   UNL     1     -12.013  10.393  69.672  1.00  0.00    -0.136 C  
HETATM    4  H2  UNL     1     -13.267  11.441  68.413  1.00  0.00     0.000 HD 
HETATM    5  N   UNL     1     -12.971   9.927  70.419  1.00  0.00    -0.564 N  
HETATM    6  H   UNL     1     -13.942  10.154  70.204  1.00  0.00     0.000 HD 
HETATM    7  C   UNL     1     -12.669   9.112  71.519  1.00  0.00    -0.341 C  
HETATM    8  C   UNL     1     -11.241   8.894  71.763  1.00  0.00    -0.362 A  
HETATM    9  O   UNL     1     -13.539   8.618  72.227  1.00  0.00    -0.379 OA 
HETATM   10  C   UNL     1     -10.315   9.432  70.905  1.00  0.00    -0.310 A  
HETATM   11  N   UNL     1     -10.668  10.165  69.842  1.00  0.00    -0.275 NA 
HETATM   12  N   UNL     1      -9.088   9.073  71.363  1.00  0.00    -0.282 NA 
HETATM   13  N   UNL     1     -10.597   8.199  72.765  1.00  0.00    -0.342 NA 
HETATM   14  C   UNL     1      -9.311   8.350  72.511  1.00  0.00    -0.275 A  
ENDROOT
BRANCH  12  15
HETATM   15  C   UNL     1      -7.786   9.386  70.812  1.00  0.00    -0.115 C  
BRANCH  15  16
HETATM   16  C   UNL     1      -7.762   9.536  69.287  1.00  0.00    -0.086 C  
HETATM   17  C   UNL     1      -7.760  10.975  68.718  1.00  0.00    -0.135 C  
HETATM   18  C   UNL     1      -6.519  11.790  69.115  1.00  0.00    -0.097 C  
HETATM   19  C   UNL     1      -7.864  10.898  67.186  1.00  0.00    -0.127 C  
HETATM   20  O   UNL     1      -6.466  11.998  70.523  1.00  0.00    -0.513 OA 
HETATM   21  O   UNL     1      -7.898  12.197  66.612  1.00  0.00    -0.367 OA 
HETATM   22  H   UNL     1      -5.699  12.501  70.768  1.00  0.00     0.000 HD 
HETATM   23  H   UNL     1      -7.963  12.149  65.665  1.00  0.00     0.000 HD 
ENDBRANCH  15  16
ENDBRANCH  12  15
TORSDOF 2
ENDMDL
MODEL      178
REMARK 921   NORMALIZED FREE ENERGY PREDICTED BY IDOCK:   -4.40 KCAL/MOL
REMARK 922        TOTAL FREE ENERGY PREDICTED BY IDOCK:   -5.11 KCAL/MOL
REMARK 923 INTER-LIGAND FREE ENERGY PREDICTED BY IDOCK:   -4.87 KCAL/MOL
REMARK 924 INTRA-LIGAND FREE ENERGY PREDICTED BY IDOCK:   -0.25 KCAL/MOL
REMARK 927      BINDING AFFINITY PREDICTED BY RF-SCORE:    0.00 PKD
ROOT
HETATM    1  N   UNL     1      -9.633   9.404  65.913  1.00  0.00    -0.253 NA 
HETATM    2  H1  UNL     1      -9.912  10.105  66.599  1.00  0.00     0.000 HD 
HETATM    3  C   UNL     1      -9.482   8.109  66.283  1.00  0.00    -0.190 C  
HETATM    4  H2  UNL     1      -9.467   9.678  64.944  1.00  0.00     0.000 HD 
HETATM    5  N   UNL     1      -9.127   7.214  65.408  1.00  0.00    -0.359 N  
HETATM    6  H   UNL     1      -8.945   7.489  64.442  1.00  0.00     0.000 HD 
HETATM    7  C   UNL     1      -8.994   5.872  65.792  1.00  0.00    -0.120 C  
HETATM    8  C   UNL     1      -9.330   5.585  67.188  1.00  0.00    -0.115 A  
HETATM    9  O   UNL     1      -8.624   5.001  65.012  1.00  0.00    -0.139 OA 
HETATM   10  C   UNL     1      -9.689   6.611  68.026  1.00  0.00    -0.123 A  
HETATM   11  N   UNL     1      -9.753   7.881  67.611  1.00  0.00    -0.150 NA 
HETATM   12  N   UNL     1      -9.939   6.065  69.244  1.00  0.00    -0.154 NA 
HETATM   13  N   UNL     1      -9.357   4.391  67.878  1.00  0.00    -0.140 NA 
HETATM   14  C   UNL     1      -9.752   4.710  69.096  1.00  0.00    -0.185 A  
ENDROOT
BRANCH  12  15
HETATM   15  C   UNL     1     -10.348   6.723  70.467  1.00  0.00    -0.201 C  
BRANCH  15  16
HETATM   16  C   UNL     1     -11.862   6.908  70.611  1.00  0.00    -0.418 C  
HETATM   17  C   UNL     1     -12.359   7.776  71.792  1.00  0.00    -0.346 C  
HETATM   18  C   UNL     1     -11.888   9.237  71.720  1.00  0.00    -0.384 C  
HETATM   19  C   UNL     1     -13.896   7.725  71.826  1.00  0.00    -0.357 C  
HETATM   20  O   UNL     1     -10.471   9.329  71.824  1.00  0.00    -0.337 OA 
HETATM   21  O   UNL     1     -14.406   8.483  72.914  1.00  0.00    -0.895 OA 
HETATM   22  H   UNL     1     -10.180  10.232  71.780  1.00  0.00     0.000 HD 
HETATM   23  H   UNL     1     -15.356   8.451  72.936  1.00  0.00     0.000 HD 
ENDBRANCH  15  16
ENDBRANCH  12  15
TORSDOF 2
ENDMDL
MODEL      179
REMARK 921   NORMALIZED FREE ENERGY PREDICTED BY IDOCK:   -4.39 KCAL/MOL
REMARK 922        TOTAL FREE ENERGY PREDICTED BY IDOCK:   -5.11 KCAL/MOL
REMARK 923 INTER-LIGAND FREE ENERGY PREDICTED BY IDOCK:   -4.46 KCAL/MOL
REMARK 924 INTRA-LIGAND FREE ENERGY PREDICTED BY IDOCK:   -0.65 KCAL/MOL
REMARK 927      BINDING AFFINITY PREDICTED BY RF-SCORE:    0.00 PKD
ROOT
HETATM    1  N   UNL     1     -11.409   7.266  69.424  1.00  0.00    -0.476 NA 
HETATM    2  H1  UNL     1     -12.349   7.570  69.171  1.00  0.00     0.000 HD 
HETATM    3  C   UNL     1     -10.353   8.099  69.254  1.00  0.00    -0.217 C  
HETATM    4  H2  UNL     1     -11.263   6.332  69.808  1.00  0.00     0.000 HD 
HETATM    5  N   UNL     1      -9.154   7.712  69.578  1.00  0.00    -0.147 N  
HETATM    6  H   UNL     1      -9.004   6.772  69.947  1.00  0.00     0.000 HD 
HETATM    7  C   UNL     1      -8.069   8.585  69.420  1.00  0.00    -0.112 C  
HETATM    8  C   UNL     1      -8.410   9.924  68.932  1.00  0.00    -0.124 A  
HETATM    9  O   UNL     1      -6.917   8.252  69.675  1.00  0.00    -0.044 OA 
HETATM   10  C   UNL     1      -9.711  10.221  68.616  1.00  0.00    -0.167 A  
HETATM   11  N   UNL     1     -10.699   9.327  68.745  1.00  0.00    -0.194 NA 
HETATM   12  N   UNL     1      -9.736  11.511  68.192  1.00  0.00    -0.186 NA 
HETATM   13  N   UNL     1      -7.613  11.028  68.711  1.00  0.00    -0.119 NA 
HETATM   14  C   UNL     1      -8.442  11.967  68.296  1.00  0.00    -0.167 A  
ENDROOT
BRANCH  12  15
HETATM   15  C   UNL     1     -10.866  12.298  67.743  1.00  0.00    -0.221 C  
BRANCH  15  16
HETATM   16  C   UNL     1     -10.982  13.675  68.403  1.00  0.00    -0.284 C  
HETATM   17  C   UNL     1     -12.193  13.913  69.336  1.00  0.00    -0.338 C  
HETATM   18  C   UNL     1     -12.210  12.992  70.566  1.00  0.00    -0.313 C  
HETATM   19  C   UNL     1     -12.187  15.383  69.786  1.00  0.00    -0.306 C  
HETATM   20  O   UNL     1     -12.354  11.627  70.188  1.00  0.00    -0.274 OA 
HETATM   21  O   UNL     1     -13.300  15.665  70.622  1.00  0.00    -0.772 OA 
HETATM   22  H   UNL     1     -12.364  11.058  70.948  1.00  0.00     0.000 HD 
HETATM   23  H   UNL     1     -13.296  16.574  70.900  1.00  0.00     0.000 HD 
ENDBRANCH  15  16
ENDBRANCH  12  15
TORSDOF 2
ENDMDL
MODEL      180
REMARK 921   NORMALIZED FREE ENERGY PREDICTED BY IDOCK:   -4.38 KCAL/MOL
REMARK 922        TOTAL FREE ENERGY PREDICTED BY IDOCK:   -5.10 KCAL/MOL
REMARK 923 INTER-LIGAND FREE ENERGY PREDICTED BY IDOCK:   -4.80 KCAL/MOL
REMARK 924 INTRA-LIGAND FREE ENERGY PREDICTED BY IDOCK:   -0.30 KCAL/MOL
REMARK 927      BINDING AFFINITY PREDICTED BY RF-SCORE:    0.00 PKD
ROOT
HETATM    1  N   UNL     1     -10.396  10.405  66.002  1.00  0.00    -0.223 NA 
HETATM    2  H1  UNL     1     -10.320  11.103  65.262  1.00  0.00     0.000 HD 
HETATM    3  C   UNL     1     -10.822  10.764  67.237  1.00  0.00    -0.288 C  
HETATM    4  H2  UNL     1     -10.149   9.433  65.812  1.00  0.00     0.000 HD 
HETATM    5  N   UNL     1     -10.918   9.875  68.181  1.00  0.00    -0.427 N  
HETATM    6  H   UNL     1     -10.657   8.906  67.998  1.00  0.00     0.000 HD 
HETATM    7  C   UNL     1     -11.381  10.248  69.452  1.00  0.00    -0.221 C  
HETATM    8  C   UNL     1     -11.776  11.652  69.585  1.00  0.00    -0.350 A  
HETATM    9  O   UNL     1     -11.452   9.454  70.383  1.00  0.00    -0.256 OA 
HETATM   10  C   UNL     1     -11.626  12.505  68.521  1.00  0.00    -0.321 A  
HETATM   11  N   UNL     1     -11.134  12.098  67.345  1.00  0.00    -0.259 NA 
HETATM   12  N   UNL     1     -12.061  13.727  68.923  1.00  0.00    -0.350 NA 
HETATM   13  N   UNL     1     -12.310  12.336  70.658  1.00  0.00    -0.337 NA 
HETATM   14  C   UNL     1     -12.494  13.567  70.218  1.00  0.00    -0.239 A  
ENDROOT
BRANCH  12  15
HETATM   15  C   UNL     1     -12.109  14.965  68.172  1.00  0.00    -0.085 C  
BRANCH  15  16
HETATM   16  C   UNL     1     -10.740  15.600  67.909  1.00  0.00    -0.294 C  
HETATM   17  C   UNL     1     -10.463  16.977  68.559  1.00  0.00    -0.373 C  
HETATM   18  C   UNL     1     -10.486  16.946  70.095  1.00  0.00     0.266 C  
HETATM   19  C   UNL     1      -9.098  17.486  68.068  1.00  0.00    -0.269 C  
HETATM   20  O   UNL     1     -11.779  16.610  70.587  1.00  0.00    -0.439 OA 
HETATM   21  O   UNL     1      -8.806  18.766  68.611  1.00  0.00    -0.335 OA 
HETATM   22  H   UNL     1     -11.793  16.591  71.536  1.00  0.00     0.000 HD 
HETATM   23  H   UNL     1      -7.963  19.081  68.307  1.00  0.00     0.000 HD 
ENDBRANCH  15  16
ENDBRANCH  12  15
TORSDOF 2
ENDMDL
MODEL      181
REMARK 921   NORMALIZED FREE ENERGY PREDICTED BY IDOCK:   -4.37 KCAL/MOL
REMARK 922        TOTAL FREE ENERGY PREDICTED BY IDOCK:   -5.09 KCAL/MOL
REMARK 923 INTER-LIGAND FREE ENERGY PREDICTED BY IDOCK:   -4.86 KCAL/MOL
REMARK 924 INTRA-LIGAND FREE ENERGY PREDICTED BY IDOCK:   -0.22 KCAL/MOL
REMARK 927      BINDING AFFINITY PREDICTED BY RF-SCORE:    0.00 PKD
ROOT
HETATM    1  N   UNL     1     -12.241  11.173  68.954  1.00  0.00    -0.638 NA 
HETATM    2  H1  UNL     1     -11.398  11.398  68.425  1.00  0.00     0.000 HD 
HETATM    3  C   UNL     1     -12.177  10.325  70.009  1.00  0.00    -0.120 C  
HETATM    4  H2  UNL     1     -13.134  11.587  68.687  1.00  0.00     0.000 HD 
HETATM    5  N   UNL     1     -13.251  10.038  70.684  1.00  0.00    -0.607 N  
HETATM    6  H   UNL     1     -14.149  10.438  70.410  1.00  0.00     0.000 HD 
HETATM    7  C   UNL     1     -13.176   9.177  71.789  1.00  0.00    -0.396 C  
HETATM    8  C   UNL     1     -11.830   8.704  72.122  1.00  0.00    -0.377 A  
HETATM    9  O   UNL     1     -14.166   8.847  72.431  1.00  0.00    -0.466 OA 
HETATM   10  C   UNL     1     -10.767   9.068  71.334  1.00  0.00    -0.331 A  
HETATM   11  N   UNL     1     -10.910   9.857  70.263  1.00  0.00    -0.288 NA 
HETATM   12  N   UNL     1      -9.658   8.491  71.866  1.00  0.00    -0.256 NA 
HETATM   13  N   UNL     1     -11.391   7.900  73.153  1.00  0.00    -0.286 NA 
HETATM   14  C   UNL     1     -10.084   7.817  72.986  1.00  0.00    -0.320 A  
ENDROOT
BRANCH  12  15
HETATM   15  C   UNL     1      -8.287   8.566  71.406  1.00  0.00    -0.161 C  
BRANCH  15  16
HETATM   16  C   UNL     1      -8.122   8.460  69.887  1.00  0.00    -0.119 C  
HETATM   17  C   UNL     1      -7.581   7.122  69.326  1.00  0.00    -0.102 C  
HETATM   18  C   UNL     1      -8.499   5.922  69.610  1.00  0.00    -0.117 C  
HETATM   19  C   UNL     1      -7.374   7.273  67.810  1.00  0.00    -0.093 C  
HETATM   20  O   UNL     1      -8.602   5.670  71.007  1.00  0.00    -0.124 OA 
HETATM   21  O   UNL     1      -6.847   6.080  67.247  1.00  0.00    -0.059 OA 
HETATM   22  H   UNL     1      -9.169   4.929  71.182  1.00  0.00     0.000 HD 
HETATM   23  H   UNL     1      -6.718   6.173  66.310  1.00  0.00     0.000 HD 
ENDBRANCH  15  16
ENDBRANCH  12  15
TORSDOF 2
ENDMDL
MODEL      182
REMARK 921   NORMALIZED FREE ENERGY PREDICTED BY IDOCK:   -4.37 KCAL/MOL
REMARK 922        TOTAL FREE ENERGY PREDICTED BY IDOCK:   -5.09 KCAL/MOL
REMARK 923 INTER-LIGAND FREE ENERGY PREDICTED BY IDOCK:   -4.59 KCAL/MOL
REMARK 924 INTRA-LIGAND FREE ENERGY PREDICTED BY IDOCK:   -0.49 KCAL/MOL
REMARK 927      BINDING AFFINITY PREDICTED BY RF-SCORE:    0.00 PKD
ROOT
HETATM    1  N   UNL     1     -12.760  15.062  71.419  1.00  0.00    -0.314 NA 
HETATM    2  H1  UNL     1     -12.414  15.765  70.766  1.00  0.00     0.000 HD 
HETATM    3  C   UNL     1     -12.635  13.743  71.131  1.00  0.00    -0.373 C  
HETATM    4  H2  UNL     1     -13.201  15.352  72.292  1.00  0.00     0.000 HD 
HETATM    5  N   UNL     1     -13.076  12.847  71.964  1.00  0.00    -0.400 N  
HETATM    6  H   UNL     1     -13.532  13.135  72.830  1.00  0.00     0.000 HD 
HETATM    7  C   UNL     1     -12.925  11.483  71.672  1.00  0.00    -0.394 C  
HETATM    8  C   UNL     1     -12.210  11.187  70.428  1.00  0.00    -0.369 A  
HETATM    9  O   UNL     1     -13.359  10.603  72.407  1.00  0.00    -0.283 OA 
HETATM   10  C   UNL     1     -11.794  12.215  69.621  1.00  0.00    -0.322 A  
HETATM   11  N   UNL     1     -12.009  13.499  69.933  1.00  0.00    -0.335 NA 
HETATM   12  N   UNL     1     -11.172  11.658  68.550  1.00  0.00    -0.232 NA 
HETATM   13  N   UNL     1     -11.849   9.980  69.867  1.00  0.00    -0.136 NA 
HETATM   14  C   UNL     1     -11.206  10.299  68.759  1.00  0.00    -0.206 A  
ENDROOT
BRANCH  12  15
HETATM   15  C   UNL     1     -10.560  12.314  67.413  1.00  0.00    -0.222 C  
BRANCH  15  16
HETATM   16  C   UNL     1     -10.182  11.372  66.266  1.00  0.00    -0.274 C  
HETATM   17  C   UNL     1      -8.673  11.164  65.990  1.00  0.00    -0.185 C  
HETATM   18  C   UNL     1      -7.919  10.519  67.163  1.00  0.00    -0.116 C  
HETATM   19  C   UNL     1      -8.520  10.294  64.731  1.00  0.00    -0.174 C  
HETATM   20  O   UNL     1      -7.925  11.365  68.309  1.00  0.00    -0.121 OA 
HETATM   21  O   UNL     1      -7.149  10.096  64.413  1.00  0.00    -0.135 OA 
HETATM   22  H   UNL     1      -7.459  10.967  69.034  1.00  0.00     0.000 HD 
HETATM   23  H   UNL     1      -7.054   9.559  63.635  1.00  0.00     0.000 HD 
ENDBRANCH  15  16
ENDBRANCH  12  15
TORSDOF 2
ENDMDL
MODEL      183
REMARK 921   NORMALIZED FREE ENERGY PREDICTED BY IDOCK:   -4.35 KCAL/MOL
REMARK 922        TOTAL FREE ENERGY PREDICTED BY IDOCK:   -5.06 KCAL/MOL
REMARK 923 INTER-LIGAND FREE ENERGY PREDICTED BY IDOCK:   -4.72 KCAL/MOL
REMARK 924 INTRA-LIGAND FREE ENERGY PREDICTED BY IDOCK:   -0.34 KCAL/MOL
REMARK 927      BINDING AFFINITY PREDICTED BY RF-SCORE:    0.00 PKD
ROOT
HETATM    1  N   UNL     1     -11.194   9.613  71.164  1.00  0.00    -0.360 NA 
HETATM    2  H1  UNL     1     -11.007  10.592  71.384  1.00  0.00     0.000 HD 
HETATM    3  C   UNL     1     -10.886   9.118  69.941  1.00  0.00    -0.228 C  
HETATM    4  H2  UNL     1     -11.614   9.006  71.868  1.00  0.00     0.000 HD 
HETATM    5  N   UNL     1     -11.123   7.870  69.661  1.00  0.00    -0.441 N  
HETATM    6  H   UNL     1     -11.558   7.264  70.358  1.00  0.00     0.000 HD 
HETATM    7  C   UNL     1     -10.782   7.357  68.401  1.00  0.00    -0.096 C  
HETATM    8  C   UNL     1     -10.118   8.302  67.501  1.00  0.00    -0.225 A  
HETATM    9  O   UNL     1     -11.022   6.199  68.079  1.00  0.00    -0.312 OA 
HETATM   10  C   UNL     1      -9.923   9.600  67.900  1.00  0.00    -0.166 A  
HETATM   11  N   UNL     1     -10.313  10.042  69.101  1.00  0.00    -0.202 NA 
HETATM   12  N   UNL     1      -9.298  10.243  66.881  1.00  0.00    -0.156 NA 
HETATM   13  N   UNL     1      -9.613   8.126  66.229  1.00  0.00    -0.207 NA 
HETATM   14  C   UNL     1      -9.105   9.298  65.900  1.00  0.00    -0.197 A  
ENDROOT
BRANCH  12  15
HETATM   15  C   UNL     1      -8.874  11.626  66.804  1.00  0.00    -0.184 C  
BRANCH  15  16
HETATM   16  C   UNL     1     -10.002  12.618  66.504  1.00  0.00    -0.256 C  
HETATM   17  C   UNL     1     -10.477  13.522  67.667  1.00  0.00    -0.239 C  
HETATM   18  C   UNL     1      -9.385  14.466  68.196  1.00  0.00    -0.203 C  
HETATM   19  C   UNL     1     -11.687  14.342  67.190  1.00  0.00    -0.400 C  
HETATM   20  O   UNL     1      -8.306  13.736  68.772  1.00  0.00    -0.300 OA 
HETATM   21  O   UNL     1     -12.185  15.170  68.232  1.00  0.00    -0.552 OA 
HETATM   22  H   UNL     1      -7.631  14.319  69.098  1.00  0.00     0.000 HD 
HETATM   23  H   UNL     1     -12.933  15.676  67.937  1.00  0.00     0.000 HD 
ENDBRANCH  15  16
ENDBRANCH  12  15
TORSDOF 2
ENDMDL
MODEL      184
REMARK 921   NORMALIZED FREE ENERGY PREDICTED BY IDOCK:   -4.33 KCAL/MOL
REMARK 922        TOTAL FREE ENERGY PREDICTED BY IDOCK:   -5.04 KCAL/MOL
REMARK 923 INTER-LIGAND FREE ENERGY PREDICTED BY IDOCK:   -4.35 KCAL/MOL
REMARK 924 INTRA-LIGAND FREE ENERGY PREDICTED BY IDOCK:   -0.69 KCAL/MOL
REMARK 927      BINDING AFFINITY PREDICTED BY RF-SCORE:    0.00 PKD
ROOT
HETATM    1  N   UNL     1      -6.706  18.770  65.358  1.00  0.00    -0.469 NA 
HETATM    2  H1  UNL     1      -6.984  18.199  64.560  1.00  0.00     0.000 HD 
HETATM    3  C   UNL     1      -6.658  18.230  66.600  1.00  0.00    -0.193 C  
HETATM    4  H2  UNL     1      -6.463  19.752  65.221  1.00  0.00     0.000 HD 
HETATM    5  N   UNL     1      -6.303  18.958  67.618  1.00  0.00    -0.203 N  
HETATM    6  H   UNL     1      -6.076  19.944  67.485  1.00  0.00     0.000 HD 
HETATM    7  C   UNL     1      -6.234  18.389  68.897  1.00  0.00    -0.222 C  
HETATM    8  C   UNL     1      -6.531  16.956  68.960  1.00  0.00    -0.202 A  
HETATM    9  O   UNL     1      -5.943  19.044  69.891  1.00  0.00    -0.249 OA 
HETATM   10  C   UNL     1      -6.901  16.287  67.821  1.00  0.00    -0.135 A  
HETATM   11  N   UNL     1      -6.994  16.898  66.634  1.00  0.00    -0.229 NA 
HETATM   12  N   UNL     1      -7.118  14.992  68.168  1.00  0.00    -0.110 NA 
HETATM   13  N   UNL     1      -6.512  16.081  70.027  1.00  0.00    -0.112 NA 
HETATM   14  C   UNL     1      -6.840  14.911  69.512  1.00  0.00    -0.172 A  
ENDROOT
BRANCH  12  15
HETATM   15  C   UNL     1      -7.527  13.884  67.330  1.00  0.00    -0.128 C  
BRANCH  15  16
HETATM   16  C   UNL     1      -8.910  13.315  67.662  1.00  0.00    -0.200 C  
HETATM   17  C   UNL     1     -10.125  14.255  67.470  1.00  0.00    -0.236 C  
HETATM   18  C   UNL     1     -10.330  14.703  66.015  1.00  0.00    -0.305 C  
HETATM   19  C   UNL     1     -11.386  13.536  67.977  1.00  0.00    -0.285 C  
HETATM   20  O   UNL     1      -9.236  15.491  65.558  1.00  0.00    -0.313 OA 
HETATM   21  O   UNL     1     -12.531  14.368  67.853  1.00  0.00    -0.586 OA 
HETATM   22  H   UNL     1      -9.363  15.768  64.658  1.00  0.00     0.000 HD 
HETATM   23  H   UNL     1     -13.311  13.924  68.167  1.00  0.00     0.000 HD 
ENDBRANCH  15  16
ENDBRANCH  12  15
TORSDOF 2
ENDMDL
MODEL      185
REMARK 921   NORMALIZED FREE ENERGY PREDICTED BY IDOCK:   -4.31 KCAL/MOL
REMARK 922        TOTAL FREE ENERGY PREDICTED BY IDOCK:   -5.02 KCAL/MOL
REMARK 923 INTER-LIGAND FREE ENERGY PREDICTED BY IDOCK:   -4.80 KCAL/MOL
REMARK 924 INTRA-LIGAND FREE ENERGY PREDICTED BY IDOCK:   -0.22 KCAL/MOL
REMARK 927      BINDING AFFINITY PREDICTED BY RF-SCORE:    0.00 PKD
ROOT
HETATM    1  N   UNL     1     -11.291   4.486  65.065  1.00  0.00    -1.108 NA 
HETATM    2  H1  UNL     1     -11.749   5.292  64.639  1.00  0.00     0.000 HD 
HETATM    3  C   UNL     1     -10.516   4.644  66.166  1.00  0.00    -0.241 C  
HETATM    4  H2  UNL     1     -11.418   3.557  64.662  1.00  0.00     0.000 HD 
HETATM    5  N   UNL     1      -9.933   3.617  66.709  1.00  0.00    -0.336 N  
HETATM    6  H   UNL     1     -10.044   2.690  66.298  1.00  0.00     0.000 HD 
HETATM    7  C   UNL     1      -9.150   3.784  67.861  1.00  0.00    -0.152 C  
HETATM    8  C   UNL     1      -9.103   5.148  68.392  1.00  0.00    -0.112 A  
HETATM    9  O   UNL     1      -8.549   2.853  68.385  1.00  0.00    -0.076 OA 
HETATM   10  C   UNL     1      -9.754   6.158  67.732  1.00  0.00    -0.116 A  
HETATM   11  N   UNL     1     -10.449   5.943  66.608  1.00  0.00    -0.250 NA 
HETATM   12  N   UNL     1      -9.541   7.300  68.435  1.00  0.00    -0.139 NA 
HETATM   13  N   UNL     1      -8.480   5.652  69.515  1.00  0.00    -0.109 NA 
HETATM   14  C   UNL     1      -8.786   6.936  69.525  1.00  0.00    -0.133 A  
ENDROOT
BRANCH  12  15
HETATM   15  C   UNL     1     -10.012   8.641  68.154  1.00  0.00    -0.178 C  
BRANCH  15  16
HETATM   16  C   UNL     1     -10.865   9.258  69.266  1.00  0.00    -0.170 C  
HETATM   17  C   UNL     1     -11.010  10.799  69.273  1.00  0.00    -0.292 C  
HETATM   18  C   UNL     1     -11.708  11.354  68.021  1.00  0.00    -0.254 C  
HETATM   19  C   UNL     1     -11.790  11.214  70.531  1.00  0.00    -0.351 C  
HETATM   20  O   UNL     1     -10.940  11.106  66.848  1.00  0.00    -0.278 OA 
HETATM   21  O   UNL     1     -11.926  12.626  70.604  1.00  0.00    -0.510 OA 
HETATM   22  H   UNL     1     -11.371  11.449  66.075  1.00  0.00     0.000 HD 
HETATM   23  H   UNL     1     -12.408  12.883  71.382  1.00  0.00     0.000 HD 
ENDBRANCH  15  16
ENDBRANCH  12  15
TORSDOF 2
ENDMDL
MODEL      186
REMARK 921   NORMALIZED FREE ENERGY PREDICTED BY IDOCK:   -4.27 KCAL/MOL
REMARK 922        TOTAL FREE ENERGY PREDICTED BY IDOCK:   -4.97 KCAL/MOL
REMARK 923 INTER-LIGAND FREE ENERGY PREDICTED BY IDOCK:   -4.32 KCAL/MOL
REMARK 924 INTRA-LIGAND FREE ENERGY PREDICTED BY IDOCK:   -0.65 KCAL/MOL
REMARK 927      BINDING AFFINITY PREDICTED BY RF-SCORE:    0.00 PKD
ROOT
HETATM    1  N   UNL     1      -5.949   7.460  71.388  1.00  0.00    -0.036 NA 
HETATM    2  H1  UNL     1      -6.281   7.218  72.322  1.00  0.00     0.000 HD 
HETATM    3  C   UNL     1      -6.778   7.360  70.321  1.00  0.00    -0.047 C  
HETATM    4  H2  UNL     1      -4.988   7.778  71.257  1.00  0.00     0.000 HD 
HETATM    5  N   UNL     1      -6.355   7.668  69.130  1.00  0.00    -0.035 N  
HETATM    6  H   UNL     1      -5.390   7.971  68.995  1.00  0.00     0.000 HD 
HETATM    7  C   UNL     1      -7.224   7.584  68.033  1.00  0.00    -0.090 C  
HETATM    8  C   UNL     1      -8.597   7.188  68.353  1.00  0.00    -0.123 A  
HETATM    9  O   UNL     1      -6.859   7.826  66.888  1.00  0.00    -0.068 OA 
HETATM   10  C   UNL     1      -8.932   6.880  69.648  1.00  0.00    -0.144 A  
HETATM   11  N   UNL     1      -8.044   6.935  70.647  1.00  0.00    -0.117 NA 
HETATM   12  N   UNL     1     -10.249   6.548  69.653  1.00  0.00    -0.180 NA 
HETATM   13  N   UNL     1      -9.705   7.053  67.542  1.00  0.00    -0.132 NA 
HETATM   14  C   UNL     1     -10.681   6.697  68.355  1.00  0.00    -0.258 A  
ENDROOT
BRANCH  12  15
HETATM   15  C   UNL     1     -11.079   6.144  70.769  1.00  0.00    -0.309 C  
BRANCH  15  16
HETATM   16  C   UNL     1     -12.437   6.851  70.838  1.00  0.00    -0.314 C  
HETATM   17  C   UNL     1     -12.651   7.859  71.993  1.00  0.00    -0.327 C  
HETATM   18  C   UNL     1     -11.693   9.059  71.944  1.00  0.00    -0.374 C  
HETATM   19  C   UNL     1     -14.107   8.351  71.951  1.00  0.00    -0.442 C  
HETATM   20  O   UNL     1     -10.341   8.649  72.118  1.00  0.00    -0.316 OA 
HETATM   21  O   UNL     1     -14.368   9.259  73.012  1.00  0.00    -1.004 OA 
HETATM   22  H   UNL     1      -9.749   9.391  72.089  1.00  0.00     0.000 HD 
HETATM   23  H   UNL     1     -15.268   9.563  72.987  1.00  0.00     0.000 HD 
ENDBRANCH  15  16
ENDBRANCH  12  15
TORSDOF 2
ENDMDL
MODEL      187
REMARK 921   NORMALIZED FREE ENERGY PREDICTED BY IDOCK:   -4.23 KCAL/MOL
REMARK 922        TOTAL FREE ENERGY PREDICTED BY IDOCK:   -4.93 KCAL/MOL
REMARK 923 INTER-LIGAND FREE ENERGY PREDICTED BY IDOCK:   -4.66 KCAL/MOL
REMARK 924 INTRA-LIGAND FREE ENERGY PREDICTED BY IDOCK:   -0.27 KCAL/MOL
REMARK 927      BINDING AFFINITY PREDICTED BY RF-SCORE:    0.00 PKD
ROOT
HETATM    1  N   UNL     1     -13.158  13.478  65.029  1.00  0.00    -0.717 NA 
HETATM    2  H1  UNL     1     -13.266  12.543  64.634  1.00  0.00     0.000 HD 
HETATM    3  C   UNL     1     -12.167  13.734  65.916  1.00  0.00    -0.466 C  
HETATM    4  H2  UNL     1     -13.800  14.223  64.754  1.00  0.00     0.000 HD 
HETATM    5  N   UNL     1     -12.029  14.926  66.419  1.00  0.00    -0.154 N  
HETATM    6  H   UNL     1     -12.679  15.668  66.158  1.00  0.00     0.000 HD 
HETATM    7  C   UNL     1     -10.988  15.191  67.320  1.00  0.00    -0.327 C  
HETATM    8  C   UNL     1     -10.087  14.066  67.582  1.00  0.00    -0.241 A  
HETATM    9  O   UNL     1     -10.842  16.287  67.849  1.00  0.00    -0.325 OA 
HETATM   10  C   UNL     1     -10.332  12.849  66.999  1.00  0.00    -0.242 A  
HETATM   11  N   UNL     1     -11.372  12.646  66.181  1.00  0.00    -0.312 NA 
HETATM   12  N   UNL     1      -9.354  12.001  67.414  1.00  0.00    -0.175 NA 
HETATM   13  N   UNL     1      -8.952  13.988  68.363  1.00  0.00    -0.192 NA 
HETATM   14  C   UNL     1      -8.524  12.748  68.217  1.00  0.00    -0.161 A  
ENDROOT
BRANCH  12  15
HETATM   15  C   UNL     1      -9.164  10.604  67.084  1.00  0.00    -0.147 C  
BRANCH  15  16
HETATM   16  C   UNL     1      -8.323   9.822  68.098  1.00  0.00    -0.110 C  
HETATM   17  C   UNL     1      -8.991   9.470  69.449  1.00  0.00    -0.174 C  
HETATM   18  C   UNL     1     -10.214   8.550  69.307  1.00  0.00    -0.208 C  
HETATM   19  C   UNL     1      -7.943   8.806  70.357  1.00  0.00    -0.112 C  
HETATM   20  O   UNL     1     -11.261   9.190  68.585  1.00  0.00    -0.448 OA 
HETATM   21  O   UNL     1      -8.496   8.489  71.627  1.00  0.00    -0.150 OA 
HETATM   22  H   UNL     1     -12.017   8.622  68.497  1.00  0.00     0.000 HD 
HETATM   23  H   UNL     1      -7.848   8.079  72.188  1.00  0.00     0.000 HD 
ENDBRANCH  15  16
ENDBRANCH  12  15
TORSDOF 2
ENDMDL
MODEL      188
REMARK 921   NORMALIZED FREE ENERGY PREDICTED BY IDOCK:   -4.23 KCAL/MOL
REMARK 922        TOTAL FREE ENERGY PREDICTED BY IDOCK:   -4.93 KCAL/MOL
REMARK 923 INTER-LIGAND FREE ENERGY PREDICTED BY IDOCK:   -4.64 KCAL/MOL
REMARK 924 INTRA-LIGAND FREE ENERGY PREDICTED BY IDOCK:   -0.28 KCAL/MOL
REMARK 927      BINDING AFFINITY PREDICTED BY RF-SCORE:    0.00 PKD
ROOT
HETATM    1  N   UNL     1     -11.908  15.608  70.340  1.00  0.00    -0.341 NA 
HETATM    2  H1  UNL     1     -12.079  14.980  71.126  1.00  0.00     0.000 HD 
HETATM    3  C   UNL     1     -11.569  15.107  69.128  1.00  0.00    -0.323 C  
HETATM    4  H2  UNL     1     -11.993  16.617  70.469  1.00  0.00     0.000 HD 
HETATM    5  N   UNL     1     -11.351  15.908  68.126  1.00  0.00    -0.338 N  
HETATM    6  H   UNL     1     -11.419  16.918  68.256  1.00  0.00     0.000 HD 
HETATM    7  C   UNL     1     -11.022  15.384  66.868  1.00  0.00    -0.294 C  
HETATM    8  C   UNL     1     -11.003  13.922  66.786  1.00  0.00    -0.299 A  
HETATM    9  O   UNL     1     -10.770  16.100  65.905  1.00  0.00    -0.314 OA 
HETATM   10  C   UNL     1     -11.244  13.174  67.911  1.00  0.00    -0.270 A  
HETATM   11  N   UNL     1     -11.508  13.735  69.097  1.00  0.00    -0.279 NA 
HETATM   12  N   UNL     1     -11.160  11.867  67.550  1.00  0.00    -0.255 NA 
HETATM   13  N   UNL     1     -10.771  13.086  65.713  1.00  0.00    -0.271 NA 
HETATM   14  C   UNL     1     -10.901  11.866  66.199  1.00  0.00    -0.292 A  
ENDROOT
BRANCH  12  15
HETATM   15  C   UNL     1     -11.331  10.686  68.370  1.00  0.00    -0.283 C  
BRANCH  15  16
HETATM   16  C   UNL     1     -10.564   9.456  67.877  1.00  0.00    -0.293 C  
HETATM   17  C   UNL     1      -9.165   9.203  68.488  1.00  0.00    -0.136 C  
HETATM   18  C   UNL     1      -9.195   8.946  70.003  1.00  0.00    -0.174 C  
HETATM   19  C   UNL     1      -8.524   8.004  67.768  1.00  0.00    -0.128 C  
HETATM   20  O   UNL     1      -9.656  10.091  70.712  1.00  0.00    -0.268 OA 
HETATM   21  O   UNL     1      -7.221   7.746  68.271  1.00  0.00    -0.084 OA 
HETATM   22  H   UNL     1      -9.674   9.933  71.648  1.00  0.00     0.000 HD 
HETATM   23  H   UNL     1      -6.824   7.006  67.826  1.00  0.00     0.000 HD 
ENDBRANCH  15  16
ENDBRANCH  12  15
TORSDOF 2
ENDMDL
MODEL      189
REMARK 921   NORMALIZED FREE ENERGY PREDICTED BY IDOCK:   -4.22 KCAL/MOL
REMARK 922        TOTAL FREE ENERGY PREDICTED BY IDOCK:   -4.91 KCAL/MOL
REMARK 923 INTER-LIGAND FREE ENERGY PREDICTED BY IDOCK:   -4.59 KCAL/MOL
REMARK 924 INTRA-LIGAND FREE ENERGY PREDICTED BY IDOCK:   -0.32 KCAL/MOL
REMARK 927      BINDING AFFINITY PREDICTED BY RF-SCORE:    0.00 PKD
ROOT
HETATM    1  N   UNL     1      -7.467  18.820  65.654  1.00  0.00    -0.499 NA 
HETATM    2  H1  UNL     1      -8.246  18.921  65.003  1.00  0.00     0.000 HD 
HETATM    3  C   UNL     1      -7.579  18.004  66.730  1.00  0.00    -0.220 C  
HETATM    4  H2  UNL     1      -6.600  19.335  65.495  1.00  0.00     0.000 HD 
HETATM    5  N   UNL     1      -6.586  17.874  67.561  1.00  0.00    -0.170 N  
HETATM    6  H   UNL     1      -5.725  18.400  67.412  1.00  0.00     0.000 HD 
HETATM    7  C   UNL     1      -6.700  17.011  68.660  1.00  0.00    -0.182 C  
HETATM    8  C   UNL     1      -7.960  16.269  68.745  1.00  0.00    -0.221 A  
HETATM    9  O   UNL     1      -5.806  16.887  69.490  1.00  0.00    -0.174 OA 
HETATM   10  C   UNL     1      -8.943  16.490  67.814  1.00  0.00    -0.202 A  
HETATM   11  N   UNL     1      -8.792  17.363  66.811  1.00  0.00    -0.242 NA 
HETATM   12  N   UNL     1      -9.987  15.682  68.133  1.00  0.00    -0.216 NA 
HETATM   13  N   UNL     1      -8.382  15.319  69.651  1.00  0.00    -0.191 NA 
HETATM   14  C   UNL     1      -9.587  14.969  69.239  1.00  0.00    -0.180 A  
ENDROOT
BRANCH  12  15
HETATM   15  C   UNL     1     -11.263  15.541  67.464  1.00  0.00    -0.272 C  
BRANCH  15  16
HETATM   16  C   UNL     1     -11.212  14.730  66.166  1.00  0.00    -0.337 C  
HETATM   17  C   UNL     1     -10.796  13.244  66.276  1.00  0.00    -0.293 C  
HETATM   18  C   UNL     1     -11.764  12.397  67.117  1.00  0.00    -0.345 C  
HETATM   19  C   UNL     1     -10.686  12.658  64.859  1.00  0.00    -0.299 C  
HETATM   20  O   UNL     1     -11.785  12.829  68.473  1.00  0.00    -0.296 OA 
HETATM   21  O   UNL     1     -10.274  11.299  64.900  1.00  0.00    -0.251 OA 
HETATM   22  H   UNL     1     -12.383  12.305  68.993  1.00  0.00     0.000 HD 
HETATM   23  H   UNL     1     -10.206  10.937  64.024  1.00  0.00     0.000 HD 
ENDBRANCH  15  16
ENDBRANCH  12  15
TORSDOF 2
ENDMDL
MODEL      190
REMARK 921   NORMALIZED FREE ENERGY PREDICTED BY IDOCK:   -4.21 KCAL/MOL
REMARK 922        TOTAL FREE ENERGY PREDICTED BY IDOCK:   -4.91 KCAL/MOL
REMARK 923 INTER-LIGAND FREE ENERGY PREDICTED BY IDOCK:   -4.35 KCAL/MOL
REMARK 924 INTRA-LIGAND FREE ENERGY PREDICTED BY IDOCK:   -0.56 KCAL/MOL
REMARK 927      BINDING AFFINITY PREDICTED BY RF-SCORE:    0.00 PKD
ROOT
HETATM    1  N   UNL     1      -6.458   8.761  65.720  1.00  0.00    -0.056 NA 
HETATM    2  H1  UNL     1      -5.684   9.425  65.686  1.00  0.00     0.000 HD 
HETATM    3  C   UNL     1      -7.680   9.159  66.150  1.00  0.00    -0.095 C  
HETATM    4  H2  UNL     1      -6.312   7.794  65.428  1.00  0.00     0.000 HD 
HETATM    5  N   UNL     1      -8.667   8.313  66.193  1.00  0.00    -0.141 N  
HETATM    6  H   UNL     1      -8.519   7.342  65.917  1.00  0.00     0.000 HD 
HETATM    7  C   UNL     1      -9.935   8.736  66.618  1.00  0.00    -0.285 C  
HETATM    8  C   UNL     1     -10.043  10.161  66.939  1.00  0.00    -0.223 A  
HETATM    9  O   UNL     1     -10.885   7.967  66.712  1.00  0.00    -0.214 OA 
HETATM   10  C   UNL     1      -8.931  10.962  66.864  1.00  0.00    -0.151 A  
HETATM   11  N   UNL     1      -7.735  10.488  66.495  1.00  0.00    -0.125 NA 
HETATM   12  N   UNL     1      -9.316  12.216  67.215  1.00  0.00    -0.178 NA 
HETATM   13  N   UNL     1     -11.130  10.912  67.335  1.00  0.00    -0.310 NA 
HETATM   14  C   UNL     1     -10.667  12.141  67.464  1.00  0.00    -0.232 A  
ENDROOT
BRANCH  12  15
HETATM   15  C   UNL     1      -8.517  13.421  67.296  1.00  0.00    -0.200 C  
BRANCH  15  16
HETATM   16  C   UNL     1      -9.312  14.688  67.630  1.00  0.00    -0.200 C  
HETATM   17  C   UNL     1      -9.543  15.700  66.482  1.00  0.00    -0.293 C  
HETATM   18  C   UNL     1     -10.368  15.129  65.318  1.00  0.00    -0.396 C  
HETATM   19  C   UNL     1     -10.242  16.943  67.056  1.00  0.00    -0.297 C  
HETATM   20  O   UNL     1      -9.683  14.060  64.674  1.00  0.00    -0.539 OA 
HETATM   21  O   UNL     1     -10.451  17.921  66.048  1.00  0.00    -0.413 OA 
HETATM   22  H   UNL     1     -10.193  13.707  63.955  1.00  0.00     0.000 HD 
HETATM   23  H   UNL     1     -10.883  18.690  66.403  1.00  0.00     0.000 HD 
ENDBRANCH  15  16
ENDBRANCH  12  15
TORSDOF 2
ENDMDL
MODEL      191
REMARK 921   NORMALIZED FREE ENERGY PREDICTED BY IDOCK:   -4.21 KCAL/MOL
REMARK 922        TOTAL FREE ENERGY PREDICTED BY IDOCK:   -4.90 KCAL/MOL
REMARK 923 INTER-LIGAND FREE ENERGY PREDICTED BY IDOCK:   -4.34 KCAL/MOL
REMARK 924 INTRA-LIGAND FREE ENERGY PREDICTED BY IDOCK:   -0.56 KCAL/MOL
REMARK 927      BINDING AFFINITY PREDICTED BY RF-SCORE:    0.00 PKD
ROOT
HETATM    1  N   UNL     1     -11.872   6.686  69.839  1.00  0.00    -0.653 NA 
HETATM    2  H1  UNL     1     -12.601   7.110  69.264  1.00  0.00     0.000 HD 
HETATM    3  C   UNL     1     -10.575   7.035  69.662  1.00  0.00    -0.234 C  
HETATM    4  H2  UNL     1     -12.122   5.997  70.550  1.00  0.00     0.000 HD 
HETATM    5  N   UNL     1      -9.646   6.494  70.395  1.00  0.00    -0.162 N  
HETATM    6  H   UNL     1      -9.891   5.793  71.095  1.00  0.00     0.000 HD 
HETATM    7  C   UNL     1      -8.307   6.875  70.222  1.00  0.00    -0.134 C  
HETATM    8  C   UNL     1      -8.079   7.925  69.227  1.00  0.00    -0.126 A  
HETATM    9  O   UNL     1      -7.394   6.365  70.861  1.00  0.00    -0.079 OA 
HETATM   10  C   UNL     1      -9.136   8.420  68.506  1.00  0.00    -0.136 A  
HETATM   11  N   UNL     1     -10.388   7.982  68.685  1.00  0.00    -0.207 NA 
HETATM   12  N   UNL     1      -8.641   9.365  67.665  1.00  0.00    -0.116 NA 
HETATM   13  N   UNL     1      -6.916   8.560  68.843  1.00  0.00    -0.061 NA 
HETATM   14  C   UNL     1      -7.293   9.434  67.928  1.00  0.00    -0.083 A  
ENDROOT
BRANCH  12  15
HETATM   15  C   UNL     1      -9.348  10.178  66.698  1.00  0.00    -0.162 C  
BRANCH  15  16
HETATM   16  C   UNL     1      -9.286  11.684  66.971  1.00  0.00    -0.186 C  
HETATM   17  C   UNL     1     -10.631  12.447  67.032  1.00  0.00    -0.248 C  
HETATM   18  C   UNL     1     -11.552  11.977  68.169  1.00  0.00    -0.340 C  
HETATM   19  C   UNL     1     -10.338  13.949  67.186  1.00  0.00    -0.265 C  
HETATM   20  O   UNL     1     -11.955  10.624  67.982  1.00  0.00    -0.784 OA 
HETATM   21  O   UNL     1     -11.542  14.702  67.216  1.00  0.00    -0.365 OA 
HETATM   22  H   UNL     1     -12.524  10.333  68.684  1.00  0.00     0.000 HD 
HETATM   23  H   UNL     1     -11.361  15.630  67.311  1.00  0.00     0.000 HD 
ENDBRANCH  15  16
ENDBRANCH  12  15
TORSDOF 2
ENDMDL
MODEL      192
REMARK 921   NORMALIZED FREE ENERGY PREDICTED BY IDOCK:   -4.17 KCAL/MOL
REMARK 922        TOTAL FREE ENERGY PREDICTED BY IDOCK:   -4.86 KCAL/MOL
REMARK 923 INTER-LIGAND FREE ENERGY PREDICTED BY IDOCK:   -4.53 KCAL/MOL
REMARK 924 INTRA-LIGAND FREE ENERGY PREDICTED BY IDOCK:   -0.34 KCAL/MOL
REMARK 927      BINDING AFFINITY PREDICTED BY RF-SCORE:    0.00 PKD
ROOT
HETATM    1  N   UNL     1     -11.737  13.018  69.812  1.00  0.00    -0.429 NA 
HETATM    2  H1  UNL     1     -11.926  12.403  70.605  1.00  0.00     0.000 HD 
HETATM    3  C   UNL     1     -11.225  12.513  68.664  1.00  0.00    -0.278 C  
HETATM    4  H2  UNL     1     -11.934  14.016  69.886  1.00  0.00     0.000 HD 
HETATM    5  N   UNL     1     -10.985  13.297  67.654  1.00  0.00    -0.257 N  
HETATM    6  H   UNL     1     -11.166  14.298  67.730  1.00  0.00     0.000 HD 
HETATM    7  C   UNL     1     -10.476  12.766  66.460  1.00  0.00    -0.263 C  
HETATM    8  C   UNL     1     -10.303  11.311  66.446  1.00  0.00    -0.245 A  
HETATM    9  O   UNL     1     -10.197  13.469  65.496  1.00  0.00    -0.291 OA 
HETATM   10  C   UNL     1     -10.585  10.582  67.574  1.00  0.00    -0.259 A  
HETATM   11  N   UNL     1     -11.025  11.154  68.701  1.00  0.00    -0.202 NA 
HETATM   12  N   UNL     1     -10.334   9.280  67.283  1.00  0.00    -0.250 NA 
HETATM   13  N   UNL     1      -9.878  10.467  65.442  1.00  0.00    -0.263 NA 
HETATM   14  C   UNL     1      -9.936   9.257  65.967  1.00  0.00    -0.255 A  
ENDROOT
BRANCH  12  15
HETATM   15  C   UNL     1     -10.471   8.116  68.135  1.00  0.00    -0.170 C  
BRANCH  15  16
HETATM   16  C   UNL     1      -9.243   7.202  68.161  1.00  0.00    -0.131 C  
HETATM   17  C   UNL     1      -9.479   5.693  67.911  1.00  0.00    -0.120 C  
HETATM   18  C   UNL     1     -10.049   5.385  66.517  1.00  0.00    -0.216 C  
HETATM   19  C   UNL     1      -8.148   4.948  68.106  1.00  0.00    -0.086 C  
HETATM   20  O   UNL     1     -11.346   5.948  66.353  1.00  0.00    -0.730 OA 
HETATM   21  O   UNL     1      -8.315   3.550  67.918  1.00  0.00    -0.083 OA 
HETATM   22  H   UNL     1     -11.698   5.757  65.492  1.00  0.00     0.000 HD 
HETATM   23  H   UNL     1      -7.493   3.089  68.039  1.00  0.00     0.000 HD 
ENDBRANCH  15  16
ENDBRANCH  12  15
TORSDOF 2
ENDMDL
MODEL      193
REMARK 921   NORMALIZED FREE ENERGY PREDICTED BY IDOCK:   -4.17 KCAL/MOL
REMARK 922        TOTAL FREE ENERGY PREDICTED BY IDOCK:   -4.86 KCAL/MOL
REMARK 923 INTER-LIGAND FREE ENERGY PREDICTED BY IDOCK:   -4.21 KCAL/MOL
REMARK 924 INTRA-LIGAND FREE ENERGY PREDICTED BY IDOCK:   -0.64 KCAL/MOL
REMARK 927      BINDING AFFINITY PREDICTED BY RF-SCORE:    0.00 PKD
ROOT
HETATM    1  N   UNL     1      -6.516  14.387  68.181  1.00  0.00    -0.121 NA 
HETATM    2  H1  UNL     1      -6.586  15.349  68.512  1.00  0.00     0.000 HD 
HETATM    3  C   UNL     1      -7.636  13.647  67.994  1.00  0.00    -0.139 C  
HETATM    4  H2  UNL     1      -5.600  13.980  67.991  1.00  0.00     0.000 HD 
HETATM    5  N   UNL     1      -7.547  12.419  67.572  1.00  0.00    -0.144 N  
HETATM    6  H   UNL     1      -6.631  12.005  67.396  1.00  0.00     0.000 HD 
HETATM    7  C   UNL     1      -8.710  11.665  67.359  1.00  0.00    -0.155 C  
HETATM    8  C   UNL     1      -9.968  12.378  67.593  1.00  0.00    -0.200 A  
HETATM    9  O   UNL     1      -8.675  10.494  66.999  1.00  0.00    -0.130 OA 
HETATM   10  C   UNL     1      -9.943  13.673  68.044  1.00  0.00    -0.247 A  
HETATM   11  N   UNL     1      -8.797  14.326  68.274  1.00  0.00    -0.179 NA 
HETATM   12  N   UNL     1     -11.233  14.077  68.177  1.00  0.00    -0.263 NA 
HETATM   13  N   UNL     1     -11.275  11.965  67.438  1.00  0.00    -0.284 NA 
HETATM   14  C   UNL     1     -12.004  13.015  67.768  1.00  0.00    -0.295 A  
ENDROOT
BRANCH  12  15
HETATM   15  C   UNL     1     -11.741  15.358  68.621  1.00  0.00    -0.354 C  
BRANCH  15  16
HETATM   16  C   UNL     1     -12.822  15.270  69.703  1.00  0.00     0.153 C  
HETATM   17  C   UNL     1     -12.419  14.634  71.055  1.00  0.00    -0.399 C  
HETATM   18  C   UNL     1     -11.320  15.413  71.796  1.00  0.00    -0.382 C  
HETATM   19  C   UNL     1     -13.671  14.529  71.941  1.00  0.00    -0.428 C  
HETATM   20  O   UNL     1     -10.101  15.413  71.061  1.00  0.00    -0.077 OA 
HETATM   21  O   UNL     1     -13.363  13.921  73.188  1.00  0.00    -0.571 OA 
HETATM   22  H   UNL     1      -9.422  15.894  71.518  1.00  0.00     0.000 HD 
HETATM   23  H   UNL     1     -14.137  13.855  73.735  1.00  0.00     0.000 HD 
ENDBRANCH  15  16
ENDBRANCH  12  15
TORSDOF 2
ENDMDL
MODEL      194
REMARK 921   NORMALIZED FREE ENERGY PREDICTED BY IDOCK:   -4.14 KCAL/MOL
REMARK 922        TOTAL FREE ENERGY PREDICTED BY IDOCK:   -4.82 KCAL/MOL
REMARK 923 INTER-LIGAND FREE ENERGY PREDICTED BY IDOCK:   -4.62 KCAL/MOL
REMARK 924 INTRA-LIGAND FREE ENERGY PREDICTED BY IDOCK:   -0.20 KCAL/MOL
REMARK 927      BINDING AFFINITY PREDICTED BY RF-SCORE:    0.00 PKD
ROOT
HETATM    1  N   UNL     1     -10.705  12.745  68.911  1.00  0.00    -0.377 NA 
HETATM    2  H1  UNL     1     -11.491  12.187  68.579  1.00  0.00     0.000 HD 
HETATM    3  C   UNL     1      -9.458  12.525  68.427  1.00  0.00    -0.167 C  
HETATM    4  H2  UNL     1     -10.857  13.473  69.610  1.00  0.00     0.000 HD 
HETATM    5  N   UNL     1      -8.456  13.237  68.851  1.00  0.00    -0.355 N  
HETATM    6  H   UNL     1      -8.603  13.954  69.561  1.00  0.00     0.000 HD 
HETATM    7  C   UNL     1      -7.172  13.019  68.331  1.00  0.00    -0.110 C  
HETATM    8  C   UNL     1      -7.088  12.001  67.280  1.00  0.00    -0.149 A  
HETATM    9  O   UNL     1      -6.190  13.638  68.726  1.00  0.00    -0.080 OA 
HETATM   10  C   UNL     1      -8.212  11.306  66.915  1.00  0.00    -0.153 A  
HETATM   11  N   UNL     1      -9.404  11.528  67.483  1.00  0.00    -0.164 NA 
HETATM   12  N   UNL     1      -7.847  10.436  65.938  1.00  0.00    -0.143 NA 
HETATM   13  N   UNL     1      -6.012  11.573  66.530  1.00  0.00    -0.139 NA 
HETATM   14  C   UNL     1      -6.507  10.658  65.718  1.00  0.00    -0.107 A  
ENDROOT
BRANCH  12  15
HETATM   15  C   UNL     1      -8.665   9.478  65.223  1.00  0.00    -0.166 C  
BRANCH  15  16
HETATM   16  C   UNL     1     -10.032  10.014  64.785  1.00  0.00    -0.248 C  
HETATM   17  C   UNL     1     -10.046  11.318  63.953  1.00  0.00    -0.392 C  
HETATM   18  C   UNL     1      -9.331  11.189  62.599  1.00  0.00    -0.304 C  
HETATM   19  C   UNL     1     -11.507  11.744  63.731  1.00  0.00    -0.420 C  
HETATM   20  O   UNL     1      -7.941  10.931  62.771  1.00  0.00    -0.342 OA 
HETATM   21  O   UNL     1     -11.579  12.957  62.996  1.00  0.00    -0.804 OA 
HETATM   22  H   UNL     1      -7.499  10.851  61.934  1.00  0.00     0.000 HD 
HETATM   23  H   UNL     1     -12.482  13.220  62.860  1.00  0.00     0.000 HD 
ENDBRANCH  15  16
ENDBRANCH  12  15
TORSDOF 2
ENDMDL
MODEL      195
REMARK 921   NORMALIZED FREE ENERGY PREDICTED BY IDOCK:   -4.13 KCAL/MOL
REMARK 922        TOTAL FREE ENERGY PREDICTED BY IDOCK:   -4.82 KCAL/MOL
REMARK 923 INTER-LIGAND FREE ENERGY PREDICTED BY IDOCK:   -4.49 KCAL/MOL
REMARK 924 INTRA-LIGAND FREE ENERGY PREDICTED BY IDOCK:   -0.33 KCAL/MOL
REMARK 927      BINDING AFFINITY PREDICTED BY RF-SCORE:    0.00 PKD
ROOT
HETATM    1  N   UNL     1      -8.950   5.791  69.838  1.00  0.00    -0.130 NA 
HETATM    2  H1  UNL     1      -8.639   5.912  68.874  1.00  0.00     0.000 HD 
HETATM    3  C   UNL     1      -9.691   6.752  70.442  1.00  0.00    -0.175 C  
HETATM    4  H2  UNL     1      -8.703   4.943  70.349  1.00  0.00     0.000 HD 
HETATM    5  N   UNL     1     -10.087   6.598  71.671  1.00  0.00    -0.185 N  
HETATM    6  H   UNL     1      -9.827   5.758  72.190  1.00  0.00     0.000 HD 
HETATM    7  C   UNL     1     -10.872   7.585  72.284  1.00  0.00    -0.258 C  
HETATM    8  C   UNL     1     -11.226   8.721  71.429  1.00  0.00    -0.292 A  
HETATM    9  O   UNL     1     -11.236   7.503  73.451  1.00  0.00    -0.296 OA 
HETATM   10  C   UNL     1     -10.746   8.782  70.146  1.00  0.00    -0.224 A  
HETATM   11  N   UNL     1      -9.961   7.828  69.632  1.00  0.00    -0.186 NA 
HETATM   12  N   UNL     1     -11.223   9.928  69.593  1.00  0.00    -0.232 NA 
HETATM   13  N   UNL     1     -12.009   9.827  71.686  1.00  0.00    -0.396 NA 
HETATM   14  C   UNL     1     -12.009  10.513  70.558  1.00  0.00    -0.342 A  
ENDROOT
BRANCH  12  15
HETATM   15  C   UNL     1     -11.004  10.453  68.261  1.00  0.00    -0.270 C  
BRANCH  15  16
HETATM   16  C   UNL     1      -9.715  11.266  68.105  1.00  0.00    -0.188 C  
HETATM   17  C   UNL     1      -9.810  12.598  67.324  1.00  0.00    -0.206 C  
HETATM   18  C   UNL     1     -10.734  13.633  67.985  1.00  0.00    -0.247 C  
HETATM   19  C   UNL     1      -8.395  13.183  67.175  1.00  0.00    -0.140 C  
HETATM   20  O   UNL     1     -12.082  13.177  68.014  1.00  0.00    -0.325 OA 
HETATM   21  O   UNL     1      -8.420  14.396  66.436  1.00  0.00    -0.398 OA 
HETATM   22  H   UNL     1     -12.654  13.816  68.422  1.00  0.00     0.000 HD 
HETATM   23  H   UNL     1      -7.546  14.757  66.344  1.00  0.00     0.000 HD 
ENDBRANCH  15  16
ENDBRANCH  12  15
TORSDOF 2
ENDMDL
MODEL      196
REMARK 921   NORMALIZED FREE ENERGY PREDICTED BY IDOCK:   -4.13 KCAL/MOL
REMARK 922        TOTAL FREE ENERGY PREDICTED BY IDOCK:   -4.82 KCAL/MOL
REMARK 923 INTER-LIGAND FREE ENERGY PREDICTED BY IDOCK:   -4.43 KCAL/MOL
REMARK 924 INTRA-LIGAND FREE ENERGY PREDICTED BY IDOCK:   -0.38 KCAL/MOL
REMARK 927      BINDING AFFINITY PREDICTED BY RF-SCORE:    0.00 PKD
ROOT
HETATM    1  N   UNL     1      -9.281   5.192  70.086  1.00  0.00    -0.136 NA 
HETATM    2  H1  UNL     1      -8.392   5.355  69.612  1.00  0.00     0.000 HD 
HETATM    3  C   UNL     1     -10.113   6.228  70.353  1.00  0.00    -0.185 C  
HETATM    4  H2  UNL     1      -9.545   4.244  70.359  1.00  0.00     0.000 HD 
HETATM    5  N   UNL     1     -11.247   6.019  70.956  1.00  0.00    -0.289 N  
HETATM    6  H   UNL     1     -11.505   5.075  71.244  1.00  0.00     0.000 HD 
HETATM    7  C   UNL     1     -12.113   7.092  71.210  1.00  0.00    -0.361 C  
HETATM    8  C   UNL     1     -11.663   8.392  70.706  1.00  0.00    -0.202 A  
HETATM    9  O   UNL     1     -13.173   6.950  71.809  1.00  0.00    -0.348 OA 
HETATM   10  C   UNL     1     -10.443   8.496  70.087  1.00  0.00    -0.220 A  
HETATM   11  N   UNL     1      -9.639   7.441  69.915  1.00  0.00    -0.164 NA 
HETATM   12  N   UNL     1     -10.284   9.797  69.731  1.00  0.00    -0.225 NA 
HETATM   13  N   UNL     1     -12.276   9.627  70.737  1.00  0.00    -0.264 NA 
HETATM   14  C   UNL     1     -11.437  10.438  70.121  1.00  0.00    -0.319 A  
ENDROOT
BRANCH  12  15
HETATM   15  C   UNL     1      -9.167  10.422  69.054  1.00  0.00    -0.187 C  
BRANCH  15  16
HETATM   16  C   UNL     1      -9.107  10.150  67.547  1.00  0.00    -0.143 C  
HETATM   17  C   UNL     1     -10.066  10.961  66.643  1.00  0.00    -0.264 C  
HETATM   18  C   UNL     1      -9.811  12.476  66.681  1.00  0.00    -0.241 C  
HETATM   19  C   UNL     1      -9.934  10.446  65.200  1.00  0.00    -0.322 C  
HETATM   20  O   UNL     1     -10.059  13.009  67.978  1.00  0.00    -0.222 OA 
HETATM   21  O   UNL     1     -10.819  11.137  64.330  1.00  0.00    -0.344 OA 
HETATM   22  H   UNL     1      -9.902  13.945  68.001  1.00  0.00     0.000 HD 
HETATM   23  H   UNL     1     -10.737  10.819  63.438  1.00  0.00     0.000 HD 
ENDBRANCH  15  16
ENDBRANCH  12  15
TORSDOF 2
ENDMDL
MODEL      197
REMARK 921   NORMALIZED FREE ENERGY PREDICTED BY IDOCK:   -4.10 KCAL/MOL
REMARK 922        TOTAL FREE ENERGY PREDICTED BY IDOCK:   -4.78 KCAL/MOL
REMARK 923 INTER-LIGAND FREE ENERGY PREDICTED BY IDOCK:   -4.57 KCAL/MOL
REMARK 924 INTRA-LIGAND FREE ENERGY PREDICTED BY IDOCK:   -0.21 KCAL/MOL
REMARK 927      BINDING AFFINITY PREDICTED BY RF-SCORE:    0.00 PKD
ROOT
HETATM    1  N   UNL     1     -11.777   6.899  72.247  1.00  0.00    -0.360 NA 
HETATM    2  H1  UNL     1     -12.134   7.841  72.409  1.00  0.00     0.000 HD 
HETATM    3  C   UNL     1     -11.240   6.569  71.048  1.00  0.00    -0.309 C  
HETATM    4  H2  UNL     1     -11.824   6.203  72.992  1.00  0.00     0.000 HD 
HETATM    5  N   UNL     1     -10.785   5.368  70.842  1.00  0.00    -0.214 N  
HETATM    6  H   UNL     1     -10.846   4.666  71.580  1.00  0.00     0.000 HD 
HETATM    7  C   UNL     1     -10.210   5.038  69.606  1.00  0.00    -0.236 C  
HETATM    8  C   UNL     1     -10.129   6.138  68.641  1.00  0.00    -0.162 A  
HETATM    9  O   UNL     1      -9.804   3.910  69.352  1.00  0.00    -0.161 OA 
HETATM   10  C   UNL     1     -10.648   7.366  68.965  1.00  0.00    -0.192 A  
HETATM   11  N   UNL     1     -11.227   7.606  70.147  1.00  0.00    -0.226 NA 
HETATM   12  N   UNL     1     -10.441   8.182  67.899  1.00  0.00    -0.217 NA 
HETATM   13  N   UNL     1      -9.591   6.179  67.372  1.00  0.00    -0.113 NA 
HETATM   14  C   UNL     1      -9.769   7.423  66.968  1.00  0.00    -0.191 A  
ENDROOT
BRANCH  12  15
HETATM   15  C   UNL     1     -10.804   9.574  67.738  1.00  0.00    -0.195 C  
BRANCH  15  16
HETATM   16  C   UNL     1      -9.953  10.338  66.719  1.00  0.00    -0.261 C  
HETATM   17  C   UNL     1     -10.668  11.410  65.862  1.00  0.00    -0.311 C  
HETATM   18  C   UNL     1     -11.249  12.568  66.689  1.00  0.00    -0.307 C  
HETATM   19  C   UNL     1      -9.670  11.959  64.828  1.00  0.00    -0.120 C  
HETATM   20  O   UNL     1     -12.277  12.113  67.563  1.00  0.00    -0.474 OA 
HETATM   21  O   UNL     1     -10.285  12.928  63.992  1.00  0.00    -0.523 OA 
HETATM   22  H   UNL     1     -12.637  12.828  68.074  1.00  0.00     0.000 HD 
HETATM   23  H   UNL     1      -9.669  13.267  63.352  1.00  0.00     0.000 HD 
ENDBRANCH  15  16
ENDBRANCH  12  15
TORSDOF 2
ENDMDL
MODEL      198
REMARK 921   NORMALIZED FREE ENERGY PREDICTED BY IDOCK:   -4.09 KCAL/MOL
REMARK 922        TOTAL FREE ENERGY PREDICTED BY IDOCK:   -4.78 KCAL/MOL
REMARK 923 INTER-LIGAND FREE ENERGY PREDICTED BY IDOCK:   -4.50 KCAL/MOL
REMARK 924 INTRA-LIGAND FREE ENERGY PREDICTED BY IDOCK:   -0.27 KCAL/MOL
REMARK 927      BINDING AFFINITY PREDICTED BY RF-SCORE:    0.00 PKD
ROOT
HETATM    1  N   UNL     1     -11.251   6.584  66.685  1.00  0.00    -0.694 NA 
HETATM    2  H1  UNL     1     -11.746   7.284  67.240  1.00  0.00     0.000 HD 
HETATM    3  C   UNL     1     -10.556   5.595  67.298  1.00  0.00    -0.254 C  
HETATM    4  H2  UNL     1     -11.280   6.630  65.666  1.00  0.00     0.000 HD 
HETATM    5  N   UNL     1      -9.926   4.703  66.591  1.00  0.00    -0.219 N  
HETATM    6  H   UNL     1      -9.941   4.756  65.572  1.00  0.00     0.000 HD 
HETATM    7  C   UNL     1      -9.227   3.669  67.230  1.00  0.00    -0.189 C  
HETATM    8  C   UNL     1      -9.318   3.663  68.692  1.00  0.00    -0.164 A  
HETATM    9  O   UNL     1      -8.587   2.829  66.608  1.00  0.00    -0.098 OA 
HETATM   10  C   UNL     1     -10.008   4.660  69.334  1.00  0.00    -0.179 A  
HETATM   11  N   UNL     1     -10.617   5.648  68.669  1.00  0.00    -0.215 NA 
HETATM   12  N   UNL     1      -9.926   4.409  70.667  1.00  0.00    -0.208 NA 
HETATM   13  N   UNL     1      -8.803   2.781  69.619  1.00  0.00    -0.078 NA 
HETATM   14  C   UNL     1      -9.209   3.241  70.788  1.00  0.00    -0.138 A  
ENDROOT
BRANCH  12  15
HETATM   15  C   UNL     1     -10.484   5.166  71.768  1.00  0.00    -0.200 C  
BRANCH  15  16
HETATM   16  C   UNL     1      -9.827   6.530  71.997  1.00  0.00    -0.169 C  
HETATM   17  C   UNL     1     -10.218   7.674  71.031  1.00  0.00    -0.200 C  
HETATM   18  C   UNL     1     -11.708   8.048  71.094  1.00  0.00    -0.284 C  
HETATM   19  C   UNL     1      -9.358   8.907  71.355  1.00  0.00    -0.268 C  
HETATM   20  O   UNL     1     -12.530   6.967  70.667  1.00  0.00    -0.588 OA 
HETATM   21  O   UNL     1      -9.655   9.981  70.474  1.00  0.00    -0.360 OA 
HETATM   22  H   UNL     1     -13.450   7.198  70.705  1.00  0.00     0.000 HD 
HETATM   23  H   UNL     1      -9.122  10.743  70.674  1.00  0.00     0.000 HD 
ENDBRANCH  15  16
ENDBRANCH  12  15
TORSDOF 2
ENDMDL
MODEL      199
REMARK 921   NORMALIZED FREE ENERGY PREDICTED BY IDOCK:   -4.06 KCAL/MOL
REMARK 922        TOTAL FREE ENERGY PREDICTED BY IDOCK:   -4.74 KCAL/MOL
REMARK 923 INTER-LIGAND FREE ENERGY PREDICTED BY IDOCK:   -4.49 KCAL/MOL
REMARK 924 INTRA-LIGAND FREE ENERGY PREDICTED BY IDOCK:   -0.25 KCAL/MOL
REMARK 927      BINDING AFFINITY PREDICTED BY RF-SCORE:    0.00 PKD
ROOT
HETATM    1  N   UNL     1      -7.300  10.208  70.775  1.00  0.00    -0.400 NA 
HETATM    2  H1  UNL     1      -7.013  10.737  69.952  1.00  0.00     0.000 HD 
HETATM    3  C   UNL     1      -8.250   9.247  70.672  1.00  0.00    -0.190 C  
HETATM    4  H2  UNL     1      -6.870  10.402  71.680  1.00  0.00     0.000 HD 
HETATM    5  N   UNL     1      -8.616   8.572  71.722  1.00  0.00    -0.178 N  
HETATM    6  H   UNL     1      -8.199   8.776  72.630  1.00  0.00     0.000 HD 
HETATM    7  C   UNL     1      -9.584   7.564  71.605  1.00  0.00    -0.150 C  
HETATM    8  C   UNL     1     -10.075   7.324  70.246  1.00  0.00    -0.192 A  
HETATM    9  O   UNL     1      -9.989   6.929  72.571  1.00  0.00    -0.167 OA 
HETATM   10  C   UNL     1      -9.622   8.103  69.211  1.00  0.00    -0.164 A  
HETATM   11  N   UNL     1      -8.729   9.083  69.395  1.00  0.00    -0.138 NA 
HETATM   12  N   UNL     1     -10.239   7.668  68.082  1.00  0.00    -0.190 NA 
HETATM   13  N   UNL     1     -10.976   6.395  69.768  1.00  0.00    -0.318 NA 
HETATM   14  C   UNL     1     -11.029   6.611  68.467  1.00  0.00    -0.244 A  
ENDROOT
BRANCH  12  15
HETATM   15  C   UNL     1     -10.104   8.161  66.727  1.00  0.00    -0.295 C  
BRANCH  15  16
HETATM   16  C   UNL     1     -10.643   9.579  66.512  1.00  0.00    -0.133 C  
HETATM   17  C   UNL     1      -9.766  10.551  65.686  1.00  0.00    -0.289 C  
HETATM   18  C   UNL     1      -9.544  10.095  64.235  1.00  0.00    -0.290 C  
HETATM   19  C   UNL     1     -10.426  11.940  65.700  1.00  0.00    -0.262 C  
HETATM   20  O   UNL     1      -8.812   8.875  64.184  1.00  0.00    -0.404 OA 
HETATM   21  O   UNL     1      -9.644  12.883  64.980  1.00  0.00    -0.490 OA 
HETATM   22  H   UNL     1      -8.674   8.593  63.288  1.00  0.00     0.000 HD 
HETATM   23  H   UNL     1     -10.052  13.741  64.990  1.00  0.00     0.000 HD 
ENDBRANCH  15  16
ENDBRANCH  12  15
TORSDOF 2
ENDMDL
MODEL      200
REMARK 921   NORMALIZED FREE ENERGY PREDICTED BY IDOCK:   -4.05 KCAL/MOL
REMARK 922        TOTAL FREE ENERGY PREDICTED BY IDOCK:   -4.73 KCAL/MOL
REMARK 923 INTER-LIGAND FREE ENERGY PREDICTED BY IDOCK:   -4.42 KCAL/MOL
REMARK 924 INTRA-LIGAND FREE ENERGY PREDICTED BY IDOCK:   -0.31 KCAL/MOL
REMARK 927      BINDING AFFINITY PREDICTED BY RF-SCORE:    0.00 PKD
ROOT
HETATM    1  N   UNL     1      -6.516  20.331  69.448  1.00  0.00    -0.289 NA 
HETATM    2  H1  UNL     1      -7.048  20.893  68.783  1.00  0.00     0.000 HD 
HETATM    3  C   UNL     1      -6.510  18.980  69.349  1.00  0.00    -0.294 C  
HETATM    4  H2  UNL     1      -5.985  20.789  70.190  1.00  0.00     0.000 HD 
HETATM    5  N   UNL     1      -5.831  18.263  70.196  1.00  0.00    -0.220 N  
HETATM    6  H   UNL     1      -5.313  18.718  70.948  1.00  0.00     0.000 HD 
HETATM    7  C   UNL     1      -5.811  16.866  70.075  1.00  0.00    -0.213 C  
HETATM    8  C   UNL     1      -6.547  16.328  68.929  1.00  0.00    -0.150 A  
HETATM    9  O   UNL     1      -5.218  16.148  70.872  1.00  0.00    -0.177 OA 
HETATM   10  C   UNL     1      -7.234  17.179  68.101  1.00  0.00    -0.193 A  
HETATM   11  N   UNL     1      -7.253  18.503  68.296  1.00  0.00    -0.255 NA 
HETATM   12  N   UNL     1      -7.819  16.418  67.140  1.00  0.00    -0.171 NA 
HETATM   13  N   UNL     1      -6.696  15.029  68.488  1.00  0.00    -0.095 NA 
HETATM   14  C   UNL     1      -7.438  15.123  67.401  1.00  0.00    -0.210 A  
ENDROOT
BRANCH  12  15
HETATM   15  C   UNL     1      -8.652  16.838  66.032  1.00  0.00    -0.178 C  
BRANCH  15  16
HETATM   16  C   UNL     1      -9.873  15.945  65.784  1.00  0.00    -0.380 C  
HETATM   17  C   UNL     1     -10.645  15.442  67.027  1.00  0.00    -0.309 C  
HETATM   18  C   UNL     1     -11.269  16.573  67.861  1.00  0.00    -0.155 C  
HETATM   19  C   UNL     1     -11.742  14.470  66.563  1.00  0.00    -0.368 C  
HETATM   20  O   UNL     1     -10.267  17.415  68.421  1.00  0.00    -0.317 OA 
HETATM   21  O   UNL     1     -12.465  13.952  67.671  1.00  0.00    -0.449 OA 
HETATM   22  H   UNL     1     -10.652  18.113  68.936  1.00  0.00     0.000 HD 
HETATM   23  H   UNL     1     -13.143  13.350  67.385  1.00  0.00     0.000 HD 
ENDBRANCH  15  16
ENDBRANCH  12  15
TORSDOF 2
ENDMDL
MODEL      201
REMARK 921   NORMALIZED FREE ENERGY PREDICTED BY IDOCK:   -4.03 KCAL/MOL
REMARK 922        TOTAL FREE ENERGY PREDICTED BY IDOCK:   -4.71 KCAL/MOL
REMARK 923 INTER-LIGAND FREE ENERGY PREDICTED BY IDOCK:   -4.48 KCAL/MOL
REMARK 924 INTRA-LIGAND FREE ENERGY PREDICTED BY IDOCK:   -0.23 KCAL/MOL
REMARK 927      BINDING AFFINITY PREDICTED BY RF-SCORE:    0.00 PKD
ROOT
HETATM    1  N   UNL     1     -12.643   5.990  72.491  1.00  0.00    -0.485 NA 
HETATM    2  H1  UNL     1     -13.346   6.501  71.957  1.00  0.00     0.000 HD 
HETATM    3  C   UNL     1     -11.335   6.332  72.398  1.00  0.00    -0.292 C  
HETATM    4  H2  UNL     1     -12.926   5.220  73.097  1.00  0.00     0.000 HD 
HETATM    5  N   UNL     1     -10.438   5.681  73.079  1.00  0.00    -0.202 N  
HETATM    6  H   UNL     1     -10.716   4.899  73.674  1.00  0.00     0.000 HD 
HETATM    7  C   UNL     1      -9.088   6.052  72.997  1.00  0.00    -0.130 C  
HETATM    8  C   UNL     1      -8.812   7.219  72.155  1.00  0.00    -0.127 A  
HETATM    9  O   UNL     1      -8.204   5.445  73.589  1.00  0.00    -0.112 OA 
HETATM   10  C   UNL     1      -9.838   7.826  71.476  1.00  0.00    -0.167 A  
HETATM   11  N   UNL     1     -11.102   7.395  71.560  1.00  0.00    -0.237 NA 
HETATM   12  N   UNL     1      -9.301   8.863  70.782  1.00  0.00    -0.208 NA 
HETATM   13  N   UNL     1      -7.627   7.875  71.891  1.00  0.00    -0.078 NA 
HETATM   14  C   UNL     1      -7.961   8.869  71.089  1.00  0.00    -0.144 A  
ENDROOT
BRANCH  12  15
HETATM   15  C   UNL     1      -9.964   9.811  69.910  1.00  0.00    -0.245 C  
BRANCH  15  16
HETATM   16  C   UNL     1      -9.302   9.980  68.538  1.00  0.00    -0.145 C  
HETATM   17  C   UNL     1     -10.224   9.913  67.297  1.00  0.00    -0.277 C  
HETATM   18  C   UNL     1     -11.280  11.028  67.256  1.00  0.00    -0.258 C  
HETATM   19  C   UNL     1      -9.350   9.976  66.033  1.00  0.00    -0.174 C  
HETATM   20  O   UNL     1     -12.193  10.916  68.343  1.00  0.00    -0.813 OA 
HETATM   21  O   UNL     1     -10.146   9.887  64.859  1.00  0.00    -0.381 OA 
HETATM   22  H   UNL     1     -12.846  11.605  68.318  1.00  0.00     0.000 HD 
HETATM   23  H   UNL     1      -9.606   9.925  64.078  1.00  0.00     0.000 HD 
ENDBRANCH  15  16
ENDBRANCH  12  15
TORSDOF 2
ENDMDL
MODEL      202
REMARK 921   NORMALIZED FREE ENERGY PREDICTED BY IDOCK:   -4.03 KCAL/MOL
REMARK 922        TOTAL FREE ENERGY PREDICTED BY IDOCK:   -4.70 KCAL/MOL
REMARK 923 INTER-LIGAND FREE ENERGY PREDICTED BY IDOCK:   -4.37 KCAL/MOL
REMARK 924 INTRA-LIGAND FREE ENERGY PREDICTED BY IDOCK:   -0.33 KCAL/MOL
REMARK 927      BINDING AFFINITY PREDICTED BY RF-SCORE:    0.00 PKD
ROOT
HETATM    1  N   UNL     1      -9.749  20.561  65.867  1.00  0.00    -0.610 NA 
HETATM    2  H1  UNL     1     -10.545  20.010  65.545  1.00  0.00     0.000 HD 
HETATM    3  C   UNL     1      -8.652  19.946  66.372  1.00  0.00    -0.341 C  
HETATM    4  H2  UNL     1      -9.779  21.580  65.810  1.00  0.00     0.000 HD 
HETATM    5  N   UNL     1      -7.638  20.648  66.784  1.00  0.00    -0.503 N  
HETATM    6  H   UNL     1      -7.672  21.667  66.741  1.00  0.00     0.000 HD 
HETATM    7  C   UNL     1      -6.497  20.005  67.285  1.00  0.00    -0.200 C  
HETATM    8  C   UNL     1      -6.539  18.541  67.249  1.00  0.00    -0.199 A  
HETATM    9  O   UNL     1      -5.533  20.624  67.719  1.00  0.00    -0.196 OA 
HETATM   10  C   UNL     1      -7.666  17.903  66.798  1.00  0.00    -0.223 A  
HETATM   11  N   UNL     1      -8.744  18.575  66.375  1.00  0.00    -0.378 NA 
HETATM   12  N   UNL     1      -7.431  16.568  66.879  1.00  0.00    -0.196 NA 
HETATM   13  N   UNL     1      -5.590  17.607  67.612  1.00  0.00    -0.131 NA 
HETATM   14  C   UNL     1      -6.146  16.439  67.350  1.00  0.00    -0.167 A  
ENDROOT
BRANCH  12  15
HETATM   15  C   UNL     1      -8.307  15.469  66.526  1.00  0.00    -0.199 C  
BRANCH  15  16
HETATM   16  C   UNL     1      -9.260  15.034  67.643  1.00  0.00    -0.182 C  
HETATM   17  C   UNL     1      -9.268  13.533  68.021  1.00  0.00    -0.209 C  
HETATM   18  C   UNL     1      -7.922  13.031  68.566  1.00  0.00    -0.090 C  
HETATM   19  C   UNL     1     -10.374  13.295  69.062  1.00  0.00     0.038 C  
HETATM   20  O   UNL     1      -6.901  13.111  67.577  1.00  0.00    -0.152 OA 
HETATM   21  O   UNL     1     -10.447  11.922  69.422  1.00  0.00    -0.435 OA 
HETATM   22  H   UNL     1      -6.069  12.800  67.914  1.00  0.00     0.000 HD 
HETATM   23  H   UNL     1     -11.131  11.775  70.065  1.00  0.00     0.000 HD 
ENDBRANCH  15  16
ENDBRANCH  12  15
TORSDOF 2
ENDMDL
MODEL      203
REMARK 921   NORMALIZED FREE ENERGY PREDICTED BY IDOCK:   -4.02 KCAL/MOL
REMARK 922        TOTAL FREE ENERGY PREDICTED BY IDOCK:   -4.70 KCAL/MOL
REMARK 923 INTER-LIGAND FREE ENERGY PREDICTED BY IDOCK:   -4.47 KCAL/MOL
REMARK 924 INTRA-LIGAND FREE ENERGY PREDICTED BY IDOCK:   -0.22 KCAL/MOL
REMARK 927      BINDING AFFINITY PREDICTED BY RF-SCORE:    0.00 PKD
ROOT
HETATM    1  N   UNL     1     -12.834  12.203  71.303  1.00  0.00    -0.320 NA 
HETATM    2  H1  UNL     1     -12.728  11.282  71.730  1.00  0.00     0.000 HD 
HETATM    3  C   UNL     1     -12.234  12.480  70.120  1.00  0.00    -0.234 C  
HETATM    4  H2  UNL     1     -13.393  12.918  71.770  1.00  0.00     0.000 HD 
HETATM    5  N   UNL     1     -12.369  13.655  69.577  1.00  0.00    -0.252 N  
HETATM    6  H   UNL     1     -12.915  14.376  70.049  1.00  0.00     0.000 HD 
HETATM    7  C   UNL     1     -11.765  13.929  68.342  1.00  0.00    -0.356 C  
HETATM    8  C   UNL     1     -11.051  12.805  67.732  1.00  0.00    -0.253 A  
HETATM    9  O   UNL     1     -11.831  15.031  67.810  1.00  0.00    -0.336 OA 
HETATM   10  C   UNL     1     -10.968  11.609  68.400  1.00  0.00    -0.220 A  
HETATM   11  N   UNL     1     -11.528  11.423  69.600  1.00  0.00    -0.291 NA 
HETATM   12  N   UNL     1     -10.256  10.760  67.614  1.00  0.00    -0.182 NA 
HETATM   13  N   UNL     1     -10.394  12.709  66.523  1.00  0.00    -0.239 NA 
HETATM   14  C   UNL     1      -9.955  11.465  66.472  1.00  0.00    -0.211 A  
ENDROOT
BRANCH  12  15
HETATM   15  C   UNL     1      -9.890   9.381  67.867  1.00  0.00    -0.165 C  
BRANCH  15  16
HETATM   16  C   UNL     1      -9.329   8.641  66.649  1.00  0.00    -0.246 C  
HETATM   17  C   UNL     1      -9.388   7.095  66.673  1.00  0.00    -0.207 C  
HETATM   18  C   UNL     1     -10.819   6.537  66.726  1.00  0.00    -0.275 C  
HETATM   19  C   UNL     1      -8.665   6.556  65.427  1.00  0.00    -0.008 C  
HETATM   20  O   UNL     1     -11.472   6.904  67.936  1.00  0.00    -0.538 OA 
HETATM   21  O   UNL     1      -8.662   5.136  65.414  1.00  0.00    -0.140 OA 
HETATM   22  H   UNL     1     -12.357   6.560  67.969  1.00  0.00     0.000 HD 
HETATM   23  H   UNL     1      -8.214   4.803  64.644  1.00  0.00     0.000 HD 
ENDBRANCH  15  16
ENDBRANCH  12  15
TORSDOF 2
ENDMDL
MODEL      204
REMARK 921   NORMALIZED FREE ENERGY PREDICTED BY IDOCK:   -4.01 KCAL/MOL
REMARK 922        TOTAL FREE ENERGY PREDICTED BY IDOCK:   -4.69 KCAL/MOL
REMARK 923 INTER-LIGAND FREE ENERGY PREDICTED BY IDOCK:   -4.35 KCAL/MOL
REMARK 924 INTRA-LIGAND FREE ENERGY PREDICTED BY IDOCK:   -0.34 KCAL/MOL
REMARK 927      BINDING AFFINITY PREDICTED BY RF-SCORE:    0.00 PKD
ROOT
HETATM    1  N   UNL     1     -11.997   6.261  72.593  1.00  0.00    -0.518 NA 
HETATM    2  H1  UNL     1     -11.414   5.502  72.240  1.00  0.00     0.000 HD 
HETATM    3  C   UNL     1     -11.984   7.471  71.985  1.00  0.00    -0.294 C  
HETATM    4  H2  UNL     1     -12.593   6.107  73.408  1.00  0.00     0.000 HD 
HETATM    5  N   UNL     1     -12.727   8.439  72.436  1.00  0.00    -0.533 N  
HETATM    6  H   UNL     1     -13.312   8.293  73.259  1.00  0.00     0.000 HD 
HETATM    7  C   UNL     1     -12.726   9.683  71.789  1.00  0.00    -0.420 C  
HETATM    8  C   UNL     1     -11.891   9.763  70.588  1.00  0.00    -0.281 A  
HETATM    9  O   UNL     1     -13.380  10.636  72.199  1.00  0.00    -0.444 OA 
HETATM   10  C   UNL     1     -11.142   8.678  70.208  1.00  0.00    -0.217 A  
HETATM   11  N   UNL     1     -11.150   7.530  70.895  1.00  0.00    -0.258 NA 
HETATM   12  N   UNL     1     -10.472   9.030  69.080  1.00  0.00    -0.223 NA 
HETATM   13  N   UNL     1     -11.695  10.798  69.698  1.00  0.00    -0.298 NA 
HETATM   14  C   UNL     1     -10.864  10.316  68.794  1.00  0.00    -0.230 A  
ENDROOT
BRANCH  12  15
HETATM   15  C   UNL     1      -9.550   8.241  68.289  1.00  0.00    -0.147 C  
BRANCH  15  16
HETATM   16  C   UNL     1      -8.165   8.065  68.920  1.00  0.00    -0.125 C  
HETATM   17  C   UNL     1      -7.818   6.667  69.486  1.00  0.00    -0.106 C  
HETATM   18  C   UNL     1      -7.802   5.560  68.420  1.00  0.00    -0.088 C  
HETATM   19  C   UNL     1      -6.448   6.743  70.179  1.00  0.00    -0.040 C  
HETATM   20  O   UNL     1      -9.094   5.369  67.853  1.00  0.00    -0.109 OA 
HETATM   21  O   UNL     1      -6.094   5.489  70.746  1.00  0.00    -0.024 OA 
HETATM   22  H   UNL     1      -9.084   4.685  67.194  1.00  0.00     0.000 HD 
HETATM   23  H   UNL     1      -5.247   5.537  71.175  1.00  0.00     0.000 HD 
ENDBRANCH  15  16
ENDBRANCH  12  15
TORSDOF 2
ENDMDL
MODEL      205
REMARK 921   NORMALIZED FREE ENERGY PREDICTED BY IDOCK:   -4.01 KCAL/MOL
REMARK 922        TOTAL FREE ENERGY PREDICTED BY IDOCK:   -4.68 KCAL/MOL
REMARK 923 INTER-LIGAND FREE ENERGY PREDICTED BY IDOCK:   -4.39 KCAL/MOL
REMARK 924 INTRA-LIGAND FREE ENERGY PREDICTED BY IDOCK:   -0.29 KCAL/MOL
REMARK 927      BINDING AFFINITY PREDICTED BY RF-SCORE:    0.00 PKD
ROOT
HETATM    1  N   UNL     1     -13.439   7.240  71.346  1.00  0.00    -0.493 NA 
HETATM    2  H1  UNL     1     -13.154   6.260  71.379  1.00  0.00     0.000 HD 
HETATM    3  C   UNL     1     -12.577   8.185  70.900  1.00  0.00     0.053 C  
HETATM    4  H2  UNL     1     -14.375   7.508  71.651  1.00  0.00     0.000 HD 
HETATM    5  N   UNL     1     -12.939   9.434  70.858  1.00  0.00    -0.539 N  
HETATM    6  H   UNL     1     -13.869   9.707  71.177  1.00  0.00     0.000 HD 
HETATM    7  C   UNL     1     -12.051  10.406  70.374  1.00  0.00    -0.315 C  
HETATM    8  C   UNL     1     -10.765   9.894  69.896  1.00  0.00    -0.280 A  
HETATM    9  O   UNL     1     -12.333  11.598  70.353  1.00  0.00    -0.321 OA 
HETATM   10  C   UNL     1     -10.487   8.554  69.994  1.00  0.00    -0.223 A  
HETATM   11  N   UNL     1     -11.361   7.681  70.509  1.00  0.00    -0.271 NA 
HETATM   12  N   UNL     1      -9.242   8.364  69.486  1.00  0.00    -0.153 NA 
HETATM   13  N   UNL     1      -9.695  10.550  69.323  1.00  0.00    -0.215 NA 
HETATM   14  C   UNL     1      -8.814   9.602  69.065  1.00  0.00    -0.147 A  
ENDROOT
BRANCH  12  15
HETATM   15  C   UNL     1      -8.489   7.133  69.363  1.00  0.00    -0.134 C  
BRANCH  15  16
HETATM   16  C   UNL     1      -9.264   5.979  68.720  1.00  0.00    -0.123 C  
HETATM   17  C   UNL     1      -9.872   6.230  67.319  1.00  0.00    -0.165 C  
HETATM   18  C   UNL     1      -8.820   6.520  66.237  1.00  0.00    -0.146 C  
HETATM   19  C   UNL     1     -10.706   5.001  66.918  1.00  0.00     0.004 C  
HETATM   20  O   UNL     1      -8.121   7.730  66.508  1.00  0.00    -0.106 OA 
HETATM   21  O   UNL     1     -11.315   5.191  65.649  1.00  0.00    -0.818 OA 
HETATM   22  H   UNL     1      -7.470   7.910  65.840  1.00  0.00     0.000 HD 
HETATM   23  H   UNL     1     -11.831   4.432  65.401  1.00  0.00     0.000 HD 
ENDBRANCH  15  16
ENDBRANCH  12  15
TORSDOF 2
ENDMDL
MODEL      206
REMARK 921   NORMALIZED FREE ENERGY PREDICTED BY IDOCK:   -3.95 KCAL/MOL
REMARK 922        TOTAL FREE ENERGY PREDICTED BY IDOCK:   -4.62 KCAL/MOL
REMARK 923 INTER-LIGAND FREE ENERGY PREDICTED BY IDOCK:   -4.42 KCAL/MOL
REMARK 924 INTRA-LIGAND FREE ENERGY PREDICTED BY IDOCK:   -0.20 KCAL/MOL
REMARK 927      BINDING AFFINITY PREDICTED BY RF-SCORE:    0.00 PKD
ROOT
HETATM    1  N   UNL     1     -13.989   7.638  71.274  1.00  0.00    -0.624 NA 
HETATM    2  H1  UNL     1     -14.363   8.118  70.455  1.00  0.00     0.000 HD 
HETATM    3  C   UNL     1     -12.800   6.993  71.203  1.00  0.00    -0.270 C  
HETATM    4  H2  UNL     1     -14.513   7.645  72.150  1.00  0.00     0.000 HD 
HETATM    5  N   UNL     1     -12.323   6.382  72.248  1.00  0.00    -0.537 N  
HETATM    6  H   UNL     1     -12.852   6.373  73.120  1.00  0.00     0.000 HD 
HETATM    7  C   UNL     1     -11.081   5.734  72.175  1.00  0.00    -0.271 C  
HETATM    8  C   UNL     1     -10.387   5.855  70.890  1.00  0.00    -0.229 A  
HETATM    9  O   UNL     1     -10.609   5.113  73.120  1.00  0.00    -0.194 OA 
HETATM   10  C   UNL     1     -10.989   6.521  69.853  1.00  0.00    -0.335 A  
HETATM   11  N   UNL     1     -12.199   7.080  69.970  1.00  0.00     0.065 NA 
HETATM   12  N   UNL     1     -10.135   6.475  68.798  1.00  0.00    -0.153 NA 
HETATM   13  N   UNL     1      -9.151   5.392  70.491  1.00  0.00    -0.140 NA 
HETATM   14  C   UNL     1      -9.020   5.805  69.244  1.00  0.00    -0.119 A  
ENDROOT
BRANCH  12  15
HETATM   15  C   UNL     1     -10.303   7.027  67.469  1.00  0.00    -0.225 C  
BRANCH  15  16
HETATM   16  C   UNL     1     -10.401   8.555  67.426  1.00  0.00    -0.356 C  
HETATM   17  C   UNL     1      -9.317   9.311  66.620  1.00  0.00    -0.219 C  
HETATM   18  C   UNL     1      -9.319   8.971  65.122  1.00  0.00    -0.029 C  
HETATM   19  C   UNL     1      -9.527  10.822  66.812  1.00  0.00    -0.173 C  
HETATM   20  O   UNL     1      -8.992   7.603  64.901  1.00  0.00    -0.345 OA 
HETATM   21  O   UNL     1      -8.536  11.566  66.117  1.00  0.00    -0.265 OA 
HETATM   22  H   UNL     1      -8.993   7.393  63.975  1.00  0.00     0.000 HD 
HETATM   23  H   UNL     1      -8.665  12.500  66.236  1.00  0.00     0.000 HD 
ENDBRANCH  15  16
ENDBRANCH  12  15
TORSDOF 2
ENDMDL
MODEL      207
REMARK 921   NORMALIZED FREE ENERGY PREDICTED BY IDOCK:   -3.94 KCAL/MOL
REMARK 922        TOTAL FREE ENERGY PREDICTED BY IDOCK:   -4.60 KCAL/MOL
REMARK 923 INTER-LIGAND FREE ENERGY PREDICTED BY IDOCK:   -4.36 KCAL/MOL
REMARK 924 INTRA-LIGAND FREE ENERGY PREDICTED BY IDOCK:   -0.24 KCAL/MOL
REMARK 927      BINDING AFFINITY PREDICTED BY RF-SCORE:    0.00 PKD
ROOT
HETATM    1  N   UNL     1     -10.141   9.932  66.141  1.00  0.00    -0.255 NA 
HETATM    2  H1  UNL     1      -9.937   9.008  65.759  1.00  0.00     0.000 HD 
HETATM    3  C   UNL     1     -10.596  10.059  67.411  1.00  0.00    -0.271 C  
HETATM    4  H2  UNL     1     -10.002  10.763  65.565  1.00  0.00     0.000 HD 
HETATM    5  N   UNL     1     -10.857  11.237  67.899  1.00  0.00    -0.211 N  
HETATM    6  H   UNL     1     -10.734  12.067  67.320  1.00  0.00     0.000 HD 
HETATM    7  C   UNL     1     -11.307  11.364  69.221  1.00  0.00    -0.289 C  
HETATM    8  C   UNL     1     -11.396  10.111  69.974  1.00  0.00    -0.287 A  
HETATM    9  O   UNL     1     -11.602  12.448  69.711  1.00  0.00    -0.284 OA 
HETATM   10  C   UNL     1     -11.101   8.923  69.355  1.00  0.00     0.045 A  
HETATM   11  N   UNL     1     -10.720   8.862  68.074  1.00  0.00    -0.162 NA 
HETATM   12  N   UNL     1     -11.270   7.938  70.276  1.00  0.00    -0.241 NA 
HETATM   13  N   UNL     1     -11.749   9.876  71.287  1.00  0.00    -0.381 NA 
HETATM   14  C   UNL     1     -11.635   8.570  71.441  1.00  0.00    -0.289 A  
ENDROOT
BRANCH  12  15
HETATM   15  C   UNL     1     -11.088   6.510  70.121  1.00  0.00    -0.351 C  
BRANCH  15  16
HETATM   16  C   UNL     1      -9.711   6.101  69.587  1.00  0.00    -0.181 C  
HETATM   17  C   UNL     1      -9.678   5.252  68.294  1.00  0.00    -0.185 C  
HETATM   18  C   UNL     1     -10.267   5.973  67.072  1.00  0.00    -0.205 C  
HETATM   19  C   UNL     1      -8.221   4.849  68.009  1.00  0.00    -0.096 C  
HETATM   20  O   UNL     1     -11.654   6.240  67.248  1.00  0.00    -0.621 OA 
HETATM   21  O   UNL     1      -8.136   4.038  66.845  1.00  0.00    -0.096 OA 
HETATM   22  H   UNL     1     -12.019   6.685  66.493  1.00  0.00     0.000 HD 
HETATM   23  H   UNL     1      -7.236   3.789  66.669  1.00  0.00     0.000 HD 
ENDBRANCH  15  16
ENDBRANCH  12  15
TORSDOF 2
ENDMDL
MODEL      208
REMARK 921   NORMALIZED FREE ENERGY PREDICTED BY IDOCK:   -3.93 KCAL/MOL
REMARK 922        TOTAL FREE ENERGY PREDICTED BY IDOCK:   -4.60 KCAL/MOL
REMARK 923 INTER-LIGAND FREE ENERGY PREDICTED BY IDOCK:   -4.45 KCAL/MOL
REMARK 924 INTRA-LIGAND FREE ENERGY PREDICTED BY IDOCK:   -0.15 KCAL/MOL
REMARK 927      BINDING AFFINITY PREDICTED BY RF-SCORE:    0.00 PKD
ROOT
HETATM    1  N   UNL     1      -6.303  13.920  67.965  1.00  0.00    -0.126 NA 
HETATM    2  H1  UNL     1      -6.593  14.862  68.227  1.00  0.00     0.000 HD 
HETATM    3  C   UNL     1      -7.182  13.077  67.370  1.00  0.00    -0.116 C  
HETATM    4  H2  UNL     1      -5.349  13.611  68.151  1.00  0.00     0.000 HD 
HETATM    5  N   UNL     1      -6.812  11.875  67.036  1.00  0.00    -0.247 N  
HETATM    6  H   UNL     1      -5.863  11.559  67.235  1.00  0.00     0.000 HD 
HETATM    7  C   UNL     1      -7.719  11.014  66.401  1.00  0.00    -0.146 C  
HETATM    8  C   UNL     1      -9.036  11.591  66.118  1.00  0.00    -0.197 A  
HETATM    9  O   UNL     1      -7.429   9.861  66.103  1.00  0.00    -0.098 OA 
HETATM   10  C   UNL     1      -9.318  12.871  66.523  1.00  0.00    -0.222 A  
HETATM   11  N   UNL     1      -8.423  13.629  67.167  1.00  0.00    -0.198 NA 
HETATM   12  N   UNL     1     -10.593  13.141  66.139  1.00  0.00    -0.275 NA 
HETATM   13  N   UNL     1     -10.132  11.054  65.476  1.00  0.00    -0.248 NA 
HETATM   14  C   UNL     1     -11.034  12.017  65.481  1.00  0.00    -0.298 A  
ENDROOT
BRANCH  12  15
HETATM   15  C   UNL     1     -11.361  14.353  66.331  1.00  0.00    -0.350 C  
BRANCH  15  16
HETATM   16  C   UNL     1     -10.882  15.230  67.492  1.00  0.00    -0.304 C  
HETATM   17  C   UNL     1     -11.618  15.076  68.844  1.00  0.00    -0.349 C  
HETATM   18  C   UNL     1     -11.487  13.673  69.458  1.00  0.00    -0.263 C  
HETATM   19  C   UNL     1     -11.070  16.126  69.825  1.00  0.00    -0.350 C  
HETATM   20  O   UNL     1     -12.108  12.690  68.637  1.00  0.00    -0.269 OA 
HETATM   21  O   UNL     1     -11.736  16.050  71.077  1.00  0.00    -0.391 OA 
HETATM   22  H   UNL     1     -12.027  11.823  69.016  1.00  0.00     0.000 HD 
HETATM   23  H   UNL     1     -11.398  16.700  71.683  1.00  0.00     0.000 HD 
ENDBRANCH  15  16
ENDBRANCH  12  15
TORSDOF 2
ENDMDL
MODEL      209
REMARK 921   NORMALIZED FREE ENERGY PREDICTED BY IDOCK:   -3.93 KCAL/MOL
REMARK 922        TOTAL FREE ENERGY PREDICTED BY IDOCK:   -4.60 KCAL/MOL
REMARK 923 INTER-LIGAND FREE ENERGY PREDICTED BY IDOCK:   -4.43 KCAL/MOL
REMARK 924 INTRA-LIGAND FREE ENERGY PREDICTED BY IDOCK:   -0.16 KCAL/MOL
REMARK 927      BINDING AFFINITY PREDICTED BY RF-SCORE:    0.00 PKD
ROOT
HETATM    1  N   UNL     1      -9.945  14.796  69.087  1.00  0.00    -0.313 NA 
HETATM    2  H1  UNL     1      -9.624  13.997  69.636  1.00  0.00     0.000 HD 
HETATM    3  C   UNL     1     -10.096  14.685  67.745  1.00  0.00    -0.228 C  
HETATM    4  H2  UNL     1     -10.153  15.681  69.551  1.00  0.00     0.000 HD 
HETATM    5  N   UNL     1     -10.505  15.703  67.046  1.00  0.00    -0.297 N  
HETATM    6  H   UNL     1     -10.698  16.593  67.505  1.00  0.00     0.000 HD 
HETATM    7  C   UNL     1     -10.680  15.576  65.660  1.00  0.00    -0.366 C  
HETATM    8  C   UNL     1     -10.423  14.240  65.117  1.00  0.00    -0.411 A  
HETATM    9  O   UNL     1     -11.026  16.517  64.955  1.00  0.00    -0.624 OA 
HETATM   10  C   UNL     1      -9.989  13.240  65.950  1.00  0.00    -0.272 A  
HETATM   11  N   UNL     1      -9.796  13.436  67.259  1.00  0.00    -0.229 NA 
HETATM   12  N   UNL     1      -9.829  12.126  65.188  1.00  0.00    -0.222 NA 
HETATM   13  N   UNL     1     -10.541  13.757  63.831  1.00  0.00     0.124 NA 
HETATM   14  C   UNL     1     -10.206  12.483  63.915  1.00  0.00    -0.360 A  
ENDROOT
BRANCH  12  15
HETATM   15  C   UNL     1      -9.388  10.807  65.592  1.00  0.00    -0.207 C  
BRANCH  15  16
HETATM   16  C   UNL     1      -7.963  10.455  65.155  1.00  0.00    -0.134 C  
HETATM   17  C   UNL     1      -7.796   9.268  64.176  1.00  0.00    -0.125 C  
HETATM   18  C   UNL     1      -8.476   9.495  62.816  1.00  0.00    -0.190 C  
HETATM   19  C   UNL     1      -6.295   9.007  63.970  1.00  0.00    -0.083 C  
HETATM   20  O   UNL     1      -9.888   9.604  62.956  1.00  0.00    -0.428 OA 
HETATM   21  O   UNL     1      -6.084   7.903  63.101  1.00  0.00    -0.065 OA 
HETATM   22  H   UNL     1     -10.309   9.744  62.116  1.00  0.00     0.000 HD 
HETATM   23  H   UNL     1      -5.156   7.741  62.975  1.00  0.00     0.000 HD 
ENDBRANCH  15  16
ENDBRANCH  12  15
TORSDOF 2
ENDMDL
MODEL      210
REMARK 921   NORMALIZED FREE ENERGY PREDICTED BY IDOCK:   -3.89 KCAL/MOL
REMARK 922        TOTAL FREE ENERGY PREDICTED BY IDOCK:   -4.55 KCAL/MOL
REMARK 923 INTER-LIGAND FREE ENERGY PREDICTED BY IDOCK:   -4.28 KCAL/MOL
REMARK 924 INTRA-LIGAND FREE ENERGY PREDICTED BY IDOCK:   -0.27 KCAL/MOL
REMARK 927      BINDING AFFINITY PREDICTED BY RF-SCORE:    0.00 PKD
ROOT
HETATM    1  N   UNL     1     -11.939  10.878  68.071  1.00  0.00    -0.777 NA 
HETATM    2  H1  UNL     1     -12.150  10.803  67.075  1.00  0.00     0.000 HD 
HETATM    3  C   UNL     1     -11.097   9.994  68.658  1.00  0.00    -0.174 C  
HETATM    4  H2  UNL     1     -12.364  11.622  68.625  1.00  0.00     0.000 HD 
HETATM    5  N   UNL     1     -10.828  10.090  69.927  1.00  0.00    -0.265 N  
HETATM    6  H   UNL     1     -11.264  10.823  70.487  1.00  0.00     0.000 HD 
HETATM    7  C   UNL     1      -9.939   9.185  70.526  1.00  0.00    -0.235 C  
HETATM    8  C   UNL     1      -9.334   8.210  69.616  1.00  0.00    -0.159 A  
HETATM    9  O   UNL     1      -9.685   9.212  71.724  1.00  0.00    -0.283 OA 
HETATM   10  C   UNL     1      -9.697   8.197  68.293  1.00  0.00    -0.161 A  
HETATM   11  N   UNL     1     -10.588   9.059  67.790  1.00  0.00    -0.239 NA 
HETATM   12  N   UNL     1      -8.993   7.201  67.694  1.00  0.00    -0.125 NA 
HETATM   13  N   UNL     1      -8.399   7.223  69.851  1.00  0.00    -0.133 NA 
HETATM   14  C   UNL     1      -8.197   6.659  68.675  1.00  0.00    -0.119 A  
ENDROOT
BRANCH  12  15
HETATM   15  C   UNL     1      -9.018   6.779  66.308  1.00  0.00    -0.152 C  
BRANCH  15  16
HETATM   16  C   UNL     1      -8.448   5.379  66.062  1.00  0.00    -0.123 C  
HETATM   17  C   UNL     1      -9.370   4.176  66.373  1.00  0.00    -0.178 C  
HETATM   18  C   UNL     1     -10.639   4.136  65.507  1.00  0.00     0.015 C  
HETATM   19  C   UNL     1      -8.566   2.879  66.180  1.00  0.00    -0.119 C  
HETATM   20  O   UNL     1     -11.475   5.259  65.764  1.00  0.00    -0.728 OA 
HETATM   21  O   UNL     1      -9.358   1.739  66.484  1.00  0.00    -0.328 OA 
HETATM   22  H   UNL     1     -12.259   5.234  65.229  1.00  0.00     0.000 HD 
HETATM   23  H   UNL     1      -8.861   0.938  66.365  1.00  0.00     0.000 HD 
ENDBRANCH  15  16
ENDBRANCH  12  15
TORSDOF 2
ENDMDL
MODEL      211
REMARK 921   NORMALIZED FREE ENERGY PREDICTED BY IDOCK:   -3.88 KCAL/MOL
REMARK 922        TOTAL FREE ENERGY PREDICTED BY IDOCK:   -4.53 KCAL/MOL
REMARK 923 INTER-LIGAND FREE ENERGY PREDICTED BY IDOCK:   -4.15 KCAL/MOL
REMARK 924 INTRA-LIGAND FREE ENERGY PREDICTED BY IDOCK:   -0.38 KCAL/MOL
REMARK 927      BINDING AFFINITY PREDICTED BY RF-SCORE:    0.00 PKD
ROOT
HETATM    1  N   UNL     1     -10.285  10.089  66.272  1.00  0.00    -0.235 NA 
HETATM    2  H1  UNL     1      -9.876   9.210  65.953  1.00  0.00     0.000 HD 
HETATM    3  C   UNL     1     -10.666  10.234  67.565  1.00  0.00    -0.294 C  
HETATM    4  H2  UNL     1     -10.407  10.861  65.616  1.00  0.00     0.000 HD 
HETATM    5  N   UNL     1     -11.186  11.354  67.972  1.00  0.00    -0.257 N  
HETATM    6  H   UNL     1     -11.324  12.122  67.315  1.00  0.00     0.000 HD 
HETATM    7  C   UNL     1     -11.559  11.506  69.316  1.00  0.00    -0.322 C  
HETATM    8  C   UNL     1     -11.267  10.359  70.179  1.00  0.00    -0.321 A  
HETATM    9  O   UNL     1     -12.088  12.528  69.738  1.00  0.00    -0.287 OA 
HETATM   10  C   UNL     1     -10.720   9.223  69.638  1.00  0.00    -0.230 A  
HETATM   11  N   UNL     1     -10.429   9.122  68.336  1.00  0.00    -0.209 NA 
HETATM   12  N   UNL     1     -10.563   8.332  70.652  1.00  0.00    -0.211 NA 
HETATM   13  N   UNL     1     -11.453  10.186  71.535  1.00  0.00    -0.186 NA 
HETATM   14  C   UNL     1     -10.995   8.974  71.788  1.00  0.00    -0.372 A  
ENDROOT
BRANCH  12  15
HETATM   15  C   UNL     1     -10.029   6.987  70.603  1.00  0.00    -0.186 C  
BRANCH  15  16
HETATM   16  C   UNL     1     -10.671   6.013  71.596  1.00  0.00    -0.303 C  
HETATM   17  C   UNL     1      -9.748   5.384  72.667  1.00  0.00    -0.173 C  
HETATM   18  C   UNL     1      -9.126   6.415  73.622  1.00  0.00    -0.129 C  
HETATM   19  C   UNL     1     -10.558   4.353  73.469  1.00  0.00    -0.227 C  
HETATM   20  O   UNL     1      -8.257   7.304  72.928  1.00  0.00    -0.103 OA 
HETATM   21  O   UNL     1      -9.748   3.720  74.449  1.00  0.00    -0.108 OA 
HETATM   22  H   UNL     1      -7.873   7.941  73.518  1.00  0.00     0.000 HD 
HETATM   23  H   UNL     1     -10.249   3.082  74.945  1.00  0.00     0.000 HD 
ENDBRANCH  15  16
ENDBRANCH  12  15
TORSDOF 2
ENDMDL
MODEL      212
REMARK 921   NORMALIZED FREE ENERGY PREDICTED BY IDOCK:   -3.86 KCAL/MOL
REMARK 922        TOTAL FREE ENERGY PREDICTED BY IDOCK:   -4.52 KCAL/MOL
REMARK 923 INTER-LIGAND FREE ENERGY PREDICTED BY IDOCK:   -4.28 KCAL/MOL
REMARK 924 INTRA-LIGAND FREE ENERGY PREDICTED BY IDOCK:   -0.24 KCAL/MOL
REMARK 927      BINDING AFFINITY PREDICTED BY RF-SCORE:    0.00 PKD
ROOT
HETATM    1  N   UNL     1      -5.948   9.939  70.058  1.00  0.00    -0.044 NA 
HETATM    2  H1  UNL     1      -5.853  10.939  70.237  1.00  0.00     0.000 HD 
HETATM    3  C   UNL     1      -7.039   9.464  69.410  1.00  0.00    -0.054 C  
HETATM    4  H2  UNL     1      -5.220   9.295  70.368  1.00  0.00     0.000 HD 
HETATM    5  N   UNL     1      -7.162   8.189  69.182  1.00  0.00    -0.071 N  
HETATM    6  H   UNL     1      -6.442   7.541  69.505  1.00  0.00     0.000 HD 
HETATM    7  C   UNL     1      -8.282   7.704  68.492  1.00  0.00    -0.125 C  
HETATM    8  C   UNL     1      -9.223   8.729  68.030  1.00  0.00    -0.139 A  
HETATM    9  O   UNL     1      -8.460   6.509  68.287  1.00  0.00    -0.116 OA 
HETATM   10  C   UNL     1      -8.995  10.047  68.334  1.00  0.00    -0.121 A  
HETATM   11  N   UNL     1      -7.928  10.443  69.038  1.00  0.00    -0.121 NA 
HETATM   12  N   UNL     1     -10.014  10.764  67.793  1.00  0.00    -0.169 NA 
HETATM   13  N   UNL     1     -10.383   8.614  67.294  1.00  0.00    -0.274 NA 
HETATM   14  C   UNL     1     -10.815   9.853  67.146  1.00  0.00    -0.157 A  
ENDROOT
BRANCH  12  15
HETATM   15  C   UNL     1     -10.238  12.195  67.833  1.00  0.00    -0.198 C  
BRANCH  15  16
HETATM   16  C   UNL     1     -10.102  12.896  66.478  1.00  0.00    -0.263 C  
HETATM   17  C   UNL     1     -11.388  13.494  65.860  1.00  0.00    -0.321 C  
HETATM   18  C   UNL     1     -12.017  14.610  66.709  1.00  0.00    -0.276 C  
HETATM   19  C   UNL     1     -11.055  14.031  64.458  1.00  0.00    -0.351 C  
HETATM   20  O   UNL     1     -12.463  14.112  67.967  1.00  0.00    -0.528 OA 
HETATM   21  O   UNL     1     -12.212  14.565  63.829  1.00  0.00    -0.947 OA 
HETATM   22  H   UNL     1     -12.851  14.802  68.492  1.00  0.00     0.000 HD 
HETATM   23  H   UNL     1     -12.006  14.897  62.963  1.00  0.00     0.000 HD 
ENDBRANCH  15  16
ENDBRANCH  12  15
TORSDOF 2
ENDMDL
MODEL      213
REMARK 921   NORMALIZED FREE ENERGY PREDICTED BY IDOCK:   -3.84 KCAL/MOL
REMARK 922        TOTAL FREE ENERGY PREDICTED BY IDOCK:   -4.49 KCAL/MOL
REMARK 923 INTER-LIGAND FREE ENERGY PREDICTED BY IDOCK:   -4.29 KCAL/MOL
REMARK 924 INTRA-LIGAND FREE ENERGY PREDICTED BY IDOCK:   -0.21 KCAL/MOL
REMARK 927      BINDING AFFINITY PREDICTED BY RF-SCORE:    0.00 PKD
ROOT
HETATM    1  N   UNL     1     -13.880   8.618  71.305  1.00  0.00    -0.579 NA 
HETATM    2  H1  UNL     1     -13.963   9.462  70.738  1.00  0.00     0.000 HD 
HETATM    3  C   UNL     1     -12.678   8.009  71.450  1.00  0.00    -0.280 C  
HETATM    4  H2  UNL     1     -14.705   8.232  71.765  1.00  0.00     0.000 HD 
HETATM    5  N   UNL     1     -12.572   6.933  72.174  1.00  0.00    -0.536 N  
HETATM    6  H   UNL     1     -13.399   6.536  72.622  1.00  0.00     0.000 HD 
HETATM    7  C   UNL     1     -11.322   6.319  72.339  1.00  0.00    -0.292 C  
HETATM    8  C   UNL     1     -10.200   7.005  71.694  1.00  0.00    -0.194 A  
HETATM    9  O   UNL     1     -11.180   5.284  72.979  1.00  0.00    -0.290 OA 
HETATM   10  C   UNL     1     -10.429   8.133  70.949  1.00  0.00    -0.202 A  
HETATM   11  N   UNL     1     -11.655   8.646  70.790  1.00  0.00    -0.270 NA 
HETATM   12  N   UNL     1      -9.228   8.550  70.472  1.00  0.00    -0.149 NA 
HETATM   13  N   UNL     1      -8.852   6.712  71.691  1.00  0.00    -0.134 NA 
HETATM   14  C   UNL     1      -8.297   7.671  70.975  1.00  0.00    -0.112 A  
ENDROOT
BRANCH  12  15
HETATM   15  C   UNL     1      -8.931   9.692  69.632  1.00  0.00    -0.203 C  
BRANCH  15  16
HETATM   16  C   UNL     1      -8.154   9.356  68.356  1.00  0.00    -0.109 C  
HETATM   17  C   UNL     1      -7.608  10.543  67.527  1.00  0.00    -0.093 C  
HETATM   18  C   UNL     1      -6.580  11.399  68.284  1.00  0.00    -0.058 C  
HETATM   19  C   UNL     1      -6.979   9.993  66.236  1.00  0.00    -0.104 C  
HETATM   20  O   UNL     1      -7.170  12.036  69.412  1.00  0.00    -0.315 OA 
HETATM   21  O   UNL     1      -6.488  11.047  65.419  1.00  0.00    -0.368 OA 
HETATM   22  H   UNL     1      -6.535  12.565  69.880  1.00  0.00     0.000 HD 
HETATM   23  H   UNL     1      -6.099  10.706  64.622  1.00  0.00     0.000 HD 
ENDBRANCH  15  16
ENDBRANCH  12  15
TORSDOF 2
ENDMDL
MODEL      214
REMARK 921   NORMALIZED FREE ENERGY PREDICTED BY IDOCK:   -3.84 KCAL/MOL
REMARK 922        TOTAL FREE ENERGY PREDICTED BY IDOCK:   -4.49 KCAL/MOL
REMARK 923 INTER-LIGAND FREE ENERGY PREDICTED BY IDOCK:   -4.43 KCAL/MOL
REMARK 924 INTRA-LIGAND FREE ENERGY PREDICTED BY IDOCK:   -0.06 KCAL/MOL
REMARK 927      BINDING AFFINITY PREDICTED BY RF-SCORE:    0.00 PKD
ROOT
HETATM    1  N   UNL     1      -8.469  10.619  64.688  1.00  0.00    -0.308 NA 
HETATM    2  H1  UNL     1      -8.081   9.795  65.148  1.00  0.00     0.000 HD 
HETATM    3  C   UNL     1      -9.355  11.410  65.341  1.00  0.00    -0.186 C  
HETATM    4  H2  UNL     1      -8.190  10.848  63.734  1.00  0.00     0.000 HD 
HETATM    5  N   UNL     1      -9.850  12.461  64.756  1.00  0.00    -0.466 N  
HETATM    6  H   UNL     1      -9.585  12.683  63.796  1.00  0.00     0.000 HD 
HETATM    7  C   UNL     1     -10.750  13.288  65.444  1.00  0.00    -0.297 C  
HETATM    8  C   UNL     1     -11.018  12.902  66.831  1.00  0.00    -0.266 A  
HETATM    9  O   UNL     1     -11.272  14.266  64.921  1.00  0.00    -0.344 OA 
HETATM   10  C   UNL     1     -10.443  11.767  67.344  1.00  0.00    -0.211 A  
HETATM   11  N   UNL     1      -9.627  10.991  66.621  1.00  0.00    -0.186 NA 
HETATM   12  N   UNL     1     -10.864  11.651  68.631  1.00  0.00    -0.202 NA 
HETATM   13  N   UNL     1     -11.800  13.504  67.795  1.00  0.00    -0.359 NA 
HETATM   14  C   UNL     1     -11.662  12.746  68.867  1.00  0.00    -0.326 A  
ENDROOT
BRANCH  12  15
HETATM   15  C   UNL     1     -10.543  10.625  69.602  1.00  0.00    -0.217 C  
BRANCH  15  16
HETATM   16  C   UNL     1     -10.577   9.197  69.049  1.00  0.00    -0.219 C  
HETATM   17  C   UNL     1      -9.260   8.386  69.106  1.00  0.00    -0.150 C  
HETATM   18  C   UNL     1      -8.754   8.138  70.536  1.00  0.00    -0.135 C  
HETATM   19  C   UNL     1      -9.480   7.042  68.392  1.00  0.00    -0.133 C  
HETATM   20  O   UNL     1      -8.410   9.360  71.180  1.00  0.00    -0.310 OA 
HETATM   21  O   UNL     1      -8.290   6.267  68.387  1.00  0.00    -0.114 OA 
HETATM   22  H   UNL     1      -8.097   9.208  72.064  1.00  0.00     0.000 HD 
HETATM   23  H   UNL     1      -8.426   5.437  67.945  1.00  0.00     0.000 HD 
ENDBRANCH  15  16
ENDBRANCH  12  15
TORSDOF 2
ENDMDL
MODEL      215
REMARK 921   NORMALIZED FREE ENERGY PREDICTED BY IDOCK:   -3.81 KCAL/MOL
REMARK 922        TOTAL FREE ENERGY PREDICTED BY IDOCK:   -4.46 KCAL/MOL
REMARK 923 INTER-LIGAND FREE ENERGY PREDICTED BY IDOCK:   -4.23 KCAL/MOL
REMARK 924 INTRA-LIGAND FREE ENERGY PREDICTED BY IDOCK:   -0.23 KCAL/MOL
REMARK 927      BINDING AFFINITY PREDICTED BY RF-SCORE:    0.00 PKD
ROOT
HETATM    1  N   UNL     1      -5.834   9.939  69.713  1.00  0.00    -0.040 NA 
HETATM    2  H1  UNL     1      -5.652  10.768  69.146  1.00  0.00     0.000 HD 
HETATM    3  C   UNL     1      -7.105   9.602  70.040  1.00  0.00    -0.104 C  
HETATM    4  H2  UNL     1      -5.056   9.361  70.034  1.00  0.00     0.000 HD 
HETATM    5  N   UNL     1      -7.338   8.545  70.763  1.00  0.00    -0.059 N  
HETATM    6  H   UNL     1      -6.560   7.975  71.098  1.00  0.00     0.000 HD 
HETATM    7  C   UNL     1      -8.656   8.189  71.080  1.00  0.00    -0.137 C  
HETATM    8  C   UNL     1      -9.692   9.049  70.502  1.00  0.00    -0.216 A  
HETATM    9  O   UNL     1      -8.922   7.225  71.789  1.00  0.00    -0.127 OA 
HETATM   10  C   UNL     1      -9.330  10.144  69.758  1.00  0.00    -0.150 A  
HETATM   11  N   UNL     1      -8.050  10.458  69.528  1.00  0.00    -0.158 NA 
HETATM   12  N   UNL     1     -10.476  10.752  69.357  1.00  0.00    -0.218 NA 
HETATM   13  N   UNL     1     -11.067   8.965  70.568  1.00  0.00    -0.247 NA 
HETATM   14  C   UNL     1     -11.504   9.982  69.849  1.00  0.00    -0.215 A  
ENDROOT
BRANCH  12  15
HETATM   15  C   UNL     1     -10.637  11.946  68.554  1.00  0.00    -0.222 C  
BRANCH  15  16
HETATM   16  C   UNL     1     -11.558  11.776  67.342  1.00  0.00    -0.352 C  
HETATM   17  C   UNL     1     -11.384  12.778  66.175  1.00  0.00    -0.371 C  
HETATM   18  C   UNL     1     -10.001  12.710  65.509  1.00  0.00    -0.224 C  
HETATM   19  C   UNL     1     -12.480  12.510  65.130  1.00  0.00    -0.379 C  
HETATM   20  O   UNL     1      -8.971  13.087  66.416  1.00  0.00    -0.422 OA 
HETATM   21  O   UNL     1     -12.387  13.426  64.048  1.00  0.00    -0.588 OA 
HETATM   22  H   UNL     1      -8.116  13.045  66.004  1.00  0.00     0.000 HD 
HETATM   23  H   UNL     1     -13.064  13.261  63.403  1.00  0.00     0.000 HD 
ENDBRANCH  15  16
ENDBRANCH  12  15
TORSDOF 2
ENDMDL
MODEL      216
REMARK 921   NORMALIZED FREE ENERGY PREDICTED BY IDOCK:   -3.81 KCAL/MOL
REMARK 922        TOTAL FREE ENERGY PREDICTED BY IDOCK:   -4.46 KCAL/MOL
REMARK 923 INTER-LIGAND FREE ENERGY PREDICTED BY IDOCK:   -4.25 KCAL/MOL
REMARK 924 INTRA-LIGAND FREE ENERGY PREDICTED BY IDOCK:   -0.21 KCAL/MOL
REMARK 927      BINDING AFFINITY PREDICTED BY RF-SCORE:    0.00 PKD
ROOT
HETATM    1  N   UNL     1      -8.560   7.166  64.690  1.00  0.00    -0.340 NA 
HETATM    2  H1  UNL     1      -8.697   7.996  64.112  1.00  0.00     0.000 HD 
HETATM    3  C   UNL     1      -8.926   7.176  65.995  1.00  0.00    -0.111 C  
HETATM    4  H2  UNL     1      -8.148   6.326  64.284  1.00  0.00     0.000 HD 
HETATM    5  N   UNL     1      -8.752   6.119  66.732  1.00  0.00    -0.114 N  
HETATM    6  H   UNL     1      -8.325   5.283  66.332  1.00  0.00     0.000 HD 
HETATM    7  C   UNL     1      -9.152   6.127  68.076  1.00  0.00    -0.114 C  
HETATM    8  C   UNL     1      -9.800   7.361  68.527  1.00  0.00    -0.159 A  
HETATM    9  O   UNL     1      -8.974   5.169  68.819  1.00  0.00    -0.099 OA 
HETATM   10  C   UNL     1      -9.925   8.419  67.662  1.00  0.00    -0.190 A  
HETATM   11  N   UNL     1      -9.481   8.366  66.401  1.00  0.00    -0.212 NA 
HETATM   12  N   UNL     1     -10.551   9.418  68.338  1.00  0.00    -0.219 NA 
HETATM   13  N   UNL     1     -10.349   7.692  69.749  1.00  0.00    -0.218 NA 
HETATM   14  C   UNL     1     -10.814   8.917  69.592  1.00  0.00    -0.178 A  
ENDROOT
BRANCH  12  15
HETATM   15  C   UNL     1     -10.914  10.740  67.872  1.00  0.00    -0.289 C  
BRANCH  15  16
HETATM   16  C   UNL     1     -11.569  11.628  68.935  1.00  0.00    -0.377 C  
HETATM   17  C   UNL     1     -11.395  13.159  68.781  1.00  0.00    -0.333 C  
HETATM   18  C   UNL     1     -12.024  13.721  67.496  1.00  0.00    -0.376 C  
HETATM   19  C   UNL     1     -12.014  13.849  70.008  1.00  0.00    -0.336 C  
HETATM   20  O   UNL     1     -11.379  13.204  66.337  1.00  0.00    -0.296 OA 
HETATM   21  O   UNL     1     -11.854  15.259  69.934  1.00  0.00    -0.292 OA 
HETATM   22  H   UNL     1     -11.767  13.551  65.542  1.00  0.00     0.000 HD 
HETATM   23  H   UNL     1     -12.236  15.685  70.693  1.00  0.00     0.000 HD 
ENDBRANCH  15  16
ENDBRANCH  12  15
TORSDOF 2
ENDMDL
MODEL      217
REMARK 921   NORMALIZED FREE ENERGY PREDICTED BY IDOCK:   -3.80 KCAL/MOL
REMARK 922        TOTAL FREE ENERGY PREDICTED BY IDOCK:   -4.45 KCAL/MOL
REMARK 923 INTER-LIGAND FREE ENERGY PREDICTED BY IDOCK:   -4.61 KCAL/MOL
REMARK 924 INTRA-LIGAND FREE ENERGY PREDICTED BY IDOCK:    0.16 KCAL/MOL
REMARK 927      BINDING AFFINITY PREDICTED BY RF-SCORE:    0.00 PKD
ROOT
HETATM    1  N   UNL     1     -13.955   7.661  71.336  1.00  0.00    -0.583 NA 
HETATM    2  H1  UNL     1     -14.097   8.330  70.579  1.00  0.00     0.000 HD 
HETATM    3  C   UNL     1     -12.751   7.061  71.499  1.00  0.00    -0.381 C  
HETATM    4  H2  UNL     1     -14.722   7.444  71.973  1.00  0.00     0.000 HD 
HETATM    5  N   UNL     1     -12.570   6.208  72.464  1.00  0.00    -0.514 N  
HETATM    6  H   UNL     1     -13.340   5.977  73.092  1.00  0.00     0.000 HD 
HETATM    7  C   UNL     1     -11.316   5.606  72.642  1.00  0.00    -0.305 C  
HETATM    8  C   UNL     1     -10.272   6.051  71.715  1.00  0.00    -0.202 A  
HETATM    9  O   UNL     1     -11.108   4.768  73.512  1.00  0.00    -0.300 OA 
HETATM   10  C   UNL     1     -10.579   6.954  70.729  1.00  0.00    -0.220 A  
HETATM   11  N   UNL     1     -11.809   7.459  70.582  1.00  0.00    -0.257 NA 
HETATM   12  N   UNL     1      -9.439   7.181  70.025  1.00  0.00    -0.165 NA 
HETATM   13  N   UNL     1      -8.938   5.710  71.635  1.00  0.00    -0.136 NA 
HETATM   14  C   UNL     1      -8.464   6.425  70.632  1.00  0.00    -0.135 A  
ENDROOT
BRANCH  12  15
HETATM   15  C   UNL     1      -9.235   8.050  68.884  1.00  0.00    -0.147 C  
BRANCH  15  16
HETATM   16  C   UNL     1     -10.217   9.223  68.797  1.00  0.00    -0.223 C  
HETATM   17  C   UNL     1      -9.643  10.643  69.017  1.00  0.00    -0.207 C  
HETATM   18  C   UNL     1      -8.599  11.052  67.966  1.00  0.00    -0.134 C  
HETATM   19  C   UNL     1     -10.807  11.649  69.014  1.00  0.00    -0.203 C  
HETATM   20  O   UNL     1      -7.445  10.222  68.035  1.00  0.00    -0.086 OA 
HETATM   21  O   UNL     1     -10.338  12.970  69.244  1.00  0.00    -0.418 OA 
HETATM   22  H   UNL     1      -6.799  10.474  67.385  1.00  0.00     0.000 HD 
HETATM   23  H   UNL     1     -11.057  13.591  69.243  1.00  0.00     0.000 HD 
ENDBRANCH  15  16
ENDBRANCH  12  15
TORSDOF 2
ENDMDL
MODEL      218
REMARK 921   NORMALIZED FREE ENERGY PREDICTED BY IDOCK:   -3.74 KCAL/MOL
REMARK 922        TOTAL FREE ENERGY PREDICTED BY IDOCK:   -4.38 KCAL/MOL
REMARK 923 INTER-LIGAND FREE ENERGY PREDICTED BY IDOCK:   -4.03 KCAL/MOL
REMARK 924 INTRA-LIGAND FREE ENERGY PREDICTED BY IDOCK:   -0.35 KCAL/MOL
REMARK 927      BINDING AFFINITY PREDICTED BY RF-SCORE:    0.00 PKD
ROOT
HETATM    1  N   UNL     1      -7.786   8.016  66.225  1.00  0.00    -0.097 NA 
HETATM    2  H1  UNL     1      -7.406   7.447  66.982  1.00  0.00     0.000 HD 
HETATM    3  C   UNL     1      -8.795   8.888  66.466  1.00  0.00    -0.136 C  
HETATM    4  H2  UNL     1      -7.404   7.928  65.283  1.00  0.00     0.000 HD 
HETATM    5  N   UNL     1      -9.279   9.613  65.500  1.00  0.00    -0.215 N  
HETATM    6  H   UNL     1      -8.910   9.515  64.554  1.00  0.00     0.000 HD 
HETATM    7  C   UNL     1     -10.307  10.530  65.760  1.00  0.00    -0.200 C  
HETATM    8  C   UNL     1     -10.722  10.624  67.162  1.00  0.00    -0.272 A  
HETATM    9  O   UNL     1     -10.821  11.206  64.876  1.00  0.00    -0.275 OA 
HETATM   10  C   UNL     1     -10.145   9.804  68.098  1.00  0.00    -0.165 A  
HETATM   11  N   UNL     1      -9.198   8.914  67.779  1.00  0.00    -0.140 NA 
HETATM   12  N   UNL     1     -10.715  10.099  69.295  1.00  0.00    -0.218 NA 
HETATM   13  N   UNL     1     -11.655  11.439  67.769  1.00  0.00    -0.520 NA 
HETATM   14  C   UNL     1     -11.604  11.118  69.049  1.00  0.00    -0.324 A  
ENDROOT
BRANCH  12  15
HETATM   15  C   UNL     1     -10.453   9.512  70.594  1.00  0.00    -0.308 C  
BRANCH  15  16
HETATM   16  C   UNL     1     -11.048   8.114  70.789  1.00  0.00    -0.275 C  
HETATM   17  C   UNL     1     -10.079   6.913  70.684  1.00  0.00    -0.208 C  
HETATM   18  C   UNL     1      -8.977   6.918  71.755  1.00  0.00    -0.138 C  
HETATM   19  C   UNL     1     -10.895   5.613  70.783  1.00  0.00    -0.224 C  
HETATM   20  O   UNL     1      -8.116   8.043  71.605  1.00  0.00    -0.098 OA 
HETATM   21  O   UNL     1     -10.055   4.474  70.660  1.00  0.00    -0.216 OA 
HETATM   22  H   UNL     1      -7.435   8.046  72.266  1.00  0.00     0.000 HD 
HETATM   23  H   UNL     1     -10.559   3.671  70.721  1.00  0.00     0.000 HD 
ENDBRANCH  15  16
ENDBRANCH  12  15
TORSDOF 2
ENDMDL
MODEL      219
REMARK 921   NORMALIZED FREE ENERGY PREDICTED BY IDOCK:   -3.72 KCAL/MOL
REMARK 922        TOTAL FREE ENERGY PREDICTED BY IDOCK:   -4.36 KCAL/MOL
REMARK 923 INTER-LIGAND FREE ENERGY PREDICTED BY IDOCK:   -3.93 KCAL/MOL
REMARK 924 INTRA-LIGAND FREE ENERGY PREDICTED BY IDOCK:   -0.43 KCAL/MOL
REMARK 927      BINDING AFFINITY PREDICTED BY RF-SCORE:    0.00 PKD
ROOT
HETATM    1  N   UNL     1     -12.603  13.346  65.478  1.00  0.00    -0.481 NA 
HETATM    2  H1  UNL     1     -13.095  12.567  65.039  1.00  0.00     0.000 HD 
HETATM    3  C   UNL     1     -11.343  13.178  65.948  1.00  0.00    -0.311 C  
HETATM    4  H2  UNL     1     -13.061  14.254  65.563  1.00  0.00     0.000 HD 
HETATM    5  N   UNL     1     -10.715  14.171  66.507  1.00  0.00    -0.287 N  
HETATM    6  H   UNL     1     -11.177  15.075  66.608  1.00  0.00     0.000 HD 
HETATM    7  C   UNL     1      -9.403  13.998  66.972  1.00  0.00    -0.250 C  
HETATM    8  C   UNL     1      -8.823  12.675  66.729  1.00  0.00    -0.168 A  
HETATM    9  O   UNL     1      -8.786  14.891  67.540  1.00  0.00    -0.173 OA 
HETATM   10  C   UNL     1      -9.582  11.699  66.133  1.00  0.00    -0.232 A  
HETATM   11  N   UNL     1     -10.847  11.912  65.753  1.00  0.00    -0.286 NA 
HETATM   12  N   UNL     1      -8.804  10.589  66.037  1.00  0.00    -0.160 NA 
HETATM   13  N   UNL     1      -7.565  12.182  67.005  1.00  0.00    -0.129 NA 
HETATM   14  C   UNL     1      -7.579  10.942  66.553  1.00  0.00    -0.142 A  
ENDROOT
BRANCH  12  15
HETATM   15  C   UNL     1      -9.137   9.292  65.487  1.00  0.00    -0.221 C  
BRANCH  15  16
HETATM   16  C   UNL     1      -8.522   8.108  66.238  1.00  0.00    -0.136 C  
HETATM   17  C   UNL     1      -8.934   7.918  67.717  1.00  0.00    -0.128 C  
HETATM   18  C   UNL     1     -10.434   7.641  67.905  1.00  0.00    -0.207 C  
HETATM   19  C   UNL     1      -8.112   6.762  68.312  1.00  0.00    -0.115 C  
HETATM   20  O   UNL     1     -11.221   8.752  67.490  1.00  0.00    -0.380 OA 
HETATM   21  O   UNL     1      -8.429   6.564  69.682  1.00  0.00    -0.128 OA 
HETATM   22  H   UNL     1     -12.147   8.581  67.606  1.00  0.00     0.000 HD 
HETATM   23  H   UNL     1      -7.921   5.850  70.050  1.00  0.00     0.000 HD 
ENDBRANCH  15  16
ENDBRANCH  12  15
TORSDOF 2
ENDMDL
MODEL      220
REMARK 921   NORMALIZED FREE ENERGY PREDICTED BY IDOCK:   -3.72 KCAL/MOL
REMARK 922        TOTAL FREE ENERGY PREDICTED BY IDOCK:   -4.36 KCAL/MOL
REMARK 923 INTER-LIGAND FREE ENERGY PREDICTED BY IDOCK:   -3.69 KCAL/MOL
REMARK 924 INTRA-LIGAND FREE ENERGY PREDICTED BY IDOCK:   -0.68 KCAL/MOL
REMARK 927      BINDING AFFINITY PREDICTED BY RF-SCORE:    0.00 PKD
ROOT
HETATM    1  N   UNL     1      -6.152   8.904  65.693  1.00  0.00    -0.051 NA 
HETATM    2  H1  UNL     1      -5.792   9.052  66.636  1.00  0.00     0.000 HD 
HETATM    3  C   UNL     1      -7.340   9.443  65.324  1.00  0.00    -0.096 C  
HETATM    4  H2  UNL     1      -5.617   8.349  65.025  1.00  0.00     0.000 HD 
HETATM    5  N   UNL     1      -7.799   9.256  64.122  1.00  0.00    -0.119 N  
HETATM    6  H   UNL     1      -7.274   8.687  63.457  1.00  0.00     0.000 HD 
HETATM    7  C   UNL     1      -9.018   9.834  63.739  1.00  0.00    -0.240 C  
HETATM    8  C   UNL     1      -9.659  10.671  64.756  1.00  0.00    -0.280 A  
HETATM    9  O   UNL     1      -9.510   9.653  62.631  1.00  0.00    -0.182 OA 
HETATM   10  C   UNL     1      -9.085  10.794  65.996  1.00  0.00    -0.185 A  
HETATM   11  N   UNL     1      -7.942  10.178  66.317  1.00  0.00    -0.115 NA 
HETATM   12  N   UNL     1      -9.884  11.614  66.728  1.00  0.00    -0.198 NA 
HETATM   13  N   UNL     1     -10.819  11.416  64.704  1.00  0.00    -0.313 NA 
HETATM   14  C   UNL     1     -10.908  11.989  65.890  1.00  0.00    -0.288 A  
ENDROOT
BRANCH  12  15
HETATM   15  C   UNL     1      -9.720  12.055  68.098  1.00  0.00    -0.199 C  
BRANCH  15  16
HETATM   16  C   UNL     1     -10.760  11.496  69.073  1.00  0.00    -0.233 C  
HETATM   17  C   UNL     1     -10.705   9.978  69.371  1.00  0.00    -0.258 C  
HETATM   18  C   UNL     1      -9.398   9.532  70.044  1.00  0.00    -0.234 C  
HETATM   19  C   UNL     1     -11.903   9.609  70.263  1.00  0.00    -0.099 C  
HETATM   20  O   UNL     1      -8.280   9.734  69.186  1.00  0.00    -0.113 OA 
HETATM   21  O   UNL     1     -11.919   8.216  70.542  1.00  0.00    -0.485 OA 
HETATM   22  H   UNL     1      -7.472   9.459  69.602  1.00  0.00     0.000 HD 
HETATM   23  H   UNL     1     -12.660   7.988  71.093  1.00  0.00     0.000 HD 
ENDBRANCH  15  16
ENDBRANCH  12  15
TORSDOF 2
ENDMDL
MODEL      221
REMARK 921   NORMALIZED FREE ENERGY PREDICTED BY IDOCK:   -3.72 KCAL/MOL
REMARK 922        TOTAL FREE ENERGY PREDICTED BY IDOCK:   -4.36 KCAL/MOL
REMARK 923 INTER-LIGAND FREE ENERGY PREDICTED BY IDOCK:   -3.78 KCAL/MOL
REMARK 924 INTRA-LIGAND FREE ENERGY PREDICTED BY IDOCK:   -0.58 KCAL/MOL
REMARK 927      BINDING AFFINITY PREDICTED BY RF-SCORE:    0.00 PKD
ROOT
HETATM    1  N   UNL     1      -8.828   8.467  64.309  1.00  0.00    -0.382 NA 
HETATM    2  H1  UNL     1      -9.767   8.845  64.180  1.00  0.00     0.000 HD 
HETATM    3  C   UNL     1      -8.259   8.457  65.538  1.00  0.00    -0.140 C  
HETATM    4  H2  UNL     1      -8.315   8.094  63.508  1.00  0.00     0.000 HD 
HETATM    5  N   UNL     1      -7.062   7.975  65.703  1.00  0.00    -0.062 N  
HETATM    6  H   UNL     1      -6.542   7.617  64.902  1.00  0.00     0.000 HD 
HETATM    7  C   UNL     1      -6.487   7.947  66.982  1.00  0.00    -0.056 C  
HETATM    8  C   UNL     1      -7.344   8.439  68.063  1.00  0.00    -0.096 A  
HETATM    9  O   UNL     1      -5.349   7.539  67.180  1.00  0.00    -0.027 OA 
HETATM   10  C   UNL     1      -8.591   8.931  67.772  1.00  0.00    -0.125 A  
HETATM   11  N   UNL     1      -9.067   8.974  66.522  1.00  0.00    -0.153 NA 
HETATM   12  N   UNL     1      -9.155   9.315  68.947  1.00  0.00    -0.138 NA 
HETATM   13  N   UNL     1      -7.122   8.509  69.423  1.00  0.00    -0.053 NA 
HETATM   14  C   UNL     1      -8.236   9.012  69.923  1.00  0.00    -0.124 A  
ENDROOT
BRANCH  12  15
HETATM   15  C   UNL     1     -10.460   9.899  69.179  1.00  0.00    -0.217 C  
BRANCH  15  16
HETATM   16  C   UNL     1     -10.972   9.754  70.615  1.00  0.00    -0.398 C  
HETATM   17  C   UNL     1     -12.129   8.754  70.855  1.00  0.00    -0.195 C  
HETATM   18  C   UNL     1     -11.761   7.300  70.523  1.00  0.00    -0.228 C  
HETATM   19  C   UNL     1     -12.571   8.857  72.325  1.00  0.00    -0.385 C  
HETATM   20  O   UNL     1     -11.479   7.142  69.137  1.00  0.00    -0.480 OA 
HETATM   21  O   UNL     1     -13.655   7.980  72.593  1.00  0.00    -0.521 OA 
HETATM   22  H   UNL     1     -11.252   6.243  68.931  1.00  0.00     0.000 HD 
HETATM   23  H   UNL     1     -13.929   8.044  73.501  1.00  0.00     0.000 HD 
ENDBRANCH  15  16
ENDBRANCH  12  15
TORSDOF 2
ENDMDL
MODEL      222
REMARK 921   NORMALIZED FREE ENERGY PREDICTED BY IDOCK:   -3.71 KCAL/MOL
REMARK 922        TOTAL FREE ENERGY PREDICTED BY IDOCK:   -4.34 KCAL/MOL
REMARK 923 INTER-LIGAND FREE ENERGY PREDICTED BY IDOCK:   -4.48 KCAL/MOL
REMARK 924 INTRA-LIGAND FREE ENERGY PREDICTED BY IDOCK:    0.14 KCAL/MOL
REMARK 927      BINDING AFFINITY PREDICTED BY RF-SCORE:    0.00 PKD
ROOT
HETATM    1  N   UNL     1      -6.546   8.938  71.176  1.00  0.00    -0.070 NA 
HETATM    2  H1  UNL     1      -6.873   8.482  72.028  1.00  0.00     0.000 HD 
HETATM    3  C   UNL     1      -7.434   9.499  70.319  1.00  0.00    -0.143 C  
HETATM    4  H2  UNL     1      -5.548   8.973  70.968  1.00  0.00     0.000 HD 
HETATM    5  N   UNL     1      -7.018  10.081  69.233  1.00  0.00    -0.057 N  
HETATM    6  H   UNL     1      -6.021  10.103  69.015  1.00  0.00     0.000 HD 
HETATM    7  C   UNL     1      -7.939  10.679  68.361  1.00  0.00    -0.120 C  
HETATM    8  C   UNL     1      -9.336  10.632  68.800  1.00  0.00    -0.180 A  
HETATM    9  O   UNL     1      -7.599  11.204  67.307  1.00  0.00    -0.113 OA 
HETATM   10  C   UNL     1      -9.662   9.985  69.965  1.00  0.00    -0.175 A  
HETATM   11  N   UNL     1      -8.740   9.392  70.733  1.00  0.00    -0.228 NA 
HETATM   12  N   UNL     1     -11.006  10.094  70.122  1.00  0.00    -0.295 NA 
HETATM   13  N   UNL     1     -10.476  11.153  68.223  1.00  0.00    -0.182 NA 
HETATM   14  C   UNL     1     -11.452  10.837  69.054  1.00  0.00    -0.298 A  
ENDROOT
BRANCH  12  15
HETATM   15  C   UNL     1     -11.840   9.579  71.188  1.00  0.00    -0.358 C  
BRANCH  15  16
HETATM   16  C   UNL     1     -11.085   8.774  72.251  1.00  0.00    -0.340 C  
HETATM   17  C   UNL     1     -11.535   7.311  72.481  1.00  0.00    -0.322 C  
HETATM   18  C   UNL     1     -11.357   6.413  71.247  1.00  0.00    -0.306 C  
HETATM   19  C   UNL     1     -10.741   6.734  73.665  1.00  0.00    -0.254 C  
HETATM   20  O   UNL     1     -12.187   6.842  70.173  1.00  0.00    -0.634 OA 
HETATM   21  O   UNL     1     -11.138   5.398  73.941  1.00  0.00    -0.406 OA 
HETATM   22  H   UNL     1     -12.078   6.287  69.410  1.00  0.00     0.000 HD 
HETATM   23  H   UNL     1     -10.647   5.042  74.673  1.00  0.00     0.000 HD 
ENDBRANCH  15  16
ENDBRANCH  12  15
TORSDOF 2
ENDMDL
MODEL      223
REMARK 921   NORMALIZED FREE ENERGY PREDICTED BY IDOCK:   -3.69 KCAL/MOL
REMARK 922        TOTAL FREE ENERGY PREDICTED BY IDOCK:   -4.33 KCAL/MOL
REMARK 923 INTER-LIGAND FREE ENERGY PREDICTED BY IDOCK:   -3.78 KCAL/MOL
REMARK 924 INTRA-LIGAND FREE ENERGY PREDICTED BY IDOCK:   -0.55 KCAL/MOL
REMARK 927      BINDING AFFINITY PREDICTED BY RF-SCORE:    0.00 PKD
ROOT
HETATM    1  N   UNL     1      -7.907   6.085  64.050  1.00  0.00    -0.112 NA 
HETATM    2  H1  UNL     1      -8.020   5.108  64.322  1.00  0.00     0.000 HD 
HETATM    3  C   UNL     1      -8.494   7.068  64.775  1.00  0.00     0.118 C  
HETATM    4  H2  UNL     1      -7.350   6.323  63.228  1.00  0.00     0.000 HD 
HETATM    5  N   UNL     1      -8.350   8.313  64.428  1.00  0.00    -0.332 N  
HETATM    6  H   UNL     1      -7.807   8.552  63.597  1.00  0.00     0.000 HD 
HETATM    7  C   UNL     1      -8.941   9.328  65.195  1.00  0.00    -0.209 C  
HETATM    8  C   UNL     1      -9.652   8.872  66.392  1.00  0.00    -0.238 A  
HETATM    9  O   UNL     1      -8.866  10.511  64.886  1.00  0.00    -0.180 OA 
HETATM   10  C   UNL     1      -9.745   7.530  66.658  1.00  0.00    -0.203 A  
HETATM   11  N   UNL     1      -9.197   6.605  65.861  1.00  0.00    -0.043 NA 
HETATM   12  N   UNL     1     -10.451   7.397  67.811  1.00  0.00    -0.226 NA 
HETATM   13  N   UNL     1     -10.297   9.588  67.379  1.00  0.00    -0.241 NA 
HETATM   14  C   UNL     1     -10.738   8.677  68.226  1.00  0.00    -0.052 A  
ENDROOT
BRANCH  12  15
HETATM   15  C   UNL     1     -10.824   6.187  68.513  1.00  0.00    -0.314 C  
BRANCH  15  16
HETATM   16  C   UNL     1     -11.609   6.421  69.807  1.00  0.00    -0.397 C  
HETATM   17  C   UNL     1     -10.868   6.158  71.140  1.00  0.00    -0.328 C  
HETATM   18  C   UNL     1      -9.654   7.075  71.359  1.00  0.00    -0.162 C  
HETATM   19  C   UNL     1     -11.865   6.328  72.299  1.00  0.00    -0.278 C  
HETATM   20  O   UNL     1      -8.648   6.843  70.379  1.00  0.00    -0.140 OA 
HETATM   21  O   UNL     1     -11.244   6.066  73.549  1.00  0.00    -0.449 OA 
HETATM   22  H   UNL     1      -7.898   7.410  70.514  1.00  0.00     0.000 HD 
HETATM   23  H   UNL     1     -11.860   6.171  74.264  1.00  0.00     0.000 HD 
ENDBRANCH  15  16
ENDBRANCH  12  15
TORSDOF 2
ENDMDL
MODEL      224
REMARK 921   NORMALIZED FREE ENERGY PREDICTED BY IDOCK:   -3.64 KCAL/MOL
REMARK 922        TOTAL FREE ENERGY PREDICTED BY IDOCK:   -4.27 KCAL/MOL
REMARK 923 INTER-LIGAND FREE ENERGY PREDICTED BY IDOCK:   -3.95 KCAL/MOL
REMARK 924 INTRA-LIGAND FREE ENERGY PREDICTED BY IDOCK:   -0.32 KCAL/MOL
REMARK 927      BINDING AFFINITY PREDICTED BY RF-SCORE:    0.00 PKD
ROOT
HETATM    1  N   UNL     1      -8.457   9.994  64.442  1.00  0.00    -0.161 NA 
HETATM    2  H1  UNL     1      -9.227  10.597  64.149  1.00  0.00     0.000 HD 
HETATM    3  C   UNL     1      -8.407   9.518  65.709  1.00  0.00    -0.128 C  
HETATM    4  H2  UNL     1      -7.723   9.748  63.777  1.00  0.00     0.000 HD 
HETATM    5  N   UNL     1      -7.426   8.750  66.083  1.00  0.00    -0.089 N  
HETATM    6  H   UNL     1      -6.683   8.516  65.425  1.00  0.00     0.000 HD 
HETATM    7  C   UNL     1      -7.391   8.242  67.390  1.00  0.00    -0.092 C  
HETATM    8  C   UNL     1      -8.537   8.601  68.230  1.00  0.00    -0.138 A  
HETATM    9  O   UNL     1      -6.468   7.547  67.798  1.00  0.00    -0.050 OA 
HETATM   10  C   UNL     1      -9.514   9.425  67.732  1.00  0.00    -0.132 A  
HETATM   11  N   UNL     1      -9.467   9.916  66.488  1.00  0.00    -0.172 NA 
HETATM   12  N   UNL     1     -10.437   9.590  68.714  1.00  0.00    -0.215 NA 
HETATM   13  N   UNL     1      -8.845   8.243  69.526  1.00  0.00    -0.148 NA 
HETATM   14  C   UNL     1     -10.002   8.829  69.774  1.00  0.00    -0.190 A  
ENDROOT
BRANCH  12  15
HETATM   15  C   UNL     1     -11.658  10.370  68.691  1.00  0.00    -0.101 C  
BRANCH  15  16
HETATM   16  C   UNL     1     -11.653  11.584  69.625  1.00  0.00    -0.403 C  
HETATM   17  C   UNL     1     -12.837  11.721  70.612  1.00  0.00    -0.093 C  
HETATM   18  C   UNL     1     -12.928  10.569  71.624  1.00  0.00    -0.476 C  
HETATM   19  C   UNL     1     -12.702  13.060  71.357  1.00  0.00    -0.281 C  
HETATM   20  O   UNL     1     -13.191   9.330  70.974  1.00  0.00    -0.531 OA 
HETATM   21  O   UNL     1     -13.784  13.252  72.257  1.00  0.00    -0.548 OA 
HETATM   22  H   UNL     1     -13.247   8.617  71.599  1.00  0.00     0.000 HD 
HETATM   23  H   UNL     1     -13.701  14.080  72.717  1.00  0.00     0.000 HD 
ENDBRANCH  15  16
ENDBRANCH  12  15
TORSDOF 2
ENDMDL
MODEL      225
REMARK 921   NORMALIZED FREE ENERGY PREDICTED BY IDOCK:   -3.64 KCAL/MOL
REMARK 922        TOTAL FREE ENERGY PREDICTED BY IDOCK:   -4.27 KCAL/MOL
REMARK 923 INTER-LIGAND FREE ENERGY PREDICTED BY IDOCK:   -4.12 KCAL/MOL
REMARK 924 INTRA-LIGAND FREE ENERGY PREDICTED BY IDOCK:   -0.14 KCAL/MOL
REMARK 927      BINDING AFFINITY PREDICTED BY RF-SCORE:    0.00 PKD
ROOT
HETATM    1  N   UNL     1      -7.270   9.030  72.694  1.00  0.00    -0.292 NA 
HETATM    2  H1  UNL     1      -6.830   9.498  71.901  1.00  0.00     0.000 HD 
HETATM    3  C   UNL     1      -8.425   8.342  72.524  1.00  0.00    -0.187 C  
HETATM    4  H2  UNL     1      -6.839   9.080  73.617  1.00  0.00     0.000 HD 
HETATM    5  N   UNL     1      -8.987   7.744  73.534  1.00  0.00    -0.242 N  
HETATM    6  H   UNL     1      -8.566   7.806  74.461  1.00  0.00     0.000 HD 
HETATM    7  C   UNL     1     -10.170   7.015  73.348  1.00  0.00    -0.306 C  
HETATM    8  C   UNL     1     -10.654   6.952  71.967  1.00  0.00    -0.212 A  
HETATM    9  O   UNL     1     -10.756   6.469  74.275  1.00  0.00    -0.156 OA 
HETATM   10  C   UNL     1      -9.983   7.627  70.979  1.00  0.00    -0.182 A  
HETATM   11  N   UNL     1      -8.882   8.345  71.228  1.00  0.00    -0.151 NA 
HETATM   12  N   UNL     1     -10.646   7.399  69.815  1.00  0.00    -0.233 NA 
HETATM   13  N   UNL     1     -11.740   6.295  71.426  1.00  0.00    -0.296 NA 
HETATM   14  C   UNL     1     -11.688   6.560  70.134  1.00  0.00    -0.353 A  
ENDROOT
BRANCH  12  15
HETATM   15  C   UNL     1     -10.342   7.888  68.487  1.00  0.00    -0.200 C  
BRANCH  15  16
HETATM   16  C   UNL     1      -9.438   9.124  68.458  1.00  0.00    -0.151 C  
HETATM   17  C   UNL     1     -10.099  10.475  68.091  1.00  0.00    -0.180 C  
HETATM   18  C   UNL     1     -11.179  10.920  69.090  1.00  0.00    -0.256 C  
HETATM   19  C   UNL     1      -9.002  11.549  67.997  1.00  0.00    -0.170 C  
HETATM   20  O   UNL     1     -12.277  10.014  69.100  1.00  0.00    -0.374 OA 
HETATM   21  O   UNL     1      -9.552  12.807  67.630  1.00  0.00    -0.182 OA 
HETATM   22  H   UNL     1     -12.945  10.289  69.717  1.00  0.00     0.000 HD 
HETATM   23  H   UNL     1      -8.874  13.470  67.571  1.00  0.00     0.000 HD 
ENDBRANCH  15  16
ENDBRANCH  12  15
TORSDOF 2
ENDMDL
MODEL      226
REMARK 921   NORMALIZED FREE ENERGY PREDICTED BY IDOCK:   -3.62 KCAL/MOL
REMARK 922        TOTAL FREE ENERGY PREDICTED BY IDOCK:   -4.25 KCAL/MOL
REMARK 923 INTER-LIGAND FREE ENERGY PREDICTED BY IDOCK:   -3.68 KCAL/MOL
REMARK 924 INTRA-LIGAND FREE ENERGY PREDICTED BY IDOCK:   -0.57 KCAL/MOL
REMARK 927      BINDING AFFINITY PREDICTED BY RF-SCORE:    0.00 PKD
ROOT
HETATM    1  N   UNL     1      -8.489   6.804  66.159  1.00  0.00    -0.130 NA 
HETATM    2  H1  UNL     1      -8.236   7.593  65.563  1.00  0.00     0.000 HD 
HETATM    3  C   UNL     1      -8.970   7.019  67.407  1.00  0.00    -0.117 C  
HETATM    4  H2  UNL     1      -8.378   5.851  65.813  1.00  0.00     0.000 HD 
HETATM    5  N   UNL     1      -9.292   6.013  68.166  1.00  0.00    -0.115 N  
HETATM    6  H   UNL     1      -9.168   5.058  67.829  1.00  0.00     0.000 HD 
HETATM    7  C   UNL     1      -9.811   6.241  69.449  1.00  0.00    -0.152 C  
HETATM    8  C   UNL     1      -9.995   7.649  69.808  1.00  0.00    -0.184 A  
HETATM    9  O   UNL     1     -10.092   5.326  70.215  1.00  0.00    -0.217 OA 
HETATM   10  C   UNL     1      -9.614   8.630  68.928  1.00  0.00    -0.159 A  
HETATM   11  N   UNL     1      -9.081   8.349  67.733  1.00  0.00    -0.135 NA 
HETATM   12  N   UNL     1      -9.891   9.824  69.513  1.00  0.00    -0.201 NA 
HETATM   13  N   UNL     1     -10.516   8.224  70.948  1.00  0.00    -0.194 NA 
HETATM   14  C   UNL     1     -10.465   9.524  70.727  1.00  0.00    -0.314 A  
ENDROOT
BRANCH  12  15
HETATM   15  C   UNL     1      -9.675  11.160  68.997  1.00  0.00    -0.096 C  
BRANCH  15  16
HETATM   16  C   UNL     1     -10.928  11.827  68.422  1.00  0.00    -0.274 C  
HETATM   17  C   UNL     1     -10.779  12.563  67.068  1.00  0.00    -0.268 C  
HETATM   18  C   UNL     1     -10.376  11.638  65.909  1.00  0.00    -0.248 C  
HETATM   19  C   UNL     1     -12.109  13.261  66.740  1.00  0.00    -0.345 C  
HETATM   20  O   UNL     1      -9.083  11.080  66.119  1.00  0.00    -0.180 OA 
HETATM   21  O   UNL     1     -12.018  13.981  65.518  1.00  0.00    -0.351 OA 
HETATM   22  H   UNL     1      -8.833  10.509  65.402  1.00  0.00     0.000 HD 
HETATM   23  H   UNL     1     -12.839  14.413  65.315  1.00  0.00     0.000 HD 
ENDBRANCH  15  16
ENDBRANCH  12  15
TORSDOF 2
ENDMDL
MODEL      227
REMARK 921   NORMALIZED FREE ENERGY PREDICTED BY IDOCK:   -3.61 KCAL/MOL
REMARK 922        TOTAL FREE ENERGY PREDICTED BY IDOCK:   -4.23 KCAL/MOL
REMARK 923 INTER-LIGAND FREE ENERGY PREDICTED BY IDOCK:   -4.40 KCAL/MOL
REMARK 924 INTRA-LIGAND FREE ENERGY PREDICTED BY IDOCK:    0.17 KCAL/MOL
REMARK 927      BINDING AFFINITY PREDICTED BY RF-SCORE:    0.00 PKD
ROOT
HETATM    1  N   UNL     1      -6.458  13.168  67.131  1.00  0.00    -0.473 NA 
HETATM    2  H1  UNL     1      -6.827  12.257  66.856  1.00  0.00     0.000 HD 
HETATM    3  C   UNL     1      -7.279  14.103  67.667  1.00  0.00    -0.180 C  
HETATM    4  H2  UNL     1      -5.467  13.375  67.001  1.00  0.00     0.000 HD 
HETATM    5  N   UNL     1      -6.809  15.264  68.017  1.00  0.00    -0.126 N  
HETATM    6  H   UNL     1      -5.822  15.480  67.873  1.00  0.00     0.000 HD 
HETATM    7  C   UNL     1      -7.659  16.221  68.592  1.00  0.00    -0.188 C  
HETATM    8  C   UNL     1      -9.042  15.784  68.798  1.00  0.00    -0.213 A  
HETATM    9  O   UNL     1      -7.270  17.341  68.901  1.00  0.00    -0.231 OA 
HETATM   10  C   UNL     1      -9.429  14.535  68.384  1.00  0.00    -0.209 A  
HETATM   11  N   UNL     1      -8.581  13.682  67.798  1.00  0.00    -0.168 NA 
HETATM   12  N   UNL     1     -10.746  14.401  68.692  1.00  0.00    -0.246 NA 
HETATM   13  N   UNL     1     -10.113  16.438  69.370  1.00  0.00    -0.259 NA 
HETATM   14  C   UNL     1     -11.107  15.572  69.316  1.00  0.00    -0.285 A  
ENDROOT
BRANCH  12  15
HETATM   15  C   UNL     1     -11.621  13.271  68.461  1.00  0.00    -0.333 C  
BRANCH  15  16
HETATM   16  C   UNL     1     -10.894  11.958  68.153  1.00  0.00    -0.259 C  
HETATM   17  C   UNL     1     -10.547  11.045  69.353  1.00  0.00    -0.212 C  
HETATM   18  C   UNL     1     -11.781  10.530  70.110  1.00  0.00    -0.326 C  
HETATM   19  C   UNL     1      -9.716   9.856  68.842  1.00  0.00    -0.175 C  
HETATM   20  O   UNL     1     -12.500  11.600  70.715  1.00  0.00    -0.360 OA 
HETATM   21  O   UNL     1      -9.341   8.999  69.911  1.00  0.00    -0.158 OA 
HETATM   22  H   UNL     1     -13.262  11.283  71.183  1.00  0.00     0.000 HD 
HETATM   23  H   UNL     1      -8.827   8.265  69.595  1.00  0.00     0.000 HD 
ENDBRANCH  15  16
ENDBRANCH  12  15
TORSDOF 2
ENDMDL
MODEL      228
REMARK 921   NORMALIZED FREE ENERGY PREDICTED BY IDOCK:   -3.59 KCAL/MOL
REMARK 922        TOTAL FREE ENERGY PREDICTED BY IDOCK:   -4.21 KCAL/MOL
REMARK 923 INTER-LIGAND FREE ENERGY PREDICTED BY IDOCK:   -4.05 KCAL/MOL
REMARK 924 INTRA-LIGAND FREE ENERGY PREDICTED BY IDOCK:   -0.17 KCAL/MOL
REMARK 927      BINDING AFFINITY PREDICTED BY RF-SCORE:    0.00 PKD
ROOT
HETATM    1  N   UNL     1      -9.777   5.811  69.666  1.00  0.00    -0.154 NA 
HETATM    2  H1  UNL     1      -9.227   5.873  68.808  1.00  0.00     0.000 HD 
HETATM    3  C   UNL     1     -10.360   6.920  70.183  1.00  0.00    -0.199 C  
HETATM    4  H2  UNL     1      -9.888   4.912  70.135  1.00  0.00     0.000 HD 
HETATM    5  N   UNL     1     -11.061   6.842  71.276  1.00  0.00    -0.252 N  
HETATM    6  H   UNL     1     -11.160   5.946  71.756  1.00  0.00     0.000 HD 
HETATM    7  C   UNL     1     -11.680   7.987  71.795  1.00  0.00    -0.291 C  
HETATM    8  C   UNL     1     -11.514   9.204  70.996  1.00  0.00    -0.306 A  
HETATM    9  O   UNL     1     -12.318   7.971  72.842  1.00  0.00    -0.136 OA 
HETATM   10  C   UNL     1     -10.746   9.171  69.860  1.00  0.00    -0.231 A  
HETATM   11  N   UNL     1     -10.141   8.054  69.440  1.00  0.00    -0.192 NA 
HETATM   12  N   UNL     1     -10.762  10.422  69.329  1.00  0.00    -0.220 NA 
HETATM   13  N   UNL     1     -12.017  10.475  71.181  1.00  0.00    -0.353 NA 
HETATM   14  C   UNL     1     -11.571  11.170  70.152  1.00  0.00    -0.323 A  
ENDROOT
BRANCH  12  15
HETATM   15  C   UNL     1     -10.106  10.909  68.134  1.00  0.00    -0.173 C  
BRANCH  15  16
HETATM   16  C   UNL     1      -8.577  10.808  68.164  1.00  0.00    -0.129 C  
HETATM   17  C   UNL     1      -7.798  11.552  67.053  1.00  0.00    -0.161 C  
HETATM   18  C   UNL     1      -7.995  13.076  67.082  1.00  0.00    -0.087 C  
HETATM   19  C   UNL     1      -6.303  11.218  67.193  1.00  0.00    -0.096 C  
HETATM   20  O   UNL     1      -9.349  13.427  66.818  1.00  0.00    -0.246 OA 
HETATM   21  O   UNL     1      -5.542  11.852  66.175  1.00  0.00    -0.499 OA 
HETATM   22  H   UNL     1      -9.471  14.369  66.836  1.00  0.00     0.000 HD 
HETATM   23  H   UNL     1      -4.619  11.645  66.262  1.00  0.00     0.000 HD 
ENDBRANCH  15  16
ENDBRANCH  12  15
TORSDOF 2
ENDMDL
MODEL      229
REMARK 921   NORMALIZED FREE ENERGY PREDICTED BY IDOCK:   -3.56 KCAL/MOL
REMARK 922        TOTAL FREE ENERGY PREDICTED BY IDOCK:   -4.18 KCAL/MOL
REMARK 923 INTER-LIGAND FREE ENERGY PREDICTED BY IDOCK:   -3.86 KCAL/MOL
REMARK 924 INTRA-LIGAND FREE ENERGY PREDICTED BY IDOCK:   -0.32 KCAL/MOL
REMARK 927      BINDING AFFINITY PREDICTED BY RF-SCORE:    0.00 PKD
ROOT
HETATM    1  N   UNL     1      -6.253   8.223  66.383  1.00  0.00    -0.049 NA 
HETATM    2  H1  UNL     1      -6.005   8.337  67.366  1.00  0.00     0.000 HD 
HETATM    3  C   UNL     1      -7.334   8.862  65.874  1.00  0.00    -0.093 C  
HETATM    4  H2  UNL     1      -5.684   7.627  65.781  1.00  0.00     0.000 HD 
HETATM    5  N   UNL     1      -7.650   8.718  64.620  1.00  0.00    -0.104 N  
HETATM    6  H   UNL     1      -7.092   8.110  64.020  1.00  0.00     0.000 HD 
HETATM    7  C   UNL     1      -8.757   9.398  64.094  1.00  0.00    -0.198 C  
HETATM    8  C   UNL     1      -9.452  10.282  65.033  1.00  0.00    -0.257 A  
HETATM    9  O   UNL     1      -9.116   9.264  62.930  1.00  0.00    -0.196 OA 
HETATM   10  C   UNL     1      -9.034  10.352  66.338  1.00  0.00    -0.149 A  
HETATM   11  N   UNL     1      -7.996   9.641  66.792  1.00  0.00    -0.105 NA 
HETATM   12  N   UNL     1      -9.849  11.233  66.974  1.00  0.00    -0.189 NA 
HETATM   13  N   UNL     1     -10.530  11.122  64.845  1.00  0.00    -0.308 NA 
HETATM   14  C   UNL     1     -10.723  11.696  66.018  1.00  0.00    -0.280 A  
ENDROOT
BRANCH  12  15
HETATM   15  C   UNL     1      -9.826  11.653  68.359  1.00  0.00    -0.202 C  
BRANCH  15  16
HETATM   16  C   UNL     1     -11.011  11.155  69.193  1.00  0.00    -0.295 C  
HETATM   17  C   UNL     1     -11.689  12.176  70.138  1.00  0.00    -0.301 C  
HETATM   18  C   UNL     1     -12.324  13.366  69.401  1.00  0.00    -0.077 C  
HETATM   19  C   UNL     1     -12.759  11.444  70.965  1.00  0.00    -0.349 C  
HETATM   20  O   UNL     1     -11.338  14.147  68.735  1.00  0.00    -0.247 OA 
HETATM   21  O   UNL     1     -13.394  12.331  71.875  1.00  0.00    -0.463 OA 
HETATM   22  H   UNL     1     -11.729  14.883  68.280  1.00  0.00     0.000 HD 
HETATM   23  H   UNL     1     -14.055  11.879  72.387  1.00  0.00     0.000 HD 
ENDBRANCH  15  16
ENDBRANCH  12  15
TORSDOF 2
ENDMDL
MODEL      230
REMARK 921   NORMALIZED FREE ENERGY PREDICTED BY IDOCK:   -3.55 KCAL/MOL
REMARK 922        TOTAL FREE ENERGY PREDICTED BY IDOCK:   -4.17 KCAL/MOL
REMARK 923 INTER-LIGAND FREE ENERGY PREDICTED BY IDOCK:   -3.96 KCAL/MOL
REMARK 924 INTRA-LIGAND FREE ENERGY PREDICTED BY IDOCK:   -0.22 KCAL/MOL
REMARK 927      BINDING AFFINITY PREDICTED BY RF-SCORE:    0.00 PKD
ROOT
HETATM    1  N   UNL     1     -11.265   4.022  64.456  1.00  0.00    -0.800 NA 
HETATM    2  H1  UNL     1     -11.970   4.748  64.585  1.00  0.00     0.000 HD 
HETATM    3  C   UNL     1     -10.239   3.904  65.334  1.00  0.00    -0.042 C  
HETATM    4  H2  UNL     1     -11.333   3.381  63.665  1.00  0.00     0.000 HD 
HETATM    5  N   UNL     1      -9.340   2.978  65.171  1.00  0.00    -0.182 N  
HETATM    6  H   UNL     1      -9.397   2.347  64.371  1.00  0.00     0.000 HD 
HETATM    7  C   UNL     1      -8.293   2.847  66.094  1.00  0.00    -0.096 C  
HETATM    8  C   UNL     1      -8.341   3.773  67.228  1.00  0.00    -0.098 A  
HETATM    9  O   UNL     1      -7.402   2.016  65.961  1.00  0.00    -0.059 OA 
HETATM   10  C   UNL     1      -9.335   4.716  67.296  1.00  0.00    -0.143 A  
HETATM   11  N   UNL     1     -10.283   4.821  66.357  1.00  0.00    -0.260 NA 
HETATM   12  N   UNL     1      -9.134   5.429  68.434  1.00  0.00    -0.108 NA 
HETATM   13  N   UNL     1      -7.514   3.890  68.327  1.00  0.00    -0.059 NA 
HETATM   14  C   UNL     1      -8.034   4.870  69.040  1.00  0.00    -0.076 A  
ENDROOT
BRANCH  12  15
HETATM   15  C   UNL     1      -9.907   6.536  68.959  1.00  0.00    -0.143 C  
BRANCH  15  16
HETATM   16  C   UNL     1     -10.625   6.238  70.279  1.00  0.00    -0.305 C  
HETATM   17  C   UNL     1     -10.915   7.438  71.212  1.00  0.00    -0.263 C  
HETATM   18  C   UNL     1     -11.855   8.484  70.593  1.00  0.00    -0.096 C  
HETATM   19  C   UNL     1     -11.518   6.906  72.523  1.00  0.00    -0.230 C  
HETATM   20  O   UNL     1     -11.266   9.097  69.451  1.00  0.00    -0.436 OA 
HETATM   21  O   UNL     1     -11.776   7.967  73.432  1.00  0.00    -0.561 OA 
HETATM   22  H   UNL     1     -11.847   9.743  69.068  1.00  0.00     0.000 HD 
HETATM   23  H   UNL     1     -12.148   7.638  74.242  1.00  0.00     0.000 HD 
ENDBRANCH  15  16
ENDBRANCH  12  15
TORSDOF 2
ENDMDL
MODEL      231
REMARK 921   NORMALIZED FREE ENERGY PREDICTED BY IDOCK:   -3.55 KCAL/MOL
REMARK 922        TOTAL FREE ENERGY PREDICTED BY IDOCK:   -4.17 KCAL/MOL
REMARK 923 INTER-LIGAND FREE ENERGY PREDICTED BY IDOCK:   -3.48 KCAL/MOL
REMARK 924 INTRA-LIGAND FREE ENERGY PREDICTED BY IDOCK:   -0.69 KCAL/MOL
REMARK 927      BINDING AFFINITY PREDICTED BY RF-SCORE:    0.00 PKD
ROOT
HETATM    1  N   UNL     1     -11.155   5.739  73.998  1.00  0.00    -0.346 NA 
HETATM    2  H1  UNL     1     -10.743   4.830  74.209  1.00  0.00     0.000 HD 
HETATM    3  C   UNL     1     -11.150   6.212  72.729  1.00  0.00    -0.259 C  
HETATM    4  H2  UNL     1     -11.573   6.294  74.746  1.00  0.00     0.000 HD 
HETATM    5  N   UNL     1     -11.676   7.371  72.460  1.00  0.00    -0.468 N  
HETATM    6  H   UNL     1     -12.080   7.935  73.208  1.00  0.00     0.000 HD 
HETATM    7  C   UNL     1     -11.688   7.847  71.140  1.00  0.00    -0.285 C  
HETATM    8  C   UNL     1     -11.129   6.932  70.142  1.00  0.00    -0.299 A  
HETATM    9  O   UNL     1     -12.137   8.948  70.845  1.00  0.00    -0.270 OA 
HETATM   10  C   UNL     1     -10.595   5.733  70.541  1.00  0.00    -0.289 A  
HETATM   11  N   UNL     1     -10.571   5.355  71.825  1.00  0.00    -0.229 NA 
HETATM   12  N   UNL     1     -10.152   5.100  69.424  1.00  0.00    -0.225 NA 
HETATM   13  N   UNL     1     -11.026   7.054  68.772  1.00  0.00    -0.148 NA 
HETATM   14  C   UNL     1     -10.463   5.929  68.372  1.00  0.00    -0.237 A  
ENDROOT
BRANCH  12  15
HETATM   15  C   UNL     1      -9.508   3.808  69.309  1.00  0.00    -0.182 C  
BRANCH  15  16
HETATM   16  C   UNL     1      -7.977   3.857  69.341  1.00  0.00    -0.058 C  
HETATM   17  C   UNL     1      -7.307   4.084  70.717  1.00  0.00    -0.041 C  
HETATM   18  C   UNL     1      -7.589   2.961  71.729  1.00  0.00    -0.048 C  
HETATM   19  C   UNL     1      -5.790   4.227  70.507  1.00  0.00    -0.014 C  
HETATM   20  O   UNL     1      -8.974   2.892  72.051  1.00  0.00    -0.082 OA 
HETATM   21  O   UNL     1      -5.126   4.468  71.740  1.00  0.00    -0.003 OA 
HETATM   22  H   UNL     1      -9.148   2.199  72.676  1.00  0.00     0.000 HD 
HETATM   23  H   UNL     1      -4.189   4.557  71.610  1.00  0.00     0.000 HD 
ENDBRANCH  15  16
ENDBRANCH  12  15
TORSDOF 2
ENDMDL
MODEL      232
REMARK 921   NORMALIZED FREE ENERGY PREDICTED BY IDOCK:   -3.55 KCAL/MOL
REMARK 922        TOTAL FREE ENERGY PREDICTED BY IDOCK:   -4.17 KCAL/MOL
REMARK 923 INTER-LIGAND FREE ENERGY PREDICTED BY IDOCK:   -3.93 KCAL/MOL
REMARK 924 INTRA-LIGAND FREE ENERGY PREDICTED BY IDOCK:   -0.24 KCAL/MOL
REMARK 927      BINDING AFFINITY PREDICTED BY RF-SCORE:    0.00 PKD
ROOT
HETATM    1  N   UNL     1      -7.063   7.867  73.351  1.00  0.00    -0.096 NA 
HETATM    2  H1  UNL     1      -7.046   8.887  73.388  1.00  0.00     0.000 HD 
HETATM    3  C   UNL     1      -8.144   7.220  72.853  1.00  0.00    -0.106 C  
HETATM    4  H2  UNL     1      -6.262   7.333  73.690  1.00  0.00     0.000 HD 
HETATM    5  N   UNL     1      -8.166   5.921  72.807  1.00  0.00    -0.118 N  
HETATM    6  H   UNL     1      -7.373   5.384  73.160  1.00  0.00     0.000 HD 
HETATM    7  C   UNL     1      -9.279   5.257  72.270  1.00  0.00    -0.138 C  
HETATM    8  C   UNL     1     -10.333   6.128  71.746  1.00  0.00    -0.210 A  
HETATM    9  O   UNL     1      -9.361   4.034  72.241  1.00  0.00    -0.117 OA 
HETATM   10  C   UNL     1     -10.206   7.490  71.854  1.00  0.00    -0.188 A  
HETATM   11  N   UNL     1      -9.138   8.064  72.419  1.00  0.00    -0.171 NA 
HETATM   12  N   UNL     1     -11.316   8.041  71.297  1.00  0.00    -0.259 NA 
HETATM   13  N   UNL     1     -11.522   5.820  71.118  1.00  0.00    -0.088 NA 
HETATM   14  C   UNL     1     -12.071   6.987  70.838  1.00  0.00    -0.357 A  
ENDROOT
BRANCH  12  15
HETATM   15  C   UNL     1     -11.664   9.441  71.163  1.00  0.00    -0.345 C  
BRANCH  15  16
HETATM   16  C   UNL     1     -10.903  10.180  70.058  1.00  0.00    -0.361 C  
HETATM   17  C   UNL     1     -11.589  11.419  69.434  1.00  0.00    -0.391 C  
HETATM   18  C   UNL     1     -11.833  12.556  70.438  1.00  0.00    -0.160 C  
HETATM   19  C   UNL     1     -10.721  11.927  68.271  1.00  0.00    -0.223 C  
HETATM   20  O   UNL     1     -12.745  12.159  71.457  1.00  0.00    -0.330 OA 
HETATM   21  O   UNL     1     -11.322  13.049  67.640  1.00  0.00    -0.269 OA 
HETATM   22  H   UNL     1     -12.895  12.862  72.078  1.00  0.00     0.000 HD 
HETATM   23  H   UNL     1     -10.785  13.363  66.921  1.00  0.00     0.000 HD 
ENDBRANCH  15  16
ENDBRANCH  12  15
TORSDOF 2
ENDMDL
MODEL      233
REMARK 921   NORMALIZED FREE ENERGY PREDICTED BY IDOCK:   -3.54 KCAL/MOL
REMARK 922        TOTAL FREE ENERGY PREDICTED BY IDOCK:   -4.15 KCAL/MOL
REMARK 923 INTER-LIGAND FREE ENERGY PREDICTED BY IDOCK:   -3.76 KCAL/MOL
REMARK 924 INTRA-LIGAND FREE ENERGY PREDICTED BY IDOCK:   -0.39 KCAL/MOL
REMARK 927      BINDING AFFINITY PREDICTED BY RF-SCORE:    0.00 PKD
ROOT
HETATM    1  N   UNL     1     -11.550   6.713  66.860  1.00  0.00    -0.624 NA 
HETATM    2  H1  UNL     1     -11.483   7.171  67.769  1.00  0.00     0.000 HD 
HETATM    3  C   UNL     1     -10.825   5.598  66.603  1.00  0.00    -0.204 C  
HETATM    4  H2  UNL     1     -12.167   7.096  66.142  1.00  0.00     0.000 HD 
HETATM    5  N   UNL     1     -10.911   5.013  65.444  1.00  0.00    -0.688 N  
HETATM    6  H   UNL     1     -11.514   5.403  64.719  1.00  0.00     0.000 HD 
HETATM    7  C   UNL     1     -10.175   3.847  65.190  1.00  0.00    -0.108 C  
HETATM    8  C   UNL     1      -9.384   3.349  66.319  1.00  0.00    -0.145 A  
HETATM    9  O   UNL     1     -10.194   3.283  64.102  1.00  0.00    -0.179 OA 
HETATM   10  C   UNL     1      -9.363   4.052  67.497  1.00  0.00    -0.183 A  
HETATM   11  N   UNL     1     -10.053   5.187  67.662  1.00  0.00    -0.168 NA 
HETATM   12  N   UNL     1      -8.558   3.373  68.354  1.00  0.00    -0.088 NA 
HETATM   13  N   UNL     1      -8.594   2.225  66.434  1.00  0.00    -0.106 NA 
HETATM   14  C   UNL     1      -8.139   2.255  67.673  1.00  0.00    -0.064 A  
ENDROOT
BRANCH  12  15
HETATM   15  C   UNL     1      -8.207   3.700  69.721  1.00  0.00    -0.052 C  
BRANCH  15  16
HETATM   16  C   UNL     1      -9.287   3.357  70.752  1.00  0.00    -0.225 C  
HETATM   17  C   UNL     1      -9.463   4.331  71.942  1.00  0.00    -0.201 C  
HETATM   18  C   UNL     1      -9.895   5.744  71.519  1.00  0.00    -0.169 C  
HETATM   19  C   UNL     1     -10.498   3.739  72.913  1.00  0.00    -0.165 C  
HETATM   20  O   UNL     1      -8.893   6.376  70.729  1.00  0.00    -0.142 OA 
HETATM   21  O   UNL     1     -10.676   4.580  74.043  1.00  0.00    -0.250 OA 
HETATM   22  H   UNL     1      -9.160   7.249  70.468  1.00  0.00     0.000 HD 
HETATM   23  H   UNL     1     -11.315   4.214  74.643  1.00  0.00     0.000 HD 
ENDBRANCH  15  16
ENDBRANCH  12  15
TORSDOF 2
ENDMDL
MODEL      234
REMARK 921   NORMALIZED FREE ENERGY PREDICTED BY IDOCK:   -3.52 KCAL/MOL
REMARK 922        TOTAL FREE ENERGY PREDICTED BY IDOCK:   -4.13 KCAL/MOL
REMARK 923 INTER-LIGAND FREE ENERGY PREDICTED BY IDOCK:   -3.43 KCAL/MOL
REMARK 924 INTRA-LIGAND FREE ENERGY PREDICTED BY IDOCK:   -0.70 KCAL/MOL
REMARK 927      BINDING AFFINITY PREDICTED BY RF-SCORE:    0.00 PKD
ROOT
HETATM    1  N   UNL     1     -12.018  13.378  68.644  1.00  0.00    -0.351 NA 
HETATM    2  H1  UNL     1     -12.782  12.725  68.466  1.00  0.00     0.000 HD 
HETATM    3  C   UNL     1     -10.733  12.988  68.468  1.00  0.00    -0.255 C  
HETATM    4  H2  UNL     1     -12.224  14.328  68.954  1.00  0.00     0.000 HD 
HETATM    5  N   UNL     1      -9.759  13.820  68.694  1.00  0.00    -0.359 N  
HETATM    6  H   UNL     1      -9.961  14.766  69.020  1.00  0.00     0.000 HD 
HETATM    7  C   UNL     1      -8.431  13.418  68.490  1.00  0.00    -0.079 C  
HETATM    8  C   UNL     1      -8.263  12.058  67.973  1.00  0.00    -0.156 A  
HETATM    9  O   UNL     1      -7.480  14.154  68.726  1.00  0.00    -0.122 OA 
HETATM   10  C   UNL     1      -9.364  11.264  67.776  1.00  0.00    -0.163 A  
HETATM   11  N   UNL     1     -10.606  11.691  68.034  1.00  0.00    -0.194 NA 
HETATM   12  N   UNL     1      -8.919  10.071  67.302  1.00  0.00    -0.135 NA 
HETATM   13  N   UNL     1      -7.122  11.367  67.619  1.00  0.00    -0.087 NA 
HETATM   14  C   UNL     1      -7.553  10.194  67.196  1.00  0.00    -0.092 A  
ENDROOT
BRANCH  12  15
HETATM   15  C   UNL     1      -9.684   8.896  66.940  1.00  0.00    -0.202 C  
BRANCH  15  16
HETATM   16  C   UNL     1      -9.235   7.608  67.636  1.00  0.00    -0.144 C  
HETATM   17  C   UNL     1      -9.294   7.582  69.182  1.00  0.00    -0.147 C  
HETATM   18  C   UNL     1     -10.716   7.742  69.744  1.00  0.00    -0.236 C  
HETATM   19  C   UNL     1      -8.685   6.259  69.675  1.00  0.00    -0.136 C  
HETATM   20  O   UNL     1     -11.258   9.018  69.420  1.00  0.00    -0.439 OA 
HETATM   21  O   UNL     1      -8.685   6.196  71.094  1.00  0.00    -0.131 OA 
HETATM   22  H   UNL     1     -12.137   9.117  69.767  1.00  0.00     0.000 HD 
HETATM   23  H   UNL     1      -8.309   5.379  71.399  1.00  0.00     0.000 HD 
ENDBRANCH  15  16
ENDBRANCH  12  15
TORSDOF 2
ENDMDL
MODEL      235
REMARK 921   NORMALIZED FREE ENERGY PREDICTED BY IDOCK:   -3.51 KCAL/MOL
REMARK 922        TOTAL FREE ENERGY PREDICTED BY IDOCK:   -4.13 KCAL/MOL
REMARK 923 INTER-LIGAND FREE ENERGY PREDICTED BY IDOCK:   -3.82 KCAL/MOL
REMARK 924 INTRA-LIGAND FREE ENERGY PREDICTED BY IDOCK:   -0.30 KCAL/MOL
REMARK 927      BINDING AFFINITY PREDICTED BY RF-SCORE:    0.00 PKD
ROOT
HETATM    1  N   UNL     1     -12.442  12.422  70.477  1.00  0.00    -0.241 NA 
HETATM    2  H1  UNL     1     -12.109  11.487  70.710  1.00  0.00     0.000 HD 
HETATM    3  C   UNL     1     -11.688  13.241  69.704  1.00  0.00    -0.303 C  
HETATM    4  H2  UNL     1     -13.345  12.742  70.827  1.00  0.00     0.000 HD 
HETATM    5  N   UNL     1     -12.113  14.434  69.406  1.00  0.00    -0.403 N  
HETATM    6  H   UNL     1     -13.008  14.762  69.768  1.00  0.00     0.000 HD 
HETATM    7  C   UNL     1     -11.339  15.270  68.587  1.00  0.00    -0.317 C  
HETATM    8  C   UNL     1     -10.098  14.676  68.084  1.00  0.00    -0.224 A  
HETATM    9  O   UNL     1     -11.679  16.414  68.311  1.00  0.00    -0.176 OA 
HETATM   10  C   UNL     1      -9.746  13.407  68.469  1.00  0.00    -0.156 A  
HETATM   11  N   UNL     1     -10.506  12.675  69.292  1.00  0.00     0.124 NA 
HETATM   12  N   UNL     1      -8.565  13.117  67.864  1.00  0.00    -0.173 NA 
HETATM   13  N   UNL     1      -9.140  15.186  67.233  1.00  0.00    -0.190 NA 
HETATM   14  C   UNL     1      -8.253  14.218  67.100  1.00  0.00    -0.160 A  
ENDROOT
BRANCH  12  15
HETATM   15  C   UNL     1      -7.775  11.906  67.948  1.00  0.00    -0.131 C  
BRANCH  15  16
HETATM   16  C   UNL     1      -8.463  10.660  67.383  1.00  0.00    -0.122 C  
HETATM   17  C   UNL     1      -8.344  10.417  65.859  1.00  0.00    -0.152 C  
HETATM   18  C   UNL     1      -6.899  10.199  65.384  1.00  0.00    -0.128 C  
HETATM   19  C   UNL     1      -9.204   9.197  65.488  1.00  0.00    -0.224 C  
HETATM   20  O   UNL     1      -6.106  11.364  65.589  1.00  0.00    -0.435 OA 
HETATM   21  O   UNL     1      -9.156   8.947  64.090  1.00  0.00    -0.412 OA 
HETATM   22  H   UNL     1      -5.213  11.229  65.295  1.00  0.00     0.000 HD 
HETATM   23  H   UNL     1      -9.688   8.194  63.861  1.00  0.00     0.000 HD 
ENDBRANCH  15  16
ENDBRANCH  12  15
TORSDOF 2
ENDMDL
MODEL      236
REMARK 921   NORMALIZED FREE ENERGY PREDICTED BY IDOCK:   -3.51 KCAL/MOL
REMARK 922        TOTAL FREE ENERGY PREDICTED BY IDOCK:   -4.13 KCAL/MOL
REMARK 923 INTER-LIGAND FREE ENERGY PREDICTED BY IDOCK:   -3.56 KCAL/MOL
REMARK 924 INTRA-LIGAND FREE ENERGY PREDICTED BY IDOCK:   -0.57 KCAL/MOL
REMARK 927      BINDING AFFINITY PREDICTED BY RF-SCORE:    0.00 PKD
ROOT
HETATM    1  N   UNL     1     -11.601   6.572  68.763  1.00  0.00    -0.529 NA 
HETATM    2  H1  UNL     1     -11.204   6.965  67.909  1.00  0.00     0.000 HD 
HETATM    3  C   UNL     1     -10.956   6.720  69.946  1.00  0.00    -0.291 C  
HETATM    4  H2  UNL     1     -12.486   6.066  68.726  1.00  0.00     0.000 HD 
HETATM    5  N   UNL     1     -11.462   6.219  71.035  1.00  0.00    -0.322 N  
HETATM    6  H   UNL     1     -12.339   5.699  70.997  1.00  0.00     0.000 HD 
HETATM    7  C   UNL     1     -10.802   6.394  72.259  1.00  0.00    -0.239 C  
HETATM    8  C   UNL     1      -9.581   7.201  72.201  1.00  0.00    -0.142 A  
HETATM    9  O   UNL     1     -11.219   5.908  73.304  1.00  0.00    -0.227 OA 
HETATM   10  C   UNL     1      -9.136   7.676  70.993  1.00  0.00    -0.147 A  
HETATM   11  N   UNL     1      -9.787   7.435  69.849  1.00  0.00    -0.178 NA 
HETATM   12  N   UNL     1      -7.998   8.377  71.232  1.00  0.00    -0.109 NA 
HETATM   13  N   UNL     1      -8.724   7.606  73.204  1.00  0.00    -0.153 NA 
HETATM   14  C   UNL     1      -7.805   8.330  72.593  1.00  0.00    -0.130 A  
ENDROOT
BRANCH  12  15
HETATM   15  C   UNL     1      -7.145   9.072  70.290  1.00  0.00    -0.055 C  
BRANCH  15  16
HETATM   16  C   UNL     1      -7.777  10.320  69.666  1.00  0.00    -0.166 C  
HETATM   17  C   UNL     1      -7.679  10.468  68.128  1.00  0.00    -0.096 C  
HETATM   18  C   UNL     1      -8.402   9.352  67.358  1.00  0.00    -0.125 C  
HETATM   19  C   UNL     1      -8.257  11.836  67.728  1.00  0.00    -0.144 C  
HETATM   20  O   UNL     1      -7.801   8.084  67.600  1.00  0.00    -0.117 OA 
HETATM   21  O   UNL     1      -8.162  12.037  66.325  1.00  0.00    -0.388 OA 
HETATM   22  H   UNL     1      -8.247   7.394  67.124  1.00  0.00     0.000 HD 
HETATM   23  H   UNL     1      -8.519  12.883  66.078  1.00  0.00     0.000 HD 
ENDBRANCH  15  16
ENDBRANCH  12  15
TORSDOF 2
ENDMDL
MODEL      237
REMARK 921   NORMALIZED FREE ENERGY PREDICTED BY IDOCK:   -3.50 KCAL/MOL
REMARK 922        TOTAL FREE ENERGY PREDICTED BY IDOCK:   -4.11 KCAL/MOL
REMARK 923 INTER-LIGAND FREE ENERGY PREDICTED BY IDOCK:   -3.49 KCAL/MOL
REMARK 924 INTRA-LIGAND FREE ENERGY PREDICTED BY IDOCK:   -0.62 KCAL/MOL
REMARK 927      BINDING AFFINITY PREDICTED BY RF-SCORE:    0.00 PKD
ROOT
HETATM    1  N   UNL     1      -8.220   7.003  68.444  1.00  0.00    -0.123 NA 
HETATM    2  H1  UNL     1      -7.848   7.180  67.510  1.00  0.00     0.000 HD 
HETATM    3  C   UNL     1      -9.134   7.844  68.986  1.00  0.00    -0.144 C  
HETATM    4  H2  UNL     1      -7.902   6.189  68.971  1.00  0.00     0.000 HD 
HETATM    5  N   UNL     1      -9.607   7.617  70.176  1.00  0.00    -0.168 N  
HETATM    6  H   UNL     1      -9.279   6.813  70.712  1.00  0.00     0.000 HD 
HETATM    7  C   UNL     1     -10.569   8.478  70.724  1.00  0.00    -0.206 C  
HETATM    8  C   UNL     1     -11.004   9.568  69.846  1.00  0.00    -0.238 A  
HETATM    9  O   UNL     1     -11.015   8.328  71.855  1.00  0.00    -0.250 OA 
HETATM   10  C   UNL     1     -10.430   9.715  68.609  1.00  0.00    -0.210 A  
HETATM   11  N   UNL     1      -9.481   8.885  68.160  1.00  0.00    -0.142 NA 
HETATM   12  N   UNL     1     -11.012  10.793  68.022  1.00  0.00    -0.259 NA 
HETATM   13  N   UNL     1     -11.951  10.552  70.040  1.00  0.00    -0.288 NA 
HETATM   14  C   UNL     1     -11.950  11.249  68.919  1.00  0.00    -0.310 A  
ENDROOT
BRANCH  12  15
HETATM   15  C   UNL     1     -10.756  11.364  66.716  1.00  0.00    -0.271 C  
BRANCH  15  16
HETATM   16  C   UNL     1     -10.167  12.777  66.747  1.00  0.00    -0.245 C  
HETATM   17  C   UNL     1      -8.816  12.964  67.480  1.00  0.00    -0.192 C  
HETATM   18  C   UNL     1      -7.660  12.174  66.846  1.00  0.00    -0.029 C  
HETATM   19  C   UNL     1      -8.473  14.463  67.502  1.00  0.00    -0.192 C  
HETATM   20  O   UNL     1      -7.885  10.771  66.933  1.00  0.00    -0.119 OA 
HETATM   21  O   UNL     1      -7.253  14.695  68.193  1.00  0.00    -0.103 OA 
HETATM   22  H   UNL     1      -7.171  10.283  66.541  1.00  0.00     0.000 HD 
HETATM   23  H   UNL     1      -7.041  15.621  68.207  1.00  0.00     0.000 HD 
ENDBRANCH  15  16
ENDBRANCH  12  15
TORSDOF 2
ENDMDL
MODEL      238
REMARK 921   NORMALIZED FREE ENERGY PREDICTED BY IDOCK:   -3.49 KCAL/MOL
REMARK 922        TOTAL FREE ENERGY PREDICTED BY IDOCK:   -4.11 KCAL/MOL
REMARK 923 INTER-LIGAND FREE ENERGY PREDICTED BY IDOCK:   -3.79 KCAL/MOL
REMARK 924 INTRA-LIGAND FREE ENERGY PREDICTED BY IDOCK:   -0.31 KCAL/MOL
REMARK 927      BINDING AFFINITY PREDICTED BY RF-SCORE:    0.00 PKD
ROOT
HETATM    1  N   UNL     1      -6.983   4.675  65.716  1.00  0.00    -0.061 NA 
HETATM    2  H1  UNL     1      -7.444   3.801  65.972  1.00  0.00     0.000 HD 
HETATM    3  C   UNL     1      -7.459   5.857  66.176  1.00  0.00    -0.085 C  
HETATM    4  H2  UNL     1      -6.161   4.658  65.112  1.00  0.00     0.000 HD 
HETATM    5  N   UNL     1      -6.872   6.971  65.850  1.00  0.00    -0.055 N  
HETATM    6  H   UNL     1      -6.060   6.958  65.233  1.00  0.00     0.000 HD 
HETATM    7  C   UNL     1      -7.356   8.190  66.346  1.00  0.00    -0.080 C  
HETATM    8  C   UNL     1      -8.493   8.084  67.263  1.00  0.00    -0.125 A  
HETATM    9  O   UNL     1      -6.860   9.267  66.036  1.00  0.00    -0.085 OA 
HETATM   10  C   UNL     1      -9.037   6.854  67.533  1.00  0.00    -0.118 A  
HETATM   11  N   UNL     1      -8.559   5.728  66.990  1.00  0.00    -0.111 NA 
HETATM   12  N   UNL     1     -10.066   7.051  68.397  1.00  0.00    -0.158 NA 
HETATM   13  N   UNL     1      -9.177   9.058  67.961  1.00  0.00    -0.135 NA 
HETATM   14  C   UNL     1     -10.092   8.403  68.650  1.00  0.00    -0.193 A  
ENDROOT
BRANCH  12  15
HETATM   15  C   UNL     1     -10.959   6.073  68.984  1.00  0.00    -0.339 C  
BRANCH  15  16
HETATM   16  C   UNL     1     -10.553   5.604  70.384  1.00  0.00    -0.364 C  
HETATM   17  C   UNL     1     -10.959   6.503  71.576  1.00  0.00    -0.298 C  
HETATM   18  C   UNL     1     -12.479   6.652  71.743  1.00  0.00    -0.311 C  
HETATM   19  C   UNL     1     -10.349   5.919  72.862  1.00  0.00    -0.200 C  
HETATM   20  O   UNL     1     -13.059   7.316  70.624  1.00  0.00    -0.591 OA 
HETATM   21  O   UNL     1     -10.665   6.727  73.987  1.00  0.00    -0.484 OA 
HETATM   22  H   UNL     1     -13.998   7.408  70.727  1.00  0.00     0.000 HD 
HETATM   23  H   UNL     1     -10.288   6.366  74.782  1.00  0.00     0.000 HD 
ENDBRANCH  15  16
ENDBRANCH  12  15
TORSDOF 2
ENDMDL
MODEL      239
REMARK 921   NORMALIZED FREE ENERGY PREDICTED BY IDOCK:   -3.49 KCAL/MOL
REMARK 922        TOTAL FREE ENERGY PREDICTED BY IDOCK:   -4.11 KCAL/MOL
REMARK 923 INTER-LIGAND FREE ENERGY PREDICTED BY IDOCK:   -3.88 KCAL/MOL
REMARK 924 INTRA-LIGAND FREE ENERGY PREDICTED BY IDOCK:   -0.23 KCAL/MOL
REMARK 927      BINDING AFFINITY PREDICTED BY RF-SCORE:    0.00 PKD
ROOT
HETATM    1  N   UNL     1      -9.385  10.107  64.888  1.00  0.00    -0.230 NA 
HETATM    2  H1  UNL     1      -9.467  11.003  65.370  1.00  0.00     0.000 HD 
HETATM    3  C   UNL     1      -9.092   8.982  65.585  1.00  0.00    -0.223 C  
HETATM    4  H2  UNL     1      -9.524  10.058  63.879  1.00  0.00     0.000 HD 
HETATM    5  N   UNL     1      -8.988   7.840  64.972  1.00  0.00    -0.334 N  
HETATM    6  H   UNL     1      -9.111   7.791  63.960  1.00  0.00     0.000 HD 
HETATM    7  C   UNL     1      -8.707   6.676  65.701  1.00  0.00    -0.082 C  
HETATM    8  C   UNL     1      -8.602   6.856  67.151  1.00  0.00    -0.121 A  
HETATM    9  O   UNL     1      -8.561   5.584  65.163  1.00  0.00    -0.148 OA 
HETATM   10  C   UNL     1      -8.725   8.112  67.690  1.00  0.00    -0.130 A  
HETATM   11  N   UNL     1      -8.947   9.194  66.935  1.00  0.00    -0.122 NA 
HETATM   12  N   UNL     1      -8.583   7.986  69.035  1.00  0.00    -0.136 NA 
HETATM   13  N   UNL     1      -8.386   5.937  68.157  1.00  0.00    -0.115 NA 
HETATM   14  C   UNL     1      -8.409   6.642  69.272  1.00  0.00    -0.124 A  
ENDROOT
BRANCH  12  15
HETATM   15  C   UNL     1      -8.627   9.016  70.053  1.00  0.00    -0.151 C  
BRANCH  15  16
HETATM   16  C   UNL     1      -9.851   9.933  69.973  1.00  0.00    -0.291 C  
HETATM   17  C   UNL     1     -11.189   9.377  70.518  1.00  0.00    -0.329 C  
HETATM   18  C   UNL     1     -11.153   9.060  72.022  1.00  0.00    -0.301 C  
HETATM   19  C   UNL     1     -12.301  10.398  70.227  1.00  0.00    -0.250 C  
HETATM   20  O   UNL     1     -10.228   8.017  72.308  1.00  0.00    -0.217 OA 
HETATM   21  O   UNL     1     -13.560   9.922  70.680  1.00  0.00    -0.574 OA 
HETATM   22  H   UNL     1     -10.205   7.821  73.237  1.00  0.00     0.000 HD 
HETATM   23  H   UNL     1     -14.248  10.553  70.500  1.00  0.00     0.000 HD 
ENDBRANCH  15  16
ENDBRANCH  12  15
TORSDOF 2
ENDMDL
MODEL      240
REMARK 921   NORMALIZED FREE ENERGY PREDICTED BY IDOCK:   -3.48 KCAL/MOL
REMARK 922        TOTAL FREE ENERGY PREDICTED BY IDOCK:   -4.09 KCAL/MOL
REMARK 923 INTER-LIGAND FREE ENERGY PREDICTED BY IDOCK:   -3.52 KCAL/MOL
REMARK 924 INTRA-LIGAND FREE ENERGY PREDICTED BY IDOCK:   -0.57 KCAL/MOL
REMARK 927      BINDING AFFINITY PREDICTED BY RF-SCORE:    0.00 PKD
ROOT
HETATM    1  N   UNL     1      -9.755   5.475  69.893  1.00  0.00    -0.162 NA 
HETATM    2  H1  UNL     1      -8.917   5.504  69.311  1.00  0.00     0.000 HD 
HETATM    3  C   UNL     1     -10.421   6.617  70.187  1.00  0.00    -0.210 C  
HETATM    4  H2  UNL     1     -10.092   4.582  70.254  1.00  0.00     0.000 HD 
HETATM    5  N   UNL     1     -11.489   6.580  70.929  1.00  0.00    -0.332 N  
HETATM    6  H   UNL     1     -11.819   5.690  71.304  1.00  0.00     0.000 HD 
HETATM    7  C   UNL     1     -12.188   7.762  71.212  1.00  0.00    -0.303 C  
HETATM    8  C   UNL     1     -11.654   8.970  70.579  1.00  0.00    -0.175 A  
HETATM    9  O   UNL     1     -13.176   7.782  71.938  1.00  0.00    -0.314 OA 
HETATM   10  C   UNL     1     -10.515   8.893  69.818  1.00  0.00    -0.212 A  
HETATM   11  N   UNL     1      -9.866   7.739  69.622  1.00  0.00    -0.180 NA 
HETATM   12  N   UNL     1     -10.250  10.145  69.364  1.00  0.00    -0.214 NA 
HETATM   13  N   UNL     1     -12.110  10.272  70.602  1.00  0.00    -0.313 NA 
HETATM   14  C   UNL     1     -11.263  10.942  69.842  1.00  0.00    -0.282 A  
ENDROOT
BRANCH  12  15
HETATM   15  C   UNL     1      -9.158  10.594  68.524  1.00  0.00    -0.159 C  
BRANCH  15  16
HETATM   16  C   UNL     1      -9.223  10.091  67.079  1.00  0.00    -0.167 C  
HETATM   17  C   UNL     1      -7.921   9.512  66.474  1.00  0.00    -0.112 C  
HETATM   18  C   UNL     1      -7.411   8.258  67.202  1.00  0.00    -0.089 C  
HETATM   19  C   UNL     1      -8.171   9.188  64.991  1.00  0.00    -0.149 C  
HETATM   20  O   UNL     1      -7.040   8.556  68.543  1.00  0.00    -0.070 OA 
HETATM   21  O   UNL     1      -6.995   8.681  64.376  1.00  0.00    -0.080 OA 
HETATM   22  H   UNL     1      -6.725   7.781  68.994  1.00  0.00     0.000 HD 
HETATM   23  H   UNL     1      -7.150   8.481  63.460  1.00  0.00     0.000 HD 
ENDBRANCH  15  16
ENDBRANCH  12  15
TORSDOF 2
ENDMDL
MODEL      241
REMARK 921   NORMALIZED FREE ENERGY PREDICTED BY IDOCK:   -3.47 KCAL/MOL
REMARK 922        TOTAL FREE ENERGY PREDICTED BY IDOCK:   -4.08 KCAL/MOL
REMARK 923 INTER-LIGAND FREE ENERGY PREDICTED BY IDOCK:   -3.82 KCAL/MOL
REMARK 924 INTRA-LIGAND FREE ENERGY PREDICTED BY IDOCK:   -0.26 KCAL/MOL
REMARK 927      BINDING AFFINITY PREDICTED BY RF-SCORE:    0.00 PKD
ROOT
HETATM    1  N   UNL     1     -11.358   6.519  67.082  1.00  0.00    -0.771 NA 
HETATM    2  H1  UNL     1     -11.823   7.031  67.832  1.00  0.00     0.000 HD 
HETATM    3  C   UNL     1     -10.526   5.490  67.372  1.00  0.00    -0.219 C  
HETATM    4  H2  UNL     1     -11.522   6.783  66.110  1.00  0.00     0.000 HD 
HETATM    5  N   UNL     1      -9.933   4.837  66.416  1.00  0.00    -0.216 N  
HETATM    6  H   UNL     1     -10.083   5.109  65.443  1.00  0.00     0.000 HD 
HETATM    7  C   UNL     1      -9.090   3.759  66.720  1.00  0.00    -0.159 C  
HETATM    8  C   UNL     1      -8.991   3.426  68.143  1.00  0.00    -0.138 A  
HETATM    9  O   UNL     1      -8.480   3.139  65.856  1.00  0.00    -0.102 OA 
HETATM   10  C   UNL     1      -9.658   4.189  69.068  1.00  0.00    -0.162 A  
HETATM   11  N   UNL     1     -10.413   5.237  68.718  1.00  0.00    -0.142 NA 
HETATM   12  N   UNL     1      -9.388   3.663  70.291  1.00  0.00    -0.154 NA 
HETATM   13  N   UNL     1      -8.303   2.416  68.783  1.00  0.00    -0.055 NA 
HETATM   14  C   UNL     1      -8.585   2.570  70.063  1.00  0.00    -0.058 A  
ENDROOT
BRANCH  12  15
HETATM   15  C   UNL     1      -9.849   4.106  71.591  1.00  0.00    -0.184 C  
BRANCH  15  16
HETATM   16  C   UNL     1      -8.858   4.997  72.346  1.00  0.00    -0.133 C  
HETATM   17  C   UNL     1      -9.442   6.196  73.131  1.00  0.00    -0.138 C  
HETATM   18  C   UNL     1     -10.391   5.781  74.266  1.00  0.00    -0.270 C  
HETATM   19  C   UNL     1      -8.278   7.023  73.702  1.00  0.00    -0.113 C  
HETATM   20  O   UNL     1     -11.551   5.131  73.758  1.00  0.00    -0.395 OA 
HETATM   21  O   UNL     1      -8.758   8.158  74.409  1.00  0.00    -0.409 OA 
HETATM   22  H   UNL     1     -12.138   4.874  74.459  1.00  0.00     0.000 HD 
HETATM   23  H   UNL     1      -8.039   8.669  74.761  1.00  0.00     0.000 HD 
ENDBRANCH  15  16
ENDBRANCH  12  15
TORSDOF 2
ENDMDL
MODEL      242
REMARK 921   NORMALIZED FREE ENERGY PREDICTED BY IDOCK:   -3.46 KCAL/MOL
REMARK 922        TOTAL FREE ENERGY PREDICTED BY IDOCK:   -4.07 KCAL/MOL
REMARK 923 INTER-LIGAND FREE ENERGY PREDICTED BY IDOCK:   -3.74 KCAL/MOL
REMARK 924 INTRA-LIGAND FREE ENERGY PREDICTED BY IDOCK:   -0.33 KCAL/MOL
REMARK 927      BINDING AFFINITY PREDICTED BY RF-SCORE:    0.00 PKD
ROOT
HETATM    1  N   UNL     1      -7.679   7.659  71.614  1.00  0.00    -0.083 NA 
HETATM    2  H1  UNL     1      -7.282   8.571  71.843  1.00  0.00     0.000 HD 
HETATM    3  C   UNL     1      -8.430   7.502  70.497  1.00  0.00    -0.133 C  
HETATM    4  H2  UNL     1      -7.510   6.862  72.229  1.00  0.00     0.000 HD 
HETATM    5  N   UNL     1      -8.936   6.340  70.206  1.00  0.00    -0.152 N  
HETATM    6  H   UNL     1      -8.781   5.545  70.828  1.00  0.00     0.000 HD 
HETATM    7  C   UNL     1      -9.694   6.178  69.037  1.00  0.00    -0.135 C  
HETATM    8  C   UNL     1      -9.806   7.371  68.195  1.00  0.00    -0.156 A  
HETATM    9  O   UNL     1     -10.223   5.112  68.741  1.00  0.00    -0.177 OA 
HETATM   10  C   UNL     1      -9.235   8.549  68.605  1.00  0.00    -0.142 A  
HETATM   11  N   UNL     1      -8.561   8.652  69.757  1.00  0.00    -0.128 NA 
HETATM   12  N   UNL     1      -9.496   9.476  67.647  1.00  0.00    -0.131 NA 
HETATM   13  N   UNL     1     -10.425   7.554  66.976  1.00  0.00    -0.322 NA 
HETATM   14  C   UNL     1     -10.196   8.816  66.664  1.00  0.00    -0.270 A  
ENDROOT
BRANCH  12  15
HETATM   15  C   UNL     1      -9.113  10.872  67.607  1.00  0.00    -0.148 C  
BRANCH  15  16
HETATM   16  C   UNL     1     -10.280  11.854  67.750  1.00  0.00    -0.211 C  
HETATM   17  C   UNL     1     -10.325  13.046  66.765  1.00  0.00    -0.256 C  
HETATM   18  C   UNL     1     -10.473  12.623  65.295  1.00  0.00    -0.289 C  
HETATM   19  C   UNL     1     -11.492  13.967  67.161  1.00  0.00    -0.347 C  
HETATM   20  O   UNL     1      -9.339  11.882  64.855  1.00  0.00    -0.428 OA 
HETATM   21  O   UNL     1     -11.560  15.099  66.306  1.00  0.00    -0.234 OA 
HETATM   22  H   UNL     1      -9.430  11.620  63.947  1.00  0.00     0.000 HD 
HETATM   23  H   UNL     1     -12.281  15.668  66.551  1.00  0.00     0.000 HD 
ENDBRANCH  15  16
ENDBRANCH  12  15
TORSDOF 2
ENDMDL
MODEL      243
REMARK 921   NORMALIZED FREE ENERGY PREDICTED BY IDOCK:   -3.45 KCAL/MOL
REMARK 922        TOTAL FREE ENERGY PREDICTED BY IDOCK:   -4.06 KCAL/MOL
REMARK 923 INTER-LIGAND FREE ENERGY PREDICTED BY IDOCK:   -3.54 KCAL/MOL
REMARK 924 INTRA-LIGAND FREE ENERGY PREDICTED BY IDOCK:   -0.52 KCAL/MOL
REMARK 927      BINDING AFFINITY PREDICTED BY RF-SCORE:    0.00 PKD
ROOT
HETATM    1  N   UNL     1      -8.720   8.179  65.886  1.00  0.00    -0.150 NA 
HETATM    2  H1  UNL     1      -8.727   8.730  66.745  1.00  0.00     0.000 HD 
HETATM    3  C   UNL     1      -8.801   6.828  65.941  1.00  0.00    -0.110 C  
HETATM    4  H2  UNL     1      -8.653   8.648  64.982  1.00  0.00     0.000 HD 
HETATM    5  N   UNL     1      -8.793   6.126  64.846  1.00  0.00    -0.359 N  
HETATM    6  H   UNL     1      -8.710   6.591  63.942  1.00  0.00     0.000 HD 
HETATM    7  C   UNL     1      -8.899   4.729  64.907  1.00  0.00    -0.153 C  
HETATM    8  C   UNL     1      -9.067   4.174  66.253  1.00  0.00    -0.134 A  
HETATM    9  O   UNL     1      -8.857   4.023  63.906  1.00  0.00    -0.107 OA 
HETATM   10  C   UNL     1      -9.055   5.010  67.340  1.00  0.00    -0.115 A  
HETATM   11  N   UNL     1      -8.903   6.334  67.219  1.00  0.00    -0.108 NA 
HETATM   12  N   UNL     1      -9.223   4.236  68.443  1.00  0.00    -0.129 NA 
HETATM   13  N   UNL     1      -9.246   2.871  66.670  1.00  0.00    -0.144 NA 
HETATM   14  C   UNL     1      -9.364   2.948  67.982  1.00  0.00    -0.205 A  
ENDROOT
BRANCH  12  15
HETATM   15  C   UNL     1      -9.280   4.638  69.834  1.00  0.00    -0.125 C  
BRANCH  15  16
HETATM   16  C   UNL     1     -10.646   5.166  70.285  1.00  0.00    -0.230 C  
HETATM   17  C   UNL     1     -10.652   6.388  71.236  1.00  0.00    -0.275 C  
HETATM   18  C   UNL     1     -10.035   7.651  70.615  1.00  0.00    -0.183 C  
HETATM   19  C   UNL     1     -12.102   6.671  71.662  1.00  0.00    -0.355 C  
HETATM   20  O   UNL     1      -8.652   7.466  70.334  1.00  0.00    -0.140 OA 
HETATM   21  O   UNL     1     -12.163   7.767  72.564  1.00  0.00    -0.516 OA 
HETATM   22  H   UNL     1      -8.271   8.247  69.951  1.00  0.00     0.000 HD 
HETATM   23  H   UNL     1     -13.059   7.942  72.827  1.00  0.00     0.000 HD 
ENDBRANCH  15  16
ENDBRANCH  12  15
TORSDOF 2
ENDMDL
MODEL      244
REMARK 921   NORMALIZED FREE ENERGY PREDICTED BY IDOCK:   -3.45 KCAL/MOL
REMARK 922        TOTAL FREE ENERGY PREDICTED BY IDOCK:   -4.06 KCAL/MOL
REMARK 923 INTER-LIGAND FREE ENERGY PREDICTED BY IDOCK:   -3.69 KCAL/MOL
REMARK 924 INTRA-LIGAND FREE ENERGY PREDICTED BY IDOCK:   -0.37 KCAL/MOL
REMARK 927      BINDING AFFINITY PREDICTED BY RF-SCORE:    0.00 PKD
ROOT
HETATM    1  N   UNL     1     -10.443   5.626  70.840  1.00  0.00    -0.243 NA 
HETATM    2  H1  UNL     1     -11.151   5.320  70.171  1.00  0.00     0.000 HD 
HETATM    3  C   UNL     1      -9.611   6.650  70.531  1.00  0.00    -0.169 C  
HETATM    4  H2  UNL     1     -10.362   5.160  71.744  1.00  0.00     0.000 HD 
HETATM    5  N   UNL     1      -8.708   7.040  71.383  1.00  0.00    -0.125 N  
HETATM    6  H   UNL     1      -8.615   6.565  72.281  1.00  0.00     0.000 HD 
HETATM    7  C   UNL     1      -7.864   8.115  71.067  1.00  0.00    -0.090 C  
HETATM    8  C   UNL     1      -8.123   8.754  69.774  1.00  0.00    -0.111 A  
HETATM    9  O   UNL     1      -6.975   8.493  71.820  1.00  0.00    -0.082 OA 
HETATM   10  C   UNL     1      -9.100   8.253  68.951  1.00  0.00    -0.147 A  
HETATM   11  N   UNL     1      -9.844   7.193  69.290  1.00  0.00    -0.159 NA 
HETATM   12  N   UNL     1      -9.119   9.026  67.835  1.00  0.00    -0.135 NA 
HETATM   13  N   UNL     1      -7.527   9.845  69.177  1.00  0.00    -0.080 NA 
HETATM   14  C   UNL     1      -8.165   9.997  68.032  1.00  0.00    -0.116 A  
ENDROOT
BRANCH  12  15
HETATM   15  C   UNL     1      -9.966   8.911  66.666  1.00  0.00    -0.276 C  
BRANCH  15  16
HETATM   16  C   UNL     1      -9.336   9.438  65.372  1.00  0.00    -0.311 C  
HETATM   17  C   UNL     1     -10.101  10.552  64.617  1.00  0.00    -0.408 C  
HETATM   18  C   UNL     1     -10.248  11.851  65.426  1.00  0.00    -0.263 C  
HETATM   19  C   UNL     1      -9.368  10.841  63.296  1.00  0.00    -0.304 C  
HETATM   20  O   UNL     1     -11.041  11.647  66.590  1.00  0.00    -0.287 OA 
HETATM   21  O   UNL     1     -10.047  11.838  62.545  1.00  0.00    -0.380 OA 
HETATM   22  H   UNL     1     -11.133  12.449  67.090  1.00  0.00     0.000 HD 
HETATM   23  H   UNL     1      -9.595  12.016  61.729  1.00  0.00     0.000 HD 
ENDBRANCH  15  16
ENDBRANCH  12  15
TORSDOF 2
ENDMDL
MODEL      245
REMARK 921   NORMALIZED FREE ENERGY PREDICTED BY IDOCK:   -3.40 KCAL/MOL
REMARK 922        TOTAL FREE ENERGY PREDICTED BY IDOCK:   -4.00 KCAL/MOL
REMARK 923 INTER-LIGAND FREE ENERGY PREDICTED BY IDOCK:   -3.67 KCAL/MOL
REMARK 924 INTRA-LIGAND FREE ENERGY PREDICTED BY IDOCK:   -0.33 KCAL/MOL
REMARK 927      BINDING AFFINITY PREDICTED BY RF-SCORE:    0.00 PKD
ROOT
HETATM    1  N   UNL     1      -8.263   6.246  72.067  1.00  0.00    -0.110 NA 
HETATM    2  H1  UNL     1      -8.105   5.238  72.063  1.00  0.00     0.000 HD 
HETATM    3  C   UNL     1      -8.792   6.858  70.980  1.00  0.00    -0.140 C  
HETATM    4  H2  UNL     1      -8.022   6.795  72.893  1.00  0.00     0.000 HD 
HETATM    5  N   UNL     1      -8.994   8.143  70.986  1.00  0.00    -0.145 N  
HETATM    6  H   UNL     1      -8.739   8.696  71.804  1.00  0.00     0.000 HD 
HETATM    7  C   UNL     1      -9.562   8.768  69.866  1.00  0.00    -0.177 C  
HETATM    8  C   UNL     1      -9.936   7.870  68.772  1.00  0.00    -0.187 A  
HETATM    9  O   UNL     1      -9.735   9.980  69.810  1.00  0.00    -0.225 OA 
HETATM   10  C   UNL     1      -9.670   6.527  68.872  1.00  0.00    -0.130 A  
HETATM   11  N   UNL     1      -9.082   5.996  69.950  1.00  0.00    -0.140 NA 
HETATM   12  N   UNL     1     -10.113   5.944  67.728  1.00  0.00    -0.145 NA 
HETATM   13  N   UNL     1     -10.549   8.133  67.564  1.00  0.00    -0.246 NA 
HETATM   14  C   UNL     1     -10.665   6.956  66.978  1.00  0.00    -0.362 A  
ENDROOT
BRANCH  12  15
HETATM   15  C   UNL     1     -10.064   4.549  67.343  1.00  0.00    -0.062 C  
BRANCH  15  16
HETATM   16  C   UNL     1      -8.964   4.208  66.333  1.00  0.00    -0.124 C  
HETATM   17  C   UNL     1      -9.370   3.355  65.107  1.00  0.00    -0.155 C  
HETATM   18  C   UNL     1     -10.404   4.039  64.200  1.00  0.00    -0.174 C  
HETATM   19  C   UNL     1      -8.105   3.025  64.298  1.00  0.00    -0.083 C  
HETATM   20  O   UNL     1     -11.639   4.236  64.880  1.00  0.00    -0.990 OA 
HETATM   21  O   UNL     1      -8.416   2.214  63.174  1.00  0.00    -0.075 OA 
HETATM   22  H   UNL     1     -12.279   4.658  64.320  1.00  0.00     0.000 HD 
HETATM   23  H   UNL     1      -7.634   2.009  62.674  1.00  0.00     0.000 HD 
ENDBRANCH  15  16
ENDBRANCH  12  15
TORSDOF 2
ENDMDL
MODEL      246
REMARK 921   NORMALIZED FREE ENERGY PREDICTED BY IDOCK:   -3.39 KCAL/MOL
REMARK 922        TOTAL FREE ENERGY PREDICTED BY IDOCK:   -3.99 KCAL/MOL
REMARK 923 INTER-LIGAND FREE ENERGY PREDICTED BY IDOCK:   -3.76 KCAL/MOL
REMARK 924 INTRA-LIGAND FREE ENERGY PREDICTED BY IDOCK:   -0.23 KCAL/MOL
REMARK 927      BINDING AFFINITY PREDICTED BY RF-SCORE:    0.00 PKD
ROOT
HETATM    1  N   UNL     1      -8.349  10.687  64.147  1.00  0.00    -0.344 NA 
HETATM    2  H1  UNL     1      -7.910   9.810  63.862  1.00  0.00     0.000 HD 
HETATM    3  C   UNL     1      -9.119  10.733  65.260  1.00  0.00    -0.195 C  
HETATM    4  H2  UNL     1      -8.206  11.531  63.592  1.00  0.00     0.000 HD 
HETATM    5  N   UNL     1      -9.678  11.850  65.624  1.00  0.00    -0.233 N  
HETATM    6  H   UNL     1      -9.549  12.692  65.062  1.00  0.00     0.000 HD 
HETATM    7  C   UNL     1     -10.457  11.898  66.789  1.00  0.00    -0.221 C  
HETATM    8  C   UNL     1     -10.529  10.644  67.544  1.00  0.00    -0.230 A  
HETATM    9  O   UNL     1     -11.034  12.917  67.151  1.00  0.00    -0.252 OA 
HETATM   10  C   UNL     1      -9.903   9.523  67.062  1.00  0.00    -0.190 A  
HETATM   11  N   UNL     1      -9.211   9.529  65.916  1.00  0.00    -0.188 NA 
HETATM   12  N   UNL     1     -10.136   8.521  67.949  1.00  0.00    -0.196 NA 
HETATM   13  N   UNL     1     -11.155  10.350  68.738  1.00  0.00    -0.244 NA 
HETATM   14  C   UNL     1     -10.875   9.081  68.964  1.00  0.00    -0.067 A  
ENDROOT
BRANCH  12  15
HETATM   15  C   UNL     1      -9.694   7.142  67.897  1.00  0.00    -0.138 C  
BRANCH  15  16
HETATM   16  C   UNL     1     -10.425   6.281  66.862  1.00  0.00    -0.337 C  
HETATM   17  C   UNL     1      -9.772   4.931  66.479  1.00  0.00    -0.199 C  
HETATM   18  C   UNL     1      -9.659   3.949  67.655  1.00  0.00    -0.153 C  
HETATM   19  C   UNL     1     -10.592   4.294  65.345  1.00  0.00    -0.122 C  
HETATM   20  O   UNL     1      -8.793   4.452  68.667  1.00  0.00    -0.096 OA 
HETATM   21  O   UNL     1     -10.017   3.063  64.931  1.00  0.00    -0.352 OA 
HETATM   22  H   UNL     1      -8.723   3.845  69.394  1.00  0.00     0.000 HD 
HETATM   23  H   UNL     1     -10.523   2.669  64.229  1.00  0.00     0.000 HD 
ENDBRANCH  15  16
ENDBRANCH  12  15
TORSDOF 2
ENDMDL
MODEL      247
REMARK 921   NORMALIZED FREE ENERGY PREDICTED BY IDOCK:   -3.38 KCAL/MOL
REMARK 922        TOTAL FREE ENERGY PREDICTED BY IDOCK:   -3.98 KCAL/MOL
REMARK 923 INTER-LIGAND FREE ENERGY PREDICTED BY IDOCK:   -3.59 KCAL/MOL
REMARK 924 INTRA-LIGAND FREE ENERGY PREDICTED BY IDOCK:   -0.38 KCAL/MOL
REMARK 927      BINDING AFFINITY PREDICTED BY RF-SCORE:    0.00 PKD
ROOT
HETATM    1  N   UNL     1      -7.508   8.473  73.278  1.00  0.00    -0.344 NA 
HETATM    2  H1  UNL     1      -8.333   8.975  73.607  1.00  0.00     0.000 HD 
HETATM    3  C   UNL     1      -7.628   7.502  72.341  1.00  0.00    -0.086 C  
HETATM    4  H2  UNL     1      -6.588   8.703  73.657  1.00  0.00     0.000 HD 
HETATM    5  N   UNL     1      -6.576   6.862  71.922  1.00  0.00    -0.053 N  
HETATM    6  H   UNL     1      -5.658   7.080  72.310  1.00  0.00     0.000 HD 
HETATM    7  C   UNL     1      -6.703   5.873  70.936  1.00  0.00    -0.057 C  
HETATM    8  C   UNL     1      -8.058   5.682  70.414  1.00  0.00    -0.105 A  
HETATM    9  O   UNL     1      -5.747   5.217  70.538  1.00  0.00    -0.015 OA 
HETATM   10  C   UNL     1      -9.097   6.411  70.936  1.00  0.00    -0.151 A  
HETATM   11  N   UNL     1      -8.918   7.309  71.911  1.00  0.00    -0.126 NA 
HETATM   12  N   UNL     1     -10.223   6.031  70.278  1.00  0.00    -0.196 NA 
HETATM   13  N   UNL     1      -8.529   4.844  69.424  1.00  0.00    -0.086 NA 
HETATM   14  C   UNL     1      -9.822   5.100  69.350  1.00  0.00    -0.199 A  
ENDROOT
BRANCH  12  15
HETATM   15  C   UNL     1     -11.581   6.501  70.458  1.00  0.00    -0.393 C  
BRANCH  15  16
HETATM   16  C   UNL     1     -11.752   8.017  70.315  1.00  0.00     0.081 C  
HETATM   17  C   UNL     1     -12.465   8.760  71.470  1.00  0.00    -0.374 C  
HETATM   18  C   UNL     1     -11.719   8.670  72.810  1.00  0.00     0.041 C  
HETATM   19  C   UNL     1     -12.643  10.234  71.070  1.00  0.00    -0.390 C  
HETATM   20  O   UNL     1     -11.658   7.327  73.279  1.00  0.00    -0.557 OA 
HETATM   21  O   UNL     1     -13.323  10.959  72.084  1.00  0.00    -0.586 OA 
HETATM   22  H   UNL     1     -11.197   7.272  74.107  1.00  0.00     0.000 HD 
HETATM   23  H   UNL     1     -13.433  11.870  71.837  1.00  0.00     0.000 HD 
ENDBRANCH  15  16
ENDBRANCH  12  15
TORSDOF 2
ENDMDL
MODEL      248
REMARK 921   NORMALIZED FREE ENERGY PREDICTED BY IDOCK:   -3.37 KCAL/MOL
REMARK 922        TOTAL FREE ENERGY PREDICTED BY IDOCK:   -3.97 KCAL/MOL
REMARK 923 INTER-LIGAND FREE ENERGY PREDICTED BY IDOCK:   -3.82 KCAL/MOL
REMARK 924 INTRA-LIGAND FREE ENERGY PREDICTED BY IDOCK:   -0.15 KCAL/MOL
REMARK 927      BINDING AFFINITY PREDICTED BY RF-SCORE:    0.00 PKD
ROOT
HETATM    1  N   UNL     1     -11.409   7.266  69.424  1.00  0.00    -0.476 NA 
HETATM    2  H1  UNL     1     -12.349   7.570  69.171  1.00  0.00     0.000 HD 
HETATM    3  C   UNL     1     -10.353   8.099  69.254  1.00  0.00    -0.217 C  
HETATM    4  H2  UNL     1     -11.263   6.332  69.808  1.00  0.00     0.000 HD 
HETATM    5  N   UNL     1      -9.154   7.712  69.578  1.00  0.00    -0.147 N  
HETATM    6  H   UNL     1      -9.004   6.772  69.947  1.00  0.00     0.000 HD 
HETATM    7  C   UNL     1      -8.069   8.585  69.420  1.00  0.00    -0.112 C  
HETATM    8  C   UNL     1      -8.410   9.924  68.932  1.00  0.00    -0.124 A  
HETATM    9  O   UNL     1      -6.917   8.252  69.675  1.00  0.00    -0.044 OA 
HETATM   10  C   UNL     1      -9.711  10.221  68.616  1.00  0.00    -0.167 A  
HETATM   11  N   UNL     1     -10.699   9.327  68.745  1.00  0.00    -0.194 NA 
HETATM   12  N   UNL     1      -9.736  11.511  68.192  1.00  0.00    -0.186 NA 
HETATM   13  N   UNL     1      -7.613  11.028  68.711  1.00  0.00    -0.119 NA 
HETATM   14  C   UNL     1      -8.442  11.967  68.296  1.00  0.00    -0.167 A  
ENDROOT
BRANCH  12  15
HETATM   15  C   UNL     1     -10.866  12.298  67.743  1.00  0.00    -0.221 C  
BRANCH  15  16
HETATM   16  C   UNL     1     -10.982  13.675  68.403  1.00  0.00    -0.284 C  
HETATM   17  C   UNL     1     -10.187  14.837  67.758  1.00  0.00    -0.232 C  
HETATM   18  C   UNL     1     -10.627  15.158  66.322  1.00  0.00    -0.310 C  
HETATM   19  C   UNL     1     -10.340  16.086  68.642  1.00  0.00    -0.241 C  
HETATM   20  O   UNL     1     -10.371  14.065  65.446  1.00  0.00    -0.321 OA 
HETATM   21  O   UNL     1      -9.602  17.178  68.112  1.00  0.00    -0.254 OA 
HETATM   22  H   UNL     1     -10.643  14.264  64.558  1.00  0.00     0.000 HD 
HETATM   23  H   UNL     1      -9.696  17.950  68.658  1.00  0.00     0.000 HD 
ENDBRANCH  15  16
ENDBRANCH  12  15
TORSDOF 2
ENDMDL
MODEL      249
REMARK 921   NORMALIZED FREE ENERGY PREDICTED BY IDOCK:   -3.33 KCAL/MOL
REMARK 922        TOTAL FREE ENERGY PREDICTED BY IDOCK:   -3.93 KCAL/MOL
REMARK 923 INTER-LIGAND FREE ENERGY PREDICTED BY IDOCK:   -3.65 KCAL/MOL
REMARK 924 INTRA-LIGAND FREE ENERGY PREDICTED BY IDOCK:   -0.28 KCAL/MOL
REMARK 927      BINDING AFFINITY PREDICTED BY RF-SCORE:    0.00 PKD
ROOT
HETATM    1  N   UNL     1     -11.020   5.334  74.108  1.00  0.00    -0.422 NA 
HETATM    2  H1  UNL     1     -10.566   4.438  74.286  1.00  0.00     0.000 HD 
HETATM    3  C   UNL     1     -11.074   5.834  72.850  1.00  0.00    -0.281 C  
HETATM    4  H2  UNL     1     -11.435   5.856  74.881  1.00  0.00     0.000 HD 
HETATM    5  N   UNL     1     -11.653   6.977  72.623  1.00  0.00    -0.470 N  
HETATM    6  H   UNL     1     -12.054   7.508  73.396  1.00  0.00     0.000 HD 
HETATM    7  C   UNL     1     -11.725   7.479  71.316  1.00  0.00    -0.287 C  
HETATM    8  C   UNL     1     -11.163   6.609  70.280  1.00  0.00    -0.353 A  
HETATM    9  O   UNL     1     -12.226   8.568  71.059  1.00  0.00    -0.267 OA 
HETATM   10  C   UNL     1     -10.570   5.424  70.636  1.00  0.00    -0.232 A  
HETATM   11  N   UNL     1     -10.491   5.020  71.909  1.00  0.00    -0.207 NA 
HETATM   12  N   UNL     1     -10.139   4.832  69.491  1.00  0.00    -0.220 NA 
HETATM   13  N   UNL     1     -11.108   6.764  68.910  1.00  0.00    -0.213 NA 
HETATM   14  C   UNL     1     -10.516   5.670  68.468  1.00  0.00    -0.203 A  
ENDROOT
BRANCH  12  15
HETATM   15  C   UNL     1      -9.449   3.569  69.327  1.00  0.00    -0.163 C  
BRANCH  15  16
HETATM   16  C   UNL     1      -8.744   3.403  67.977  1.00  0.00    -0.133 C  
HETATM   17  C   UNL     1      -7.328   4.013  67.840  1.00  0.00    -0.067 C  
HETATM   18  C   UNL     1      -6.296   3.388  68.793  1.00  0.00    -0.029 C  
HETATM   19  C   UNL     1      -6.861   3.847  66.385  1.00  0.00    -0.058 C  
HETATM   20  O   UNL     1      -6.628   3.643  70.153  1.00  0.00    -0.031 OA 
HETATM   21  O   UNL     1      -5.574   4.419  66.194  1.00  0.00    -0.013 OA 
HETATM   22  H   UNL     1      -5.991   3.257  70.742  1.00  0.00     0.000 HD 
HETATM   23  H   UNL     1      -5.286   4.317  65.295  1.00  0.00     0.000 HD 
ENDBRANCH  15  16
ENDBRANCH  12  15
TORSDOF 2
ENDMDL
MODEL      250
REMARK 921   NORMALIZED FREE ENERGY PREDICTED BY IDOCK:   -3.27 KCAL/MOL
REMARK 922        TOTAL FREE ENERGY PREDICTED BY IDOCK:   -3.86 KCAL/MOL
REMARK 923 INTER-LIGAND FREE ENERGY PREDICTED BY IDOCK:   -3.55 KCAL/MOL
REMARK 924 INTRA-LIGAND FREE ENERGY PREDICTED BY IDOCK:   -0.31 KCAL/MOL
REMARK 927      BINDING AFFINITY PREDICTED BY RF-SCORE:    0.00 PKD
ROOT
HETATM    1  N   UNL     1     -13.007   7.238  70.993  1.00  0.00    -0.592 NA 
HETATM    2  H1  UNL     1     -13.059   7.360  72.004  1.00  0.00     0.000 HD 
HETATM    3  C   UNL     1     -11.852   6.832  70.413  1.00  0.00    -0.338 C  
HETATM    4  H2  UNL     1     -13.829   7.421  70.415  1.00  0.00     0.000 HD 
HETATM    5  N   UNL     1     -11.786   6.675  69.123  1.00  0.00    -0.589 N  
HETATM    6  H   UNL     1     -12.601   6.873  68.543  1.00  0.00     0.000 HD 
HETATM    7  C   UNL     1     -10.594   6.234  68.531  1.00  0.00    -0.262 C  
HETATM    8  C   UNL     1      -9.506   5.932  69.465  1.00  0.00    -0.138 A  
HETATM    9  O   UNL     1     -10.472   6.110  67.317  1.00  0.00    -0.187 OA 
HETATM   10  C   UNL     1      -9.686   6.140  70.809  1.00  0.00    -0.177 A  
HETATM   11  N   UNL     1     -10.835   6.608  71.310  1.00  0.00    -0.231 NA 
HETATM   12  N   UNL     1      -8.531   5.785  71.428  1.00  0.00    -0.127 NA 
HETATM   13  N   UNL     1      -8.237   5.441  69.236  1.00  0.00    -0.093 NA 
HETATM   14  C   UNL     1      -7.692   5.339  70.434  1.00  0.00    -0.076 A  
ENDROOT
BRANCH  12  15
HETATM   15  C   UNL     1      -8.210   5.820  72.840  1.00  0.00    -0.119 C  
BRANCH  15  16
HETATM   16  C   UNL     1      -9.198   5.064  73.733  1.00  0.00    -0.121 C  
HETATM   17  C   UNL     1      -9.447   3.571  73.406  1.00  0.00    -0.127 C  
HETATM   18  C   UNL     1      -8.191   2.696  73.543  1.00  0.00    -0.064 C  
HETATM   19  C   UNL     1     -10.554   3.044  74.333  1.00  0.00    -0.149 C  
HETATM   20  O   UNL     1      -7.193   3.072  72.601  1.00  0.00    -0.038 OA 
HETATM   21  O   UNL     1     -10.846   1.682  74.053  1.00  0.00    -0.119 OA 
HETATM   22  H   UNL     1      -6.417   2.531  72.685  1.00  0.00     0.000 HD 
HETATM   23  H   UNL     1     -11.531   1.356  74.626  1.00  0.00     0.000 HD 
ENDBRANCH  15  16
ENDBRANCH  12  15
TORSDOF 2
ENDMDL
MODEL      251
REMARK 921   NORMALIZED FREE ENERGY PREDICTED BY IDOCK:   -3.26 KCAL/MOL
REMARK 922        TOTAL FREE ENERGY PREDICTED BY IDOCK:   -3.85 KCAL/MOL
REMARK 923 INTER-LIGAND FREE ENERGY PREDICTED BY IDOCK:   -3.52 KCAL/MOL
REMARK 924 INTRA-LIGAND FREE ENERGY PREDICTED BY IDOCK:   -0.33 KCAL/MOL
REMARK 927      BINDING AFFINITY PREDICTED BY RF-SCORE:    0.00 PKD
ROOT
HETATM    1  N   UNL     1      -7.300   8.271  71.212  1.00  0.00    -0.071 NA 
HETATM    2  H1  UNL     1      -6.413   8.699  70.946  1.00  0.00     0.000 HD 
HETATM    3  C   UNL     1      -8.466   8.753  70.718  1.00  0.00    -0.173 C  
HETATM    4  H2  UNL     1      -7.309   7.477  71.853  1.00  0.00     0.000 HD 
HETATM    5  N   UNL     1      -9.597   8.206  71.057  1.00  0.00    -0.156 N  
HETATM    6  H   UNL     1      -9.609   7.423  71.710  1.00  0.00     0.000 HD 
HETATM    7  C   UNL     1     -10.799   8.695  70.524  1.00  0.00    -0.228 C  
HETATM    8  C   UNL     1     -10.656   9.787  69.559  1.00  0.00    -0.233 A  
HETATM    9  O   UNL     1     -11.890   8.238  70.844  1.00  0.00    -0.284 OA 
HETATM   10  C   UNL     1      -9.411  10.290  69.280  1.00  0.00    -0.207 A  
HETATM   11  N   UNL     1      -8.303   9.811  69.856  1.00  0.00    -0.171 NA 
HETATM   12  N   UNL     1      -9.575  11.283  68.367  1.00  0.00    -0.189 NA 
HETATM   13  N   UNL     1     -11.606  10.461  68.819  1.00  0.00    -0.179 NA 
HETATM   14  C   UNL     1     -10.922  11.328  68.097  1.00  0.00    -0.231 A  
ENDROOT
BRANCH  12  15
HETATM   15  C   UNL     1      -8.570  12.126  67.753  1.00  0.00    -0.164 C  
BRANCH  15  16
HETATM   16  C   UNL     1      -8.390  13.490  68.425  1.00  0.00    -0.140 C  
HETATM   17  C   UNL     1      -8.439  14.740  67.513  1.00  0.00    -0.204 C  
HETATM   18  C   UNL     1      -9.790  14.932  66.807  1.00  0.00    -0.246 C  
HETATM   19  C   UNL     1      -8.112  15.980  68.361  1.00  0.00    -0.159 C  
HETATM   20  O   UNL     1     -10.060  13.863  65.907  1.00  0.00    -0.300 OA 
HETATM   21  O   UNL     1      -8.112  17.156  67.564  1.00  0.00    -0.181 OA 
HETATM   22  H   UNL     1     -10.895  13.981  65.470  1.00  0.00     0.000 HD 
HETATM   23  H   UNL     1      -7.910  17.923  68.088  1.00  0.00     0.000 HD 
ENDBRANCH  15  16
ENDBRANCH  12  15
TORSDOF 2
ENDMDL
MODEL      252
REMARK 921   NORMALIZED FREE ENERGY PREDICTED BY IDOCK:   -3.26 KCAL/MOL
REMARK 922        TOTAL FREE ENERGY PREDICTED BY IDOCK:   -3.84 KCAL/MOL
REMARK 923 INTER-LIGAND FREE ENERGY PREDICTED BY IDOCK:   -3.69 KCAL/MOL
REMARK 924 INTRA-LIGAND FREE ENERGY PREDICTED BY IDOCK:   -0.15 KCAL/MOL
REMARK 927      BINDING AFFINITY PREDICTED BY RF-SCORE:    0.00 PKD
ROOT
HETATM    1  N   UNL     1      -7.525  11.508  68.319  1.00  0.00    -0.096 NA 
HETATM    2  H1  UNL     1      -8.307  10.979  67.933  1.00  0.00     0.000 HD 
HETATM    3  C   UNL     1      -7.657  12.833  68.574  1.00  0.00    -0.120 C  
HETATM    4  H2  UNL     1      -6.641  11.038  68.515  1.00  0.00     0.000 HD 
HETATM    5  N   UNL     1      -6.660  13.507  69.066  1.00  0.00    -0.106 N  
HETATM    6  H   UNL     1      -5.769  13.043  69.247  1.00  0.00     0.000 HD 
HETATM    7  C   UNL     1      -6.808  14.873  69.348  1.00  0.00    -0.164 C  
HETATM    8  C   UNL     1      -8.144  15.421  69.098  1.00  0.00    -0.233 A  
HETATM    9  O   UNL     1      -5.886  15.558  69.776  1.00  0.00    -0.124 OA 
HETATM   10  C   UNL     1      -9.121  14.616  68.570  1.00  0.00    -0.188 A  
HETATM   11  N   UNL     1      -8.904  13.328  68.278  1.00  0.00    -0.181 NA 
HETATM   12  N   UNL     1     -10.240  15.376  68.440  1.00  0.00    -0.219 NA 
HETATM   13  N   UNL     1      -8.646  16.689  69.304  1.00  0.00    -0.110 NA 
HETATM   14  C   UNL     1      -9.909  16.619  68.927  1.00  0.00    -0.261 A  
ENDROOT
BRANCH  12  15
HETATM   15  C   UNL     1     -11.541  14.996  67.931  1.00  0.00    -0.333 C  
BRANCH  15  16
HETATM   16  C   UNL     1     -12.210  13.848  68.694  1.00  0.00    -0.213 C  
HETATM   17  C   UNL     1     -12.243  13.950  70.238  1.00  0.00    -0.428 C  
HETATM   18  C   UNL     1     -13.042  15.156  70.755  1.00  0.00    -0.397 C  
HETATM   19  C   UNL     1     -12.837  12.649  70.803  1.00  0.00    -0.021 C  
HETATM   20  O   UNL     1     -12.438  16.384  70.362  1.00  0.00    -0.296 OA 
HETATM   21  O   UNL     1     -12.862  12.677  72.224  1.00  0.00    -0.203 OA 
HETATM   22  H   UNL     1     -12.932  17.129  70.682  1.00  0.00     0.000 HD 
HETATM   23  H   UNL     1     -13.228  11.872  72.573  1.00  0.00     0.000 HD 
ENDBRANCH  15  16
ENDBRANCH  12  15
TORSDOF 2
ENDMDL
MODEL      253
REMARK 921   NORMALIZED FREE ENERGY PREDICTED BY IDOCK:   -3.25 KCAL/MOL
REMARK 922        TOTAL FREE ENERGY PREDICTED BY IDOCK:   -3.84 KCAL/MOL
REMARK 923 INTER-LIGAND FREE ENERGY PREDICTED BY IDOCK:   -3.88 KCAL/MOL
REMARK 924 INTRA-LIGAND FREE ENERGY PREDICTED BY IDOCK:    0.04 KCAL/MOL
REMARK 927      BINDING AFFINITY PREDICTED BY RF-SCORE:    0.00 PKD
ROOT
HETATM    1  N   UNL     1     -10.507  12.384  68.279  1.00  0.00    -0.219 NA 
HETATM    2  H1  UNL     1     -11.449  11.995  68.325  1.00  0.00     0.000 HD 
HETATM    3  C   UNL     1      -9.440  11.633  68.645  1.00  0.00    -0.123 C  
HETATM    4  H2  UNL     1     -10.368  13.342  67.956  1.00  0.00     0.000 HD 
HETATM    5  N   UNL     1      -8.239  12.129  68.587  1.00  0.00    -0.315 N  
HETATM    6  H   UNL     1      -8.099  13.092  68.279  1.00  0.00     0.000 HD 
HETATM    7  C   UNL     1      -7.137  11.341  68.946  1.00  0.00    -0.104 C  
HETATM    8  C   UNL     1      -7.452   9.960  69.321  1.00  0.00    -0.096 A  
HETATM    9  O   UNL     1      -5.991  11.776  68.945  1.00  0.00    -0.048 OA 
HETATM   10  C   UNL     1      -8.759   9.546  69.353  1.00  0.00    -0.165 A  
HETATM   11  N   UNL     1      -9.774  10.361  69.043  1.00  0.00    -0.197 NA 
HETATM   12  N   UNL     1      -8.757   8.241  69.732  1.00  0.00    -0.133 NA 
HETATM   13  N   UNL     1      -6.624   8.916  69.678  1.00  0.00    -0.042 NA 
HETATM   14  C   UNL     1      -7.435   7.896  69.889  1.00  0.00    -0.080 A  
ENDROOT
BRANCH  12  15
HETATM   15  C   UNL     1      -9.882   7.348  69.918  1.00  0.00    -0.178 C  
BRANCH  15  16
HETATM   16  C   UNL     1     -11.098   7.993  70.590  1.00  0.00    -0.266 C  
HETATM   17  C   UNL     1     -12.176   7.041  71.162  1.00  0.00    -0.427 C  
HETATM   18  C   UNL     1     -11.659   6.137  72.292  1.00  0.00    -0.313 C  
HETATM   19  C   UNL     1     -13.357   7.886  71.671  1.00  0.00    -0.337 C  
HETATM   20  O   UNL     1     -10.656   5.243  71.819  1.00  0.00    -0.223 OA 
HETATM   21  O   UNL     1     -14.393   7.058  72.180  1.00  0.00    -0.613 OA 
HETATM   22  H   UNL     1     -10.336   4.684  72.517  1.00  0.00     0.000 HD 
HETATM   23  H   UNL     1     -15.122   7.579  72.494  1.00  0.00     0.000 HD 
ENDBRANCH  15  16
ENDBRANCH  12  15
TORSDOF 2
ENDMDL
MODEL      254
REMARK 921   NORMALIZED FREE ENERGY PREDICTED BY IDOCK:   -3.23 KCAL/MOL
REMARK 922        TOTAL FREE ENERGY PREDICTED BY IDOCK:   -3.82 KCAL/MOL
REMARK 923 INTER-LIGAND FREE ENERGY PREDICTED BY IDOCK:   -3.71 KCAL/MOL
REMARK 924 INTRA-LIGAND FREE ENERGY PREDICTED BY IDOCK:   -0.11 KCAL/MOL
REMARK 927      BINDING AFFINITY PREDICTED BY RF-SCORE:    0.00 PKD
ROOT
HETATM    1  N   UNL     1      -7.548   8.543  71.271  1.00  0.00    -0.091 NA 
HETATM    2  H1  UNL     1      -7.097   9.299  70.755  1.00  0.00     0.000 HD 
HETATM    3  C   UNL     1      -8.562   7.843  70.708  1.00  0.00    -0.132 C  
HETATM    4  H2  UNL     1      -7.235   8.315  72.216  1.00  0.00     0.000 HD 
HETATM    5  N   UNL     1      -9.138   6.879  71.366  1.00  0.00    -0.148 N  
HETATM    6  H   UNL     1      -8.837   6.660  72.316  1.00  0.00     0.000 HD 
HETATM    7  C   UNL     1     -10.172   6.143  70.770  1.00  0.00    -0.198 C  
HETATM    8  C   UNL     1     -10.483   6.511  69.386  1.00  0.00    -0.221 A  
HETATM    9  O   UNL     1     -10.770   5.253  71.364  1.00  0.00    -0.211 OA 
HETATM   10  C   UNL     1      -9.814   7.551  68.792  1.00  0.00    -0.166 A  
HETATM   11  N   UNL     1      -8.867   8.247  69.431  1.00  0.00    -0.145 NA 
HETATM   12  N   UNL     1     -10.302   7.672  67.530  1.00  0.00    -0.233 NA 
HETATM   13  N   UNL     1     -11.392   5.975  68.498  1.00  0.00    -0.077 NA 
HETATM   14  C   UNL     1     -11.237   6.673  67.389  1.00  0.00    -0.213 A  
ENDROOT
BRANCH  12  15
HETATM   15  C   UNL     1      -9.927   8.618  66.499  1.00  0.00    -0.282 C  
BRANCH  15  16
HETATM   16  C   UNL     1      -8.991   9.734  66.973  1.00  0.00    -0.152 C  
HETATM   17  C   UNL     1      -9.618  11.129  67.210  1.00  0.00    -0.182 C  
HETATM   18  C   UNL     1     -10.682  11.143  68.319  1.00  0.00    -0.196 C  
HETATM   19  C   UNL     1      -8.494  12.121  67.554  1.00  0.00    -0.169 C  
HETATM   20  O   UNL     1     -11.804  10.340  67.968  1.00  0.00    -0.708 OA 
HETATM   21  O   UNL     1      -9.012  13.429  67.751  1.00  0.00    -0.184 OA 
HETATM   22  H   UNL     1     -12.462  10.348  68.653  1.00  0.00     0.000 HD 
HETATM   23  H   UNL     1      -8.317  14.042  67.963  1.00  0.00     0.000 HD 
ENDBRANCH  15  16
ENDBRANCH  12  15
TORSDOF 2
ENDMDL
MODEL      255
REMARK 921   NORMALIZED FREE ENERGY PREDICTED BY IDOCK:   -3.23 KCAL/MOL
REMARK 922        TOTAL FREE ENERGY PREDICTED BY IDOCK:   -3.82 KCAL/MOL
REMARK 923 INTER-LIGAND FREE ENERGY PREDICTED BY IDOCK:   -3.54 KCAL/MOL
REMARK 924 INTRA-LIGAND FREE ENERGY PREDICTED BY IDOCK:   -0.27 KCAL/MOL
REMARK 927      BINDING AFFINITY PREDICTED BY RF-SCORE:    0.00 PKD
ROOT
HETATM    1  N   UNL     1      -6.828   6.731  66.618  1.00  0.00    -0.060 NA 
HETATM    2  H1  UNL     1      -6.676   6.147  67.441  1.00  0.00     0.000 HD 
HETATM    3  C   UNL     1      -7.530   7.885  66.721  1.00  0.00    -0.090 C  
HETATM    4  H2  UNL     1      -6.449   6.444  65.715  1.00  0.00     0.000 HD 
HETATM    5  N   UNL     1      -7.724   8.629  65.672  1.00  0.00    -0.089 N  
HETATM    6  H   UNL     1      -7.360   8.337  64.764  1.00  0.00     0.000 HD 
HETATM    7  C   UNL     1      -8.433   9.834  65.788  1.00  0.00    -0.133 C  
HETATM    8  C   UNL     1      -8.863  10.177  67.145  1.00  0.00    -0.132 A  
HETATM    9  O   UNL     1      -8.674  10.548  64.821  1.00  0.00    -0.182 OA 
HETATM   10  C   UNL     1      -8.608   9.312  68.179  1.00  0.00    -0.125 A  
HETATM   11  N   UNL     1      -7.965   8.152  67.996  1.00  0.00    -0.125 NA 
HETATM   12  N   UNL     1      -9.114   9.874  69.307  1.00  0.00    -0.177 NA 
HETATM   13  N   UNL     1      -9.527  11.288  67.622  1.00  0.00    -0.165 NA 
HETATM   14  C   UNL     1      -9.635  11.087  68.922  1.00  0.00    -0.163 A  
ENDROOT
BRANCH  12  15
HETATM   15  C   UNL     1      -9.104   9.360  70.661  1.00  0.00    -0.233 C  
BRANCH  15  16
HETATM   16  C   UNL     1      -9.734   7.972  70.816  1.00  0.00    -0.179 C  
HETATM   17  C   UNL     1     -10.936   7.845  71.781  1.00  0.00    -0.290 C  
HETATM   18  C   UNL     1     -12.156   8.678  71.355  1.00  0.00    -0.303 C  
HETATM   19  C   UNL     1     -11.329   6.362  71.885  1.00  0.00    -0.293 C  
HETATM   20  O   UNL     1     -11.864  10.071  71.382  1.00  0.00    -0.370 OA 
HETATM   21  O   UNL     1     -12.412   6.183  72.786  1.00  0.00    -0.435 OA 
HETATM   22  H   UNL     1     -12.618  10.586  71.119  1.00  0.00     0.000 HD 
HETATM   23  H   UNL     1     -12.654   5.267  72.851  1.00  0.00     0.000 HD 
ENDBRANCH  15  16
ENDBRANCH  12  15
TORSDOF 2
ENDMDL
MODEL      256
REMARK 921   NORMALIZED FREE ENERGY PREDICTED BY IDOCK:   -3.21 KCAL/MOL
REMARK 922        TOTAL FREE ENERGY PREDICTED BY IDOCK:   -3.80 KCAL/MOL
REMARK 923 INTER-LIGAND FREE ENERGY PREDICTED BY IDOCK:   -3.39 KCAL/MOL
REMARK 924 INTRA-LIGAND FREE ENERGY PREDICTED BY IDOCK:   -0.41 KCAL/MOL
REMARK 927      BINDING AFFINITY PREDICTED BY RF-SCORE:    0.00 PKD
ROOT
HETATM    1  N   UNL     1     -11.172   9.524  68.368  1.00  0.00    -0.489 NA 
HETATM    2  H1  UNL     1     -10.360   9.527  67.750  1.00  0.00     0.000 HD 
HETATM    3  C   UNL     1     -11.043   9.138  69.661  1.00  0.00    -0.087 C  
HETATM    4  H2  UNL     1     -12.083   9.813  68.012  1.00  0.00     0.000 HD 
HETATM    5  N   UNL     1     -12.078   9.134  70.449  1.00  0.00    -0.467 N  
HETATM    6  H   UNL     1     -12.994   9.407  70.091  1.00  0.00     0.000 HD 
HETATM    7  C   UNL     1     -11.935   8.754  71.791  1.00  0.00    -0.349 C  
HETATM    8  C   UNL     1     -10.568   8.433  72.208  1.00  0.00    -0.342 A  
HETATM    9  O   UNL     1     -12.887   8.697  72.561  1.00  0.00    -0.379 OA 
HETATM   10  C   UNL     1      -9.551   8.465  71.287  1.00  0.00    -0.185 A  
HETATM   11  N   UNL     1      -9.759   8.791  70.006  1.00  0.00    -0.170 NA 
HETATM   12  N   UNL     1      -8.409   8.124  71.939  1.00  0.00    -0.130 NA 
HETATM   13  N   UNL     1     -10.066   8.074  73.442  1.00  0.00    -0.188 NA 
HETATM   14  C   UNL     1      -8.769   7.925  73.251  1.00  0.00    -0.236 A  
ENDROOT
BRANCH  12  15
HETATM   15  C   UNL     1      -7.064   8.010  71.413  1.00  0.00    -0.063 C  
BRANCH  15  16
HETATM   16  C   UNL     1      -6.663   6.590  71.002  1.00  0.00    -0.055 C  
HETATM   17  C   UNL     1      -6.937   6.175  69.536  1.00  0.00    -0.067 C  
HETATM   18  C   UNL     1      -6.162   7.012  68.507  1.00  0.00    -0.034 C  
HETATM   19  C   UNL     1      -6.582   4.688  69.373  1.00  0.00    -0.040 C  
HETATM   20  O   UNL     1      -6.569   8.376  68.538  1.00  0.00    -0.056 OA 
HETATM   21  O   UNL     1      -6.845   4.244  68.049  1.00  0.00    -0.050 OA 
HETATM   22  H   UNL     1      -6.090   8.893  67.902  1.00  0.00     0.000 HD 
HETATM   23  H   UNL     1      -6.626   3.325  67.948  1.00  0.00     0.000 HD 
ENDBRANCH  15  16
ENDBRANCH  12  15
TORSDOF 2
ENDMDL
MODEL      257
REMARK 921   NORMALIZED FREE ENERGY PREDICTED BY IDOCK:   -3.15 KCAL/MOL
REMARK 922        TOTAL FREE ENERGY PREDICTED BY IDOCK:   -3.73 KCAL/MOL
REMARK 923 INTER-LIGAND FREE ENERGY PREDICTED BY IDOCK:   -3.03 KCAL/MOL
REMARK 924 INTRA-LIGAND FREE ENERGY PREDICTED BY IDOCK:   -0.70 KCAL/MOL
REMARK 927      BINDING AFFINITY PREDICTED BY RF-SCORE:    0.00 PKD
ROOT
HETATM    1  N   UNL     1     -12.206   6.852  69.900  1.00  0.00    -0.493 NA 
HETATM    2  H1  UNL     1     -11.985   7.163  70.846  1.00  0.00     0.000 HD 
HETATM    3  C   UNL     1     -11.228   6.375  69.093  1.00  0.00    -0.354 C  
HETATM    4  H2  UNL     1     -13.167   6.901  69.560  1.00  0.00     0.000 HD 
HETATM    5  N   UNL     1     -11.510   5.978  67.886  1.00  0.00    -0.193 N  
HETATM    6  H   UNL     1     -12.468   6.040  67.539  1.00  0.00     0.000 HD 
HETATM    7  C   UNL     1     -10.498   5.464  67.063  1.00  0.00    -0.257 C  
HETATM    8  C   UNL     1      -9.174   5.372  67.683  1.00  0.00    -0.112 A  
HETATM    9  O   UNL     1     -10.708   5.114  65.907  1.00  0.00    -0.217 OA 
HETATM   10  C   UNL     1      -8.990   5.827  68.964  1.00  0.00    -0.117 A  
HETATM   11  N   UNL     1      -9.989   6.351  69.685  1.00  0.00    -0.161 NA 
HETATM   12  N   UNL     1      -7.684   5.626  69.278  1.00  0.00    -0.087 NA 
HETATM   13  N   UNL     1      -7.984   4.881  67.189  1.00  0.00    -0.099 NA 
HETATM   14  C   UNL     1      -7.121   5.022  68.178  1.00  0.00    -0.062 A  
ENDROOT
BRANCH  12  15
HETATM   15  C   UNL     1      -6.988   5.937  70.509  1.00  0.00    -0.058 C  
BRANCH  15  16
HETATM   16  C   UNL     1      -6.211   7.257  70.482  1.00  0.00    -0.031 C  
HETATM   17  C   UNL     1      -7.033   8.563  70.591  1.00  0.00    -0.043 C  
HETATM   18  C   UNL     1      -7.799   8.697  71.917  1.00  0.00    -0.070 C  
HETATM   19  C   UNL     1      -6.081   9.759  70.416  1.00  0.00    -0.075 C  
HETATM   20  O   UNL     1      -8.787   7.681  72.047  1.00  0.00    -0.112 OA 
HETATM   21  O   UNL     1      -6.791  10.988  70.476  1.00  0.00    -0.490 OA 
HETATM   22  H   UNL     1      -9.261   7.764  72.866  1.00  0.00     0.000 HD 
HETATM   23  H   UNL     1      -6.203  11.726  70.368  1.00  0.00     0.000 HD 
ENDBRANCH  15  16
ENDBRANCH  12  15
TORSDOF 2
ENDMDL
MODEL      258
REMARK 921   NORMALIZED FREE ENERGY PREDICTED BY IDOCK:   -3.15 KCAL/MOL
REMARK 922        TOTAL FREE ENERGY PREDICTED BY IDOCK:   -3.73 KCAL/MOL
REMARK 923 INTER-LIGAND FREE ENERGY PREDICTED BY IDOCK:   -3.47 KCAL/MOL
REMARK 924 INTRA-LIGAND FREE ENERGY PREDICTED BY IDOCK:   -0.25 KCAL/MOL
REMARK 927      BINDING AFFINITY PREDICTED BY RF-SCORE:    0.00 PKD
ROOT
HETATM    1  N   UNL     1      -6.759  10.630  65.247  1.00  0.00    -0.329 NA 
HETATM    2  H1  UNL     1      -6.284   9.727  65.273  1.00  0.00     0.000 HD 
HETATM    3  C   UNL     1      -7.862  10.842  66.005  1.00  0.00    -0.149 C  
HETATM    4  H2  UNL     1      -6.403  11.375  64.648  1.00  0.00     0.000 HD 
HETATM    5  N   UNL     1      -8.469  11.992  65.973  1.00  0.00    -0.378 N  
HETATM    6  H   UNL     1      -8.123  12.734  65.363  1.00  0.00     0.000 HD 
HETATM    7  C   UNL     1      -9.596  12.213  66.776  1.00  0.00    -0.211 C  
HETATM    8  C   UNL     1      -9.970  11.098  67.649  1.00  0.00    -0.174 A  
HETATM    9  O   UNL     1     -10.223  13.266  66.751  1.00  0.00    -0.247 OA 
HETATM   10  C   UNL     1      -9.260   9.925  67.596  1.00  0.00    -0.133 A  
HETATM   11  N   UNL     1      -8.219   9.759  66.772  1.00  0.00    -0.119 NA 
HETATM   12  N   UNL     1      -9.820   9.076  68.496  1.00  0.00    -0.164 NA 
HETATM   13  N   UNL     1     -10.977  10.989  68.586  1.00  0.00    -0.204 NA 
HETATM   14  C   UNL     1     -10.841   9.779  69.093  1.00  0.00    -0.207 A  
ENDROOT
BRANCH  12  15
HETATM   15  C   UNL     1      -9.441   7.716  68.819  1.00  0.00    -0.152 C  
BRANCH  15  16
HETATM   16  C   UNL     1      -8.612   7.577  70.100  1.00  0.00    -0.141 C  
HETATM   17  C   UNL     1      -9.292   6.893  71.310  1.00  0.00    -0.164 C  
HETATM   18  C   UNL     1      -9.682   5.429  71.049  1.00  0.00    -0.179 C  
HETATM   19  C   UNL     1      -8.340   6.971  72.516  1.00  0.00    -0.109 C  
HETATM   20  O   UNL     1     -10.668   5.332  70.027  1.00  0.00    -0.287 OA 
HETATM   21  O   UNL     1      -8.929   6.383  73.668  1.00  0.00    -0.123 OA 
HETATM   22  H   UNL     1     -10.909   4.428  69.865  1.00  0.00     0.000 HD 
HETATM   23  H   UNL     1      -8.342   6.432  74.413  1.00  0.00     0.000 HD 
ENDBRANCH  15  16
ENDBRANCH  12  15
TORSDOF 2
ENDMDL
MODEL      259
REMARK 921   NORMALIZED FREE ENERGY PREDICTED BY IDOCK:   -3.15 KCAL/MOL
REMARK 922        TOTAL FREE ENERGY PREDICTED BY IDOCK:   -3.72 KCAL/MOL
REMARK 923 INTER-LIGAND FREE ENERGY PREDICTED BY IDOCK:   -3.32 KCAL/MOL
REMARK 924 INTRA-LIGAND FREE ENERGY PREDICTED BY IDOCK:   -0.39 KCAL/MOL
REMARK 927      BINDING AFFINITY PREDICTED BY RF-SCORE:    0.00 PKD
ROOT
HETATM    1  N   UNL     1      -5.820  10.498  64.634  1.00  0.00    -0.275 NA 
HETATM    2  H1  UNL     1      -5.036  10.083  65.139  1.00  0.00     0.000 HD 
HETATM    3  C   UNL     1      -7.094  10.196  64.984  1.00  0.00    -0.135 C  
HETATM    4  H2  UNL     1      -5.643  11.142  63.862  1.00  0.00     0.000 HD 
HETATM    5  N   UNL     1      -8.093  10.724  64.340  1.00  0.00    -0.364 N  
HETATM    6  H   UNL     1      -7.919  11.356  63.558  1.00  0.00     0.000 HD 
HETATM    7  C   UNL     1      -9.409  10.425  64.720  1.00  0.00    -0.251 C  
HETATM    8  C   UNL     1      -9.538   9.549  65.887  1.00  0.00    -0.261 A  
HETATM    9  O   UNL     1     -10.381  10.868  64.119  1.00  0.00    -0.347 OA 
HETATM   10  C   UNL     1      -8.413   9.044  66.486  1.00  0.00    -0.119 A  
HETATM   11  N   UNL     1      -7.181   9.330  66.047  1.00  0.00    -0.090 NA 
HETATM   12  N   UNL     1      -8.824   8.271  67.525  1.00  0.00    -0.135 NA 
HETATM   13  N   UNL     1     -10.661   9.097  66.550  1.00  0.00    -0.114 NA 
HETATM   14  C   UNL     1     -10.196   8.360  67.540  1.00  0.00    -0.243 A  
ENDROOT
BRANCH  12  15
HETATM   15  C   UNL     1      -8.024   7.517  68.467  1.00  0.00    -0.123 C  
BRANCH  15  16
HETATM   16  C   UNL     1      -8.595   6.141  68.825  1.00  0.00    -0.120 C  
HETATM   17  C   UNL     1      -8.615   5.071  67.706  1.00  0.00    -0.103 C  
HETATM   18  C   UNL     1      -7.216   4.689  67.199  1.00  0.00    -0.073 C  
HETATM   19  C   UNL     1      -9.338   3.821  68.235  1.00  0.00    -0.167 C  
HETATM   20  O   UNL     1      -6.571   5.795  66.577  1.00  0.00    -0.052 OA 
HETATM   21  O   UNL     1      -9.413   2.815  67.235  1.00  0.00    -0.350 OA 
HETATM   22  H   UNL     1      -5.707   5.559  66.263  1.00  0.00     0.000 HD 
HETATM   23  H   UNL     1      -9.860   2.043  67.562  1.00  0.00     0.000 HD 
ENDBRANCH  15  16
ENDBRANCH  12  15
TORSDOF 2
ENDMDL
MODEL      260
REMARK 921   NORMALIZED FREE ENERGY PREDICTED BY IDOCK:   -3.14 KCAL/MOL
REMARK 922        TOTAL FREE ENERGY PREDICTED BY IDOCK:   -3.71 KCAL/MOL
REMARK 923 INTER-LIGAND FREE ENERGY PREDICTED BY IDOCK:   -3.42 KCAL/MOL
REMARK 924 INTRA-LIGAND FREE ENERGY PREDICTED BY IDOCK:   -0.30 KCAL/MOL
REMARK 927      BINDING AFFINITY PREDICTED BY RF-SCORE:    0.00 PKD
ROOT
HETATM    1  N   UNL     1     -10.261   2.645  64.456  1.00  0.00    -0.365 NA 
HETATM    2  H1  UNL     1     -10.055   2.637  63.456  1.00  0.00     0.000 HD 
HETATM    3  C   UNL     1      -9.770   3.632  65.245  1.00  0.00    -0.144 C  
HETATM    4  H2  UNL     1     -10.838   1.908  64.862  1.00  0.00     0.000 HD 
HETATM    5  N   UNL     1     -10.033   3.643  66.519  1.00  0.00    -0.385 N  
HETATM    6  H   UNL     1     -10.596   2.899  66.930  1.00  0.00     0.000 HD 
HETATM    7  C   UNL     1      -9.541   4.679  67.327  1.00  0.00    -0.175 C  
HETATM    8  C   UNL     1      -8.790   5.719  66.620  1.00  0.00    -0.121 A  
HETATM    9  O   UNL     1      -9.730   4.711  68.537  1.00  0.00    -0.153 OA 
HETATM   10  C   UNL     1      -8.568   5.601  65.272  1.00  0.00    -0.141 A  
HETATM   11  N   UNL     1      -9.025   4.563  64.562  1.00  0.00    -0.151 NA 
HETATM   12  N   UNL     1      -7.852   6.689  64.886  1.00  0.00    -0.109 NA 
HETATM   13  N   UNL     1      -8.215   6.884  67.086  1.00  0.00    -0.117 NA 
HETATM   14  C   UNL     1      -7.688   7.453  66.018  1.00  0.00    -0.095 A  
ENDROOT
BRANCH  12  15
HETATM   15  C   UNL     1      -7.365   7.034  63.567  1.00  0.00    -0.078 C  
BRANCH  15  16
HETATM   16  C   UNL     1      -8.236   8.044  62.814  1.00  0.00    -0.112 C  
HETATM   17  C   UNL     1      -8.054   9.539  63.170  1.00  0.00    -0.149 C  
HETATM   18  C   UNL     1      -6.646  10.075  62.865  1.00  0.00    -0.127 C  
HETATM   19  C   UNL     1      -9.102  10.359  62.401  1.00  0.00    -0.286 C  
HETATM   20  O   UNL     1      -5.662   9.429  63.665  1.00  0.00    -0.080 OA 
HETATM   21  O   UNL     1      -9.000  11.741  62.716  1.00  0.00    -0.629 OA 
HETATM   22  H   UNL     1      -4.792   9.760  63.476  1.00  0.00     0.000 HD 
HETATM   23  H   UNL     1      -9.649  12.248  62.241  1.00  0.00     0.000 HD 
ENDBRANCH  15  16
ENDBRANCH  12  15
TORSDOF 2
ENDMDL
MODEL      261
REMARK 921   NORMALIZED FREE ENERGY PREDICTED BY IDOCK:   -3.13 KCAL/MOL
REMARK 922        TOTAL FREE ENERGY PREDICTED BY IDOCK:   -3.70 KCAL/MOL
REMARK 923 INTER-LIGAND FREE ENERGY PREDICTED BY IDOCK:   -3.46 KCAL/MOL
REMARK 924 INTRA-LIGAND FREE ENERGY PREDICTED BY IDOCK:   -0.24 KCAL/MOL
REMARK 927      BINDING AFFINITY PREDICTED BY RF-SCORE:    0.00 PKD
ROOT
HETATM    1  N   UNL     1      -7.010   8.198  73.169  1.00  0.00    -0.105 NA 
HETATM    2  H1  UNL     1      -7.633   8.698  73.804  1.00  0.00     0.000 HD 
HETATM    3  C   UNL     1      -7.412   7.907  71.908  1.00  0.00    -0.080 C  
HETATM    4  H2  UNL     1      -6.081   7.917  73.485  1.00  0.00     0.000 HD 
HETATM    5  N   UNL     1      -6.617   7.270  71.099  1.00  0.00    -0.043 N  
HETATM    6  H   UNL     1      -5.695   6.973  71.417  1.00  0.00     0.000 HD 
HETATM    7  C   UNL     1      -7.030   6.990  69.788  1.00  0.00    -0.059 C  
HETATM    8  C   UNL     1      -8.351   7.507  69.424  1.00  0.00    -0.132 A  
HETATM    9  O   UNL     1      -6.332   6.359  69.002  1.00  0.00    -0.035 OA 
HETATM   10  C   UNL     1      -9.107   8.162  70.363  1.00  0.00    -0.150 A  
HETATM   11  N   UNL     1      -8.676   8.358  71.615  1.00  0.00    -0.166 NA 
HETATM   12  N   UNL     1     -10.270   8.523  69.761  1.00  0.00    -0.201 NA 
HETATM   13  N   UNL     1      -9.036   7.458  68.228  1.00  0.00    -0.129 NA 
HETATM   14  C   UNL     1     -10.167   8.099  68.457  1.00  0.00    -0.208 A  
ENDROOT
BRANCH  12  15
HETATM   15  C   UNL     1     -11.400   9.234  70.323  1.00  0.00    -0.203 C  
BRANCH  15  16
HETATM   16  C   UNL     1     -11.291  10.760  70.245  1.00  0.00    -0.374 C  
HETATM   17  C   UNL     1     -12.532  11.580  70.671  1.00  0.00    -0.405 C  
HETATM   18  C   UNL     1     -12.918  11.386  72.146  1.00  0.00    -0.105 C  
HETATM   19  C   UNL     1     -12.256  13.068  70.396  1.00  0.00    -0.310 C  
HETATM   20  O   UNL     1     -13.313  10.043  72.404  1.00  0.00    -0.589 OA 
HETATM   21  O   UNL     1     -13.380  13.866  70.742  1.00  0.00    -0.163 OA 
HETATM   22  H   UNL     1     -13.552   9.922  73.315  1.00  0.00     0.000 HD 
HETATM   23  H   UNL     1     -13.209  14.786  70.571  1.00  0.00     0.000 HD 
ENDBRANCH  15  16
ENDBRANCH  12  15
TORSDOF 2
ENDMDL
MODEL      262
REMARK 921   NORMALIZED FREE ENERGY PREDICTED BY IDOCK:   -3.13 KCAL/MOL
REMARK 922        TOTAL FREE ENERGY PREDICTED BY IDOCK:   -3.70 KCAL/MOL
REMARK 923 INTER-LIGAND FREE ENERGY PREDICTED BY IDOCK:   -3.42 KCAL/MOL
REMARK 924 INTRA-LIGAND FREE ENERGY PREDICTED BY IDOCK:   -0.28 KCAL/MOL
REMARK 927      BINDING AFFINITY PREDICTED BY RF-SCORE:    0.00 PKD
ROOT
HETATM    1  N   UNL     1      -5.721  10.889  64.376  1.00  0.00    -0.399 NA 
HETATM    2  H1  UNL     1      -4.872  10.576  64.849  1.00  0.00     0.000 HD 
HETATM    3  C   UNL     1      -6.927  10.391  64.740  1.00  0.00    -0.032 C  
HETATM    4  H2  UNL     1      -5.660  11.578  63.626  1.00  0.00     0.000 HD 
HETATM    5  N   UNL     1      -8.009  10.789  64.137  1.00  0.00    -0.356 N  
HETATM    6  H   UNL     1      -7.949  11.466  63.376  1.00  0.00     0.000 HD 
HETATM    7  C   UNL     1      -9.257  10.288  64.533  1.00  0.00    -0.250 C  
HETATM    8  C   UNL     1      -9.228   9.363  65.669  1.00  0.00    -0.226 A  
HETATM    9  O   UNL     1     -10.299  10.603  63.970  1.00  0.00    -0.339 OA 
HETATM   10  C   UNL     1      -8.025   9.008  66.226  1.00  0.00    -0.103 A  
HETATM   11  N   UNL     1      -6.860   9.486  65.772  1.00  0.00    -0.084 NA 
HETATM   12  N   UNL     1      -8.292   8.149  67.243  1.00  0.00    -0.120 NA 
HETATM   13  N   UNL     1     -10.254   8.730  66.338  1.00  0.00    -0.259 NA 
HETATM   14  C   UNL     1      -9.662   8.034  67.290  1.00  0.00    -0.177 A  
ENDROOT
BRANCH  12  15
HETATM   15  C   UNL     1      -7.366   7.488  68.140  1.00  0.00    -0.096 C  
BRANCH  15  16
HETATM   16  C   UNL     1      -6.359   8.425  68.813  1.00  0.00    -0.049 C  
HETATM   17  C   UNL     1      -6.930   9.637  69.588  1.00  0.00    -0.071 C  
HETATM   18  C   UNL     1      -7.812   9.242  70.783  1.00  0.00    -0.145 C  
HETATM   19  C   UNL     1      -5.757  10.507  70.071  1.00  0.00    -0.059 C  
HETATM   20  O   UNL     1      -8.981   8.551  70.355  1.00  0.00    -0.141 OA 
HETATM   21  O   UNL     1      -6.227  11.655  70.764  1.00  0.00    -0.511 OA 
HETATM   22  H   UNL     1      -9.526   8.307  71.093  1.00  0.00     0.000 HD 
HETATM   23  H   UNL     1      -5.502  12.193  71.062  1.00  0.00     0.000 HD 
ENDBRANCH  15  16
ENDBRANCH  12  15
TORSDOF 2
ENDMDL
MODEL      263
REMARK 921   NORMALIZED FREE ENERGY PREDICTED BY IDOCK:   -3.12 KCAL/MOL
REMARK 922        TOTAL FREE ENERGY PREDICTED BY IDOCK:   -3.69 KCAL/MOL
REMARK 923 INTER-LIGAND FREE ENERGY PREDICTED BY IDOCK:   -3.43 KCAL/MOL
REMARK 924 INTRA-LIGAND FREE ENERGY PREDICTED BY IDOCK:   -0.27 KCAL/MOL
REMARK 927      BINDING AFFINITY PREDICTED BY RF-SCORE:    0.00 PKD
ROOT
HETATM    1  N   UNL     1     -10.543   3.336  64.422  1.00  0.00    -0.452 NA 
HETATM    2  H1  UNL     1     -10.712   3.925  63.606  1.00  0.00     0.000 HD 
HETATM    3  C   UNL     1      -9.955   3.855  65.527  1.00  0.00    -0.120 C  
HETATM    4  H2  UNL     1     -10.817   2.354  64.406  1.00  0.00     0.000 HD 
HETATM    5  N   UNL     1      -9.739   3.105  66.568  1.00  0.00    -0.409 N  
HETATM    6  H   UNL     1      -9.998   2.118  66.548  1.00  0.00     0.000 HD 
HETATM    7  C   UNL     1      -9.151   3.652  67.717  1.00  0.00    -0.156 C  
HETATM    8  C   UNL     1      -8.869   5.088  67.651  1.00  0.00    -0.103 A  
HETATM    9  O   UNL     1      -8.893   2.976  68.707  1.00  0.00    -0.093 OA 
HETATM   10  C   UNL     1      -9.133   5.781  66.497  1.00  0.00    -0.141 A  
HETATM   11  N   UNL     1      -9.654   5.191  65.415  1.00  0.00    -0.062 NA 
HETATM   12  N   UNL     1      -8.776   7.073  66.714  1.00  0.00    -0.119 NA 
HETATM   13  N   UNL     1      -8.347   5.944  68.599  1.00  0.00    -0.108 NA 
HETATM   14  C   UNL     1      -8.332   7.128  68.015  1.00  0.00    -0.119 A  
ENDROOT
BRANCH  12  15
HETATM   15  C   UNL     1      -8.854   8.201  65.809  1.00  0.00    -0.135 C  
BRANCH  15  16
HETATM   16  C   UNL     1      -9.995   9.178  66.111  1.00  0.00    -0.338 C  
HETATM   17  C   UNL     1      -9.625  10.496  66.831  1.00  0.00    -0.206 C  
HETATM   18  C   UNL     1      -8.675  11.392  66.021  1.00  0.00    -0.131 C  
HETATM   19  C   UNL     1     -10.919  11.263  67.149  1.00  0.00    -0.291 C  
HETATM   20  O   UNL     1      -7.412  10.763  65.827  1.00  0.00    -0.236 OA 
HETATM   21  O   UNL     1     -10.638  12.472  67.841  1.00  0.00    -0.209 OA 
HETATM   22  H   UNL     1      -6.825  11.316  65.326  1.00  0.00     0.000 HD 
HETATM   23  H   UNL     1     -11.439  12.945  68.038  1.00  0.00     0.000 HD 
ENDBRANCH  15  16
ENDBRANCH  12  15
TORSDOF 2
ENDMDL
MODEL      264
REMARK 921   NORMALIZED FREE ENERGY PREDICTED BY IDOCK:   -3.08 KCAL/MOL
REMARK 922        TOTAL FREE ENERGY PREDICTED BY IDOCK:   -3.64 KCAL/MOL
REMARK 923 INTER-LIGAND FREE ENERGY PREDICTED BY IDOCK:   -3.37 KCAL/MOL
REMARK 924 INTRA-LIGAND FREE ENERGY PREDICTED BY IDOCK:   -0.27 KCAL/MOL
REMARK 927      BINDING AFFINITY PREDICTED BY RF-SCORE:    0.00 PKD
ROOT
HETATM    1  N   UNL     1     -10.799  11.251  65.937  1.00  0.00    -0.241 NA 
HETATM    2  H1  UNL     1     -11.666  10.908  66.350  1.00  0.00     0.000 HD 
HETATM    3  C   UNL     1      -9.742  10.418  65.777  1.00  0.00    -0.228 C  
HETATM    4  H2  UNL     1     -10.727  12.226  65.642  1.00  0.00     0.000 HD 
HETATM    5  N   UNL     1      -8.636  10.856  65.250  1.00  0.00    -0.310 N  
HETATM    6  H   UNL     1      -8.557  11.833  64.970  1.00  0.00     0.000 HD 
HETATM    7  C   UNL     1      -7.553   9.984  65.067  1.00  0.00    -0.139 C  
HETATM    8  C   UNL     1      -7.798   8.593  65.458  1.00  0.00    -0.099 A  
HETATM    9  O   UNL     1      -6.479  10.359  64.612  1.00  0.00    -0.121 OA 
HETATM   10  C   UNL     1      -9.004   8.244  66.010  1.00  0.00    -0.181 A  
HETATM   11  N   UNL     1      -9.985   9.134  66.202  1.00  0.00    -0.294 NA 
HETATM   12  N   UNL     1      -8.953   6.913  66.276  1.00  0.00    -0.153 NA 
HETATM   13  N   UNL     1      -6.986   7.481  65.372  1.00  0.00    -0.058 NA 
HETATM   14  C   UNL     1      -7.719   6.489  65.844  1.00  0.00    -0.090 A  
ENDROOT
BRANCH  12  15
HETATM   15  C   UNL     1      -9.970   6.065  66.863  1.00  0.00    -0.169 C  
BRANCH  15  16
HETATM   16  C   UNL     1      -9.455   5.117  67.950  1.00  0.00    -0.155 C  
HETATM   17  C   UNL     1      -9.655   5.553  69.421  1.00  0.00    -0.196 C  
HETATM   18  C   UNL     1     -11.131   5.692  69.825  1.00  0.00    -0.100 C  
HETATM   19  C   UNL     1      -8.959   4.530  70.335  1.00  0.00    -0.094 C  
HETATM   20  O   UNL     1     -11.772   6.729  69.090  1.00  0.00    -0.601 OA 
HETATM   21  O   UNL     1      -9.084   4.900  71.701  1.00  0.00    -0.135 OA 
HETATM   22  H   UNL     1     -12.684   6.815  69.339  1.00  0.00     0.000 HD 
HETATM   23  H   UNL     1      -8.654   4.269  72.266  1.00  0.00     0.000 HD 
ENDBRANCH  15  16
ENDBRANCH  12  15
TORSDOF 2
ENDMDL
MODEL      265
REMARK 921   NORMALIZED FREE ENERGY PREDICTED BY IDOCK:   -3.05 KCAL/MOL
REMARK 922        TOTAL FREE ENERGY PREDICTED BY IDOCK:   -3.61 KCAL/MOL
REMARK 923 INTER-LIGAND FREE ENERGY PREDICTED BY IDOCK:   -3.37 KCAL/MOL
REMARK 924 INTRA-LIGAND FREE ENERGY PREDICTED BY IDOCK:   -0.24 KCAL/MOL
REMARK 927      BINDING AFFINITY PREDICTED BY RF-SCORE:    0.00 PKD
ROOT
HETATM    1  N   UNL     1      -7.227   5.767  64.723  1.00  0.00    -0.063 NA 
HETATM    2  H1  UNL     1      -7.346   5.118  65.501  1.00  0.00     0.000 HD 
HETATM    3  C   UNL     1      -7.877   6.956  64.721  1.00  0.00    -0.119 C  
HETATM    4  H2  UNL     1      -6.615   5.521  63.944  1.00  0.00     0.000 HD 
HETATM    5  N   UNL     1      -7.725   7.784  63.730  1.00  0.00    -0.118 N  
HETATM    6  H   UNL     1      -7.126   7.534  62.942  1.00  0.00     0.000 HD 
HETATM    7  C   UNL     1      -8.384   9.022  63.743  1.00  0.00    -0.176 C  
HETATM    8  C   UNL     1      -9.174   9.297  64.946  1.00  0.00    -0.141 A  
HETATM    9  O   UNL     1      -8.302   9.818  62.815  1.00  0.00    -0.137 OA 
HETATM   10  C   UNL     1      -9.268   8.345  65.929  1.00  0.00    -0.155 A  
HETATM   11  N   UNL     1      -8.652   7.161  65.837  1.00  0.00    -0.150 NA 
HETATM   12  N   UNL     1     -10.055   8.859  66.910  1.00  0.00    -0.248 NA 
HETATM   13  N   UNL     1      -9.899  10.413  65.308  1.00  0.00    -0.275 NA 
HETATM   14  C   UNL     1     -10.389  10.128  66.500  1.00  0.00    -0.202 A  
ENDROOT
BRANCH  12  15
HETATM   15  C   UNL     1     -10.462   8.250  68.159  1.00  0.00    -0.171 C  
BRANCH  15  16
HETATM   16  C   UNL     1      -9.561   8.586  69.351  1.00  0.00    -0.170 C  
HETATM   17  C   UNL     1     -10.019   8.094  70.745  1.00  0.00    -0.209 C  
HETATM   18  C   UNL     1     -10.103   6.564  70.859  1.00  0.00    -0.185 C  
HETATM   19  C   UNL     1      -9.048   8.643  71.804  1.00  0.00    -0.247 C  
HETATM   20  O   UNL     1     -11.095   6.035  69.986  1.00  0.00    -0.351 OA 
HETATM   21  O   UNL     1      -9.442   8.247  73.110  1.00  0.00    -0.257 OA 
HETATM   22  H   UNL     1     -11.147   5.089  70.056  1.00  0.00     0.000 HD 
HETATM   23  H   UNL     1      -8.842   8.586  73.764  1.00  0.00     0.000 HD 
ENDBRANCH  15  16
ENDBRANCH  12  15
TORSDOF 2
ENDMDL
MODEL      266
REMARK 921   NORMALIZED FREE ENERGY PREDICTED BY IDOCK:   -3.04 KCAL/MOL
REMARK 922        TOTAL FREE ENERGY PREDICTED BY IDOCK:   -3.61 KCAL/MOL
REMARK 923 INTER-LIGAND FREE ENERGY PREDICTED BY IDOCK:   -3.41 KCAL/MOL
REMARK 924 INTRA-LIGAND FREE ENERGY PREDICTED BY IDOCK:   -0.19 KCAL/MOL
REMARK 927      BINDING AFFINITY PREDICTED BY RF-SCORE:    0.00 PKD
ROOT
HETATM    1  N   UNL     1     -11.410   6.382  68.830  1.00  0.00    -0.579 NA 
HETATM    2  H1  UNL     1     -11.892   7.281  68.830  1.00  0.00     0.000 HD 
HETATM    3  C   UNL     1     -10.246   6.231  68.152  1.00  0.00    -0.169 C  
HETATM    4  H2  UNL     1     -11.805   5.593  69.344  1.00  0.00     0.000 HD 
HETATM    5  N   UNL     1      -9.631   5.085  68.153  1.00  0.00    -0.132 N  
HETATM    6  H   UNL     1     -10.033   4.291  68.652  1.00  0.00     0.000 HD 
HETATM    7  C   UNL     1      -8.416   4.940  67.468  1.00  0.00    -0.104 C  
HETATM    8  C   UNL     1      -7.909   6.159  66.832  1.00  0.00    -0.104 A  
HETATM    9  O   UNL     1      -7.821   3.871  67.408  1.00  0.00    -0.085 OA 
HETATM   10  C   UNL     1      -8.647   7.314  66.891  1.00  0.00    -0.124 A  
HETATM   11  N   UNL     1      -9.825   7.377  67.522  1.00  0.00    -0.149 NA 
HETATM   12  N   UNL     1      -7.949   8.269  66.223  1.00  0.00    -0.097 NA 
HETATM   13  N   UNL     1      -6.744   6.386  66.130  1.00  0.00    -0.051 NA 
HETATM   14  C   UNL     1      -6.787   7.664  65.805  1.00  0.00    -0.053 A  
ENDROOT
BRANCH  12  15
HETATM   15  C   UNL     1      -8.298   9.657  65.997  1.00  0.00    -0.120 C  
BRANCH  15  16
HETATM   16  C   UNL     1      -9.606   9.864  65.228  1.00  0.00    -0.361 C  
HETATM   17  C   UNL     1      -9.677  11.074  64.266  1.00  0.00    -0.333 C  
HETATM   18  C   UNL     1      -8.663  11.001  63.113  1.00  0.00    -0.097 C  
HETATM   19  C   UNL     1     -11.103  11.170  63.701  1.00  0.00    -0.054 C  
HETATM   20  O   UNL     1      -7.325  11.050  63.597  1.00  0.00    -0.191 OA 
HETATM   21  O   UNL     1     -11.233  12.287  62.832  1.00  0.00    -0.611 OA 
HETATM   22  H   UNL     1      -6.699  11.005  62.885  1.00  0.00     0.000 HD 
HETATM   23  H   UNL     1     -12.115  12.346  62.483  1.00  0.00     0.000 HD 
ENDBRANCH  15  16
ENDBRANCH  12  15
TORSDOF 2
ENDMDL
MODEL      267
REMARK 921   NORMALIZED FREE ENERGY PREDICTED BY IDOCK:   -3.01 KCAL/MOL
REMARK 922        TOTAL FREE ENERGY PREDICTED BY IDOCK:   -3.57 KCAL/MOL
REMARK 923 INTER-LIGAND FREE ENERGY PREDICTED BY IDOCK:   -3.12 KCAL/MOL
REMARK 924 INTRA-LIGAND FREE ENERGY PREDICTED BY IDOCK:   -0.44 KCAL/MOL
REMARK 927      BINDING AFFINITY PREDICTED BY RF-SCORE:    0.00 PKD
ROOT
HETATM    1  N   UNL     1      -9.486   9.729  64.039  1.00  0.00    -0.405 NA 
HETATM    2  H1  UNL     1      -9.771  10.674  64.298  1.00  0.00     0.000 HD 
HETATM    3  C   UNL     1      -9.077   8.854  64.990  1.00  0.00    -0.050 C  
HETATM    4  H2  UNL     1      -9.510   9.441  63.060  1.00  0.00     0.000 HD 
HETATM    5  N   UNL     1      -8.714   7.649  64.660  1.00  0.00    -0.351 N  
HETATM    6  H   UNL     1      -8.722   7.365  63.680  1.00  0.00     0.000 HD 
HETATM    7  C   UNL     1      -8.313   6.742  65.650  1.00  0.00    -0.147 C  
HETATM    8  C   UNL     1      -8.391   7.242  67.025  1.00  0.00    -0.118 A  
HETATM    9  O   UNL     1      -7.926   5.610  65.384  1.00  0.00    -0.101 OA 
HETATM   10  C   UNL     1      -8.783   8.536  67.256  1.00  0.00    -0.130 A  
HETATM   11  N   UNL     1      -9.111   9.371  66.263  1.00  0.00    -0.154 NA 
HETATM   12  N   UNL     1      -8.760   8.727  68.601  1.00  0.00    -0.134 NA 
HETATM   13  N   UNL     1      -8.124   6.615  68.224  1.00  0.00    -0.110 NA 
HETATM   14  C   UNL     1      -8.382   7.523  69.147  1.00  0.00    -0.135 A  
ENDROOT
BRANCH  12  15
HETATM   15  C   UNL     1      -9.087   9.921  69.353  1.00  0.00    -0.206 C  
BRANCH  15  16
HETATM   16  C   UNL     1      -8.021  11.020  69.293  1.00  0.00    -0.034 C  
HETATM   17  C   UNL     1      -8.039  11.955  68.060  1.00  0.00    -0.151 C  
HETATM   18  C   UNL     1      -9.327  12.784  67.937  1.00  0.00    -0.208 C  
HETATM   19  C   UNL     1      -6.821  12.891  68.136  1.00  0.00    -0.097 C  
HETATM   20  O   UNL     1     -10.461  11.949  67.727  1.00  0.00    -0.195 OA 
HETATM   21  O   UNL     1      -6.771  13.753  67.007  1.00  0.00    -0.398 OA 
HETATM   22  H   UNL     1     -11.257  12.462  67.651  1.00  0.00     0.000 HD 
HETATM   23  H   UNL     1      -6.018  14.331  67.054  1.00  0.00     0.000 HD 
ENDBRANCH  15  16
ENDBRANCH  12  15
TORSDOF 2
ENDMDL
MODEL      268
REMARK 921   NORMALIZED FREE ENERGY PREDICTED BY IDOCK:   -3.01 KCAL/MOL
REMARK 922        TOTAL FREE ENERGY PREDICTED BY IDOCK:   -3.56 KCAL/MOL
REMARK 923 INTER-LIGAND FREE ENERGY PREDICTED BY IDOCK:   -3.24 KCAL/MOL
REMARK 924 INTRA-LIGAND FREE ENERGY PREDICTED BY IDOCK:   -0.32 KCAL/MOL
REMARK 927      BINDING AFFINITY PREDICTED BY RF-SCORE:    0.00 PKD
ROOT
HETATM    1  N   UNL     1     -12.036  14.533  66.489  1.00  0.00    -0.365 NA 
HETATM    2  H1  UNL     1     -12.556  13.772  66.050  1.00  0.00     0.000 HD 
HETATM    3  C   UNL     1     -10.767  14.333  66.919  1.00  0.00    -0.290 C  
HETATM    4  H2  UNL     1     -12.475  15.447  66.605  1.00  0.00     0.000 HD 
HETATM    5  N   UNL     1     -10.105  15.302  67.479  1.00  0.00    -0.231 N  
HETATM    6  H   UNL     1     -10.546  16.213  67.611  1.00  0.00     0.000 HD 
HETATM    7  C   UNL     1      -8.784  15.096  67.903  1.00  0.00    -0.157 C  
HETATM    8  C   UNL     1      -8.236  13.768  67.617  1.00  0.00    -0.177 A  
HETATM    9  O   UNL     1      -8.134  15.967  68.470  1.00  0.00    -0.153 OA 
HETATM   10  C   UNL     1      -9.030  12.818  67.025  1.00  0.00    -0.221 A  
HETATM   11  N   UNL     1     -10.301  13.062  66.685  1.00  0.00    -0.256 NA 
HETATM   12  N   UNL     1      -8.276  11.697  66.884  1.00  0.00    -0.166 NA 
HETATM   13  N   UNL     1      -6.980  13.247  67.847  1.00  0.00    -0.118 NA 
HETATM   14  C   UNL     1      -7.030  12.017  67.371  1.00  0.00    -0.139 A  
ENDROOT
BRANCH  12  15
HETATM   15  C   UNL     1      -8.649  10.417  66.319  1.00  0.00    -0.142 C  
BRANCH  15  16
HETATM   16  C   UNL     1      -7.486   9.632  65.705  1.00  0.00    -0.100 C  
HETATM   17  C   UNL     1      -7.631   9.193  64.228  1.00  0.00    -0.115 C  
HETATM   18  C   UNL     1      -7.745  10.369  63.247  1.00  0.00    -0.090 C  
HETATM   19  C   UNL     1      -6.423   8.318  63.855  1.00  0.00    -0.071 C  
HETATM   20  O   UNL     1      -8.931  11.123  63.479  1.00  0.00    -0.367 OA 
HETATM   21  O   UNL     1      -6.521   7.859  62.514  1.00  0.00    -0.082 OA 
HETATM   22  H   UNL     1      -9.002  11.850  62.872  1.00  0.00     0.000 HD 
HETATM   23  H   UNL     1      -5.775   7.318  62.283  1.00  0.00     0.000 HD 
ENDBRANCH  15  16
ENDBRANCH  12  15
TORSDOF 2
ENDMDL
MODEL      269
REMARK 921   NORMALIZED FREE ENERGY PREDICTED BY IDOCK:   -2.96 KCAL/MOL
REMARK 922        TOTAL FREE ENERGY PREDICTED BY IDOCK:   -3.52 KCAL/MOL
REMARK 923 INTER-LIGAND FREE ENERGY PREDICTED BY IDOCK:   -3.28 KCAL/MOL
REMARK 924 INTRA-LIGAND FREE ENERGY PREDICTED BY IDOCK:   -0.23 KCAL/MOL
REMARK 927      BINDING AFFINITY PREDICTED BY RF-SCORE:    0.00 PKD
ROOT
HETATM    1  N   UNL     1     -11.095  13.493  69.718  1.00  0.00    -0.466 NA 
HETATM    2  H1  UNL     1     -11.858  13.024  70.206  1.00  0.00     0.000 HD 
HETATM    3  C   UNL     1     -10.084  12.770  69.177  1.00  0.00     0.335 C  
HETATM    4  H2  UNL     1     -11.093  14.510  69.637  1.00  0.00     0.000 HD 
HETATM    5  N   UNL     1      -9.111  13.368  68.555  1.00  0.00    -0.344 N  
HETATM    6  H   UNL     1      -9.099  14.386  68.486  1.00  0.00     0.000 HD 
HETATM    7  C   UNL     1      -8.079  12.614  67.978  1.00  0.00    -0.161 C  
HETATM    8  C   UNL     1      -8.227  11.161  68.093  1.00  0.00    -0.131 A  
HETATM    9  O   UNL     1      -7.122  13.134  67.416  1.00  0.00    -0.157 OA 
HETATM   10  C   UNL     1      -9.295  10.639  68.779  1.00  0.00    -0.180 A  
HETATM   11  N   UNL     1     -10.225  11.414  69.349  1.00  0.00     0.017 NA 
HETATM   12  N   UNL     1      -9.179   9.286  68.731  1.00  0.00    -0.135 NA 
HETATM   13  N   UNL     1      -7.439  10.138  67.610  1.00  0.00    -0.089 NA 
HETATM   14  C   UNL     1      -8.052   9.031  67.985  1.00  0.00    -0.105 A  
ENDROOT
BRANCH  12  15
HETATM   15  C   UNL     1     -10.049   8.280  69.304  1.00  0.00    -0.199 C  
BRANCH  15  16
HETATM   16  C   UNL     1      -9.827   8.026  70.798  1.00  0.00    -0.197 C  
HETATM   17  C   UNL     1     -10.741   6.981  71.482  1.00  0.00    -0.244 C  
HETATM   18  C   UNL     1     -10.582   5.563  70.913  1.00  0.00    -0.239 C  
HETATM   19  C   UNL     1     -10.439   6.975  72.989  1.00  0.00    -0.277 C  
HETATM   20  O   UNL     1     -10.986   5.504  69.549  1.00  0.00    -0.288 OA 
HETATM   21  O   UNL     1     -11.276   6.053  73.673  1.00  0.00    -0.422 OA 
HETATM   22  H   UNL     1     -10.889   4.628  69.197  1.00  0.00     0.000 HD 
HETATM   23  H   UNL     1     -11.089   6.049  74.604  1.00  0.00     0.000 HD 
ENDBRANCH  15  16
ENDBRANCH  12  15
TORSDOF 2
ENDMDL
MODEL      270
REMARK 921   NORMALIZED FREE ENERGY PREDICTED BY IDOCK:   -2.93 KCAL/MOL
REMARK 922        TOTAL FREE ENERGY PREDICTED BY IDOCK:   -3.47 KCAL/MOL
REMARK 923 INTER-LIGAND FREE ENERGY PREDICTED BY IDOCK:   -2.83 KCAL/MOL
REMARK 924 INTRA-LIGAND FREE ENERGY PREDICTED BY IDOCK:   -0.64 KCAL/MOL
REMARK 927      BINDING AFFINITY PREDICTED BY RF-SCORE:    0.00 PKD
ROOT
HETATM    1  N   UNL     1      -7.031   5.993  66.500  1.00  0.00    -0.065 NA 
HETATM    2  H1  UNL     1      -7.320   5.042  66.730  1.00  0.00     0.000 HD 
HETATM    3  C   UNL     1      -7.706   7.052  67.009  1.00  0.00    -0.107 C  
HETATM    4  H2  UNL     1      -6.232   6.147  65.884  1.00  0.00     0.000 HD 
HETATM    5  N   UNL     1      -7.338   8.265  66.716  1.00  0.00    -0.082 N  
HETATM    6  H   UNL     1      -6.549   8.421  66.088  1.00  0.00     0.000 HD 
HETATM    7  C   UNL     1      -8.026   9.358  67.264  1.00  0.00    -0.106 C  
HETATM    8  C   UNL     1      -9.106   9.015  68.191  1.00  0.00    -0.132 A  
HETATM    9  O   UNL     1      -7.741  10.517  66.986  1.00  0.00    -0.105 OA 
HETATM   10  C   UNL     1      -9.411   7.698  68.423  1.00  0.00    -0.150 A  
HETATM   11  N   UNL     1      -8.746   6.697  67.833  1.00  0.00    -0.117 NA 
HETATM   12  N   UNL     1     -10.441   7.674  69.308  1.00  0.00    -0.218 NA 
HETATM   13  N   UNL     1      -9.942   9.823  68.934  1.00  0.00    -0.168 NA 
HETATM   14  C   UNL     1     -10.708   8.989  69.611  1.00  0.00    -0.219 A  
ENDROOT
BRANCH  12  15
HETATM   15  C   UNL     1     -11.129   6.530  69.871  1.00  0.00    -0.371 C  
BRANCH  15  16
HETATM   16  C   UNL     1     -10.529   6.012  71.181  1.00  0.00    -0.284 C  
HETATM   17  C   UNL     1     -10.235   4.495  71.273  1.00  0.00    -0.167 C  
HETATM   18  C   UNL     1      -9.189   4.011  70.257  1.00  0.00    -0.140 C  
HETATM   19  C   UNL     1      -9.763   4.171  72.700  1.00  0.00    -0.144 C  
HETATM   20  O   UNL     1      -9.654   4.171  68.921  1.00  0.00    -0.167 OA 
HETATM   21  O   UNL     1      -9.508   2.782  72.849  1.00  0.00    -0.089 OA 
HETATM   22  H   UNL     1      -9.008   3.872  68.292  1.00  0.00     0.000 HD 
HETATM   23  H   UNL     1      -9.217   2.582  73.732  1.00  0.00     0.000 HD 
ENDBRANCH  15  16
ENDBRANCH  12  15
TORSDOF 2
ENDMDL
MODEL      271
REMARK 921   NORMALIZED FREE ENERGY PREDICTED BY IDOCK:   -2.93 KCAL/MOL
REMARK 922        TOTAL FREE ENERGY PREDICTED BY IDOCK:   -3.47 KCAL/MOL
REMARK 923 INTER-LIGAND FREE ENERGY PREDICTED BY IDOCK:   -3.25 KCAL/MOL
REMARK 924 INTRA-LIGAND FREE ENERGY PREDICTED BY IDOCK:   -0.22 KCAL/MOL
REMARK 927      BINDING AFFINITY PREDICTED BY RF-SCORE:    0.00 PKD
ROOT
HETATM    1  N   UNL     1     -11.259   4.035  64.434  1.00  0.00    -0.765 NA 
HETATM    2  H1  UNL     1     -11.927   4.803  64.496  1.00  0.00     0.000 HD 
HETATM    3  C   UNL     1     -10.168   4.013  65.238  1.00  0.00    -0.139 C  
HETATM    4  H2  UNL     1     -11.412   3.281  63.764  1.00  0.00     0.000 HD 
HETATM    5  N   UNL     1      -9.316   3.034  65.159  1.00  0.00    -0.182 N  
HETATM    6  H   UNL     1      -9.459   2.287  64.479  1.00  0.00     0.000 HD 
HETATM    7  C   UNL     1      -8.201   3.004  66.009  1.00  0.00    -0.091 C  
HETATM    8  C   UNL     1      -8.126   4.100  66.979  1.00  0.00    -0.100 A  
HETATM    9  O   UNL     1      -7.351   2.124  65.945  1.00  0.00    -0.062 OA 
HETATM   10  C   UNL     1      -9.081   5.085  66.968  1.00  0.00    -0.117 A  
HETATM   11  N   UNL     1     -10.099   5.081  66.099  1.00  0.00    -0.219 NA 
HETATM   12  N   UNL     1      -8.765   5.960  67.957  1.00  0.00    -0.112 NA 
HETATM   13  N   UNL     1      -7.208   4.352  67.978  1.00  0.00    -0.064 NA 
HETATM   14  C   UNL     1      -7.637   5.456  68.561  1.00  0.00    -0.083 A  
ENDROOT
BRANCH  12  15
HETATM   15  C   UNL     1      -9.456   7.170  68.353  1.00  0.00    -0.138 C  
BRANCH  15  16
HETATM   16  C   UNL     1      -8.542   8.381  68.564  1.00  0.00    -0.136 C  
HETATM   17  C   UNL     1      -9.014   9.733  67.977  1.00  0.00    -0.118 C  
HETATM   18  C   UNL     1     -10.329  10.243  68.589  1.00  0.00    -0.184 C  
HETATM   19  C   UNL     1      -7.903  10.775  68.188  1.00  0.00    -0.112 C  
HETATM   20  O   UNL     1     -11.410   9.366  68.293  1.00  0.00    -0.495 OA 
HETATM   21  O   UNL     1      -8.272  12.032  67.638  1.00  0.00    -0.138 OA 
HETATM   22  H   UNL     1     -12.223   9.680  68.671  1.00  0.00     0.000 HD 
HETATM   23  H   UNL     1      -7.585  12.676  67.768  1.00  0.00     0.000 HD 
ENDBRANCH  15  16
ENDBRANCH  12  15
TORSDOF 2
ENDMDL
MODEL      272
REMARK 921   NORMALIZED FREE ENERGY PREDICTED BY IDOCK:   -2.88 KCAL/MOL
REMARK 922        TOTAL FREE ENERGY PREDICTED BY IDOCK:   -3.42 KCAL/MOL
REMARK 923 INTER-LIGAND FREE ENERGY PREDICTED BY IDOCK:   -2.80 KCAL/MOL
REMARK 924 INTRA-LIGAND FREE ENERGY PREDICTED BY IDOCK:   -0.62 KCAL/MOL
REMARK 927      BINDING AFFINITY PREDICTED BY RF-SCORE:    0.00 PKD
ROOT
HETATM    1  N   UNL     1     -10.945   4.445  65.336  1.00  0.00    -0.826 NA 
HETATM    2  H1  UNL     1     -11.533   5.023  65.936  1.00  0.00     0.000 HD 
HETATM    3  C   UNL     1      -9.630   4.281  65.622  1.00  0.00    -0.189 C  
HETATM    4  H2  UNL     1     -11.348   3.988  64.517  1.00  0.00     0.000 HD 
HETATM    5  N   UNL     1      -8.881   3.543  64.856  1.00  0.00    -0.118 N  
HETATM    6  H   UNL     1      -9.278   3.099  64.028  1.00  0.00     0.000 HD 
HETATM    7  C   UNL     1      -7.526   3.359  65.169  1.00  0.00    -0.073 C  
HETATM    8  C   UNL     1      -7.078   4.000  66.407  1.00  0.00    -0.064 A  
HETATM    9  O   UNL     1      -6.772   2.705  64.458  1.00  0.00    -0.037 OA 
HETATM   10  C   UNL     1      -7.957   4.762  67.135  1.00  0.00    -0.102 A  
HETATM   11  N   UNL     1      -9.229   4.939  66.759  1.00  0.00    -0.118 NA 
HETATM   12  N   UNL     1      -7.280   5.232  68.215  1.00  0.00    -0.066 NA 
HETATM   13  N   UNL     1      -5.847   3.987  67.030  1.00  0.00    -0.022 NA 
HETATM   14  C   UNL     1      -6.012   4.710  68.122  1.00  0.00    -0.027 A  
ENDROOT
BRANCH  12  15
HETATM   15  C   UNL     1      -7.758   6.083  69.285  1.00  0.00    -0.095 C  
BRANCH  15  16
HETATM   16  C   UNL     1      -7.986   5.360  70.616  1.00  0.00    -0.105 C  
HETATM   17  C   UNL     1      -9.370   5.534  71.288  1.00  0.00    -0.176 C  
HETATM   18  C   UNL     1     -10.532   4.983  70.448  1.00  0.00    -0.167 C  
HETATM   19  C   UNL     1      -9.341   4.838  72.659  1.00  0.00    -0.130 C  
HETATM   20  O   UNL     1     -10.673   5.700  69.226  1.00  0.00    -0.291 OA 
HETATM   21  O   UNL     1     -10.581   4.995  73.335  1.00  0.00    -0.197 OA 
HETATM   22  H   UNL     1     -11.391   5.360  68.707  1.00  0.00     0.000 HD 
HETATM   23  H   UNL     1     -10.564   4.565  74.182  1.00  0.00     0.000 HD 
ENDBRANCH  15  16
ENDBRANCH  12  15
TORSDOF 2
ENDMDL
MODEL      273
REMARK 921   NORMALIZED FREE ENERGY PREDICTED BY IDOCK:   -2.87 KCAL/MOL
REMARK 922        TOTAL FREE ENERGY PREDICTED BY IDOCK:   -3.41 KCAL/MOL
REMARK 923 INTER-LIGAND FREE ENERGY PREDICTED BY IDOCK:   -3.19 KCAL/MOL
REMARK 924 INTRA-LIGAND FREE ENERGY PREDICTED BY IDOCK:   -0.22 KCAL/MOL
REMARK 927      BINDING AFFINITY PREDICTED BY RF-SCORE:    0.00 PKD
ROOT
HETATM    1  N   UNL     1      -5.899  10.510  64.638  1.00  0.00    -0.275 NA 
HETATM    2  H1  UNL     1      -5.123  10.145  65.190  1.00  0.00     0.000 HD 
HETATM    3  C   UNL     1      -7.176  10.197  64.965  1.00  0.00    -0.139 C  
HETATM    4  H2  UNL     1      -5.713  11.114  63.836  1.00  0.00     0.000 HD 
HETATM    5  N   UNL     1      -8.166  10.663  64.261  1.00  0.00    -0.347 N  
HETATM    6  H   UNL     1      -7.982  11.253  63.450  1.00  0.00     0.000 HD 
HETATM    7  C   UNL     1      -9.487  10.353  64.618  1.00  0.00    -0.280 C  
HETATM    8  C   UNL     1      -9.633   9.542  65.828  1.00  0.00    -0.270 A  
HETATM    9  O   UNL     1     -10.449  10.736  63.963  1.00  0.00    -0.358 OA 
HETATM   10  C   UNL     1      -8.516   9.100  66.490  1.00  0.00    -0.123 A  
HETATM   11  N   UNL     1      -7.278   9.391  66.073  1.00  0.00    -0.091 NA 
HETATM   12  N   UNL     1      -8.942   8.378  67.559  1.00  0.00    -0.134 NA 
HETATM   13  N   UNL     1     -10.766   9.101  66.481  1.00  0.00    -0.023 NA 
HETATM   14  C   UNL     1     -10.316   8.432  67.527  1.00  0.00    -0.265 A  
ENDROOT
BRANCH  12  15
HETATM   15  C   UNL     1      -8.156   7.698  68.567  1.00  0.00    -0.124 C  
BRANCH  15  16
HETATM   16  C   UNL     1      -8.742   7.767  69.981  1.00  0.00    -0.141 C  
HETATM   17  C   UNL     1      -8.977   6.425  70.715  1.00  0.00    -0.144 C  
HETATM   18  C   UNL     1      -7.687   5.629  70.967  1.00  0.00    -0.104 C  
HETATM   19  C   UNL     1      -9.681   6.712  72.051  1.00  0.00    -0.151 C  
HETATM   20  O   UNL     1      -7.080   5.228  69.743  1.00  0.00    -0.056 OA 
HETATM   21  O   UNL     1      -9.951   5.508  72.754  1.00  0.00    -0.166 OA 
HETATM   22  H   UNL     1      -6.282   4.736  69.899  1.00  0.00     0.000 HD 
HETATM   23  H   UNL     1     -10.387   5.685  73.580  1.00  0.00     0.000 HD 
ENDBRANCH  15  16
ENDBRANCH  12  15
TORSDOF 2
ENDMDL
MODEL      274
REMARK 921   NORMALIZED FREE ENERGY PREDICTED BY IDOCK:   -2.82 KCAL/MOL
REMARK 922        TOTAL FREE ENERGY PREDICTED BY IDOCK:   -3.35 KCAL/MOL
REMARK 923 INTER-LIGAND FREE ENERGY PREDICTED BY IDOCK:   -3.14 KCAL/MOL
REMARK 924 INTRA-LIGAND FREE ENERGY PREDICTED BY IDOCK:   -0.21 KCAL/MOL
REMARK 927      BINDING AFFINITY PREDICTED BY RF-SCORE:    0.00 PKD
ROOT
HETATM    1  N   UNL     1      -9.417   2.744  72.045  1.00  0.00    -0.115 NA 
HETATM    2  H1  UNL     1      -9.126   2.357  71.146  1.00  0.00     0.000 HD 
HETATM    3  C   UNL     1      -9.598   4.079  72.186  1.00  0.00    -0.149 C  
HETATM    4  H2  UNL     1      -9.572   2.122  72.839  1.00  0.00     0.000 HD 
HETATM    5  N   UNL     1      -9.970   4.572  73.332  1.00  0.00    -0.145 N  
HETATM    6  H   UNL     1     -10.110   3.954  74.131  1.00  0.00     0.000 HD 
HETATM    7  C   UNL     1     -10.177   5.952  73.467  1.00  0.00    -0.217 C  
HETATM    8  C   UNL     1      -9.997   6.734  72.241  1.00  0.00    -0.158 A  
HETATM    9  O   UNL     1     -10.489   6.467  74.535  1.00  0.00    -0.274 OA 
HETATM   10  C   UNL     1      -9.597   6.108  71.088  1.00  0.00    -0.175 A  
HETATM   11  N   UNL     1      -9.370   4.791  71.034  1.00  0.00    -0.140 NA 
HETATM   12  N   UNL     1      -9.507   7.062  70.125  1.00  0.00    -0.162 NA 
HETATM   13  N   UNL     1     -10.163   8.083  72.005  1.00  0.00    -0.209 NA 
HETATM   14  C   UNL     1      -9.889   8.240  70.723  1.00  0.00    -0.179 A  
ENDROOT
BRANCH  12  15
HETATM   15  C   UNL     1      -9.124   6.915  68.736  1.00  0.00    -0.133 C  
BRANCH  15  16
HETATM   16  C   UNL     1      -9.790   7.916  67.786  1.00  0.00    -0.204 C  
HETATM   17  C   UNL     1      -8.974   8.369  66.551  1.00  0.00    -0.190 C  
HETATM   18  C   UNL     1      -8.635   7.222  65.585  1.00  0.00    -0.109 C  
HETATM   19  C   UNL     1      -9.768   9.457  65.810  1.00  0.00    -0.284 C  
HETATM   20  O   UNL     1      -7.784   6.262  66.201  1.00  0.00    -0.091 OA 
HETATM   21  O   UNL     1      -9.048   9.933  64.681  1.00  0.00    -0.207 OA 
HETATM   22  H   UNL     1      -7.575   5.553  65.604  1.00  0.00     0.000 HD 
HETATM   23  H   UNL     1      -9.538  10.606  64.224  1.00  0.00     0.000 HD 
ENDBRANCH  15  16
ENDBRANCH  12  15
TORSDOF 2
ENDMDL
MODEL      275
REMARK 921   NORMALIZED FREE ENERGY PREDICTED BY IDOCK:   -2.72 KCAL/MOL
REMARK 922        TOTAL FREE ENERGY PREDICTED BY IDOCK:   -3.24 KCAL/MOL
REMARK 923 INTER-LIGAND FREE ENERGY PREDICTED BY IDOCK:   -3.02 KCAL/MOL
REMARK 924 INTRA-LIGAND FREE ENERGY PREDICTED BY IDOCK:   -0.22 KCAL/MOL
REMARK 927      BINDING AFFINITY PREDICTED BY RF-SCORE:    0.00 PKD
ROOT
HETATM    1  N   UNL     1     -12.240  12.771  67.844  1.00  0.00    -0.217 NA 
HETATM    2  H1  UNL     1     -12.878  11.980  67.755  1.00  0.00     0.000 HD 
HETATM    3  C   UNL     1     -10.910  12.599  67.649  1.00  0.00    -0.221 C  
HETATM    4  H2  UNL     1     -12.604  13.694  68.081  1.00  0.00     0.000 HD 
HETATM    5  N   UNL     1     -10.095  13.607  67.763  1.00  0.00    -0.237 N  
HETATM    6  H   UNL     1     -10.455  14.528  68.015  1.00  0.00     0.000 HD 
HETATM    7  C   UNL     1      -8.723  13.428  67.538  1.00  0.00    -0.205 C  
HETATM    8  C   UNL     1      -8.327  12.077  67.131  1.00  0.00    -0.181 A  
HETATM    9  O   UNL     1      -7.913  14.338  67.671  1.00  0.00    -0.151 OA 
HETATM   10  C   UNL     1      -9.273  11.087  67.050  1.00  0.00    -0.153 A  
HETATM   11  N   UNL     1     -10.564  11.310  67.322  1.00  0.00    -0.221 NA 
HETATM   12  N   UNL     1      -8.634   9.954  66.660  1.00  0.00    -0.124 NA 
HETATM   13  N   UNL     1      -7.091  11.569  66.790  1.00  0.00    -0.135 NA 
HETATM   14  C   UNL     1      -7.316  10.304  66.487  1.00  0.00    -0.113 A  
ENDROOT
BRANCH  12  15
HETATM   15  C   UNL     1      -9.185   8.634  66.431  1.00  0.00    -0.193 C  
BRANCH  15  16
HETATM   16  C   UNL     1      -8.479   7.511  67.196  1.00  0.00    -0.121 C  
HETATM   17  C   UNL     1      -8.588   6.081  66.613  1.00  0.00    -0.113 C  
HETATM   18  C   UNL     1      -7.953   5.936  65.221  1.00  0.00    -0.115 C  
HETATM   19  C   UNL     1      -7.924   5.099  67.593  1.00  0.00    -0.099 C  
HETATM   20  O   UNL     1      -8.635   6.732  64.258  1.00  0.00    -0.332 OA 
HETATM   21  O   UNL     1      -8.024   3.763  67.121  1.00  0.00    -0.090 OA 
HETATM   22  H   UNL     1      -8.243   6.643  63.397  1.00  0.00     0.000 HD 
HETATM   23  H   UNL     1      -7.614   3.156  67.727  1.00  0.00     0.000 HD 
ENDBRANCH  15  16
ENDBRANCH  12  15
TORSDOF 2
ENDMDL
MODEL      276
REMARK 921   NORMALIZED FREE ENERGY PREDICTED BY IDOCK:   -2.62 KCAL/MOL
REMARK 922        TOTAL FREE ENERGY PREDICTED BY IDOCK:   -3.13 KCAL/MOL
REMARK 923 INTER-LIGAND FREE ENERGY PREDICTED BY IDOCK:   -3.81 KCAL/MOL
REMARK 924 INTRA-LIGAND FREE ENERGY PREDICTED BY IDOCK:    0.67 KCAL/MOL
REMARK 927      BINDING AFFINITY PREDICTED BY RF-SCORE:    0.00 PKD
ROOT
HETATM    1  N   UNL     1     -11.271  15.608  69.430  1.00  0.00    -0.288 NA 
HETATM    2  H1  UNL     1     -10.647  15.626  70.237  1.00  0.00     0.000 HD 
HETATM    3  C   UNL     1     -10.989  14.818  68.366  1.00  0.00    -0.252 C  
HETATM    4  H2  UNL     1     -12.111  16.188  69.425  1.00  0.00     0.000 HD 
HETATM    5  N   UNL     1     -11.785  14.795  67.338  1.00  0.00    -0.375 N  
HETATM    6  H   UNL     1     -12.617  15.385  67.324  1.00  0.00     0.000 HD 
HETATM    7  C   UNL     1     -11.501  13.958  66.249  1.00  0.00    -0.339 C  
HETATM    8  C   UNL     1     -10.310  13.118  66.402  1.00  0.00    -0.287 A  
HETATM    9  O   UNL     1     -12.199  13.932  65.243  1.00  0.00    -0.386 OA 
HETATM   10  C   UNL     1      -9.539  13.229  67.530  1.00  0.00    -0.218 A  
HETATM   11  N   UNL     1      -9.839  14.082  68.517  1.00  0.00    -0.231 NA 
HETATM   12  N   UNL     1      -8.513  12.348  67.404  1.00  0.00    -0.170 NA 
HETATM   13  N   UNL     1      -9.773  12.163  65.564  1.00  0.00    -0.218 NA 
HETATM   14  C   UNL     1      -8.716  11.703  66.206  1.00  0.00    -0.136 A  
ENDROOT
BRANCH  12  15
HETATM   15  C   UNL     1      -7.426  12.083  68.323  1.00  0.00    -0.106 C  
BRANCH  15  16
HETATM   16  C   UNL     1      -7.071  10.601  68.475  1.00  0.00    -0.069 C  
HETATM   17  C   UNL     1      -6.790   9.805  67.177  1.00  0.00    -0.083 C  
HETATM   18  C   UNL     1      -5.575  10.322  66.392  1.00  0.00    -0.055 C  
HETATM   19  C   UNL     1      -6.583   8.326  67.543  1.00  0.00    -0.058 C  
HETATM   20  O   UNL     1      -5.791  11.647  65.918  1.00  0.00    -0.495 OA 
HETATM   21  O   UNL     1      -6.352   7.541  66.382  1.00  0.00    -0.043 OA 
HETATM   22  H   UNL     1      -5.040  11.967  65.433  1.00  0.00     0.000 HD 
HETATM   23  H   UNL     1      -6.225   6.627  66.608  1.00  0.00     0.000 HD 
ENDBRANCH  15  16
ENDBRANCH  12  15
TORSDOF 2
ENDMDL
MODEL      277
REMARK 921   NORMALIZED FREE ENERGY PREDICTED BY IDOCK:   -2.56 KCAL/MOL
REMARK 922        TOTAL FREE ENERGY PREDICTED BY IDOCK:   -3.06 KCAL/MOL
REMARK 923 INTER-LIGAND FREE ENERGY PREDICTED BY IDOCK:   -2.71 KCAL/MOL
REMARK 924 INTRA-LIGAND FREE ENERGY PREDICTED BY IDOCK:   -0.35 KCAL/MOL
REMARK 927      BINDING AFFINITY PREDICTED BY RF-SCORE:    0.00 PKD
ROOT
HETATM    1  N   UNL     1     -10.585  11.173  65.930  1.00  0.00    -0.255 NA 
HETATM    2  H1  UNL     1     -11.455  10.736  66.236  1.00  0.00     0.000 HD 
HETATM    3  C   UNL     1      -9.457  11.038  66.668  1.00  0.00    -0.184 C  
HETATM    4  H2  UNL     1     -10.565  11.713  65.064  1.00  0.00     0.000 HD 
HETATM    5  N   UNL     1      -8.348  11.595  66.278  1.00  0.00    -0.357 N  
HETATM    6  H   UNL     1      -8.330  12.149  65.421  1.00  0.00     0.000 HD 
HETATM    7  C   UNL     1      -7.178  11.433  67.034  1.00  0.00    -0.141 C  
HETATM    8  C   UNL     1      -7.311  10.576  68.214  1.00  0.00    -0.088 A  
HETATM    9  O   UNL     1      -6.120  11.970  66.727  1.00  0.00    -0.165 OA 
HETATM   10  C   UNL     1      -8.534  10.044  68.535  1.00  0.00    -0.115 A  
HETATM   11  N   UNL     1      -9.626  10.272  67.797  1.00  0.00    -0.151 NA 
HETATM   12  N   UNL     1      -8.367   9.305  69.662  1.00  0.00    -0.129 NA 
HETATM   13  N   UNL     1      -6.371  10.170  69.138  1.00  0.00    -0.044 NA 
HETATM   14  C   UNL     1      -7.030   9.389  69.973  1.00  0.00    -0.071 A  
ENDROOT
BRANCH  12  15
HETATM   15  C   UNL     1      -9.352   8.544  70.403  1.00  0.00    -0.164 C  
BRANCH  15  16
HETATM   16  C   UNL     1     -10.124   7.521  69.565  1.00  0.00    -0.189 C  
HETATM   17  C   UNL     1      -9.301   6.409  68.872  1.00  0.00    -0.130 C  
HETATM   18  C   UNL     1      -8.562   5.489  69.856  1.00  0.00    -0.120 C  
HETATM   19  C   UNL     1     -10.245   5.577  67.988  1.00  0.00    -0.181 C  
HETATM   20  O   UNL     1      -7.580   6.206  70.596  1.00  0.00    -0.088 OA 
HETATM   21  O   UNL     1      -9.532   4.557  67.302  1.00  0.00    -0.140 OA 
HETATM   22  H   UNL     1      -7.123   5.638  71.205  1.00  0.00     0.000 HD 
HETATM   23  H   UNL     1     -10.116   4.043  66.755  1.00  0.00     0.000 HD 
ENDBRANCH  15  16
ENDBRANCH  12  15
TORSDOF 2
ENDMDL
MODEL      278
REMARK 921   NORMALIZED FREE ENERGY PREDICTED BY IDOCK:   -2.54 KCAL/MOL
REMARK 922        TOTAL FREE ENERGY PREDICTED BY IDOCK:   -3.04 KCAL/MOL
REMARK 923 INTER-LIGAND FREE ENERGY PREDICTED BY IDOCK:   -2.65 KCAL/MOL
REMARK 924 INTRA-LIGAND FREE ENERGY PREDICTED BY IDOCK:   -0.39 KCAL/MOL
REMARK 927      BINDING AFFINITY PREDICTED BY RF-SCORE:    0.00 PKD
ROOT
HETATM    1  N   UNL     1      -7.602   8.036  73.455  1.00  0.00    -0.144 NA 
HETATM    2  H1  UNL     1      -8.358   8.690  73.659  1.00  0.00     0.000 HD 
HETATM    3  C   UNL     1      -7.410   7.589  72.190  1.00  0.00    -0.069 C  
HETATM    4  H2  UNL     1      -6.988   7.718  74.206  1.00  0.00     0.000 HD 
HETATM    5  N   UNL     1      -6.446   6.756  71.930  1.00  0.00    -0.049 N  
HETATM    6  H   UNL     1      -5.841   6.424  72.681  1.00  0.00     0.000 HD 
HETATM    7  C   UNL     1      -6.238   6.313  70.615  1.00  0.00    -0.039 C  
HETATM    8  C   UNL     1      -7.132   6.894  69.611  1.00  0.00    -0.068 A  
HETATM    9  O   UNL     1      -5.368   5.499  70.328  1.00  0.00    -0.004 OA 
HETATM   10  C   UNL     1      -8.120   7.762  70.002  1.00  0.00    -0.118 A  
HETATM   11  N   UNL     1      -8.298   8.111  71.281  1.00  0.00    -0.112 NA 
HETATM   12  N   UNL     1      -8.791   8.136  68.881  1.00  0.00    -0.141 NA 
HETATM   13  N   UNL     1      -7.177   6.723  68.243  1.00  0.00    -0.086 NA 
HETATM   14  C   UNL     1      -8.162   7.502  67.836  1.00  0.00    -0.123 A  
ENDROOT
BRANCH  12  15
HETATM   15  C   UNL     1      -9.919   9.036  68.757  1.00  0.00    -0.182 C  
BRANCH  15  16
HETATM   16  C   UNL     1     -10.036   9.721  67.392  1.00  0.00    -0.259 C  
HETATM   17  C   UNL     1      -9.992  11.268  67.370  1.00  0.00    -0.206 C  
HETATM   18  C   UNL     1      -8.665  11.850  67.881  1.00  0.00    -0.167 C  
HETATM   19  C   UNL     1     -10.252  11.747  65.932  1.00  0.00    -0.237 C  
HETATM   20  O   UNL     1      -8.459  11.539  69.255  1.00  0.00    -0.366 OA 
HETATM   21  O   UNL     1     -10.253  13.165  65.861  1.00  0.00    -0.282 OA 
HETATM   22  H   UNL     1      -7.639  11.899  69.572  1.00  0.00     0.000 HD 
HETATM   23  H   UNL     1     -10.414  13.461  64.972  1.00  0.00     0.000 HD 
ENDBRANCH  15  16
ENDBRANCH  12  15
TORSDOF 2
ENDMDL
MODEL      279
REMARK 921   NORMALIZED FREE ENERGY PREDICTED BY IDOCK:   -1.61 KCAL/MOL
REMARK 922        TOTAL FREE ENERGY PREDICTED BY IDOCK:   -2.00 KCAL/MOL
REMARK 923 INTER-LIGAND FREE ENERGY PREDICTED BY IDOCK:   -1.99 KCAL/MOL
REMARK 924 INTRA-LIGAND FREE ENERGY PREDICTED BY IDOCK:   -0.01 KCAL/MOL
REMARK 927      BINDING AFFINITY PREDICTED BY RF-SCORE:    0.00 PKD
ROOT
HETATM    1  N   UNL     1      -9.997  20.509  66.514  1.00  0.00    -0.584 NA 
HETATM    2  H1  UNL     1     -10.748  19.849  66.309  1.00  0.00     0.000 HD 
HETATM    3  C   UNL     1      -8.820  20.067  67.020  1.00  0.00    -0.347 C  
HETATM    4  H2  UNL     1     -10.133  21.504  66.338  1.00  0.00     0.000 HD 
HETATM    5  N   UNL     1      -7.863  20.909  67.282  1.00  0.00    -0.509 N  
HETATM    6  H   UNL     1      -8.003  21.906  67.121  1.00  0.00     0.000 HD 
HETATM    7  C   UNL     1      -6.639  20.444  67.784  1.00  0.00    -0.281 C  
HETATM    8  C   UNL     1      -6.533  18.990  67.925  1.00  0.00    -0.223 A  
HETATM    9  O   UNL     1      -5.723  21.202  68.082  1.00  0.00    -0.316 OA 
HETATM   10  C   UNL     1      -7.611  18.197  67.623  1.00  0.00    -0.219 A  
HETATM   11  N   UNL     1      -8.771  18.705  67.191  1.00  0.00    -0.269 NA 
HETATM   12  N   UNL     1      -7.237  16.910  67.847  1.00  0.00    -0.146 NA 
HETATM   13  N   UNL     1      -5.477  18.203  68.336  1.00  0.00    -0.161 NA 
HETATM   14  C   UNL     1      -5.924  16.964  68.250  1.00  0.00    -0.129 A  
ENDROOT
BRANCH  12  15
HETATM   15  C   UNL     1      -8.013  15.698  67.681  1.00  0.00    -0.153 C  
BRANCH  15  16
HETATM   16  C   UNL     1      -7.197  14.405  67.780  1.00  0.00    -0.188 C  
HETATM   17  C   UNL     1      -6.664  14.011  69.178  1.00  0.00    -0.112 C  
HETATM   18  C   UNL     1      -7.776  13.739  70.204  1.00  0.00     1.541 C  
HETATM   19  C   UNL     1      -5.775  12.765  69.032  1.00  0.00    -0.072 C  
HETATM   20  O   UNL     1      -8.536  14.914  70.466  1.00  0.00     0.265 OA 
HETATM   21  O   UNL     1      -5.232  12.377  70.286  1.00  0.00    -0.088 OA 
HETATM   22  H   UNL     1      -9.223  14.747  71.100  1.00  0.00     0.000 HD 
HETATM   23  H   UNL     1      -4.682  11.607  70.195  1.00  0.00     0.000 HD 
ENDBRANCH  15  16
ENDBRANCH  12  15
TORSDOF 2
ENDMDL
MODEL      280
REMARK 921   NORMALIZED FREE ENERGY PREDICTED BY IDOCK:   -0.56 KCAL/MOL
REMARK 922        TOTAL FREE ENERGY PREDICTED BY IDOCK:   -0.83 KCAL/MOL
REMARK 923 INTER-LIGAND FREE ENERGY PREDICTED BY IDOCK:   -1.11 KCAL/MOL
REMARK 924 INTRA-LIGAND FREE ENERGY PREDICTED BY IDOCK:    0.28 KCAL/MOL
REMARK 927      BINDING AFFINITY PREDICTED BY RF-SCORE:    0.00 PKD
ROOT
HETATM    1  N   UNL     1     -11.931  15.643  70.275  1.00  0.00    -0.360 NA 
HETATM    2  H1  UNL     1     -12.288  15.050  71.025  1.00  0.00     0.000 HD 
HETATM    3  C   UNL     1     -11.306  15.090  69.207  1.00  0.00    -0.296 C  
HETATM    4  H2  UNL     1     -12.047  16.656  70.329  1.00  0.00     0.000 HD 
HETATM    5  N   UNL     1     -10.852  15.846  68.250  1.00  0.00    -0.301 N  
HETATM    6  H   UNL     1     -10.952  16.860  68.310  1.00  0.00     0.000 HD 
HETATM    7  C   UNL     1     -10.225  15.267  67.137  1.00  0.00    -0.252 C  
HETATM    8  C   UNL     1     -10.185  13.803  67.134  1.00  0.00    -0.244 A  
HETATM    9  O   UNL     1      -9.747  15.940  66.231  1.00  0.00    -0.262 OA 
HETATM   10  C   UNL     1     -10.691  13.106  68.202  1.00  0.00    -0.242 A  
HETATM   11  N   UNL     1     -11.237  13.719  69.259  1.00  0.00    -0.255 NA 
HETATM   12  N   UNL     1     -10.520  11.785  67.937  1.00  0.00    -0.191 NA 
HETATM   13  N   UNL     1      -9.697  12.921  66.193  1.00  0.00    -0.266 NA 
HETATM   14  C   UNL     1      -9.939  11.723  66.692  1.00  0.00    -0.200 A  
ENDROOT
BRANCH  12  15
HETATM   15  C   UNL     1     -10.884  10.642  68.748  1.00  0.00    -0.229 C  
BRANCH  15  16
HETATM   16  C   UNL     1     -11.100  10.960  70.231  1.00  0.00    -0.173 C  
HETATM   17  C   UNL     1     -12.563  11.048  70.729  1.00  0.00    -0.463 C  
HETATM   18  C   UNL     1     -13.337   9.728  70.593  1.00  0.00     0.027 C  
HETATM   19  C   UNL     1     -12.555  11.498  72.199  1.00  0.00     0.427 C  
HETATM   20  O   UNL     1     -13.482   9.352  69.227  1.00  0.00     2.438 OA 
HETATM   21  O   UNL     1     -13.878  11.626  72.700  1.00  0.00    -0.268 OA 
HETATM   22  H   UNL     1     -13.961   8.536  69.143  1.00  0.00     0.000 HD 
HETATM   23  H   UNL     1     -13.873  11.905  73.608  1.00  0.00     0.000 HD 
ENDBRANCH  15  16
ENDBRANCH  12  15
TORSDOF 2
ENDMDL
MODEL      281
REMARK 921   NORMALIZED FREE ENERGY PREDICTED BY IDOCK:    0.44 KCAL/MOL
REMARK 922        TOTAL FREE ENERGY PREDICTED BY IDOCK:    0.28 KCAL/MOL
REMARK 923 INTER-LIGAND FREE ENERGY PREDICTED BY IDOCK:    0.52 KCAL/MOL
REMARK 924 INTRA-LIGAND FREE ENERGY PREDICTED BY IDOCK:   -0.24 KCAL/MOL
REMARK 927      BINDING AFFINITY PREDICTED BY RF-SCORE:    0.00 PKD
ROOT
HETATM    1  N   UNL     1     -10.649  15.108  72.485  1.00  0.00     0.773 NA 
HETATM    2  H1  UNL     1      -9.830  14.554  72.738  1.00  0.00     0.000 HD 
HETATM    3  C   UNL     1     -11.138  15.065  71.222  1.00  0.00    -0.133 C  
HETATM    4  H2  UNL     1     -11.100  15.697  73.186  1.00  0.00     0.000 HD 
HETATM    5  N   UNL     1     -12.181  15.772  70.900  1.00  0.00    -0.412 N  
HETATM    6  H   UNL     1     -12.625  16.374  71.594  1.00  0.00     0.000 HD 
HETATM    7  C   UNL     1     -12.697  15.707  69.597  1.00  0.00     0.203 C  
HETATM    8  C   UNL     1     -12.013  14.772  68.701  1.00  0.00    -0.257 A  
HETATM    9  O   UNL     1     -13.653  16.383  69.236  1.00  0.00     2.387 OA 
HETATM   10  C   UNL     1     -10.915  14.080  69.148  1.00  0.00    -0.230 A  
HETATM   11  N   UNL     1     -10.442  14.221  70.391  1.00  0.00     0.683 NA 
HETATM   12  N   UNL     1     -10.486  13.302  68.121  1.00  0.00    -0.238 NA 
HETATM   13  N   UNL     1     -12.278  14.427  67.391  1.00  0.00    -0.306 NA 
HETATM   14  C   UNL     1     -11.364  13.526  67.086  1.00  0.00    -0.321 A  
ENDROOT
BRANCH  12  15
HETATM   15  C   UNL     1      -9.364  12.388  68.082  1.00  0.00    -0.209 C  
BRANCH  15  16
HETATM   16  C   UNL     1      -9.704  10.989  67.559  1.00  0.00    -0.190 C  
HETATM   17  C   UNL     1      -9.215  10.629  66.135  1.00  0.00    -0.196 C  
HETATM   18  C   UNL     1      -7.685  10.636  65.992  1.00  0.00    -0.151 C  
HETATM   19  C   UNL     1      -9.767   9.243  65.762  1.00  0.00    -0.269 C  
HETATM   20  O   UNL     1      -7.153  11.940  66.197  1.00  0.00    -0.261 OA 
HETATM   21  O   UNL     1      -9.373   8.875  64.447  1.00  0.00    -0.349 OA 
HETATM   22  H   UNL     1      -6.207  11.945  66.109  1.00  0.00     0.000 HD 
HETATM   23  H   UNL     1      -9.715   8.019  64.216  1.00  0.00     0.000 HD 
ENDBRANCH  15  16
ENDBRANCH  12  15
TORSDOF 2
ENDMDL
MODEL      282
REMARK 921   NORMALIZED FREE ENERGY PREDICTED BY IDOCK:    8.02 KCAL/MOL
REMARK 922        TOTAL FREE ENERGY PREDICTED BY IDOCK:    8.76 KCAL/MOL
REMARK 923 INTER-LIGAND FREE ENERGY PREDICTED BY IDOCK:   -1.64 KCAL/MOL
REMARK 924 INTRA-LIGAND FREE ENERGY PREDICTED BY IDOCK:   10.40 KCAL/MOL
REMARK 927      BINDING AFFINITY PREDICTED BY RF-SCORE:    0.00 PKD
ROOT
HETATM    1  N   UNL     1      -8.364  11.024  65.381  1.00  0.00    -0.363 NA 
HETATM    2  H1  UNL     1      -7.423  10.851  65.026  1.00  0.00     0.000 HD 
HETATM    3  C   UNL     1      -8.923  10.173  66.275  1.00  0.00    -0.148 C  
HETATM    4  H2  UNL     1      -8.885  11.841  65.061  1.00  0.00     0.000 HD 
HETATM    5  N   UNL     1     -10.122  10.393  66.727  1.00  0.00    -0.206 N  
HETATM    6  H   UNL     1     -10.652  11.201  66.397  1.00  0.00     0.000 HD 
HETATM    7  C   UNL     1     -10.688   9.522  67.669  1.00  0.00    -0.250 C  
HETATM    8  C   UNL     1      -9.818   8.428  68.109  1.00  0.00    -0.169 A  
HETATM    9  O   UNL     1     -11.828   9.667  68.094  1.00  0.00     0.532 OA 
HETATM   10  C   UNL     1      -8.569   8.289  67.559  1.00  0.00    -0.129 A  
HETATM   11  N   UNL     1      -8.103   9.129  66.627  1.00  0.00    -0.110 NA 
HETATM   12  N   UNL     1      -7.993   7.205  68.141  1.00  0.00    -0.118 NA 
HETATM   13  N   UNL     1     -10.029   7.434  69.042  1.00  0.00    -0.171 NA 
HETATM   14  C   UNL     1      -8.908   6.738  69.055  1.00  0.00    -0.129 A  
ENDROOT
BRANCH  12  15
HETATM   15  C   UNL     1      -6.682   6.637  67.904  1.00  0.00    -0.071 C  
BRANCH  15  16
HETATM   16  C   UNL     1      -6.006   6.063  69.153  1.00  0.00    -0.024 C  
HETATM   17  C   UNL     1      -6.099   6.897  70.454  1.00  0.00    -0.024 C  
HETATM   18  C   UNL     1      -7.538   7.088  70.958  1.00  0.00    -0.086 C  
HETATM   19  C   UNL     1      -5.254   6.210  71.540  1.00  0.00    -0.021 C  
HETATM   20  O   UNL     1      -8.313   7.844  70.032  1.00  0.00    -0.118 OA 
HETATM   21  O   UNL     1      -5.279   6.953  72.751  1.00  0.00    -0.036 OA 
HETATM   22  H   UNL     1      -9.203   7.962  70.343  1.00  0.00     0.000 HD 
HETATM   23  H   UNL     1      -4.757   6.528  73.421  1.00  0.00     0.000 HD 
ENDBRANCH  15  16
ENDBRANCH  12  15
TORSDOF 2
ENDMDL
MODEL      283
REMARK 921   NORMALIZED FREE ENERGY PREDICTED BY IDOCK:   25.48 KCAL/MOL
REMARK 922        TOTAL FREE ENERGY PREDICTED BY IDOCK:   28.26 KCAL/MOL
REMARK 923 INTER-LIGAND FREE ENERGY PREDICTED BY IDOCK:   28.52 KCAL/MOL
REMARK 924 INTRA-LIGAND FREE ENERGY PREDICTED BY IDOCK:   -0.26 KCAL/MOL
REMARK 927      BINDING AFFINITY PREDICTED BY RF-SCORE:    0.00 PKD
ROOT
HETATM    1  N   UNL     1     -10.338  13.168  73.105  1.00  0.00    11.375 NA 
HETATM    2  H1  UNL     1      -9.324  13.207  73.005  1.00  0.00     0.000 HD 
HETATM    3  C   UNL     1     -11.061  12.270  72.392  1.00  0.00     9.040 C  
HETATM    4  H2  UNL     1     -10.811  13.808  73.744  1.00  0.00     0.000 HD 
HETATM    5  N   UNL     1     -12.354  12.221  72.520  1.00  0.00     1.504 N  
HETATM    6  H   UNL     1     -12.830  12.871  73.146  1.00  0.00     0.000 HD 
HETATM    7  C   UNL     1     -13.095  11.275  71.796  1.00  0.00    -0.422 C  
HETATM    8  C   UNL     1     -12.303  10.362  70.969  1.00  0.00    -0.387 A  
HETATM    9  O   UNL     1     -14.318  11.217  71.854  1.00  0.00     0.939 OA 
HETATM   10  C   UNL     1     -10.940  10.509  70.906  1.00  0.00     0.309 A  
HETATM   11  N   UNL     1     -10.294  11.464  71.586  1.00  0.00     6.246 NA 
HETATM   12  N   UNL     1     -10.470   9.544  70.074  1.00  0.00    -0.228 NA 
HETATM   13  N   UNL     1     -12.692   9.300  70.179  1.00  0.00     0.649 NA 
HETATM   14  C   UNL     1     -11.570   8.816  69.682  1.00  0.00     0.445 A  
ENDROOT
BRANCH  12  15
HETATM   15  C   UNL     1      -9.104   9.275  69.676  1.00  0.00    -0.167 C  
BRANCH  15  16
HETATM   16  C   UNL     1      -8.934   8.917  68.196  1.00  0.00    -0.137 C  
HETATM   17  C   UNL     1      -8.381  10.019  67.261  1.00  0.00    -0.121 C  
HETATM   18  C   UNL     1      -6.957  10.472  67.622  1.00  0.00    -0.079 C  
HETATM   19  C   UNL     1      -8.411   9.497  65.815  1.00  0.00    -0.128 C  
HETATM   20  O   UNL     1      -6.921  11.088  68.905  1.00  0.00    -0.073 OA 
HETATM   21  O   UNL     1      -7.941  10.484  64.907  1.00  0.00    -0.245 OA 
HETATM   22  H   UNL     1      -6.041  11.368  69.128  1.00  0.00     0.000 HD 
HETATM   23  H   UNL     1      -7.960  10.162  64.014  1.00  0.00     0.000 HD 
ENDBRANCH  15  16
ENDBRANCH  12  15
TORSDOF 2
ENDMDL
MODEL      284
REMARK 921   NORMALIZED FREE ENERGY PREDICTED BY IDOCK:   25.63 KCAL/MOL
REMARK 922        TOTAL FREE ENERGY PREDICTED BY IDOCK:   28.43 KCAL/MOL
REMARK 923 INTER-LIGAND FREE ENERGY PREDICTED BY IDOCK:   28.65 KCAL/MOL
REMARK 924 INTRA-LIGAND FREE ENERGY PREDICTED BY IDOCK:   -0.23 KCAL/MOL
REMARK 927      BINDING AFFINITY PREDICTED BY RF-SCORE:    0.00 PKD
ROOT
HETATM    1  N   UNL     1     -10.338  13.168  73.105  1.00  0.00    11.375 NA 
HETATM    2  H1  UNL     1      -9.324  13.201  73.001  1.00  0.00     0.000 HD 
HETATM    3  C   UNL     1     -11.069  12.272  72.398  1.00  0.00     9.040 C  
HETATM    4  H2  UNL     1     -10.805  13.813  73.744  1.00  0.00     0.000 HD 
HETATM    5  N   UNL     1     -12.362  12.230  72.531  1.00  0.00     1.504 N  
HETATM    6  H   UNL     1     -12.832  12.885  73.157  1.00  0.00     0.000 HD 
HETATM    7  C   UNL     1     -13.110  11.286  71.813  1.00  0.00    -0.422 C  
HETATM    8  C   UNL     1     -12.327  10.366  70.986  1.00  0.00    -0.387 A  
HETATM    9  O   UNL     1     -14.333  11.235  71.876  1.00  0.00     0.979 OA 
HETATM   10  C   UNL     1     -10.964  10.506  70.916  1.00  0.00     0.309 A  
HETATM   11  N   UNL     1     -10.310  11.459  71.591  1.00  0.00     6.246 NA 
HETATM   12  N   UNL     1     -10.503   9.536  70.086  1.00  0.00    -0.234 NA 
HETATM   13  N   UNL     1     -12.726   9.304  70.201  1.00  0.00     0.649 NA 
HETATM   14  C   UNL     1     -11.607   8.813  69.700  1.00  0.00     0.445 A  
ENDROOT
BRANCH  12  15
HETATM   15  C   UNL     1      -9.139   9.258  69.682  1.00  0.00    -0.167 C  
BRANCH  15  16
HETATM   16  C   UNL     1      -8.783   7.769  69.635  1.00  0.00    -0.135 C  
HETATM   17  C   UNL     1      -8.721   7.101  68.241  1.00  0.00    -0.128 C  
HETATM   18  C   UNL     1      -7.639   7.695  67.324  1.00  0.00    -0.108 C  
HETATM   19  C   UNL     1      -8.476   5.595  68.428  1.00  0.00    -0.105 C  
HETATM   20  O   UNL     1      -7.911   9.058  67.019  1.00  0.00    -0.101 OA 
HETATM   21  O   UNL     1      -8.441   4.925  67.176  1.00  0.00    -0.107 OA 
HETATM   22  H   UNL     1      -7.243   9.425  66.452  1.00  0.00     0.000 HD 
HETATM   23  H   UNL     1      -8.290   3.994  67.292  1.00  0.00     0.000 HD 
ENDBRANCH  15  16
ENDBRANCH  12  15
TORSDOF 2
ENDMDL
