MODEL        1
REMARK 921   NORMALIZED FREE ENERGY PREDICTED BY IDOCK:   -7.61 KCAL/MOL
REMARK 922        TOTAL FREE ENERGY PREDICTED BY IDOCK:  -12.38 KCAL/MOL
REMARK 923 INTER-LIGAND FREE ENERGY PREDICTED BY IDOCK:  -10.28 KCAL/MOL
REMARK 924 INTRA-LIGAND FREE ENERGY PREDICTED BY IDOCK:   -2.10 KCAL/MOL
REMARK 927      BINDING AFFINITY PREDICTED BY RF-SCORE:    0.00 PKD
ROOT
HETATM    1  O   UNL     1     -13.207  10.776  72.315  1.00  0.00    -0.605 OA 
HETATM    2  H   UNL     1     -12.819  10.040  72.772  1.00  0.00     0.000 HD 
HETATM    3  C   UNL     1     -12.288  11.231  71.326  1.00  0.00    -0.270 C  
HETATM    4  C   UNL     1     -12.909  12.408  70.595  1.00  0.00     0.069 C  
HETATM    5  O   UNL     1     -12.030  12.901  69.608  1.00  0.00    -0.313 OA 
HETATM    6  C   UNL     1     -11.748  11.971  68.580  1.00  0.00    -0.326 C  
HETATM    7  C   UNL     1     -11.128  10.661  69.122  1.00  0.00    -0.255 C  
HETATM    8  C   UNL     1     -11.899  10.110  70.348  1.00  0.00    -0.288 C  
ENDROOT
BRANCH   6   9
HETATM    9  O   UNL     1     -10.809  12.571  67.682  1.00  0.00    -0.215 OA 
BRANCH   9  10
HETATM   10  C   UNL     1     -11.281  13.747  67.012  1.00  0.00    -0.311 C  
HETATM   11  H   UNL     1     -10.982  17.108  63.725  1.00  0.00     0.000 HD 
HETATM   12  C   UNL     1     -10.084  14.710  66.786  1.00  0.00    -0.265 C  
HETATM   13  C   UNL     1     -11.956  13.434  65.667  1.00  0.00    -0.401 C  
HETATM   14  C   UNL     1     -10.505  15.910  65.915  1.00  0.00    -0.359 C  
HETATM   15  O   UNL     1     -11.730  16.567  63.950  1.00  0.00    -1.148 OA 
HETATM   16  O   UNL     1     -12.349  14.624  64.988  1.00  0.00    -0.370 OA 
HETATM   17  C   UNL     1     -11.232  15.432  64.651  1.00  0.00    -0.364 C  
BRANCH  14  18
HETATM   18  O   UNL     1      -9.482  16.874  65.683  1.00  0.00    -0.524 OA 
HETATM   19  S   UNL     1      -9.509  18.381  66.280  1.00  0.00    -0.179 S  
HETATM   20  O   UNL     1     -10.767  18.990  65.920  1.00  0.00    -0.454 OA 
HETATM   21  O   UNL     1      -9.499  18.176  67.873  1.00  0.00    -0.270 OA 
HETATM   22  O   UNL     1      -8.241  18.991  65.951  1.00  0.00    -0.465 OA 
ENDBRANCH  14  18
BRANCH  12  23
HETATM   23  O   UNL     1      -9.445  15.105  68.010  1.00  0.00    -0.196 OA 
HETATM   24  S   UNL     1      -7.876  14.811  68.301  1.00  0.00    -0.134 S  
HETATM   25  O   UNL     1      -7.713  13.388  68.488  1.00  0.00    -0.131 OA 
HETATM   26  O   UNL     1      -7.679  15.470  69.756  1.00  0.00    -0.182 OA 
HETATM   27  O   UNL     1      -7.058  15.548  67.372  1.00  0.00    -0.175 OA 
ENDBRANCH  12  23
ENDBRANCH   9  10
ENDBRANCH   6   9
BRANCH   7  28
HETATM   28  O   UNL     1     -11.144   9.643  68.106  1.00  0.00    -0.176 OA 
HETATM   29  O   UNL     1      -9.293   9.959  66.471  1.00  0.00    -0.153 OA 
HETATM   30  O   UNL     1     -10.205   7.729  66.798  1.00  0.00    -0.273 OA 
HETATM   31  S   UNL     1      -9.726   9.077  67.531  1.00  0.00    -0.171 S  
HETATM   32  O   UNL     1      -8.885   8.701  68.640  1.00  0.00    -0.140 OA 
ENDBRANCH   7  28
BRANCH   8  33
HETATM   33  O   UNL     1     -11.027   9.165  70.993  1.00  0.00    -0.254 OA 
HETATM   34  S   UNL     1     -11.608   7.763  71.573  1.00  0.00    -0.280 S  
HETATM   35  O   UNL     1     -12.160   7.990  72.886  1.00  0.00    -0.247 OA 
HETATM   36  O   UNL     1     -12.332   7.092  70.516  1.00  0.00    -0.267 OA 
HETATM   37  O   UNL     1     -10.254   6.948  71.862  1.00  0.00    -0.189 OA 
ENDBRANCH   8  33
TORSDOF 6
ENDMDL
MODEL        2
REMARK 921   NORMALIZED FREE ENERGY PREDICTED BY IDOCK:   -7.33 KCAL/MOL
REMARK 922        TOTAL FREE ENERGY PREDICTED BY IDOCK:  -12.00 KCAL/MOL
REMARK 923 INTER-LIGAND FREE ENERGY PREDICTED BY IDOCK:   -9.88 KCAL/MOL
REMARK 924 INTRA-LIGAND FREE ENERGY PREDICTED BY IDOCK:   -2.12 KCAL/MOL
REMARK 927      BINDING AFFINITY PREDICTED BY RF-SCORE:    0.00 PKD
ROOT
HETATM    1  O   UNL     1     -12.528  15.992  63.797  1.00  0.00    -1.025 OA 
HETATM    2  H   UNL     1     -11.972  16.753  63.681  1.00  0.00     0.000 HD 
HETATM    3  C   UNL     1     -11.762  14.961  64.415  1.00  0.00    -0.328 C  
HETATM    4  C   UNL     1     -12.651  13.745  64.602  1.00  0.00    -0.246 C  
HETATM    5  O   UNL     1     -11.933  12.690  65.204  1.00  0.00    -0.380 OA 
HETATM    6  C   UNL     1     -11.476  12.984  66.509  1.00  0.00    -0.340 C  
HETATM    7  C   UNL     1     -10.563  14.233  66.550  1.00  0.00    -0.286 C  
HETATM    8  C   UNL     1     -11.157  15.421  65.752  1.00  0.00    -0.260 C  
ENDROOT
BRANCH   6   9
HETATM    9  O   UNL     1     -10.720  11.864  66.980  1.00  0.00    -0.223 OA 
BRANCH   9  10
HETATM   10  C   UNL     1     -11.362  11.089  68.001  1.00  0.00    -0.306 C  
HETATM   11  H   UNL     1     -11.415   8.778  72.106  1.00  0.00     0.000 HD 
HETATM   12  C   UNL     1     -10.419   9.926  68.415  1.00  0.00    -0.208 C  
HETATM   13  C   UNL     1     -11.733  11.923  69.237  1.00  0.00    -0.328 C  
HETATM   14  C   UNL     1     -10.989   9.168  69.631  1.00  0.00    -0.153 C  
HETATM   15  O   UNL     1     -12.032   9.426  71.784  1.00  0.00    -0.360 OA 
HETATM   16  O   UNL     1     -12.301  11.115  70.265  1.00  0.00    -0.309 OA 
HETATM   17  C   UNL     1     -11.380  10.148  70.745  1.00  0.00    -0.354 C  
BRANCH  14  18
HETATM   18  O   UNL     1     -10.211   8.055  70.064  1.00  0.00    -0.197 OA 
HETATM   19  S   UNL     1     -10.730   6.520  70.024  1.00  0.00    -0.277 S  
HETATM   20  O   UNL     1     -12.002   6.452  70.704  1.00  0.00    -0.340 OA 
HETATM   21  O   UNL     1     -10.990   6.232  68.465  1.00  0.00    -0.302 OA 
HETATM   22  O   UNL     1      -9.613   5.684  70.400  1.00  0.00    -0.160 OA 
ENDBRANCH  14  18
BRANCH  12  23
HETATM   23  O   UNL     1     -10.086   9.059  67.321  1.00  0.00    -0.197 OA 
HETATM   24  S   UNL     1      -8.552   8.795  66.861  1.00  0.00    -0.116 S  
HETATM   25  O   UNL     1      -8.049  10.010  66.261  1.00  0.00    -0.113 OA 
HETATM   26  O   UNL     1      -8.743   7.753  65.650  1.00  0.00    -0.154 OA 
HETATM   27  O   UNL     1      -7.834   8.121  67.912  1.00  0.00    -0.117 OA 
ENDBRANCH  12  23
ENDBRANCH   9  10
ENDBRANCH   6   9
BRANCH   7  28
HETATM   28  O   UNL     1     -10.377  14.672  67.907  1.00  0.00    -0.234 OA 
HETATM   29  O   UNL     1      -8.529  13.431  69.020  1.00  0.00     0.147 OA 
HETATM   30  O   UNL     1      -9.097  15.657  69.817  1.00  0.00    -0.240 OA 
HETATM   31  S   UNL     1      -8.865  14.742  68.515  1.00  0.00    -0.180 S  
HETATM   32  O   UNL     1      -8.024  15.478  67.604  1.00  0.00    -0.132 OA 
ENDBRANCH   7  28
BRANCH   8  33
HETATM   33  O   UNL     1     -10.078  16.343  65.520  1.00  0.00    -0.508 OA 
HETATM   34  S   UNL     1     -10.196  17.893  65.995  1.00  0.00    -0.224 S  
HETATM   35  O   UNL     1     -10.909  18.639  64.989  1.00  0.00    -0.546 OA 
HETATM   36  O   UNL     1     -10.547  17.919  67.398  1.00  0.00    -0.386 OA 
HETATM   37  O   UNL     1      -8.678  18.394  65.839  1.00  0.00    -0.497 OA 
ENDBRANCH   8  33
TORSDOF 6
ENDMDL
MODEL        3
REMARK 921   NORMALIZED FREE ENERGY PREDICTED BY IDOCK:   -7.23 KCAL/MOL
REMARK 922        TOTAL FREE ENERGY PREDICTED BY IDOCK:  -11.87 KCAL/MOL
REMARK 923 INTER-LIGAND FREE ENERGY PREDICTED BY IDOCK:   -9.67 KCAL/MOL
REMARK 924 INTRA-LIGAND FREE ENERGY PREDICTED BY IDOCK:   -2.20 KCAL/MOL
REMARK 927      BINDING AFFINITY PREDICTED BY RF-SCORE:    0.00 PKD
ROOT
HETATM    1  O   UNL     1     -12.967   8.299  72.896  1.00  0.00    -0.613 OA 
HETATM    2  H   UNL     1     -12.452   8.023  73.643  1.00  0.00     0.000 HD 
HETATM    3  C   UNL     1     -12.192   9.213  72.124  1.00  0.00    -0.338 C  
HETATM    4  C   UNL     1     -13.017   9.654  70.928  1.00  0.00    -0.176 C  
HETATM    5  O   UNL     1     -12.293  10.570  70.135  1.00  0.00    -0.300 OA 
HETATM    6  C   UNL     1     -11.122  10.024  69.560  1.00  0.00    -0.238 C  
HETATM    7  C   UNL     1     -10.141   9.475  70.624  1.00  0.00    -0.286 C  
HETATM    8  C   UNL     1     -10.854   8.597  71.682  1.00  0.00    -0.304 C  
ENDROOT
BRANCH   6   9
HETATM    9  O   UNL     1     -10.457  11.062  68.834  1.00  0.00    -0.188 OA 
BRANCH   9  10
HETATM   10  C   UNL     1     -10.775  11.121  67.437  1.00  0.00    -0.250 C  
HETATM   11  H   UNL     1     -10.098  12.673  63.041  1.00  0.00     0.000 HD 
HETATM   12  C   UNL     1     -10.747  12.605  66.978  1.00  0.00    -0.245 C  
HETATM   13  C   UNL     1      -9.813  10.292  66.572  1.00  0.00    -0.212 C  
HETATM   14  C   UNL     1     -10.911  12.706  65.448  1.00  0.00    -0.287 C  
HETATM   15  O   UNL     1     -10.213  11.779  63.341  1.00  0.00    -0.392 OA 
HETATM   16  O   UNL     1     -10.105  10.428  65.184  1.00  0.00    -0.303 OA 
HETATM   17  C   UNL     1      -9.933  11.763  64.736  1.00  0.00    -0.243 C  
BRANCH  14  18
HETATM   18  O   UNL     1     -10.936  14.035  64.934  1.00  0.00    -0.350 OA 
HETATM   19  S   UNL     1     -12.233  14.705  64.230  1.00  0.00    -0.263 S  
HETATM   20  O   UNL     1     -12.687  13.825  63.180  1.00  0.00    -0.743 OA 
HETATM   21  O   UNL     1     -13.351  14.712  65.383  1.00  0.00    -0.320 OA 
HETATM   22  O   UNL     1     -11.913  16.092  63.982  1.00  0.00    -0.897 OA 
ENDBRANCH  14  18
BRANCH  12  23
HETATM   23  O   UNL     1     -11.677  13.430  67.697  1.00  0.00    -0.318 OA 
HETATM   24  S   UNL     1     -11.213  14.763  68.496  1.00  0.00    -0.291 S  
HETATM   25  O   UNL     1     -10.444  14.351  69.648  1.00  0.00    -0.093 OA 
HETATM   26  O   UNL     1     -12.612  15.307  69.075  1.00  0.00     0.043 OA 
HETATM   27  O   UNL     1     -10.711  15.743  67.567  1.00  0.00    -0.306 OA 
ENDBRANCH  12  23
ENDBRANCH   9  10
ENDBRANCH   6   9
BRANCH   7  28
HETATM   28  O   UNL     1      -9.129   8.666  70.000  1.00  0.00    -0.148 OA 
HETATM   29  O   UNL     1      -7.306  10.067  69.044  1.00  0.00    -0.074 OA 
HETATM   30  O   UNL     1      -6.813   7.774  69.686  1.00  0.00    -0.042 OA 
HETATM   31  S   UNL     1      -7.568   9.128  70.111  1.00  0.00    -0.110 S  
HETATM   32  O   UNL     1      -7.252   9.394  71.493  1.00  0.00    -0.325 OA 
ENDBRANCH   7  28
BRANCH   8  33
HETATM   33  O   UNL     1      -9.959   8.492  72.803  1.00  0.00    -0.258 OA 
HETATM   34  S   UNL     1      -9.537   7.038  73.393  1.00  0.00    -0.216 S  
HETATM   35  O   UNL     1     -10.559   6.585  74.303  1.00  0.00    -0.269 OA 
HETATM   36  O   UNL     1      -9.029   6.230  72.307  1.00  0.00    -0.137 OA 
HETATM   37  O   UNL     1      -8.311   7.425  74.357  1.00  0.00    -0.176 OA 
ENDBRANCH   8  33
TORSDOF 6
ENDMDL
MODEL        4
REMARK 921   NORMALIZED FREE ENERGY PREDICTED BY IDOCK:   -7.20 KCAL/MOL
REMARK 922        TOTAL FREE ENERGY PREDICTED BY IDOCK:  -11.83 KCAL/MOL
REMARK 923 INTER-LIGAND FREE ENERGY PREDICTED BY IDOCK:   -9.66 KCAL/MOL
REMARK 924 INTRA-LIGAND FREE ENERGY PREDICTED BY IDOCK:   -2.17 KCAL/MOL
REMARK 927      BINDING AFFINITY PREDICTED BY RF-SCORE:    0.00 PKD
ROOT
HETATM    1  O   UNL     1     -13.505   9.416  72.494  1.00  0.00    -0.590 OA 
HETATM    2  H   UNL     1     -13.169   8.597  72.836  1.00  0.00     0.000 HD 
HETATM    3  C   UNL     1     -12.455  10.082  71.799  1.00  0.00    -0.383 C  
HETATM    4  C   UNL     1     -12.992  11.392  71.253  1.00  0.00    -0.316 C  
HETATM    5  O   UNL     1     -11.983  12.095  70.561  1.00  0.00    -0.337 OA 
HETATM    6  C   UNL     1     -11.501  11.419  69.415  1.00  0.00    -0.310 C  
HETATM    7  C   UNL     1     -10.929  10.021  69.751  1.00  0.00    -0.276 C  
HETATM    8  C   UNL     1     -11.868   9.209  70.677  1.00  0.00    -0.175 C  
ENDROOT
BRANCH   6   9
HETATM    9  O   UNL     1     -10.451  12.205  68.843  1.00  0.00    -0.199 OA 
BRANCH   9  10
HETATM   10  C   UNL     1     -10.892  13.323  68.061  1.00  0.00    -0.243 C  
HETATM   11  H   UNL     1     -10.798  16.061  64.229  1.00  0.00     0.000 HD 
HETATM   12  C   UNL     1      -9.648  14.048  67.478  1.00  0.00    -0.228 C  
HETATM   13  C   UNL     1     -11.838  12.916  66.922  1.00  0.00    -0.379 C  
HETATM   14  C   UNL     1     -10.074  15.152  66.489  1.00  0.00    -0.269 C  
HETATM   15  O   UNL     1     -11.552  15.680  64.665  1.00  0.00    -0.363 OA 
HETATM   16  O   UNL     1     -12.201  14.035  66.116  1.00  0.00    -0.426 OA 
HETATM   17  C   UNL     1     -11.076  14.603  65.464  1.00  0.00    -0.345 C  
BRANCH  14  18
HETATM   18  O   UNL     1      -9.000  15.902  65.927  1.00  0.00    -0.323 OA 
HETATM   19  S   UNL     1      -8.749  17.476  66.220  1.00  0.00    -0.143 S  
HETATM   20  O   UNL     1      -9.971  18.192  65.941  1.00  0.00    -0.540 OA 
HETATM   21  O   UNL     1      -8.488  17.547  67.803  1.00  0.00    -0.219 OA 
HETATM   22  O   UNL     1      -7.494  17.829  65.597  1.00  0.00    -0.533 OA 
ENDBRANCH  14  18
BRANCH  12  23
HETATM   23  O   UNL     1      -8.749  14.522  68.492  1.00  0.00    -0.169 OA 
HETATM   24  S   UNL     1      -7.196  14.057  68.560  1.00  0.00    -0.117 S  
HETATM   25  O   UNL     1      -7.162  12.667  68.953  1.00  0.00    -0.101 OA 
HETATM   26  O   UNL     1      -6.656  14.885  69.829  1.00  0.00    -0.148 OA 
HETATM   27  O   UNL     1      -6.492  14.528  67.395  1.00  0.00    -0.309 OA 
ENDBRANCH  12  23
ENDBRANCH   9  10
ENDBRANCH   6   9
BRANCH   7  28
HETATM   28  O   UNL     1     -10.740   9.256  68.547  1.00  0.00    -0.209 OA 
HETATM   29  O   UNL     1      -8.640   9.906  67.378  1.00  0.00    -0.124 OA 
HETATM   30  O   UNL     1      -9.535   7.672  67.033  1.00  0.00    -0.146 OA 
HETATM   31  S   UNL     1      -9.228   8.815  68.120  1.00  0.00    -0.140 S  
HETATM   32  O   UNL     1      -8.584   8.189  69.249  1.00  0.00    -0.133 OA 
ENDBRANCH   7  28
BRANCH   8  33
HETATM   33  O   UNL     1     -11.078   8.144  71.235  1.00  0.00    -0.239 OA 
HETATM   34  S   UNL     1     -11.543   6.595  71.072  1.00  0.00    -0.360 S  
HETATM   35  O   UNL     1     -12.501   6.281  72.103  1.00  0.00    -0.291 OA 
HETATM   36  O   UNL     1     -11.772   6.328  69.670  1.00  0.00    -0.382 OA 
HETATM   37  O   UNL     1     -10.217   5.812  71.532  1.00  0.00    -0.190 OA 
ENDBRANCH   8  33
TORSDOF 6
ENDMDL
MODEL        5
REMARK 921   NORMALIZED FREE ENERGY PREDICTED BY IDOCK:   -7.07 KCAL/MOL
REMARK 922        TOTAL FREE ENERGY PREDICTED BY IDOCK:  -11.65 KCAL/MOL
REMARK 923 INTER-LIGAND FREE ENERGY PREDICTED BY IDOCK:   -9.49 KCAL/MOL
REMARK 924 INTRA-LIGAND FREE ENERGY PREDICTED BY IDOCK:   -2.15 KCAL/MOL
REMARK 927      BINDING AFFINITY PREDICTED BY RF-SCORE:    0.00 PKD
ROOT
HETATM    1  O   UNL     1     -12.545   9.407  71.346  1.00  0.00    -0.317 OA 
HETATM    2  H   UNL     1     -12.131   8.570  71.518  1.00  0.00     0.000 HD 
HETATM    3  C   UNL     1     -11.618  10.236  70.648  1.00  0.00    -0.347 C  
HETATM    4  C   UNL     1     -12.281  11.574  70.374  1.00  0.00    -0.355 C  
HETATM    5  O   UNL     1     -11.397  12.436  69.690  1.00  0.00    -0.217 OA 
HETATM    6  C   UNL     1     -11.024  11.970  68.408  1.00  0.00    -0.237 C  
HETATM    7  C   UNL     1     -10.349  10.578  68.459  1.00  0.00    -0.179 C  
HETATM    8  C   UNL     1     -11.130   9.578  69.348  1.00  0.00    -0.110 C  
ENDROOT
BRANCH   6   9
HETATM    9  O   UNL     1     -10.090  12.899  67.851  1.00  0.00    -0.219 OA 
BRANCH   9  10
HETATM   10  C   UNL     1     -10.679  14.048  67.229  1.00  0.00    -0.278 C  
HETATM   11  H   UNL     1     -10.911  17.350  63.877  1.00  0.00     0.000 HD 
HETATM   12  C   UNL     1      -9.551  15.039  66.833  1.00  0.00    -0.239 C  
HETATM   13  C   UNL     1     -11.515  13.691  65.990  1.00  0.00    -0.324 C  
HETATM   14  C   UNL     1     -10.117  16.209  66.005  1.00  0.00    -0.351 C  
HETATM   15  O   UNL     1     -11.607  16.793  64.207  1.00  0.00    -1.027 OA 
HETATM   16  O   UNL     1     -12.028  14.856  65.349  1.00  0.00    -0.262 OA 
HETATM   17  C   UNL     1     -10.989  15.687  64.855  1.00  0.00    -0.431 C  
BRANCH  14  18
HETATM   18  O   UNL     1      -9.161  17.195  65.625  1.00  0.00    -0.509 OA 
HETATM   19  S   UNL     1      -9.144  18.708  66.207  1.00  0.00    -0.150 S  
HETATM   20  O   UNL     1     -10.456  19.282  66.022  1.00  0.00    -0.465 OA 
HETATM   21  O   UNL     1      -8.908  18.522  67.785  1.00  0.00    -0.269 OA 
HETATM   22  O   UNL     1      -7.950  19.345  65.700  1.00  0.00    -0.427 OA 
ENDBRANCH  14  18
BRANCH  12  23
HETATM   23  O   UNL     1      -8.769  15.474  67.955  1.00  0.00    -0.161 OA 
HETATM   24  S   UNL     1      -7.180  15.169  68.075  1.00  0.00    -0.143 S  
HETATM   25  O   UNL     1      -7.012  13.752  68.303  1.00  0.00    -0.086 OA 
HETATM   26  O   UNL     1      -6.807  15.885  69.467  1.00  0.00    -0.187 OA 
HETATM   27  O   UNL     1      -6.468  15.852  67.025  1.00  0.00    -0.291 OA 
ENDBRANCH  12  23
ENDBRANCH   9  10
ENDBRANCH   6   9
BRANCH   7  28
HETATM   28  O   UNL     1     -10.269  10.013  67.138  1.00  0.00    -0.203 OA 
HETATM   29  O   UNL     1      -8.386  10.998  65.840  1.00  0.00    -0.164 OA 
HETATM   30  O   UNL     1      -9.172   8.770  65.266  1.00  0.00    -0.157 OA 
HETATM   31  S   UNL     1      -8.800   9.766  66.471  1.00  0.00    -0.140 S  
HETATM   32  O   UNL     1      -7.975   9.040  67.405  1.00  0.00    -0.099 OA 
ENDBRANCH   7  28
BRANCH   8  33
HETATM   33  O   UNL     1     -10.228   8.497  69.643  1.00  0.00    -0.198 OA 
HETATM   34  S   UNL     1     -10.676   6.954  69.398  1.00  0.00    -0.250 S  
HETATM   35  O   UNL     1     -11.429   6.497  70.539  1.00  0.00    -0.338 OA 
HETATM   36  O   UNL     1     -11.142   6.821  68.036  1.00  0.00    -0.227 OA 
HETATM   37  O   UNL     1      -9.271   6.186  69.535  1.00  0.00    -0.137 OA 
ENDBRANCH   8  33
TORSDOF 6
ENDMDL
MODEL        6
REMARK 921   NORMALIZED FREE ENERGY PREDICTED BY IDOCK:   -6.86 KCAL/MOL
REMARK 922        TOTAL FREE ENERGY PREDICTED BY IDOCK:  -11.37 KCAL/MOL
REMARK 923 INTER-LIGAND FREE ENERGY PREDICTED BY IDOCK:   -9.70 KCAL/MOL
REMARK 924 INTRA-LIGAND FREE ENERGY PREDICTED BY IDOCK:   -1.66 KCAL/MOL
REMARK 927      BINDING AFFINITY PREDICTED BY RF-SCORE:    0.00 PKD
ROOT
HETATM    1  O   UNL     1      -9.058   7.410  65.904  1.00  0.00    -0.320 OA 
HETATM    2  H   UNL     1      -9.125   6.509  66.197  1.00  0.00     0.000 HD 
HETATM    3  C   UNL     1     -10.078   8.171  66.546  1.00  0.00    -0.216 C  
HETATM    4  C   UNL     1      -9.971   9.611  66.077  1.00  0.00    -0.274 C  
HETATM    5  O   UNL     1     -10.970  10.407  66.679  1.00  0.00    -0.135 OA 
HETATM    6  C   UNL     1     -10.856  10.495  68.086  1.00  0.00    -0.253 C  
HETATM    7  C   UNL     1     -10.908   9.109  68.772  1.00  0.00    -0.060 C  
HETATM    8  C   UNL     1      -9.987   8.074  68.077  1.00  0.00    -0.179 C  
ENDROOT
BRANCH   6   9
HETATM    9  O   UNL     1     -11.952  11.275  68.573  1.00  0.00    -0.519 OA 
BRANCH   9  10
HETATM   10  C   UNL     1     -11.578  12.454  69.299  1.00  0.00    -0.319 C  
HETATM   11  H   UNL     1     -12.235  16.903  70.701  1.00  0.00     0.000 HD 
HETATM   12  C   UNL     1     -11.768  13.691  68.379  1.00  0.00    -0.358 C  
HETATM   13  C   UNL     1     -12.389  12.639  70.591  1.00  0.00    -0.290 C  
HETATM   14  C   UNL     1     -11.546  14.997  69.168  1.00  0.00    -0.310 C  
HETATM   15  O   UNL     1     -12.024  16.142  71.229  1.00  0.00    -0.427 OA 
HETATM   16  O   UNL     1     -12.050  13.855  71.254  1.00  0.00    -0.319 OA 
HETATM   17  C   UNL     1     -12.366  14.991  70.465  1.00  0.00    -0.356 C  
BRANCH  14  18
HETATM   18  O   UNL     1     -11.661  16.191  68.398  1.00  0.00    -0.355 OA 
HETATM   19  S   UNL     1     -10.418  17.179  68.073  1.00  0.00    -0.381 S  
HETATM   20  O   UNL     1      -9.775  17.526  69.319  1.00  0.00    -0.150 OA 
HETATM   21  O   UNL     1      -9.398  16.268  67.231  1.00  0.00    -0.220 OA 
HETATM   22  O   UNL     1     -10.902  18.183  67.155  1.00  0.00    -0.333 OA 
ENDBRANCH  14  18
BRANCH  12  23
HETATM   23  O   UNL     1     -10.982  13.621  67.179  1.00  0.00    -0.282 OA 
HETATM   24  S   UNL     1     -11.644  13.737  65.702  1.00  0.00    -0.343 S  
HETATM   25  O   UNL     1     -12.412  12.538  65.460  1.00  0.00    -0.646 OA 
HETATM   26  O   UNL     1     -10.351  13.632  64.750  1.00  0.00    -0.400 OA 
HETATM   27  O   UNL     1     -12.216  15.047  65.523  1.00  0.00    -0.059 OA 
ENDBRANCH  12  23
ENDBRANCH   9  10
ENDBRANCH   6   9
BRANCH   7  28
HETATM   28  O   UNL     1     -10.485   9.214  70.143  1.00  0.00    -0.197 OA 
HETATM   29  O   UNL     1     -12.400   9.730  71.648  1.00  0.00    -0.364 OA 
HETATM   30  O   UNL     1     -10.461   8.583  72.564  1.00  0.00    -0.317 OA 
HETATM   31  S   UNL     1     -11.476   8.669  71.320  1.00  0.00    -0.300 S  
HETATM   32  O   UNL     1     -11.895   7.327  70.999  1.00  0.00    -0.297 OA 
ENDBRANCH   7  28
BRANCH   8  33
HETATM   33  O   UNL     1     -10.416   6.776  68.522  1.00  0.00    -0.178 OA 
HETATM   34  S   UNL     1      -9.347   5.713  69.128  1.00  0.00    -0.127 S  
HETATM   35  O   UNL     1      -8.711   5.013  68.039  1.00  0.00    -0.103 OA 
HETATM   36  O   UNL     1      -8.610   6.356  70.193  1.00  0.00    -0.132 OA 
HETATM   37  O   UNL     1     -10.320   4.610  69.774  1.00  0.00    -0.182 OA 
ENDBRANCH   8  33
TORSDOF 6
ENDMDL
MODEL        7
REMARK 921   NORMALIZED FREE ENERGY PREDICTED BY IDOCK:   -6.77 KCAL/MOL
REMARK 922        TOTAL FREE ENERGY PREDICTED BY IDOCK:  -11.24 KCAL/MOL
REMARK 923 INTER-LIGAND FREE ENERGY PREDICTED BY IDOCK:  -10.13 KCAL/MOL
REMARK 924 INTRA-LIGAND FREE ENERGY PREDICTED BY IDOCK:   -1.11 KCAL/MOL
REMARK 927      BINDING AFFINITY PREDICTED BY RF-SCORE:    0.00 PKD
ROOT
HETATM    1  O   UNL     1     -12.260   8.076  73.096  1.00  0.00    -0.659 OA 
HETATM    2  H   UNL     1     -11.459   7.970  73.594  1.00  0.00     0.000 HD 
HETATM    3  C   UNL     1     -12.091   9.165  72.192  1.00  0.00    -0.318 C  
HETATM    4  C   UNL     1     -13.372   9.334  71.396  1.00  0.00    -0.325 C  
HETATM    5  O   UNL     1     -13.257  10.410  70.490  1.00  0.00    -0.300 OA 
HETATM    6  C   UNL     1     -12.263  10.220  69.503  1.00  0.00     0.110 C  
HETATM    7  C   UNL     1     -10.860   9.990  70.112  1.00  0.00    -0.311 C  
HETATM    8  C   UNL     1     -10.882   8.957  71.266  1.00  0.00    -0.290 C  
ENDROOT
BRANCH   6   9
HETATM    9  O   UNL     1     -12.211  11.396  68.691  1.00  0.00    -0.532 OA 
BRANCH   9  10
HETATM   10  C   UNL     1     -11.719  12.567  69.356  1.00  0.00    -0.322 C  
HETATM   11  H   UNL     1     -11.913  17.131  70.510  1.00  0.00     0.000 HD 
HETATM   12  C   UNL     1     -11.773  13.765  68.369  1.00  0.00    -0.358 C  
HETATM   13  C   UNL     1     -12.512  12.906  70.628  1.00  0.00    -0.252 C  
HETATM   14  C   UNL     1     -11.420  15.082  69.089  1.00  0.00    -0.301 C  
HETATM   15  O   UNL     1     -11.785  16.381  71.081  1.00  0.00    -0.374 OA 
HETATM   16  O   UNL     1     -12.051  14.114  71.228  1.00  0.00    -0.351 OA 
HETATM   17  C   UNL     1     -12.242  15.233  70.376  1.00  0.00    -0.363 C  
BRANCH  14  18
HETATM   18  O   UNL     1     -11.405  16.238  68.255  1.00  0.00    -0.352 OA 
HETATM   19  S   UNL     1     -10.059  17.051  67.862  1.00  0.00    -0.322 S  
HETATM   20  O   UNL     1      -9.359  17.385  69.080  1.00  0.00    -0.214 OA 
HETATM   21  O   UNL     1      -9.170  15.980  67.062  1.00  0.00    -0.202 OA 
HETATM   22  O   UNL     1     -10.436  18.055  66.894  1.00  0.00    -0.360 OA 
ENDBRANCH  14  18
BRANCH  12  23
HETATM   23  O   UNL     1     -10.993  13.549  67.183  1.00  0.00    -0.284 OA 
HETATM   24  S   UNL     1     -11.668  13.437  65.711  1.00  0.00    -0.368 S  
HETATM   25  O   UNL     1     -12.401  12.194  65.649  1.00  0.00    -0.560 OA 
HETATM   26  O   UNL     1     -10.378  13.234  64.770  1.00  0.00    -0.358 OA 
HETATM   27  O   UNL     1     -12.279  14.691  65.355  1.00  0.00    -0.318 OA 
ENDBRANCH  12  23
ENDBRANCH   9  10
ENDBRANCH   6   9
BRANCH   7  28
HETATM   28  O   UNL     1      -9.953   9.501  69.109  1.00  0.00    -0.170 OA 
HETATM   29  O   UNL     1      -8.779  11.369  67.954  1.00  0.00    -0.135 OA 
HETATM   30  O   UNL     1      -7.717   9.183  68.033  1.00  0.00    -0.091 OA 
HETATM   31  S   UNL     1      -8.538  10.280  68.873  1.00  0.00    -0.160 S  
HETATM   32  O   UNL     1      -7.877  10.449  70.144  1.00  0.00    -0.100 OA 
ENDBRANCH   7  28
BRANCH   8  33
HETATM   33  O   UNL     1      -9.656   9.129  71.998  1.00  0.00    -0.300 OA 
HETATM   34  S   UNL     1      -8.881   7.848  72.630  1.00  0.00    -0.200 S  
HETATM   35  O   UNL     1      -9.473   7.523  73.904  1.00  0.00    -0.270 OA 
HETATM   36  O   UNL     1      -8.671   6.874  71.582  1.00  0.00    -0.125 OA 
HETATM   37  O   UNL     1      -7.462   8.491  73.021  1.00  0.00    -0.294 OA 
ENDBRANCH   8  33
TORSDOF 6
ENDMDL
MODEL        8
REMARK 921   NORMALIZED FREE ENERGY PREDICTED BY IDOCK:   -6.74 KCAL/MOL
REMARK 922        TOTAL FREE ENERGY PREDICTED BY IDOCK:  -11.20 KCAL/MOL
REMARK 923 INTER-LIGAND FREE ENERGY PREDICTED BY IDOCK:   -9.34 KCAL/MOL
REMARK 924 INTRA-LIGAND FREE ENERGY PREDICTED BY IDOCK:   -1.87 KCAL/MOL
REMARK 927      BINDING AFFINITY PREDICTED BY RF-SCORE:    0.00 PKD
ROOT
HETATM    1  O   UNL     1     -12.676   8.219  72.924  1.00  0.00    -0.638 OA 
HETATM    2  H   UNL     1     -12.178   7.635  73.484  1.00  0.00     0.000 HD 
HETATM    3  C   UNL     1     -11.771   8.879  72.042  1.00  0.00    -0.367 C  
HETATM    4  C   UNL     1     -12.567   9.812  71.147  1.00  0.00    -0.345 C  
HETATM    5  O   UNL     1     -11.712  10.498  70.258  1.00  0.00    -0.278 OA 
HETATM    6  C   UNL     1     -11.032   9.651  69.352  1.00  0.00    -0.190 C  
HETATM    7  C   UNL     1     -10.173   8.583  70.072  1.00  0.00    -0.198 C  
HETATM    8  C   UNL     1     -10.946   7.880  71.215  1.00  0.00    -0.238 C  
ENDROOT
BRANCH   6   9
HETATM    9  O   UNL     1     -10.163  10.459  68.553  1.00  0.00    -0.160 OA 
BRANCH   9  10
HETATM   10  C   UNL     1     -10.536  10.564  67.173  1.00  0.00    -0.264 C  
HETATM   11  H   UNL     1     -10.066  12.302  62.820  1.00  0.00     0.000 HD 
HETATM   12  C   UNL     1     -10.560  12.065  66.773  1.00  0.00    -0.227 C  
HETATM   13  C   UNL     1      -9.590   9.793  66.240  1.00  0.00    -0.213 C  
HETATM   14  C   UNL     1     -10.785  12.222  65.256  1.00  0.00    -0.292 C  
HETATM   15  O   UNL     1     -10.149  11.394  63.088  1.00  0.00    -0.351 OA 
HETATM   16  O   UNL     1      -9.939   9.975  64.870  1.00  0.00    -0.325 OA 
HETATM   17  C   UNL     1      -9.814  11.330  64.470  1.00  0.00    -0.270 C  
BRANCH  14  18
HETATM   18  O   UNL     1     -10.861  13.568  64.796  1.00  0.00    -0.337 OA 
HETATM   19  S   UNL     1     -12.210  14.246  64.205  1.00  0.00    -0.339 S  
HETATM   20  O   UNL     1     -12.722  13.399  63.154  1.00  0.00    -0.663 OA 
HETATM   21  O   UNL     1     -13.248  14.193  65.429  1.00  0.00    -0.741 OA 
HETATM   22  O   UNL     1     -11.923  15.645  63.990  1.00  0.00    -0.548 OA 
ENDBRANCH  14  18
BRANCH  12  23
HETATM   23  O   UNL     1     -11.480  12.839  67.558  1.00  0.00    -0.294 OA 
HETATM   24  S   UNL     1     -11.021  14.164  68.373  1.00  0.00    -0.264 S  
HETATM   25  O   UNL     1     -10.184  13.746  69.474  1.00  0.00     0.200 OA 
HETATM   26  O   UNL     1     -12.407  14.645  69.034  1.00  0.00    -0.203 OA 
HETATM   27  O   UNL     1     -10.596  15.185  67.450  1.00  0.00    -0.261 OA 
ENDBRANCH  12  23
ENDBRANCH   9  10
ENDBRANCH   6   9
BRANCH   7  28
HETATM   28  O   UNL     1      -9.755   7.569  69.142  1.00  0.00    -0.163 OA 
HETATM   29  O   UNL     1      -7.658   8.219  67.968  1.00  0.00    -0.098 OA 
HETATM   30  O   UNL     1      -8.190   5.858  68.205  1.00  0.00    -0.108 OA 
HETATM   31  S   UNL     1      -8.160   7.283  68.948  1.00  0.00    -0.129 S  
HETATM   32  O   UNL     1      -7.555   7.093  70.243  1.00  0.00    -0.087 OA 
ENDBRANCH   7  28
BRANCH   8  33
HETATM   33  O   UNL     1      -9.963   7.238  72.044  1.00  0.00    -0.163 OA 
HETATM   34  S   UNL     1     -10.020   5.635  72.308  1.00  0.00    -0.175 S  
HETATM   35  O   UNL     1     -10.945   5.368  73.382  1.00  0.00    -0.278 OA 
HETATM   36  O   UNL     1     -10.074   4.959  71.031  1.00  0.00    -0.209 OA 
HETATM   37  O   UNL     1      -8.581   5.365  72.968  1.00  0.00    -0.121 OA 
ENDBRANCH   8  33
TORSDOF 6
ENDMDL
MODEL        9
REMARK 921   NORMALIZED FREE ENERGY PREDICTED BY IDOCK:   -6.60 KCAL/MOL
REMARK 922        TOTAL FREE ENERGY PREDICTED BY IDOCK:  -11.01 KCAL/MOL
REMARK 923 INTER-LIGAND FREE ENERGY PREDICTED BY IDOCK:   -8.84 KCAL/MOL
REMARK 924 INTRA-LIGAND FREE ENERGY PREDICTED BY IDOCK:   -2.17 KCAL/MOL
REMARK 927      BINDING AFFINITY PREDICTED BY RF-SCORE:    0.00 PKD
ROOT
HETATM    1  O   UNL     1     -12.502  15.341  63.868  1.00  0.00    -0.964 OA 
HETATM    2  H   UNL     1     -12.025  16.147  63.708  1.00  0.00     0.000 HD 
HETATM    3  C   UNL     1     -11.598  14.380  64.406  1.00  0.00    -0.334 C  
HETATM    4  C   UNL     1     -12.360  13.092  64.662  1.00  0.00    -0.405 C  
HETATM    5  O   UNL     1     -11.503  12.102  65.188  1.00  0.00    -0.326 OA 
HETATM    6  C   UNL     1     -10.957  12.433  66.450  1.00  0.00    -0.276 C  
HETATM    7  C   UNL     1     -10.154  13.756  66.418  1.00  0.00    -0.295 C  
HETATM    8  C   UNL     1     -10.916  14.889  65.686  1.00  0.00    -0.344 C  
ENDROOT
BRANCH   6   9
HETATM    9  O   UNL     1     -10.070  11.382  66.842  1.00  0.00    -0.206 OA 
BRANCH   9  10
HETATM   10  C   UNL     1     -10.572  10.519  67.871  1.00  0.00    -0.232 C  
HETATM   11  H   UNL     1     -10.680   8.871  72.282  1.00  0.00     0.000 HD 
HETATM   12  C   UNL     1      -9.373   9.933  68.664  1.00  0.00    -0.149 C  
HETATM   13  C   UNL     1     -11.530  11.238  68.833  1.00  0.00    -0.297 C  
HETATM   14  C   UNL     1      -9.865   9.138  69.890  1.00  0.00    -0.190 C  
HETATM   15  O   UNL     1     -11.407   9.148  71.737  1.00  0.00    -0.350 OA 
HETATM   16  O   UNL     1     -11.956  10.379  69.888  1.00  0.00    -0.260 OA 
HETATM   17  C   UNL     1     -10.870   9.965  70.703  1.00  0.00    -0.330 C  
BRANCH  14  18
HETATM   18  O   UNL     1      -8.836   8.526  70.663  1.00  0.00    -0.137 OA 
HETATM   19  S   UNL     1      -8.665   6.923  70.832  1.00  0.00    -0.141 S  
HETATM   20  O   UNL     1      -9.925   6.376  71.276  1.00  0.00    -0.181 OA 
HETATM   21  O   UNL     1      -8.399   6.394  69.339  1.00  0.00    -0.120 OA 
HETATM   22  O   UNL     1      -7.435   6.701  71.556  1.00  0.00    -0.085 OA 
ENDBRANCH  14  18
BRANCH  12  23
HETATM   23  O   UNL     1      -8.468   9.184  67.838  1.00  0.00    -0.117 OA 
HETATM   24  S   UNL     1      -6.935   9.651  67.588  1.00  0.00    -0.088 S  
HETATM   25  O   UNL     1      -6.957  10.838  66.764  1.00  0.00    -0.104 OA 
HETATM   26  O   UNL     1      -6.378   8.473  66.644  1.00  0.00    -0.057 OA 
HETATM   27  O   UNL     1      -6.200   9.607  68.826  1.00  0.00    -0.043 OA 
ENDBRANCH  12  23
ENDBRANCH   9  10
ENDBRANCH   6   9
BRANCH   7  28
HETATM   28  O   UNL     1      -9.884  14.209  67.756  1.00  0.00    -0.223 OA 
HETATM   29  O   UNL     1      -7.905  13.050  68.727  1.00  0.00    -0.081 OA 
HETATM   30  O   UNL     1      -8.504  15.255  69.562  1.00  0.00    -0.247 OA 
HETATM   31  S   UNL     1      -8.334  14.344  68.248  1.00  0.00    -0.166 S  
HETATM   32  O   UNL     1      -7.596  15.110  67.273  1.00  0.00    -0.189 OA 
ENDBRANCH   7  28
BRANCH   8  33
HETATM   33  O   UNL     1      -9.944  15.900  65.366  1.00  0.00    -0.399 OA 
HETATM   34  S   UNL     1     -10.122  17.421  65.909  1.00  0.00    -0.140 S  
HETATM   35  O   UNL     1     -11.004  18.137  65.020  1.00  0.00    -0.726 OA 
HETATM   36  O   UNL     1     -10.306  17.380  67.343  1.00  0.00    -0.323 OA 
HETATM   37  O   UNL     1      -8.675  18.046  65.597  1.00  0.00    -0.319 OA 
ENDBRANCH   8  33
TORSDOF 6
ENDMDL
MODEL       10
REMARK 921   NORMALIZED FREE ENERGY PREDICTED BY IDOCK:   -6.57 KCAL/MOL
REMARK 922        TOTAL FREE ENERGY PREDICTED BY IDOCK:  -10.98 KCAL/MOL
REMARK 923 INTER-LIGAND FREE ENERGY PREDICTED BY IDOCK:   -8.69 KCAL/MOL
REMARK 924 INTRA-LIGAND FREE ENERGY PREDICTED BY IDOCK:   -2.29 KCAL/MOL
REMARK 927      BINDING AFFINITY PREDICTED BY RF-SCORE:    0.00 PKD
ROOT
HETATM    1  O   UNL     1      -7.011  15.244  68.078  1.00  0.00    -0.110 OA 
HETATM    2  H   UNL     1      -7.450  16.062  68.281  1.00  0.00     0.000 HD 
HETATM    3  C   UNL     1      -7.995  14.223  67.942  1.00  0.00    -0.153 C  
HETATM    4  C   UNL     1      -7.293  12.917  67.617  1.00  0.00    -0.145 C  
HETATM    5  O   UNL     1      -8.229  11.869  67.481  1.00  0.00    -0.139 OA 
HETATM    6  C   UNL     1      -9.132  12.048  66.408  1.00  0.00    -0.193 C  
HETATM    7  C   UNL     1      -9.940  13.362  66.528  1.00  0.00    -0.286 C  
HETATM    8  C   UNL     1      -9.041  14.576  66.872  1.00  0.00    -0.255 C  
ENDROOT
BRANCH   6   9
HETATM    9  O   UNL     1     -10.055  10.954  66.416  1.00  0.00    -0.216 OA 
BRANCH   9  10
HETATM   10  C   UNL     1      -9.595   9.781  67.099  1.00  0.00    -0.169 C  
HETATM   11  H   UNL     1     -10.244   5.571  69.110  1.00  0.00     0.000 HD 
HETATM   12  C   UNL     1     -10.581   9.454  68.254  1.00  0.00    -0.210 C  
HETATM   13  C   UNL     1      -9.462   8.564  66.170  1.00  0.00    -0.217 C  
HETATM   14  C   UNL     1     -10.227   8.104  68.909  1.00  0.00    -0.210 C  
HETATM   15  O   UNL     1      -9.589   5.826  68.471  1.00  0.00    -0.120 OA 
HETATM   16  O   UNL     1      -9.076   7.395  66.887  1.00  0.00    -0.130 OA 
HETATM   17  C   UNL     1     -10.054   7.014  67.842  1.00  0.00    -0.169 C  
BRANCH  14  18
HETATM   18  O   UNL     1     -11.054   7.734  70.009  1.00  0.00    -0.248 OA 
HETATM   19  S   UNL     1     -10.521   7.595  71.533  1.00  0.00    -0.205 S  
HETATM   20  O   UNL     1      -9.375   6.717  71.537  1.00  0.00    -0.154 OA 
HETATM   21  O   UNL     1     -10.009   9.071  71.909  1.00  0.00    -0.332 OA 
HETATM   22  O   UNL     1     -11.676   7.353  72.366  1.00  0.00    -0.290 OA 
ENDBRANCH  14  18
BRANCH  12  23
HETATM   23  O   UNL     1     -10.701  10.523  69.206  1.00  0.00    -0.204 OA 
HETATM   24  S   UNL     1     -12.121  11.238  69.530  1.00  0.00    -0.288 S  
HETATM   25  O   UNL     1     -12.508  12.011  68.372  1.00  0.00    -0.096 OA 
HETATM   26  O   UNL     1     -11.704  12.311  70.654  1.00  0.00    -0.108 OA 
HETATM   27  O   UNL     1     -13.020  10.291  70.137  1.00  0.00    -0.162 OA 
ENDBRANCH  12  23
ENDBRANCH   9  10
ENDBRANCH   6   9
BRANCH   7  28
HETATM   28  O   UNL     1     -10.607  13.653  65.287  1.00  0.00    -0.313 OA 
HETATM   29  O   UNL     1     -12.640  12.247  64.994  1.00  0.00    -0.575 OA 
HETATM   30  O   UNL     1     -12.524  14.396  63.862  1.00  0.00    -0.798 OA 
HETATM   31  S   UNL     1     -12.238  13.613  65.237  1.00  0.00    -0.469 S  
HETATM   32  O   UNL     1     -12.762  14.412  66.317  1.00  0.00    -0.286 OA 
ENDBRANCH   7  28
BRANCH   8  33
HETATM   33  O   UNL     1      -9.914  15.614  67.349  1.00  0.00    -0.229 OA 
HETATM   34  S   UNL     1      -9.641  17.168  66.961  1.00  0.00    -0.269 S  
HETATM   35  O   UNL     1      -8.666  17.716  67.871  1.00  0.00    -0.236 OA 
HETATM   36  O   UNL     1      -9.528  17.272  65.523  1.00  0.00    -0.422 OA 
HETATM   37  O   UNL     1     -11.019  17.860  67.416  1.00  0.00    -0.281 OA 
ENDBRANCH   8  33
TORSDOF 6
ENDMDL
MODEL       11
REMARK 921   NORMALIZED FREE ENERGY PREDICTED BY IDOCK:   -6.42 KCAL/MOL
REMARK 922        TOTAL FREE ENERGY PREDICTED BY IDOCK:  -10.77 KCAL/MOL
REMARK 923 INTER-LIGAND FREE ENERGY PREDICTED BY IDOCK:   -9.32 KCAL/MOL
REMARK 924 INTRA-LIGAND FREE ENERGY PREDICTED BY IDOCK:   -1.45 KCAL/MOL
REMARK 927      BINDING AFFINITY PREDICTED BY RF-SCORE:    0.00 PKD
ROOT
HETATM    1  O   UNL     1     -11.884  13.922  63.976  1.00  0.00    -0.563 OA 
HETATM    2  H   UNL     1     -11.359  14.648  63.660  1.00  0.00     0.000 HD 
HETATM    3  C   UNL     1     -11.376  13.515  65.243  1.00  0.00    -0.290 C  
HETATM    4  C   UNL     1     -12.215  12.355  65.748  1.00  0.00    -0.203 C  
HETATM    5  O   UNL     1     -11.744  11.907  67.001  1.00  0.00    -0.538 OA 
HETATM    6  C   UNL     1     -11.846  12.876  68.027  1.00  0.00    -0.343 C  
HETATM    7  C   UNL     1     -11.076  14.176  67.692  1.00  0.00    -0.282 C  
HETATM    8  C   UNL     1     -11.361  14.674  66.253  1.00  0.00    -0.347 C  
ENDROOT
BRANCH   6   9
HETATM    9  O   UNL     1     -11.287  12.320  69.221  1.00  0.00    -0.255 OA 
BRANCH   9  10
HETATM   10  C   UNL     1     -12.104  11.336  69.869  1.00  0.00    -0.341 C  
HETATM   11  H   UNL     1     -13.074   8.329  73.363  1.00  0.00     0.000 HD 
HETATM   12  C   UNL     1     -11.195  10.179  70.367  1.00  0.00    -0.330 C  
HETATM   13  C   UNL     1     -12.906  11.911  71.047  1.00  0.00    -0.198 C  
HETATM   14  C   UNL     1     -12.001   9.181  71.223  1.00  0.00    -0.325 C  
HETATM   15  O   UNL     1     -13.641   8.984  72.972  1.00  0.00    -0.293 OA 
HETATM   16  O   UNL     1     -13.650  10.897  71.719  1.00  0.00    -0.218 OA 
HETATM   17  C   UNL     1     -12.804   9.920  72.302  1.00  0.00    -0.259 C  
BRANCH  14  18
HETATM   18  O   UNL     1     -11.260   8.060  71.696  1.00  0.00    -0.242 OA 
HETATM   19  S   UNL     1     -11.690   6.519  71.437  1.00  0.00    -0.315 S  
HETATM   20  O   UNL     1     -13.057   6.349  71.869  1.00  0.00    -0.153 OA 
HETATM   21  O   UNL     1     -11.657   6.362  69.839  1.00  0.00    -0.429 OA 
HETATM   22  O   UNL     1     -10.619   5.689  71.938  1.00  0.00    -0.218 OA 
ENDBRANCH  14  18
BRANCH  12  23
HETATM   23  O   UNL     1     -10.465   9.545  69.306  1.00  0.00    -0.199 OA 
HETATM   24  S   UNL     1      -8.846   9.596  69.218  1.00  0.00    -0.177 S  
HETATM   25  O   UNL     1      -8.457  10.949  68.892  1.00  0.00    -0.153 OA 
HETATM   26  O   UNL     1      -8.557   8.725  67.895  1.00  0.00    -0.128 OA 
HETATM   27  O   UNL     1      -8.271   8.896  70.338  1.00  0.00    -0.109 OA 
ENDBRANCH  12  23
ENDBRANCH   9  10
ENDBRANCH   6   9
BRANCH   7  28
HETATM   28  O   UNL     1     -11.453  15.227  68.598  1.00  0.00    -0.301 OA 
HETATM   29  O   UNL     1     -10.728  14.726  70.927  1.00  0.00     0.046 OA 
HETATM   30  O   UNL     1     -11.033  17.046  70.264  1.00  0.00    -0.010 OA 
HETATM   31  S   UNL     1     -10.447  15.615  69.823  1.00  0.00    -0.324 S  
HETATM   32  O   UNL     1      -9.122  15.825  69.295  1.00  0.00    -0.238 OA 
ENDBRANCH   7  28
BRANCH   8  33
HETATM   33  O   UNL     1     -10.318  15.608  65.926  1.00  0.00    -0.305 OA 
HETATM   34  S   UNL     1     -10.641  17.194  65.785  1.00  0.00    -0.082 S  
HETATM   35  O   UNL     1     -11.144  17.455  64.459  1.00  0.00    -1.008 OA 
HETATM   36  O   UNL     1     -11.310  17.637  66.987  1.00  0.00     0.316 OA 
HETATM   37  O   UNL     1      -9.162  17.823  65.762  1.00  0.00    -0.505 OA 
ENDBRANCH   8  33
TORSDOF 6
ENDMDL
MODEL       12
REMARK 921   NORMALIZED FREE ENERGY PREDICTED BY IDOCK:   -6.38 KCAL/MOL
REMARK 922        TOTAL FREE ENERGY PREDICTED BY IDOCK:  -10.72 KCAL/MOL
REMARK 923 INTER-LIGAND FREE ENERGY PREDICTED BY IDOCK:  -10.00 KCAL/MOL
REMARK 924 INTRA-LIGAND FREE ENERGY PREDICTED BY IDOCK:   -0.72 KCAL/MOL
REMARK 927      BINDING AFFINITY PREDICTED BY RF-SCORE:    0.00 PKD
ROOT
HETATM    1  O   UNL     1      -8.798   8.598  64.524  1.00  0.00    -0.403 OA 
HETATM    2  H   UNL     1      -8.846   7.690  64.796  1.00  0.00     0.000 HD 
HETATM    3  C   UNL     1      -9.755   9.347  65.269  1.00  0.00    -0.114 C  
HETATM    4  C   UNL     1      -9.676  10.799  64.832  1.00  0.00    -0.276 C  
HETATM    5  O   UNL     1     -10.615  11.582  65.537  1.00  0.00    -0.268 OA 
HETATM    6  C   UNL     1     -10.384  11.631  66.932  1.00  0.00    -0.220 C  
HETATM    7  C   UNL     1     -10.388  10.226  67.582  1.00  0.00    -0.220 C  
HETATM    8  C   UNL     1      -9.536   9.207  66.784  1.00  0.00    -0.195 C  
ENDROOT
BRANCH   6   9
HETATM    9  O   UNL     1     -11.429  12.403  67.531  1.00  0.00    -0.302 OA 
BRANCH   9  10
HETATM   10  C   UNL     1     -11.766  13.608  66.831  1.00  0.00    -0.389 C  
HETATM   11  H   UNL     1     -11.028  16.893  63.537  1.00  0.00     0.000 HD 
HETATM   12  C   UNL     1     -10.480  14.461  66.653  1.00  0.00    -0.274 C  
HETATM   13  C   UNL     1     -12.406  13.340  65.460  1.00  0.00    -0.480 C  
HETATM   14  C   UNL     1     -10.756  15.683  65.755  1.00  0.00    -0.341 C  
HETATM   15  O   UNL     1     -11.830  16.422  63.732  1.00  0.00    -1.002 OA 
HETATM   16  O   UNL     1     -12.662  14.553  64.755  1.00  0.00    -0.606 OA 
HETATM   17  C   UNL     1     -11.465  15.256  64.463  1.00  0.00    -0.315 C  
BRANCH  14  18
HETATM   18  O   UNL     1      -9.642  16.551  65.563  1.00  0.00    -0.502 OA 
HETATM   19  S   UNL     1      -9.571  18.068  66.131  1.00  0.00    -0.100 S  
HETATM   20  O   UNL     1     -10.752  18.774  65.693  1.00  0.00    -0.543 OA 
HETATM   21  O   UNL     1      -9.663  17.898  67.725  1.00  0.00    -0.269 OA 
HETATM   22  O   UNL     1      -8.240  18.560  65.861  1.00  0.00    -0.497 OA 
ENDBRANCH  14  18
BRANCH  12  23
HETATM   23  O   UNL     1      -9.864  14.811  67.901  1.00  0.00    -0.209 OA 
HETATM   24  S   UNL     1      -8.298  14.514  68.208  1.00  0.00    -0.159 S  
HETATM   25  O   UNL     1      -8.132  13.085  68.344  1.00  0.00    -0.148 OA 
HETATM   26  O   UNL     1      -8.130  15.118  69.690  1.00  0.00    -0.214 OA 
HETATM   27  O   UNL     1      -7.469  15.288  67.321  1.00  0.00    -0.191 OA 
ENDBRANCH  12  23
ENDBRANCH   9  10
ENDBRANCH   6   9
BRANCH   7  28
HETATM   28  O   UNL     1      -9.851  10.291  68.915  1.00  0.00    -0.176 OA 
HETATM   29  O   UNL     1     -11.611  10.875  70.576  1.00  0.00    -0.322 OA 
HETATM   30  O   UNL     1      -9.662   9.624  71.318  1.00  0.00    -0.146 OA 
HETATM   31  S   UNL     1     -10.769   9.776  70.162  1.00  0.00    -0.310 S  
HETATM   32  O   UNL     1     -11.277   8.460  69.862  1.00  0.00    -0.168 OA 
ENDBRANCH   7  28
BRANCH   8  33
HETATM   33  O   UNL     1      -9.936   7.899  67.227  1.00  0.00    -0.173 OA 
HETATM   34  S   UNL     1      -8.828   6.740  67.494  1.00  0.00    -0.116 S  
HETATM   35  O   UNL     1      -8.506   6.101  66.242  1.00  0.00    -0.121 OA 
HETATM   36  O   UNL     1      -7.827   7.259  68.399  1.00  0.00    -0.117 OA 
HETATM   37  O   UNL     1      -9.698   5.636  68.273  1.00  0.00    -0.120 OA 
ENDBRANCH   8  33
TORSDOF 6
ENDMDL
MODEL       13
REMARK 921   NORMALIZED FREE ENERGY PREDICTED BY IDOCK:   -6.31 KCAL/MOL
REMARK 922        TOTAL FREE ENERGY PREDICTED BY IDOCK:  -10.63 KCAL/MOL
REMARK 923 INTER-LIGAND FREE ENERGY PREDICTED BY IDOCK:   -9.95 KCAL/MOL
REMARK 924 INTRA-LIGAND FREE ENERGY PREDICTED BY IDOCK:   -0.68 KCAL/MOL
REMARK 927      BINDING AFFINITY PREDICTED BY RF-SCORE:    0.00 PKD
ROOT
HETATM    1  O   UNL     1     -13.866   7.644  72.428  1.00  0.00    -0.510 OA 
HETATM    2  H   UNL     1     -13.362   7.047  72.968  1.00  0.00     0.000 HD 
HETATM    3  C   UNL     1     -13.037   8.748  72.077  1.00  0.00    -0.392 C  
HETATM    4  C   UNL     1     -13.843   9.702  71.213  1.00  0.00    -0.076 C  
HETATM    5  O   UNL     1     -13.065  10.821  70.847  1.00  0.00    -0.331 OA 
HETATM    6  C   UNL     1     -11.945  10.498  70.047  1.00  0.00    -0.288 C  
HETATM    7  C   UNL     1     -10.993   9.493  70.739  1.00  0.00    -0.321 C  
HETATM    8  C   UNL     1     -11.754   8.296  71.361  1.00  0.00    -0.287 C  
ENDROOT
BRANCH   6   9
HETATM    9  O   UNL     1     -11.215  11.703  69.795  1.00  0.00    -0.223 OA 
BRANCH   9  10
HETATM   10  C   UNL     1     -11.428  12.278  68.498  1.00  0.00    -0.303 C  
HETATM   11  H   UNL     1      -9.963  13.752  64.271  1.00  0.00     0.000 HD 
HETATM   12  C   UNL     1     -10.311  13.322  68.223  1.00  0.00    -0.249 C  
HETATM   13  C   UNL     1     -11.444  11.227  67.377  1.00  0.00    -0.221 C  
HETATM   14  C   UNL     1     -10.394  13.841  66.774  1.00  0.00    -0.272 C  
HETATM   15  O   UNL     1     -10.701  13.190  64.478  1.00  0.00    -0.353 OA 
HETATM   16  O   UNL     1     -11.582  11.831  66.094  1.00  0.00    -0.418 OA 
HETATM   17  C   UNL     1     -10.481  12.671  65.785  1.00  0.00    -0.277 C  
BRANCH  14  18
HETATM   18  O   UNL     1      -9.431  14.835  66.435  1.00  0.00    -0.271 OA 
HETATM   19  S   UNL     1      -9.813  16.318  65.904  1.00  0.00    -0.310 S  
HETATM   20  O   UNL     1     -10.709  16.181  64.780  1.00  0.00    -0.648 OA 
HETATM   21  O   UNL     1     -10.640  16.972  67.115  1.00  0.00    -0.312 OA 
HETATM   22  O   UNL     1      -8.581  17.068  65.815  1.00  0.00    -0.517 OA 
ENDBRANCH  14  18
BRANCH  12  23
HETATM   23  O   UNL     1     -10.281  14.378  69.195  1.00  0.00    -0.212 OA 
HETATM   24  S   UNL     1     -11.629  14.957  69.888  1.00  0.00    -0.308 S  
HETATM   25  O   UNL     1     -12.372  15.684  68.884  1.00  0.00    -0.165 OA 
HETATM   26  O   UNL     1     -11.038  16.069  70.889  1.00  0.00    -0.339 OA 
HETATM   27  O   UNL     1     -12.249  13.931  70.687  1.00  0.00    -0.334 OA 
ENDBRANCH  12  23
ENDBRANCH   9  10
ENDBRANCH   6   9
BRANCH   7  28
HETATM   28  O   UNL     1     -10.050   8.963  69.790  1.00  0.00    -0.188 OA 
HETATM   29  O   UNL     1      -8.273  10.620  69.250  1.00  0.00    -0.154 OA 
HETATM   30  O   UNL     1      -7.788   8.251  68.997  1.00  0.00    -0.100 OA 
HETATM   31  S   UNL     1      -8.475   9.363  69.933  1.00  0.00    -0.197 S  
HETATM   32  O   UNL     1      -8.049   9.123  71.289  1.00  0.00    -0.285 OA 
ENDBRANCH   7  28
BRANCH   8  33
HETATM   33  O   UNL     1     -10.853   7.675  72.295  1.00  0.00    -0.234 OA 
HETATM   34  S   UNL     1     -10.583   6.074  72.245  1.00  0.00    -0.227 S  
HETATM   35  O   UNL     1     -11.631   5.397  72.968  1.00  0.00    -0.296 OA 
HETATM   36  O   UNL     1     -10.189   5.715  70.901  1.00  0.00    -0.201 OA 
HETATM   37  O   UNL     1      -9.303   5.933  73.206  1.00  0.00    -0.136 OA 
ENDBRANCH   8  33
TORSDOF 6
ENDMDL
MODEL       14
REMARK 921   NORMALIZED FREE ENERGY PREDICTED BY IDOCK:   -6.16 KCAL/MOL
REMARK 922        TOTAL FREE ENERGY PREDICTED BY IDOCK:  -10.42 KCAL/MOL
REMARK 923 INTER-LIGAND FREE ENERGY PREDICTED BY IDOCK:   -8.43 KCAL/MOL
REMARK 924 INTRA-LIGAND FREE ENERGY PREDICTED BY IDOCK:   -1.99 KCAL/MOL
REMARK 927      BINDING AFFINITY PREDICTED BY RF-SCORE:    0.00 PKD
ROOT
HETATM    1  O   UNL     1     -12.224  16.089  63.887  1.00  0.00    -1.176 OA 
HETATM    2  H   UNL     1     -11.851  16.961  63.844  1.00  0.00     0.000 HD 
HETATM    3  C   UNL     1     -11.219  15.188  64.344  1.00  0.00    -0.169 C  
HETATM    4  C   UNL     1     -11.816  13.794  64.413  1.00  0.00    -0.427 C  
HETATM    5  O   UNL     1     -10.853  12.861  64.854  1.00  0.00    -0.286 OA 
HETATM    6  C   UNL     1     -10.389  13.100  66.168  1.00  0.00    -0.284 C  
HETATM    7  C   UNL     1      -9.762  14.506  66.328  1.00  0.00    -0.309 C  
HETATM    8  C   UNL     1     -10.643  15.617  65.704  1.00  0.00    -0.378 C  
ENDROOT
BRANCH   6   9
HETATM    9  O   UNL     1      -9.384  12.127  66.469  1.00  0.00    -0.220 OA 
BRANCH   9  10
HETATM   10  C   UNL     1      -9.856  10.775  66.540  1.00  0.00    -0.203 C  
HETATM   11  H   UNL     1      -9.739   6.372  68.212  1.00  0.00     0.000 HD 
HETATM   12  C   UNL     1      -8.634   9.816  66.524  1.00  0.00    -0.127 C  
HETATM   13  C   UNL     1     -10.710  10.507  67.789  1.00  0.00    -0.272 C  
HETATM   14  C   UNL     1      -9.078   8.361  66.774  1.00  0.00    -0.157 C  
HETATM   15  O   UNL     1     -10.488   6.950  68.120  1.00  0.00    -0.179 OA 
HETATM   16  O   UNL     1     -11.103   9.139  67.873  1.00  0.00    -0.066 OA 
HETATM   17  C   UNL     1      -9.985   8.277  68.009  1.00  0.00    -0.185 C  
BRANCH  14  18
HETATM   18  O   UNL     1      -8.029   7.397  66.740  1.00  0.00    -0.110 OA 
HETATM   19  S   UNL     1      -7.895   6.248  65.606  1.00  0.00    -0.104 S  
HETATM   20  O   UNL     1      -9.145   5.530  65.535  1.00  0.00    -0.155 OA 
HETATM   21  O   UNL     1      -7.719   7.065  64.234  1.00  0.00    -0.106 OA 
HETATM   22  O   UNL     1      -6.636   5.575  65.829  1.00  0.00    -0.039 OA 
ENDBRANCH  14  18
BRANCH  12  23
HETATM   23  O   UNL     1      -7.824   9.959  65.347  1.00  0.00    -0.120 OA 
HETATM   24  S   UNL     1      -6.215  10.150  65.421  1.00  0.00    -0.124 S  
HETATM   25  O   UNL     1      -5.944  11.463  65.962  1.00  0.00    -0.088 OA 
HETATM   26  O   UNL     1      -5.818  10.227  63.863  1.00  0.00    -0.131 OA 
HETATM   27  O   UNL     1      -5.605   8.967  65.972  1.00  0.00    -0.044 OA 
ENDBRANCH  12  23
ENDBRANCH   9  10
ENDBRANCH   6   9
BRANCH   7  28
HETATM   28  O   UNL     1      -9.588  14.821  67.720  1.00  0.00    -0.205 OA 
HETATM   29  O   UNL     1      -7.583  13.688  68.667  1.00  0.00    -0.125 OA 
HETATM   30  O   UNL     1      -8.373  15.741  69.704  1.00  0.00    -0.200 OA 
HETATM   31  S   UNL     1      -8.077  14.998  68.309  1.00  0.00    -0.140 S  
HETATM   32  O   UNL     1      -7.348  15.914  67.467  1.00  0.00    -0.139 OA 
ENDBRANCH   7  28
BRANCH   8  33
HETATM   33  O   UNL     1      -9.801  16.772  65.547  1.00  0.00    -0.564 OA 
HETATM   34  S   UNL     1     -10.292  18.231  66.069  1.00  0.00    -0.272 S  
HETATM   35  O   UNL     1     -11.127  18.834  65.059  1.00  0.00    -0.457 OA 
HETATM   36  O   UNL     1     -10.684  18.117  67.456  1.00  0.00    -0.412 OA 
HETATM   37  O   UNL     1      -8.928  19.077  65.991  1.00  0.00    -0.456 OA 
ENDBRANCH   8  33
TORSDOF 6
ENDMDL
MODEL       15
REMARK 921   NORMALIZED FREE ENERGY PREDICTED BY IDOCK:   -6.14 KCAL/MOL
REMARK 922        TOTAL FREE ENERGY PREDICTED BY IDOCK:  -10.39 KCAL/MOL
REMARK 923 INTER-LIGAND FREE ENERGY PREDICTED BY IDOCK:   -9.54 KCAL/MOL
REMARK 924 INTRA-LIGAND FREE ENERGY PREDICTED BY IDOCK:   -0.85 KCAL/MOL
REMARK 927      BINDING AFFINITY PREDICTED BY RF-SCORE:    0.00 PKD
ROOT
HETATM    1  O   UNL     1     -13.433   6.627  72.318  1.00  0.00    -0.537 OA 
HETATM    2  H   UNL     1     -12.824   5.993  72.677  1.00  0.00     0.000 HD 
HETATM    3  C   UNL     1     -12.753   7.870  72.165  1.00  0.00    -0.224 C  
HETATM    4  C   UNL     1     -13.726   8.884  71.589  1.00  0.00    -0.395 C  
HETATM    5  O   UNL     1     -13.101  10.138  71.428  1.00  0.00    -0.369 OA 
HETATM    6  C   UNL     1     -12.031  10.127  70.502  1.00  0.00    -0.311 C  
HETATM    7  C   UNL     1     -10.924   9.117  70.889  1.00  0.00    -0.282 C  
HETATM    8  C   UNL     1     -11.502   7.734  71.282  1.00  0.00    -0.269 C  
ENDROOT
BRANCH   6   9
HETATM    9  O   UNL     1     -11.452  11.435  70.474  1.00  0.00    -0.201 OA 
BRANCH   9  10
HETATM   10  C   UNL     1     -12.003  12.318  69.488  1.00  0.00    -0.270 C  
HETATM   11  H   UNL     1     -11.653  15.637  66.164  1.00  0.00     0.000 HD 
HETATM   12  C   UNL     1     -11.353  13.719  69.651  1.00  0.00    -0.178 C  
HETATM   13  C   UNL     1     -11.795  11.812  68.053  1.00  0.00    -0.234 C  
HETATM   14  C   UNL     1     -11.782  14.657  68.505  1.00  0.00    -0.316 C  
HETATM   15  O   UNL     1     -12.123  14.812  66.128  1.00  0.00    -0.243 OA 
HETATM   16  O   UNL     1     -12.285  12.743  67.091  1.00  0.00    -0.404 OA 
HETATM   17  C   UNL     1     -11.583  13.975  67.145  1.00  0.00    -0.372 C  
BRANCH  14  18
HETATM   18  O   UNL     1     -11.266  15.982  68.587  1.00  0.00    -0.327 OA 
HETATM   19  S   UNL     1      -9.684  16.338  68.573  1.00  0.00    -0.232 S  
HETATM   20  O   UNL     1      -9.033  15.554  69.595  1.00  0.00    -0.266 OA 
HETATM   21  O   UNL     1      -9.173  15.807  67.146  1.00  0.00    -0.202 OA 
HETATM   22  O   UNL     1      -9.573  17.777  68.523  1.00  0.00    -0.297 OA 
ENDBRANCH  14  18
BRANCH  12  23
HETATM   23  O   UNL     1     -11.568  14.289  70.951  1.00  0.00    -0.234 OA 
HETATM   24  S   UNL     1     -13.055  14.543  71.550  1.00  0.00    -0.365 S  
HETATM   25  O   UNL     1     -13.661  15.619  70.801  1.00  0.00    -0.490 OA 
HETATM   26  O   UNL     1     -12.728  15.149  73.004  1.00  0.00    -0.374 OA 
HETATM   27  O   UNL     1     -13.729  13.284  71.740  1.00  0.00    -0.341 OA 
ENDBRANCH  12  23
ENDBRANCH   9  10
ENDBRANCH   6   9
BRANCH   7  28
HETATM   28  O   UNL     1     -10.024   8.914  69.786  1.00  0.00    -0.182 OA 
HETATM   29  O   UNL     1      -8.591  10.913  69.401  1.00  0.00    -0.052 OA 
HETATM   30  O   UNL     1      -7.783   8.732  68.691  1.00  0.00    -0.095 OA 
HETATM   31  S   UNL     1      -8.522   9.546  69.864  1.00  0.00    -0.204 S  
HETATM   32  O   UNL     1      -7.915   9.164  71.116  1.00  0.00    -0.232 OA 
ENDBRANCH   7  28
BRANCH   8  33
HETATM   33  O   UNL     1     -10.463   7.039  71.992  1.00  0.00    -0.206 OA 
HETATM   34  S   UNL     1     -10.340   5.421  71.907  1.00  0.00    -0.217 S  
HETATM   35  O   UNL     1     -11.243   4.830  72.863  1.00  0.00    -0.243 OA 
HETATM   36  O   UNL     1     -10.298   5.035  70.514  1.00  0.00    -0.254 OA 
HETATM   37  O   UNL     1      -8.888   5.174  72.549  1.00  0.00    -0.126 OA 
ENDBRANCH   8  33
TORSDOF 6
ENDMDL
MODEL       16
REMARK 921   NORMALIZED FREE ENERGY PREDICTED BY IDOCK:   -6.11 KCAL/MOL
REMARK 922        TOTAL FREE ENERGY PREDICTED BY IDOCK:  -10.35 KCAL/MOL
REMARK 923 INTER-LIGAND FREE ENERGY PREDICTED BY IDOCK:   -9.24 KCAL/MOL
REMARK 924 INTRA-LIGAND FREE ENERGY PREDICTED BY IDOCK:   -1.10 KCAL/MOL
REMARK 927      BINDING AFFINITY PREDICTED BY RF-SCORE:    0.00 PKD
ROOT
HETATM    1  O   UNL     1     -11.306  16.464  63.737  1.00  0.00    -1.487 OA 
HETATM    2  H   UNL     1     -10.618  17.091  63.926  1.00  0.00     0.000 HD 
HETATM    3  C   UNL     1     -11.184  15.372  64.646  1.00  0.00    -0.364 C  
HETATM    4  C   UNL     1     -12.284  14.370  64.344  1.00  0.00    -0.458 C  
HETATM    5  O   UNL     1     -12.200  13.262  65.215  1.00  0.00    -0.395 OA 
HETATM    6  C   UNL     1     -12.400  13.590  66.576  1.00  0.00    -0.327 C  
HETATM    7  C   UNL     1     -11.386  14.643  67.085  1.00  0.00    -0.356 C  
HETATM    8  C   UNL     1     -11.239  15.838  66.110  1.00  0.00     0.029 C  
ENDROOT
BRANCH   6   9
HETATM    9  O   UNL     1     -12.233  12.399  67.351  1.00  0.00    -0.459 OA 
BRANCH   9  10
HETATM   10  C   UNL     1     -10.979  11.730  67.167  1.00  0.00    -0.276 C  
HETATM   11  H   UNL     1      -8.329   7.894  66.487  1.00  0.00     0.000 HD 
HETATM   12  C   UNL     1     -10.954  10.457  68.058  1.00  0.00    -0.291 C  
HETATM   13  C   UNL     1     -10.719  11.343  65.703  1.00  0.00    -0.242 C  
HETATM   14  C   UNL     1      -9.699   9.610  67.766  1.00  0.00    -0.146 C  
HETATM   15  O   UNL     1      -8.303   8.722  66.020  1.00  0.00    -0.116 OA 
HETATM   16  O   UNL     1      -9.503  10.614  65.560  1.00  0.00    -0.189 OA 
HETATM   17  C   UNL     1      -9.542   9.379  66.257  1.00  0.00    -0.234 C  
BRANCH  14  18
HETATM   18  O   UNL     1      -9.567   8.437  68.564  1.00  0.00    -0.146 OA 
HETATM   19  S   UNL     1      -8.346   8.184  69.600  1.00  0.00    -0.126 S  
HETATM   20  O   UNL     1      -7.102   8.370  68.892  1.00  0.00    -0.064 OA 
HETATM   21  O   UNL     1      -8.485   9.372  70.672  1.00  0.00    -0.205 OA 
HETATM   22  O   UNL     1      -8.645   6.966  70.318  1.00  0.00    -0.137 OA 
ENDBRANCH  14  18
BRANCH  12  23
HETATM   23  O   UNL     1     -11.120  10.749  69.454  1.00  0.00    -0.229 OA 
HETATM   24  S   UNL     1     -12.221   9.989  70.373  1.00  0.00    -0.116 S  
HETATM   25  O   UNL     1     -13.532  10.435  69.960  1.00  0.00     0.102 OA 
HETATM   26  O   UNL     1     -11.966  10.654  71.816  1.00  0.00    -0.087 OA 
HETATM   27  O   UNL     1     -11.897   8.589  70.470  1.00  0.00    -0.173 OA 
ENDBRANCH  12  23
ENDBRANCH   9  10
ENDBRANCH   6   9
BRANCH   7  28
HETATM   28  O   UNL     1     -11.808  15.169  68.356  1.00  0.00    -0.328 OA 
HETATM   29  O   UNL     1     -11.370  13.555  70.200  1.00  0.00    -0.081 OA 
HETATM   30  O   UNL     1     -11.484  15.929  70.717  1.00  0.00    -0.349 OA 
HETATM   31  S   UNL     1     -10.925  14.830  69.685  1.00  0.00    -0.236 S  
HETATM   32  O   UNL     1      -9.541  15.137  69.422  1.00  0.00    -0.223 OA 
ENDBRANCH   7  28
BRANCH   8  33
HETATM   33  O   UNL     1     -10.020  16.513  66.465  1.00  0.00    -0.258 OA 
HETATM   34  S   UNL     1     -10.020  18.104  66.795  1.00  0.00    -0.371 S  
HETATM   35  O   UNL     1      -9.943  18.840  65.558  1.00  0.00    -0.339 OA 
HETATM   36  O   UNL     1     -11.017  18.364  67.810  1.00  0.00    -0.323 OA 
HETATM   37  O   UNL     1      -8.565  18.298  67.447  1.00  0.00    -0.246 OA 
ENDBRANCH   8  33
TORSDOF 6
ENDMDL
MODEL       17
REMARK 921   NORMALIZED FREE ENERGY PREDICTED BY IDOCK:   -6.05 KCAL/MOL
REMARK 922        TOTAL FREE ENERGY PREDICTED BY IDOCK:  -10.27 KCAL/MOL
REMARK 923 INTER-LIGAND FREE ENERGY PREDICTED BY IDOCK:   -8.00 KCAL/MOL
REMARK 924 INTRA-LIGAND FREE ENERGY PREDICTED BY IDOCK:   -2.27 KCAL/MOL
REMARK 927      BINDING AFFINITY PREDICTED BY RF-SCORE:    0.00 PKD
ROOT
HETATM    1  O   UNL     1      -8.025   5.690  65.451  1.00  0.00    -0.101 OA 
HETATM    2  H   UNL     1      -8.442   5.020  65.980  1.00  0.00     0.000 HD 
HETATM    3  C   UNL     1      -8.697   6.927  65.674  1.00  0.00    -0.072 C  
HETATM    4  C   UNL     1      -8.030   7.997  64.828  1.00  0.00    -0.143 C  
HETATM    5  O   UNL     1      -8.667   9.243  65.008  1.00  0.00    -0.169 OA 
HETATM    6  C   UNL     1      -8.577   9.744  66.328  1.00  0.00    -0.127 C  
HETATM    7  C   UNL     1      -9.180   8.773  67.371  1.00  0.00    -0.136 C  
HETATM    8  C   UNL     1      -8.703   7.314  67.162  1.00  0.00    -0.121 C  
ENDROOT
BRANCH   6   9
HETATM    9  O   UNL     1      -9.307  10.973  66.388  1.00  0.00    -0.174 OA 
BRANCH   9  10
HETATM   10  C   UNL     1      -8.499  12.157  66.347  1.00  0.00     0.054 C  
HETATM   11  H   UNL     1      -6.864  16.185  68.161  1.00  0.00     0.000 HD 
HETATM   12  C   UNL     1      -9.351  13.363  66.830  1.00  0.00    -0.256 C  
HETATM   13  C   UNL     1      -7.230  12.041  67.206  1.00  0.00    -0.150 C  
HETATM   14  C   UNL     1      -8.479  14.626  66.970  1.00  0.00    -0.210 C  
HETATM   15  O   UNL     1      -6.373  15.470  67.772  1.00  0.00    -0.137 OA 
HETATM   16  O   UNL     1      -6.484  13.256  67.208  1.00  0.00    -0.256 OA 
HETATM   17  C   UNL     1      -7.216  14.324  67.788  1.00  0.00    -0.175 C  
BRANCH  14  18
HETATM   18  O   UNL     1      -9.181  15.799  67.372  1.00  0.00    -0.198 OA 
HETATM   19  S   UNL     1      -9.410  17.087  66.414  1.00  0.00    -0.260 S  
HETATM   20  O   UNL     1      -8.128  17.504  65.898  1.00  0.00    -0.536 OA 
HETATM   21  O   UNL     1     -10.274  16.517  65.186  1.00  0.00    -0.590 OA 
HETATM   22  O   UNL     1     -10.283  17.994  67.124  1.00  0.00    -0.330 OA 
ENDBRANCH  14  18
BRANCH  12  23
HETATM   23  O   UNL     1     -10.522  13.577  66.026  1.00  0.00    -0.288 OA 
HETATM   24  S   UNL     1     -12.022  13.454  66.632  1.00  0.00    -0.385 S  
HETATM   25  O   UNL     1     -12.277  12.060  66.917  1.00  0.00    -0.529 OA 
HETATM   26  O   UNL     1     -12.928  13.813  65.351  1.00  0.00    -0.706 OA 
HETATM   27  O   UNL     1     -12.237  14.477  67.623  1.00  0.00    -0.298 OA 
ENDBRANCH  12  23
ENDBRANCH   9  10
ENDBRANCH   6   9
BRANCH   7  28
HETATM   28  O   UNL     1      -8.798   9.168  68.701  1.00  0.00    -0.131 OA 
HETATM   29  O   UNL     1     -10.300  10.942  69.591  1.00  0.00    -0.170 OA 
HETATM   30  O   UNL     1      -9.139   9.490  71.158  1.00  0.00    -0.239 OA 
HETATM   31  S   UNL     1      -9.962   9.550  69.778  1.00  0.00    -0.229 S  
HETATM   32  O   UNL     1     -10.944   8.494  69.804  1.00  0.00    -0.219 OA 
ENDBRANCH   7  28
BRANCH   8  33
HETATM   33  O   UNL     1      -9.612   6.473  67.893  1.00  0.00    -0.120 OA 
HETATM   34  S   UNL     1      -9.055   5.389  68.968  1.00  0.00    -0.117 S  
HETATM   35  O   UNL     1      -8.673   4.187  68.268  1.00  0.00    -0.093 OA 
HETATM   36  O   UNL     1      -8.188   6.070  69.902  1.00  0.00    -0.114 OA 
HETATM   37  O   UNL     1     -10.405   4.973  69.734  1.00  0.00    -0.277 OA 
ENDBRANCH   8  33
TORSDOF 6
ENDMDL
MODEL       18
REMARK 921   NORMALIZED FREE ENERGY PREDICTED BY IDOCK:   -6.03 KCAL/MOL
REMARK 922        TOTAL FREE ENERGY PREDICTED BY IDOCK:  -10.25 KCAL/MOL
REMARK 923 INTER-LIGAND FREE ENERGY PREDICTED BY IDOCK:   -8.31 KCAL/MOL
REMARK 924 INTRA-LIGAND FREE ENERGY PREDICTED BY IDOCK:   -1.93 KCAL/MOL
REMARK 927      BINDING AFFINITY PREDICTED BY RF-SCORE:    0.00 PKD
ROOT
HETATM    1  O   UNL     1      -7.406   6.707  71.252  1.00  0.00    -0.080 OA 
HETATM    2  H   UNL     1      -7.749   5.889  71.592  1.00  0.00     0.000 HD 
HETATM    3  C   UNL     1      -8.455   7.387  70.568  1.00  0.00    -0.137 C  
HETATM    4  C   UNL     1      -7.908   8.694  70.024  1.00  0.00    -0.103 C  
HETATM    5  O   UNL     1      -8.910   9.403  69.328  1.00  0.00    -0.137 OA 
HETATM    6  C   UNL     1      -9.997   9.799  70.141  1.00  0.00    -0.263 C  
HETATM    7  C   UNL     1     -10.689   8.598  70.829  1.00  0.00    -0.216 C  
HETATM    8  C   UNL     1      -9.671   7.626  71.478  1.00  0.00    -0.165 C  
ENDROOT
BRANCH   6   9
HETATM    9  O   UNL     1     -10.961  10.451  69.308  1.00  0.00    -0.213 OA 
BRANCH   9  10
HETATM   10  C   UNL     1     -10.958  11.883  69.389  1.00  0.00    -0.095 C  
HETATM   11  H   UNL     1     -12.596  16.153  68.262  1.00  0.00     0.000 HD 
HETATM   12  C   UNL     1     -11.098  12.466  67.957  1.00  0.00    -0.245 C  
HETATM   13  C   UNL     1     -12.079  12.431  70.286  1.00  0.00    -0.297 C  
HETATM   14  C   UNL     1     -11.275  13.997  68.006  1.00  0.00    -0.279 C  
HETATM   15  O   UNL     1     -12.409  15.800  69.124  1.00  0.00    -0.212 OA 
HETATM   16  O   UNL     1     -12.099  13.856  70.289  1.00  0.00    -0.312 OA 
HETATM   17  C   UNL     1     -12.377  14.383  69.001  1.00  0.00    -0.095 C  
BRANCH  14  18
HETATM   18  O   UNL     1     -11.374  14.632  66.734  1.00  0.00    -0.339 OA 
HETATM   19  S   UNL     1     -10.333  15.754  66.201  1.00  0.00    -0.337 S  
HETATM   20  O   UNL     1     -10.235  16.794  67.198  1.00  0.00    -0.283 OA 
HETATM   21  O   UNL     1      -8.921  14.990  66.147  1.00  0.00    -0.261 OA 
HETATM   22  O   UNL     1     -10.681  16.039  64.828  1.00  0.00    -0.611 OA 
ENDBRANCH  14  18
BRANCH  12  23
HETATM   23  O   UNL     1     -10.041  12.053  67.078  1.00  0.00    -0.202 OA 
HETATM   24  S   UNL     1     -10.302  11.081  65.806  1.00  0.00    -0.242 S  
HETATM   25  O   UNL     1     -10.617   9.763  66.307  1.00  0.00    -0.133 OA 
HETATM   26  O   UNL     1      -8.830  10.967  65.167  1.00  0.00    -0.197 OA 
HETATM   27  O   UNL     1     -11.147  11.744  64.846  1.00  0.00    -0.305 OA 
ENDBRANCH  12  23
ENDBRANCH   9  10
ENDBRANCH   6   9
BRANCH   7  28
HETATM   28  O   UNL     1     -11.572   9.058  71.868  1.00  0.00    -0.345 OA 
HETATM   29  O   UNL     1     -13.739   9.852  70.934  1.00  0.00    -0.238 OA 
HETATM   30  O   UNL     1     -13.670   9.051  73.229  1.00  0.00    -0.141 OA 
HETATM   31  S   UNL     1     -13.174   8.782  71.724  1.00  0.00    -0.384 S  
HETATM   32  O   UNL     1     -13.387   7.386  71.432  1.00  0.00    -0.370 OA 
ENDBRANCH   7  28
BRANCH   8  33
HETATM   33  O   UNL     1     -10.371   6.392  71.711  1.00  0.00    -0.200 OA 
HETATM   34  S   UNL     1     -10.174   5.580  73.105  1.00  0.00    -0.202 S  
HETATM   35  O   UNL     1      -8.987   4.766  73.012  1.00  0.00    -0.115 OA 
HETATM   36  O   UNL     1     -10.431   6.483  74.205  1.00  0.00    -0.337 OA 
HETATM   37  O   UNL     1     -11.374   4.514  73.029  1.00  0.00    -0.220 OA 
ENDBRANCH   8  33
TORSDOF 6
ENDMDL
MODEL       19
REMARK 921   NORMALIZED FREE ENERGY PREDICTED BY IDOCK:   -5.96 KCAL/MOL
REMARK 922        TOTAL FREE ENERGY PREDICTED BY IDOCK:  -10.15 KCAL/MOL
REMARK 923 INTER-LIGAND FREE ENERGY PREDICTED BY IDOCK:   -8.02 KCAL/MOL
REMARK 924 INTRA-LIGAND FREE ENERGY PREDICTED BY IDOCK:   -2.14 KCAL/MOL
REMARK 927      BINDING AFFINITY PREDICTED BY RF-SCORE:    0.00 PKD
ROOT
HETATM    1  O   UNL     1     -12.273  13.975  63.107  1.00  0.00    -1.071 OA 
HETATM    2  H   UNL     1     -11.941  14.863  63.053  1.00  0.00     0.000 HD 
HETATM    3  C   UNL     1     -11.286  13.159  63.732  1.00  0.00    -0.322 C  
HETATM    4  C   UNL     1     -11.819  11.740  63.819  1.00  0.00    -0.380 C  
HETATM    5  O   UNL     1     -10.870  10.888  64.425  1.00  0.00    -0.299 OA 
HETATM    6  C   UNL     1     -10.577  11.226  65.766  1.00  0.00    -0.248 C  
HETATM    7  C   UNL     1     -10.042  12.671  65.909  1.00  0.00    -0.264 C  
HETATM    8  C   UNL     1     -10.897  13.695  65.120  1.00  0.00    -0.334 C  
ENDROOT
BRANCH   6   9
HETATM    9  O   UNL     1      -9.569  10.328  66.241  1.00  0.00    -0.172 OA 
BRANCH   9  10
HETATM   10  C   UNL     1      -9.956   8.948  66.274  1.00  0.00    -0.266 C  
HETATM   11  H   UNL     1      -9.254   4.418  67.358  1.00  0.00     0.000 HD 
HETATM   12  C   UNL     1      -8.743   8.077  65.848  1.00  0.00    -0.157 C  
HETATM   13  C   UNL     1     -10.455   8.503  67.657  1.00  0.00    -0.241 C  
HETATM   14  C   UNL     1      -9.055   6.578  66.035  1.00  0.00    -0.086 C  
HETATM   15  O   UNL     1     -10.023   4.953  67.521  1.00  0.00    -0.170 OA 
HETATM   16  O   UNL     1     -10.762   7.112  67.682  1.00  0.00    -0.240 OA 
HETATM   17  C   UNL     1      -9.614   6.313  67.439  1.00  0.00    -0.119 C  
BRANCH  14  18
HETATM   18  O   UNL     1      -8.013   5.693  65.633  1.00  0.00    -0.102 OA 
HETATM   19  S   UNL     1      -8.128   4.675  64.377  1.00  0.00    -0.112 S  
HETATM   20  O   UNL     1      -9.328   3.889  64.537  1.00  0.00    -0.136 OA 
HETATM   21  O   UNL     1      -8.335   5.636  63.107  1.00  0.00    -0.114 OA 
HETATM   22  O   UNL     1      -6.829   4.065  64.205  1.00  0.00    -0.043 OA 
ENDBRANCH  14  18
BRANCH  12  23
HETATM   23  O   UNL     1      -8.265   8.389  64.530  1.00  0.00    -0.158 OA 
HETATM   24  S   UNL     1      -6.744   8.880  64.255  1.00  0.00    -0.079 S  
HETATM   25  O   UNL     1      -6.598  10.212  64.797  1.00  0.00    -0.123 OA 
HETATM   26  O   UNL     1      -6.735   9.054  62.655  1.00  0.00    -0.095 OA 
HETATM   27  O   UNL     1      -5.819   7.826  64.587  1.00  0.00    -0.040 OA 
ENDBRANCH  12  23
ENDBRANCH   9  10
ENDBRANCH   6   9
BRANCH   7  28
HETATM   28  O   UNL     1     -10.050  13.073  67.290  1.00  0.00    -0.231 OA 
HETATM   29  O   UNL     1      -7.976  12.347  68.461  1.00  0.00    -0.149 OA 
HETATM   30  O   UNL     1      -9.191  14.277  69.308  1.00  0.00     0.061 OA 
HETATM   31  S   UNL     1      -8.649  13.535  67.988  1.00  0.00    -0.185 S  
HETATM   32  O   UNL     1      -8.013  14.526  67.155  1.00  0.00    -0.198 OA 
ENDBRANCH   7  28
BRANCH   8  33
HETATM   33  O   UNL     1     -10.100  14.884  64.990  1.00  0.00    -0.360 OA 
HETATM   34  S   UNL     1     -10.687  16.329  65.448  1.00  0.00    -0.254 S  
HETATM   35  O   UNL     1     -11.484  16.873  64.377  1.00  0.00    -1.052 OA 
HETATM   36  O   UNL     1     -11.159  16.223  66.811  1.00  0.00    -0.114 OA 
HETATM   37  O   UNL     1      -9.361  17.235  65.436  1.00  0.00    -0.166 OA 
ENDBRANCH   8  33
TORSDOF 6
ENDMDL
MODEL       20
REMARK 921   NORMALIZED FREE ENERGY PREDICTED BY IDOCK:   -5.94 KCAL/MOL
REMARK 922        TOTAL FREE ENERGY PREDICTED BY IDOCK:  -10.12 KCAL/MOL
REMARK 923 INTER-LIGAND FREE ENERGY PREDICTED BY IDOCK:   -9.51 KCAL/MOL
REMARK 924 INTRA-LIGAND FREE ENERGY PREDICTED BY IDOCK:   -0.60 KCAL/MOL
REMARK 927      BINDING AFFINITY PREDICTED BY RF-SCORE:    0.00 PKD
ROOT
HETATM    1  O   UNL     1      -7.091  14.509  68.040  1.00  0.00    -0.109 OA 
HETATM    2  H   UNL     1      -7.446  15.345  68.317  1.00  0.00     0.000 HD 
HETATM    3  C   UNL     1      -8.174  13.612  67.807  1.00  0.00    -0.179 C  
HETATM    4  C   UNL     1      -7.607  12.276  67.363  1.00  0.00    -0.159 C  
HETATM    5  O   UNL     1      -8.644  11.347  67.129  1.00  0.00    -0.142 OA 
HETATM    6  C   UNL     1      -9.513  11.717  66.076  1.00  0.00    -0.230 C  
HETATM    7  C   UNL     1     -10.182  13.091  66.317  1.00  0.00    -0.288 C  
HETATM    8  C   UNL     1      -9.167  14.168  66.773  1.00  0.00    -0.266 C  
ENDROOT
BRANCH   6   9
HETATM    9  O   UNL     1     -10.543  10.729  65.981  1.00  0.00    -0.228 OA 
BRANCH   9  10
HETATM   10  C   UNL     1     -11.134  10.351  67.231  1.00  0.00    -0.179 C  
HETATM   11  H   UNL     1     -10.937   9.309  71.821  1.00  0.00     0.000 HD 
HETATM   12  C   UNL     1     -10.256   9.251  67.889  1.00  0.00    -0.214 C  
HETATM   13  C   UNL     1     -11.293  11.535  68.196  1.00  0.00    -0.298 C  
HETATM   14  C   UNL     1     -10.753   8.936  69.314  1.00  0.00    -0.162 C  
HETATM   15  O   UNL     1     -11.527   9.906  71.375  1.00  0.00    -0.371 OA 
HETATM   16  O   UNL     1     -11.813  11.119  69.457  1.00  0.00    -0.295 OA 
HETATM   17  C   UNL     1     -10.933  10.227  70.122  1.00  0.00    -0.314 C  
BRANCH  14  18
HETATM   18  O   UNL     1     -10.032   7.908  69.988  1.00  0.00    -0.187 OA 
HETATM   19  S   UNL     1     -10.654   6.455  70.348  1.00  0.00    -0.260 S  
HETATM   20  O   UNL     1     -11.893   6.655  71.061  1.00  0.00    -0.348 OA 
HETATM   21  O   UNL     1     -11.007   5.812  68.919  1.00  0.00    -0.286 OA 
HETATM   22  O   UNL     1      -9.580   5.655  70.888  1.00  0.00    -0.162 OA 
ENDBRANCH  14  18
BRANCH  12  23
HETATM   23  O   UNL     1     -10.121   8.079  67.071  1.00  0.00    -0.222 OA 
HETATM   24  S   UNL     1      -8.676   7.528  66.580  1.00  0.00    -0.146 S  
HETATM   25  O   UNL     1      -8.146   8.460  65.611  1.00  0.00    -0.111 OA 
HETATM   26  O   UNL     1      -9.088   6.215  65.745  1.00  0.00    -0.135 OA 
HETATM   27  O   UNL     1      -7.901   7.101  67.716  1.00  0.00    -0.110 OA 
ENDBRANCH  12  23
ENDBRANCH   9  10
ENDBRANCH   6   9
BRANCH   7  28
HETATM   28  O   UNL     1     -10.802  13.564  65.108  1.00  0.00    -0.303 OA 
HETATM   29  O   UNL     1     -12.957  12.395  64.673  1.00  0.00    -0.793 OA 
HETATM   30  O   UNL     1     -12.621  14.621  63.756  1.00  0.00    -0.820 OA 
HETATM   31  S   UNL     1     -12.428  13.686  65.049  1.00  0.00    -0.396 S  
HETATM   32  O   UNL     1     -12.888  14.424  66.199  1.00  0.00    -0.251 OA 
ENDBRANCH   7  28
BRANCH   8  33
HETATM   33  O   UNL     1      -9.933  15.243  67.345  1.00  0.00    -0.222 OA 
HETATM   34  S   UNL     1      -9.748  16.767  66.812  1.00  0.00    -0.277 S  
HETATM   35  O   UNL     1      -8.616  17.363  67.476  1.00  0.00    -0.215 OA 
HETATM   36  O   UNL     1      -9.919  16.777  65.376  1.00  0.00    -0.572 OA 
HETATM   37  O   UNL     1     -11.012  17.498  67.482  1.00  0.00    -0.265 OA 
ENDBRANCH   8  33
TORSDOF 6
ENDMDL
MODEL       21
REMARK 921   NORMALIZED FREE ENERGY PREDICTED BY IDOCK:   -5.92 KCAL/MOL
REMARK 922        TOTAL FREE ENERGY PREDICTED BY IDOCK:  -10.10 KCAL/MOL
REMARK 923 INTER-LIGAND FREE ENERGY PREDICTED BY IDOCK:  -10.49 KCAL/MOL
REMARK 924 INTRA-LIGAND FREE ENERGY PREDICTED BY IDOCK:    0.39 KCAL/MOL
REMARK 927      BINDING AFFINITY PREDICTED BY RF-SCORE:    0.00 PKD
ROOT
HETATM    1  O   UNL     1      -8.344  19.683  67.860  1.00  0.00    -0.301 OA 
HETATM    2  H   UNL     1      -7.690  19.902  67.207  1.00  0.00     0.000 HD 
HETATM    3  C   UNL     1      -9.209  18.689  67.318  1.00  0.00    -0.287 C  
HETATM    4  C   UNL     1     -10.254  18.339  68.362  1.00  0.00    -0.380 C  
HETATM    5  O   UNL     1     -11.144  17.361  67.869  1.00  0.00    -0.256 OA 
HETATM    6  C   UNL     1     -10.525  16.124  67.576  1.00  0.00    -0.302 C  
HETATM    7  C   UNL     1      -9.386  16.263  66.539  1.00  0.00    -0.271 C  
HETATM    8  C   UNL     1      -8.434  17.441  66.865  1.00  0.00    -0.241 C  
ENDROOT
BRANCH   6   9
HETATM    9  O   UNL     1     -11.517  15.247  67.035  1.00  0.00    -0.286 OA 
BRANCH   9  10
HETATM   10  C   UNL     1     -11.966  14.218  67.928  1.00  0.00    -0.329 C  
HETATM   11  H   UNL     1     -11.457  10.133  70.218  1.00  0.00     0.000 HD 
HETATM   12  C   UNL     1     -11.671  12.834  67.287  1.00  0.00    -0.378 C  
HETATM   13  C   UNL     1     -11.304  14.302  69.312  1.00  0.00    -0.283 C  
HETATM   14  C   UNL     1     -11.976  11.697  68.283  1.00  0.00    -0.166 C  
HETATM   15  O   UNL     1     -11.728  10.976  70.565  1.00  0.00    -0.322 OA 
HETATM   16  O   UNL     1     -11.711  13.226  70.154  1.00  0.00    -0.272 OA 
HETATM   17  C   UNL     1     -11.306  11.969  69.636  1.00  0.00    -0.179 C  
BRANCH  14  18
HETATM   18  O   UNL     1     -11.772  10.382  67.772  1.00  0.00    -0.353 OA 
HETATM   19  S   UNL     1     -10.329   9.644  67.727  1.00  0.00    -0.251 S  
HETATM   20  O   UNL     1      -9.393  10.518  67.060  1.00  0.00    -0.153 OA 
HETATM   21  O   UNL     1      -9.891   9.537  69.268  1.00  0.00    -0.167 OA 
HETATM   22  O   UNL     1     -10.560   8.288  67.286  1.00  0.00    -0.301 OA 
ENDBRANCH  14  18
BRANCH  12  23
HETATM   23  O   UNL     1     -12.318  12.656  66.018  1.00  0.00    -0.587 OA 
HETATM   24  S   UNL     1     -11.486  12.542  64.630  1.00  0.00    -0.344 S  
HETATM   25  O   UNL     1     -10.921  13.840  64.340  1.00  0.00    -0.390 OA 
HETATM   26  O   UNL     1     -12.663  12.325  63.554  1.00  0.00    -0.729 OA 
HETATM   27  O   UNL     1     -10.675  11.352  64.640  1.00  0.00    -0.307 OA 
ENDBRANCH  12  23
ENDBRANCH   9  10
ENDBRANCH   6   9
BRANCH   7  28
HETATM   28  O   UNL     1      -8.594  15.062  66.503  1.00  0.00    -0.253 OA 
HETATM   29  O   UNL     1      -6.263  15.486  67.268  1.00  0.00    -0.310 OA 
HETATM   30  O   UNL     1      -7.183  13.246  67.485  1.00  0.00    -0.151 OA 
HETATM   31  S   UNL     1      -7.478  14.815  67.668  1.00  0.00    -0.197 S  
HETATM   32  O   UNL     1      -8.096  15.000  68.958  1.00  0.00    -0.157 OA 
ENDBRANCH   7  28
BRANCH   8  33
HETATM   33  O   UNL     1      -7.696  17.721  65.663  1.00  0.00    -0.545 OA 
HETATM   34  S   UNL     1      -6.599  18.919  65.625  1.00  0.00    -0.266 S  
HETATM   35  O   UNL     1      -7.275  20.167  65.374  1.00  0.00    -0.321 OA 
HETATM   36  O   UNL     1      -5.669  18.727  66.715  1.00  0.00    -0.151 OA 
HETATM   37  O   UNL     1      -5.836  18.613  64.244  1.00  0.00    -0.303 OA 
ENDBRANCH   8  33
TORSDOF 6
ENDMDL
MODEL       22
REMARK 921   NORMALIZED FREE ENERGY PREDICTED BY IDOCK:   -5.91 KCAL/MOL
REMARK 922        TOTAL FREE ENERGY PREDICTED BY IDOCK:  -10.08 KCAL/MOL
REMARK 923 INTER-LIGAND FREE ENERGY PREDICTED BY IDOCK:   -8.48 KCAL/MOL
REMARK 924 INTRA-LIGAND FREE ENERGY PREDICTED BY IDOCK:   -1.60 KCAL/MOL
REMARK 927      BINDING AFFINITY PREDICTED BY RF-SCORE:    0.00 PKD
ROOT
HETATM    1  O   UNL     1     -11.937  15.587  69.505  1.00  0.00    -0.343 OA 
HETATM    2  H   UNL     1     -12.058  16.067  68.695  1.00  0.00     0.000 HD 
HETATM    3  C   UNL     1     -12.136  14.200  69.242  1.00  0.00    -0.324 C  
HETATM    4  C   UNL     1     -11.942  13.432  70.537  1.00  0.00    -0.255 C  
HETATM    5  O   UNL     1     -12.140  12.049  70.330  1.00  0.00    -0.351 OA 
HETATM    6  C   UNL     1     -11.205  11.467  69.443  1.00  0.00    -0.259 C  
HETATM    7  C   UNL     1     -11.215  12.138  68.049  1.00  0.00    -0.264 C  
HETATM    8  C   UNL     1     -11.196  13.685  68.141  1.00  0.00    -0.275 C  
ENDROOT
BRANCH   6   9
HETATM    9  O   UNL     1     -11.548  10.088  69.277  1.00  0.00    -0.121 OA 
BRANCH   9  10
HETATM   10  C   UNL     1     -10.560   9.160  69.743  1.00  0.00    -0.229 C  
HETATM   11  H   UNL     1      -8.906   4.811  70.484  1.00  0.00     0.000 HD 
HETATM   12  C   UNL     1     -11.270   8.027  70.534  1.00  0.00    -0.250 C  
HETATM   13  C   UNL     1      -9.727   8.554  68.603  1.00  0.00    -0.164 C  
HETATM   14  C   UNL     1     -10.271   6.913  70.907  1.00  0.00    -0.197 C  
HETATM   15  O   UNL     1      -8.462   5.553  70.088  1.00  0.00    -0.113 OA 
HETATM   16  O   UNL     1      -8.804   7.581  69.086  1.00  0.00    -0.136 OA 
HETATM   17  C   UNL     1      -9.466   6.473  69.676  1.00  0.00    -0.145 C  
BRANCH  14  18
HETATM   18  O   UNL     1     -10.822   5.843  71.670  1.00  0.00    -0.247 OA 
HETATM   19  S   UNL     1     -10.374   5.493  73.188  1.00  0.00    -0.221 S  
HETATM   20  O   UNL     1      -8.937   5.352  73.218  1.00  0.00    -0.121 OA 
HETATM   21  O   UNL     1     -10.757   6.808  74.026  1.00  0.00    -0.272 OA 
HETATM   22  O   UNL     1     -11.256   4.451  73.661  1.00  0.00    -0.287 OA 
ENDBRANCH  14  18
BRANCH  12  23
HETATM   23  O   UNL     1     -12.013   8.512  71.662  1.00  0.00    -0.283 OA 
HETATM   24  S   UNL     1     -13.634   8.474  71.713  1.00  0.00    -0.391 S  
HETATM   25  O   UNL     1     -14.135   9.441  70.763  1.00  0.00     0.023 OA 
HETATM   26  O   UNL     1     -13.936   9.090  73.168  1.00  0.00    -0.313 OA 
HETATM   27  O   UNL     1     -14.093   7.108  71.710  1.00  0.00    -0.384 OA 
ENDBRANCH  12  23
ENDBRANCH   9  10
ENDBRANCH   6   9
BRANCH   7  28
HETATM   28  O   UNL     1     -10.060  11.735  67.291  1.00  0.00    -0.191 OA 
HETATM   29  O   UNL     1     -10.486   9.625  66.039  1.00  0.00    -0.157 OA 
HETATM   30  O   UNL     1      -8.801  11.167  65.206  1.00  0.00    -0.171 OA 
HETATM   31  S   UNL     1     -10.276  11.039  65.831  1.00  0.00    -0.258 S  
HETATM   32  O   UNL     1     -11.161  11.862  65.044  1.00  0.00    -0.313 OA 
ENDBRANCH   7  28
BRANCH   8  33
HETATM   33  O   UNL     1     -11.612  14.180  66.857  1.00  0.00    -0.351 OA 
HETATM   34  S   UNL     1     -10.699  15.254  66.047  1.00  0.00    -0.327 S  
HETATM   35  O   UNL     1     -10.991  16.579  66.534  1.00  0.00    -0.119 OA 
HETATM   36  O   UNL     1      -9.357  14.728  65.937  1.00  0.00    -0.271 OA 
HETATM   37  O   UNL     1     -11.381  15.223  64.592  1.00  0.00    -0.398 OA 
ENDBRANCH   8  33
TORSDOF 6
ENDMDL
MODEL       23
REMARK 921   NORMALIZED FREE ENERGY PREDICTED BY IDOCK:   -5.80 KCAL/MOL
REMARK 922        TOTAL FREE ENERGY PREDICTED BY IDOCK:   -9.93 KCAL/MOL
REMARK 923 INTER-LIGAND FREE ENERGY PREDICTED BY IDOCK:   -8.16 KCAL/MOL
REMARK 924 INTRA-LIGAND FREE ENERGY PREDICTED BY IDOCK:   -1.77 KCAL/MOL
REMARK 927      BINDING AFFINITY PREDICTED BY RF-SCORE:    0.00 PKD
ROOT
HETATM    1  O   UNL     1      -8.808   6.228  69.374  1.00  0.00    -0.126 OA 
HETATM    2  H   UNL     1      -9.550   5.803  69.788  1.00  0.00     0.000 HD 
HETATM    3  C   UNL     1      -9.277   7.378  68.675  1.00  0.00    -0.143 C  
HETATM    4  C   UNL     1      -8.091   8.057  68.014  1.00  0.00    -0.129 C  
HETATM    5  O   UNL     1      -8.507   9.201  67.299  1.00  0.00    -0.120 OA 
HETATM    6  C   UNL     1      -9.068  10.210  68.115  1.00  0.00    -0.128 C  
HETATM    7  C   UNL     1     -10.293   9.709  68.918  1.00  0.00    -0.203 C  
HETATM    8  C   UNL     1     -10.028   8.346  69.604  1.00  0.00    -0.193 C  
ENDROOT
BRANCH   6   9
HETATM    9  O   UNL     1      -9.498  11.281  67.269  1.00  0.00    -0.171 OA 
BRANCH   9  10
HETATM   10  C   UNL     1      -8.767  12.504  67.425  1.00  0.00    -0.189 C  
HETATM   11  H   UNL     1      -8.204  16.870  69.101  1.00  0.00     0.000 HD 
HETATM   12  C   UNL     1      -9.741  13.699  67.229  1.00  0.00    -0.243 C  
HETATM   13  C   UNL     1      -8.078  12.615  68.794  1.00  0.00     0.096 C  
HETATM   14  C   UNL     1      -9.041  15.033  67.559  1.00  0.00    -0.185 C  
HETATM   15  O   UNL     1      -7.589  16.146  69.122  1.00  0.00    -0.212 OA 
HETATM   16  O   UNL     1      -7.422  13.871  68.951  1.00  0.00    -0.120 OA 
HETATM   17  C   UNL     1      -8.339  14.953  68.921  1.00  0.00    -0.178 C  
BRANCH  14  18
HETATM   18  O   UNL     1      -9.845  16.195  67.372  1.00  0.00    -0.233 OA 
HETATM   19  S   UNL     1      -9.702  17.197  66.106  1.00  0.00    -0.204 S  
HETATM   20  O   UNL     1      -8.321  17.603  66.001  1.00  0.00    -0.497 OA 
HETATM   21  O   UNL     1     -10.043  16.278  64.834  1.00  0.00    -0.412 OA 
HETATM   22  O   UNL     1     -10.778  18.156  66.201  1.00  0.00    -0.320 OA 
ENDBRANCH  14  18
BRANCH  12  23
HETATM   23  O   UNL     1     -10.371  13.701  65.939  1.00  0.00    -0.287 OA 
HETATM   24  S   UNL     1     -11.944  13.356  65.743  1.00  0.00    -0.434 S  
HETATM   25  O   UNL     1     -12.129  11.947  66.008  1.00  0.00    -0.500 OA 
HETATM   26  O   UNL     1     -12.127  13.531  64.154  1.00  0.00    -0.420 OA 
HETATM   27  O   UNL     1     -12.751  14.357  66.391  1.00  0.00    -0.242 OA 
ENDBRANCH  12  23
ENDBRANCH   9  10
ENDBRANCH   6   9
BRANCH   7  28
HETATM   28  O   UNL     1     -10.636  10.654  69.947  1.00  0.00    -0.238 OA 
HETATM   29  O   UNL     1     -12.079  12.479  69.062  1.00  0.00    -0.259 OA 
HETATM   30  O   UNL     1     -12.200  11.927  71.427  1.00  0.00    -0.116 OA 
HETATM   31  S   UNL     1     -12.121  11.330  69.937  1.00  0.00    -0.334 S  
HETATM   32  O   UNL     1     -13.112  10.288  69.826  1.00  0.00     0.060 OA 
ENDBRANCH   7  28
BRANCH   8  33
HETATM   33  O   UNL     1     -11.313   7.804  69.957  1.00  0.00    -0.185 OA 
HETATM   34  S   UNL     1     -11.638   7.374  71.490  1.00  0.00    -0.288 S  
HETATM   35  O   UNL     1     -11.132   6.044  71.722  1.00  0.00    -0.259 OA 
HETATM   36  O   UNL     1     -11.345   8.495  72.355  1.00  0.00    -0.366 OA 
HETATM   37  O   UNL     1     -13.231   7.173  71.436  1.00  0.00    -0.385 OA 
ENDBRANCH   8  33
TORSDOF 6
ENDMDL
MODEL       24
REMARK 921   NORMALIZED FREE ENERGY PREDICTED BY IDOCK:   -5.75 KCAL/MOL
REMARK 922        TOTAL FREE ENERGY PREDICTED BY IDOCK:   -9.86 KCAL/MOL
REMARK 923 INTER-LIGAND FREE ENERGY PREDICTED BY IDOCK:   -9.34 KCAL/MOL
REMARK 924 INTRA-LIGAND FREE ENERGY PREDICTED BY IDOCK:   -0.52 KCAL/MOL
REMARK 927      BINDING AFFINITY PREDICTED BY RF-SCORE:    0.00 PKD
ROOT
HETATM    1  O   UNL     1     -12.591  15.064  66.273  1.00  0.00     0.085 OA 
HETATM    2  H   UNL     1     -13.074  14.770  65.511  1.00  0.00     0.000 HD 
HETATM    3  C   UNL     1     -12.158  13.920  67.004  1.00  0.00    -0.415 C  
HETATM    4  C   UNL     1     -11.386  14.391  68.223  1.00  0.00    -0.287 C  
HETATM    5  O   UNL     1     -10.942  13.290  68.988  1.00  0.00    -0.247 OA 
HETATM    6  C   UNL     1     -10.028  12.454  68.305  1.00  0.00    -0.224 C  
HETATM    7  C   UNL     1     -10.615  11.885  66.991  1.00  0.00    -0.227 C  
HETATM    8  C   UNL     1     -11.311  12.974  66.137  1.00  0.00    -0.314 C  
ENDROOT
BRANCH   6   9
HETATM    9  O   UNL     1      -9.704  11.355  69.162  1.00  0.00    -0.074 OA 
BRANCH   9  10
HETATM   10  C   UNL     1     -10.829  10.586  69.610  1.00  0.00    -0.274 C  
HETATM   11  H   UNL     1     -13.606   8.770  72.953  1.00  0.00     0.000 HD 
HETATM   12  C   UNL     1     -10.379   9.679  70.788  1.00  0.00    -0.286 C  
HETATM   13  C   UNL     1     -12.011  11.463  70.051  1.00  0.00    -0.363 C  
HETATM   14  C   UNL     1     -11.590   8.962  71.418  1.00  0.00    -0.312 C  
HETATM   15  O   UNL     1     -13.858   9.247  72.170  1.00  0.00    -0.427 OA 
HETATM   16  O   UNL     1     -13.086  10.677  70.560  1.00  0.00    -0.295 OA 
HETATM   17  C   UNL     1     -12.710   9.964  71.728  1.00  0.00    -0.428 C  
BRANCH  14  18
HETATM   18  O   UNL     1     -11.274   8.074  72.486  1.00  0.00    -0.333 OA 
HETATM   19  S   UNL     1     -11.423   6.463  72.395  1.00  0.00    -0.262 S  
HETATM   20  O   UNL     1     -12.764   6.154  71.956  1.00  0.00    -0.140 OA 
HETATM   21  O   UNL     1     -10.412   6.038  71.222  1.00  0.00    -0.214 OA 
HETATM   22  O   UNL     1     -10.870   5.915  73.612  1.00  0.00    -0.262 OA 
ENDBRANCH  14  18
BRANCH  12  23
HETATM   23  O   UNL     1      -9.320   8.779  70.428  1.00  0.00    -0.161 OA 
HETATM   24  S   UNL     1      -7.864   8.825  71.142  1.00  0.00    -0.132 S  
HETATM   25  O   UNL     1      -7.196  10.034  70.718  1.00  0.00    -0.328 OA 
HETATM   26  O   UNL     1      -7.095   7.617  70.407  1.00  0.00    -0.056 OA 
HETATM   27  O   UNL     1      -7.990   8.482  72.535  1.00  0.00    -0.278 OA 
ENDBRANCH  12  23
ENDBRANCH   9  10
ENDBRANCH   6   9
BRANCH   7  28
HETATM   28  O   UNL     1      -9.572  11.305  66.188  1.00  0.00    -0.200 OA 
HETATM   29  O   UNL     1      -8.386   9.488  67.410  1.00  0.00    -0.123 OA 
HETATM   30  O   UNL     1      -8.405   9.452  64.978  1.00  0.00    -0.133 OA 
HETATM   31  S   UNL     1      -9.286   9.702  66.300  1.00  0.00    -0.202 S  
HETATM   32  O   UNL     1     -10.530   8.990  66.142  1.00  0.00    -0.118 OA 
ENDBRANCH   7  28
BRANCH   8  33
HETATM   33  O   UNL     1     -12.144  12.286  65.189  1.00  0.00    -0.396 OA 
HETATM   34  S   UNL     1     -11.999  12.575  63.596  1.00  0.00    -0.567 S  
HETATM   35  O   UNL     1     -12.767  13.748  63.259  1.00  0.00    -0.783 OA 
HETATM   36  O   UNL     1     -10.614  12.401  63.221  1.00  0.00    -0.410 OA 
HETATM   37  O   UNL     1     -12.853  11.366  62.971  1.00  0.00    -0.155 OA 
ENDBRANCH   8  33
TORSDOF 6
ENDMDL
MODEL       25
REMARK 921   NORMALIZED FREE ENERGY PREDICTED BY IDOCK:   -5.71 KCAL/MOL
REMARK 922        TOTAL FREE ENERGY PREDICTED BY IDOCK:   -9.81 KCAL/MOL
REMARK 923 INTER-LIGAND FREE ENERGY PREDICTED BY IDOCK:   -7.90 KCAL/MOL
REMARK 924 INTRA-LIGAND FREE ENERGY PREDICTED BY IDOCK:   -1.91 KCAL/MOL
REMARK 927      BINDING AFFINITY PREDICTED BY RF-SCORE:    0.00 PKD
ROOT
HETATM    1  O   UNL     1     -12.301  14.051  63.109  1.00  0.00    -1.133 OA 
HETATM    2  H   UNL     1     -11.943  14.930  63.081  1.00  0.00     0.000 HD 
HETATM    3  C   UNL     1     -11.330  13.185  63.691  1.00  0.00    -0.257 C  
HETATM    4  C   UNL     1     -11.902  11.780  63.735  1.00  0.00    -0.380 C  
HETATM    5  O   UNL     1     -10.971  10.880  64.297  1.00  0.00    -0.235 OA 
HETATM    6  C   UNL     1     -10.650  11.161  65.645  1.00  0.00    -0.223 C  
HETATM    7  C   UNL     1     -10.071  12.585  65.831  1.00  0.00    -0.254 C  
HETATM    8  C   UNL     1     -10.906  13.659  65.091  1.00  0.00    -0.334 C  
ENDROOT
BRANCH   6   9
HETATM    9  O   UNL     1      -9.662  10.219  66.073  1.00  0.00    -0.193 OA 
BRANCH   9  10
HETATM   10  C   UNL     1     -10.119   9.262  67.038  1.00  0.00    -0.247 C  
HETATM   11  H   UNL     1      -9.566   6.567  70.863  1.00  0.00     0.000 HD 
HETATM   12  C   UNL     1      -9.000   8.209  67.269  1.00  0.00    -0.137 C  
HETATM   13  C   UNL     1     -10.509   9.907  68.377  1.00  0.00    -0.208 C  
HETATM   14  C   UNL     1      -9.374   7.260  68.425  1.00  0.00    -0.143 C  
HETATM   15  O   UNL     1     -10.286   7.150  70.649  1.00  0.00    -0.195 OA 
HETATM   16  O   UNL     1     -10.888   8.927  69.341  1.00  0.00    -0.208 OA 
HETATM   17  C   UNL     1      -9.813   8.058  69.660  1.00  0.00    -0.184 C  
BRANCH  14  18
HETATM   18  O   UNL     1      -8.424   6.231  68.689  1.00  0.00    -0.121 OA 
HETATM   19  S   UNL     1      -8.753   4.648  68.576  1.00  0.00    -0.101 S  
HETATM   20  O   UNL     1      -9.927   4.369  69.369  1.00  0.00    -0.197 OA 
HETATM   21  O   UNL     1      -9.142   4.434  67.032  1.00  0.00    -0.118 OA 
HETATM   22  O   UNL     1      -7.509   3.940  68.772  1.00  0.00    -0.054 OA 
ENDBRANCH  14  18
BRANCH  12  23
HETATM   23  O   UNL     1      -8.632   7.512  66.069  1.00  0.00    -0.140 OA 
HETATM   24  S   UNL     1      -7.117   7.529  65.488  1.00  0.00    -0.062 S  
HETATM   25  O   UNL     1      -6.844   8.858  64.991  1.00  0.00    -0.072 OA 
HETATM   26  O   UNL     1      -7.250   6.592  64.186  1.00  0.00    -0.057 OA 
HETATM   27  O   UNL     1      -6.229   6.874  66.413  1.00  0.00    -0.042 OA 
ENDBRANCH  12  23
ENDBRANCH   9  10
ENDBRANCH   6   9
BRANCH   7  28
HETATM   28  O   UNL     1     -10.049  12.937  67.226  1.00  0.00    -0.227 OA 
HETATM   29  O   UNL     1      -7.967  12.138  68.333  1.00  0.00    -0.147 OA 
HETATM   30  O   UNL     1      -9.136  14.055  69.268  1.00  0.00     0.196 OA 
HETATM   31  S   UNL     1      -8.629  13.352  67.914  1.00  0.00    -0.196 S  
HETATM   32  O   UNL     1      -7.992  14.362  67.105  1.00  0.00    -0.192 OA 
ENDBRANCH   7  28
BRANCH   8  33
HETATM   33  O   UNL     1     -10.077  14.830  64.991  1.00  0.00    -0.371 OA 
HETATM   34  S   UNL     1     -10.580  16.254  65.590  1.00  0.00    -0.296 S  
HETATM   35  O   UNL     1     -11.425  16.901  64.617  1.00  0.00    -0.724 OA 
HETATM   36  O   UNL     1     -10.964  16.065  66.971  1.00  0.00    -0.273 OA 
HETATM   37  O   UNL     1      -9.224  17.117  65.551  1.00  0.00    -0.376 OA 
ENDBRANCH   8  33
TORSDOF 6
ENDMDL
MODEL       26
REMARK 921   NORMALIZED FREE ENERGY PREDICTED BY IDOCK:   -5.66 KCAL/MOL
REMARK 922        TOTAL FREE ENERGY PREDICTED BY IDOCK:   -9.75 KCAL/MOL
REMARK 923 INTER-LIGAND FREE ENERGY PREDICTED BY IDOCK:   -8.86 KCAL/MOL
REMARK 924 INTRA-LIGAND FREE ENERGY PREDICTED BY IDOCK:   -0.89 KCAL/MOL
REMARK 927      BINDING AFFINITY PREDICTED BY RF-SCORE:    0.00 PKD
ROOT
HETATM    1  O   UNL     1     -12.254  14.865  64.282  1.00  0.00    -0.586 OA 
HETATM    2  H   UNL     1     -11.802  15.655  64.014  1.00  0.00     0.000 HD 
HETATM    3  C   UNL     1     -11.387  14.111  65.125  1.00  0.00    -0.336 C  
HETATM    4  C   UNL     1     -12.110  12.846  65.553  1.00  0.00    -0.458 C  
HETATM    5  O   UNL     1     -11.287  12.058  66.385  1.00  0.00    -0.325 OA 
HETATM    6  C   UNL     1     -10.943  12.686  67.605  1.00  0.00    -0.241 C  
HETATM    7  C   UNL     1     -10.213  14.034  67.392  1.00  0.00    -0.248 C  
HETATM    8  C   UNL     1     -10.921  14.926  66.342  1.00  0.00    -0.336 C  
ENDROOT
BRANCH   6   9
HETATM    9  O   UNL     1     -10.067  11.812  68.324  1.00  0.00    -0.186 OA 
BRANCH   9  10
HETATM   10  C   UNL     1     -10.588  10.499  68.565  1.00  0.00    -0.206 C  
HETATM   11  H   UNL     1     -10.307   6.124  70.289  1.00  0.00     0.000 HD 
HETATM   12  C   UNL     1      -9.481   9.455  68.252  1.00  0.00    -0.137 C  
HETATM   13  C   UNL     1     -11.087  10.311  70.006  1.00  0.00    -0.311 C  
HETATM   14  C   UNL     1      -9.935   8.039  68.661  1.00  0.00    -0.189 C  
HETATM   15  O   UNL     1     -11.013   6.752  70.384  1.00  0.00    -0.249 OA 
HETATM   16  O   UNL     1     -11.529   8.976  70.239  1.00  0.00    -0.230 OA 
HETATM   17  C   UNL     1     -10.475   8.038  70.097  1.00  0.00    -0.225 C  
BRANCH  14  18
HETATM   18  O   UNL     1      -8.998   7.003  68.377  1.00  0.00    -0.124 OA 
HETATM   19  S   UNL     1      -9.232   5.858  67.253  1.00  0.00    -0.114 S  
HETATM   20  O   UNL     1     -10.510   5.233  67.499  1.00  0.00    -0.187 OA 
HETATM   21  O   UNL     1      -9.341   6.674  65.874  1.00  0.00    -0.065 OA 
HETATM   22  O   UNL     1      -8.009   5.094  67.165  1.00  0.00    -0.099 OA 
ENDBRANCH  14  18
BRANCH  12  23
HETATM   23  O   UNL     1      -9.015   9.523  66.895  1.00  0.00    -0.129 OA 
HETATM   24  S   UNL     1      -7.486   9.919  66.524  1.00  0.00    -0.102 S  
HETATM   25  O   UNL     1      -7.300  11.320  66.827  1.00  0.00    -0.137 OA 
HETATM   26  O   UNL     1      -7.497   9.816  64.918  1.00  0.00    -0.116 OA 
HETATM   27  O   UNL     1      -6.584   8.914  67.023  1.00  0.00    -0.060 OA 
ENDBRANCH  12  23
ENDBRANCH   9  10
ENDBRANCH   6   9
BRANCH   7  28
HETATM   28  O   UNL     1     -10.160  14.773  68.625  1.00  0.00    -0.224 OA 
HETATM   29  O   UNL     1     -12.276  16.022  69.029  1.00  0.00    -0.205 OA 
HETATM   30  O   UNL     1     -10.900  15.391  70.933  1.00  0.00    -0.323 OA 
HETATM   31  S   UNL     1     -11.512  14.902  69.529  1.00  0.00    -0.316 S  
HETATM   32  O   UNL     1     -12.073  13.588  69.727  1.00  0.00    -0.318 OA 
ENDBRANCH   7  28
BRANCH   8  33
HETATM   33  O   UNL     1      -9.968  15.924  65.939  1.00  0.00    -0.302 OA 
HETATM   34  S   UNL     1     -10.364  17.500  65.949  1.00  0.00    -0.165 S  
HETATM   35  O   UNL     1     -11.056  17.819  64.725  1.00  0.00    -0.852 OA 
HETATM   36  O   UNL     1     -10.876  17.838  67.259  1.00  0.00    -0.293 OA 
HETATM   37  O   UNL     1      -8.927  18.195  65.768  1.00  0.00    -0.462 OA 
ENDBRANCH   8  33
TORSDOF 6
ENDMDL
MODEL       27
REMARK 921   NORMALIZED FREE ENERGY PREDICTED BY IDOCK:   -5.63 KCAL/MOL
REMARK 922        TOTAL FREE ENERGY PREDICTED BY IDOCK:   -9.71 KCAL/MOL
REMARK 923 INTER-LIGAND FREE ENERGY PREDICTED BY IDOCK:   -7.74 KCAL/MOL
REMARK 924 INTRA-LIGAND FREE ENERGY PREDICTED BY IDOCK:   -1.97 KCAL/MOL
REMARK 927      BINDING AFFINITY PREDICTED BY RF-SCORE:    0.00 PKD
ROOT
HETATM    1  O   UNL     1      -9.872   9.076  65.088  1.00  0.00    -0.375 OA 
HETATM    2  H   UNL     1     -10.035   8.236  65.498  1.00  0.00     0.000 HD 
HETATM    3  C   UNL     1      -9.662  10.047  66.110  1.00  0.00    -0.227 C  
HETATM    4  C   UNL     1      -9.401  11.390  65.452  1.00  0.00    -0.186 C  
HETATM    5  O   UNL     1      -9.196  12.390  66.427  1.00  0.00    -0.231 OA 
HETATM    6  C   UNL     1      -8.053  12.174  67.233  1.00  0.00    -0.176 C  
HETATM    7  C   UNL     1      -8.102  10.820  67.979  1.00  0.00    -0.114 C  
HETATM    8  C   UNL     1      -8.511   9.650  67.048  1.00  0.00    -0.124 C  
ENDROOT
BRANCH   6   9
HETATM    9  O   UNL     1      -7.993  13.219  68.208  1.00  0.00    -0.132 OA 
BRANCH   9  10
HETATM   10  C   UNL     1      -7.596  14.499  67.698  1.00  0.00    -0.182 C  
HETATM   11  H   UNL     1      -7.202  19.186  67.969  1.00  0.00     0.000 HD 
HETATM   12  C   UNL     1      -8.755  15.509  67.921  1.00  0.00    -0.163 C  
HETATM   13  C   UNL     1      -6.312  15.029  68.355  1.00  0.00    -0.107 C  
HETATM   14  C   UNL     1      -8.312  16.939  67.548  1.00  0.00    -0.189 C  
HETATM   15  O   UNL     1      -6.534  18.548  67.742  1.00  0.00    -0.204 OA 
HETATM   16  O   UNL     1      -5.981  16.333  67.885  1.00  0.00    -0.108 OA 
HETATM   17  C   UNL     1      -6.978  17.285  68.223  1.00  0.00    -0.186 C  
BRANCH  14  18
HETATM   18  O   UNL     1      -9.322  17.935  67.683  1.00  0.00    -0.254 OA 
HETATM   19  S   UNL     1      -9.850  18.856  66.458  1.00  0.00    -0.387 S  
HETATM   20  O   UNL     1      -8.708  19.478  65.831  1.00  0.00    -0.417 OA 
HETATM   21  O   UNL     1     -10.473  17.806  65.414  1.00  0.00    -0.641 OA 
HETATM   22  O   UNL     1     -10.966  19.627  66.957  1.00  0.00    -0.462 OA 
ENDBRANCH  14  18
BRANCH  12  23
HETATM   23  O   UNL     1      -9.974  15.114  67.273  1.00  0.00    -0.228 OA 
HETATM   24  S   UNL     1     -11.335  14.809  68.100  1.00  0.00    -0.320 S  
HETATM   25  O   UNL     1     -11.144  13.584  68.841  1.00  0.00    -0.252 OA 
HETATM   26  O   UNL     1     -12.369  14.452  66.920  1.00  0.00    -0.371 OA 
HETATM   27  O   UNL     1     -11.799  16.013  68.742  1.00  0.00    -0.375 OA 
ENDBRANCH  12  23
ENDBRANCH   9  10
ENDBRANCH   6   9
BRANCH   7  28
HETATM   28  O   UNL     1      -6.811  10.505  68.530  1.00  0.00    -0.062 OA 
HETATM   29  O   UNL     1      -6.315  11.895  70.535  1.00  0.00    -0.216 OA 
HETATM   30  O   UNL     1      -5.232   9.730  70.307  1.00  0.00    -0.034 OA 
HETATM   31  S   UNL     1      -6.614  10.535  70.149  1.00  0.00    -0.136 S  
HETATM   32  O   UNL     1      -7.655   9.749  70.765  1.00  0.00    -0.300 OA 
ENDBRANCH   7  28
BRANCH   8  33
HETATM   33  O   UNL     1      -8.913   8.565  67.901  1.00  0.00    -0.136 OA 
HETATM   34  S   UNL     1      -8.354   7.060  67.646  1.00  0.00    -0.116 S  
HETATM   35  O   UNL     1      -9.161   6.424  66.635  1.00  0.00    -0.136 OA 
HETATM   36  O   UNL     1      -6.909   7.108  67.593  1.00  0.00    -0.068 OA 
HETATM   37  O   UNL     1      -8.790   6.320  69.004  1.00  0.00    -0.124 OA 
ENDBRANCH   8  33
TORSDOF 6
ENDMDL
MODEL       28
REMARK 921   NORMALIZED FREE ENERGY PREDICTED BY IDOCK:   -5.55 KCAL/MOL
REMARK 922        TOTAL FREE ENERGY PREDICTED BY IDOCK:   -9.59 KCAL/MOL
REMARK 923 INTER-LIGAND FREE ENERGY PREDICTED BY IDOCK:   -8.26 KCAL/MOL
REMARK 924 INTRA-LIGAND FREE ENERGY PREDICTED BY IDOCK:   -1.33 KCAL/MOL
REMARK 927      BINDING AFFINITY PREDICTED BY RF-SCORE:    0.00 PKD
ROOT
HETATM    1  O   UNL     1     -12.226  14.805  67.617  1.00  0.00    -0.563 OA 
HETATM    2  H   UNL     1     -12.553  14.911  66.732  1.00  0.00     0.000 HD 
HETATM    3  C   UNL     1     -11.873  13.438  67.810  1.00  0.00    -0.358 C  
HETATM    4  C   UNL     1     -11.350  13.270  69.225  1.00  0.00    -0.253 C  
HETATM    5  O   UNL     1     -10.993  11.927  69.468  1.00  0.00    -0.158 OA 
HETATM    6  C   UNL     1      -9.934  11.462  68.655  1.00  0.00    -0.202 C  
HETATM    7  C   UNL     1     -10.253  11.579  67.145  1.00  0.00    -0.204 C  
HETATM    8  C   UNL     1     -10.841  12.963  66.774  1.00  0.00    -0.267 C  
ENDROOT
BRANCH   6   9
HETATM    9  O   UNL     1      -9.711  10.082  68.958  1.00  0.00    -0.179 OA 
BRANCH   9  10
HETATM   10  C   UNL     1      -8.890   9.841  70.109  1.00  0.00    -0.188 C  
HETATM   11  H   UNL     1      -5.707   7.372  72.550  1.00  0.00     0.000 HD 
HETATM   12  C   UNL     1      -8.984   8.338  70.487  1.00  0.00    -0.147 C  
HETATM   13  C   UNL     1      -7.421  10.230  69.882  1.00  0.00    -0.158 C  
HETATM   14  C   UNL     1      -7.984   7.994  71.609  1.00  0.00    -0.112 C  
HETATM   15  O   UNL     1      -5.727   8.307  72.382  1.00  0.00    -0.042 OA 
HETATM   16  O   UNL     1      -6.614   9.912  71.013  1.00  0.00    -0.277 OA 
HETATM   17  C   UNL     1      -6.583   8.516  71.264  1.00  0.00    -0.062 C  
BRANCH  14  18
HETATM   18  O   UNL     1      -8.022   6.640  72.053  1.00  0.00    -0.101 OA 
HETATM   19  S   UNL     1      -8.473   6.191  73.543  1.00  0.00    -0.117 S  
HETATM   20  O   UNL     1      -7.694   6.940  74.500  1.00  0.00    -0.112 OA 
HETATM   21  O   UNL     1      -9.998   6.682  73.659  1.00  0.00    -0.193 OA 
HETATM   22  O   UNL     1      -8.521   4.747  73.556  1.00  0.00    -0.105 OA 
ENDBRANCH  14  18
BRANCH  12  23
HETATM   23  O   UNL     1     -10.324   7.917  70.783  1.00  0.00    -0.201 OA 
HETATM   24  S   UNL     1     -11.013   6.643  70.053  1.00  0.00    -0.341 S  
HETATM   25  O   UNL     1     -11.258   6.994  68.673  1.00  0.00    -0.070 OA 
HETATM   26  O   UNL     1     -12.460   6.598  70.758  1.00  0.00    -0.314 OA 
HETATM   27  O   UNL     1     -10.314   5.435  70.410  1.00  0.00    -0.248 OA 
ENDBRANCH  12  23
ENDBRANCH   9  10
ENDBRANCH   6   9
BRANCH   7  28
HETATM   28  O   UNL     1      -9.058  11.392  66.366  1.00  0.00    -0.182 OA 
HETATM   29  O   UNL     1      -8.589   8.977  65.982  1.00  0.00    -0.129 OA 
HETATM   30  O   UNL     1      -7.736  10.608  64.393  1.00  0.00    -0.017 OA 
HETATM   31  S   UNL     1      -9.001  10.173  65.283  1.00  0.00    -0.204 S  
HETATM   32  O   UNL     1     -10.173  10.234  64.444  1.00  0.00    -0.298 OA 
ENDBRANCH   7  28
BRANCH   8  33
HETATM   33  O   UNL     1     -11.460  12.816  65.484  1.00  0.00    -0.311 OA 
HETATM   34  S   UNL     1     -12.292  14.044  64.820  1.00  0.00    -0.388 S  
HETATM   35  O   UNL     1     -13.634  14.042  65.346  1.00  0.00    -0.593 OA 
HETATM   36  O   UNL     1     -11.448  15.218  64.807  1.00  0.00    -0.401 OA 
HETATM   37  O   UNL     1     -12.474  13.529  63.309  1.00  0.00    -0.763 OA 
ENDBRANCH   8  33
TORSDOF 6
ENDMDL
MODEL       29
REMARK 921   NORMALIZED FREE ENERGY PREDICTED BY IDOCK:   -5.52 KCAL/MOL
REMARK 922        TOTAL FREE ENERGY PREDICTED BY IDOCK:   -9.56 KCAL/MOL
REMARK 923 INTER-LIGAND FREE ENERGY PREDICTED BY IDOCK:   -9.09 KCAL/MOL
REMARK 924 INTRA-LIGAND FREE ENERGY PREDICTED BY IDOCK:   -0.47 KCAL/MOL
REMARK 927      BINDING AFFINITY PREDICTED BY RF-SCORE:    0.00 PKD
ROOT
HETATM    1  O   UNL     1     -12.589  13.923  63.804  1.00  0.00    -0.721 OA 
HETATM    2  H   UNL     1     -12.063  13.747  63.033  1.00  0.00     0.000 HD 
HETATM    3  C   UNL     1     -11.975  13.290  64.924  1.00  0.00    -0.378 C  
HETATM    4  C   UNL     1     -12.816  13.571  66.156  1.00  0.00     0.003 C  
HETATM    5  O   UNL     1     -12.253  12.956  67.294  1.00  0.00    -0.353 OA 
HETATM    6  C   UNL     1     -10.972  13.450  67.634  1.00  0.00    -0.259 C  
HETATM    7  C   UNL     1      -9.951  13.289  66.482  1.00  0.00    -0.280 C  
HETATM    8  C   UNL     1     -10.524  13.757  65.120  1.00  0.00    -0.384 C  
ENDROOT
BRANCH   6   9
HETATM    9  O   UNL     1     -10.493  12.710  68.761  1.00  0.00    -0.216 OA 
BRANCH   9  10
HETATM   10  C   UNL     1     -11.436  11.787  69.322  1.00  0.00    -0.306 C  
HETATM   11  H   UNL     1     -12.917   8.811  72.660  1.00  0.00     0.000 HD 
HETATM   12  C   UNL     1     -10.668  10.548  69.858  1.00  0.00    -0.247 C  
HETATM   13  C   UNL     1     -12.274  12.407  70.451  1.00  0.00    -0.287 C  
HETATM   14  C   UNL     1     -11.617   9.608  70.627  1.00  0.00    -0.299 C  
HETATM   15  O   UNL     1     -13.396   9.520  72.245  1.00  0.00    -0.438 OA 
HETATM   16  O   UNL     1     -13.149  11.449  71.042  1.00  0.00    -0.245 OA 
HETATM   17  C   UNL     1     -12.435  10.392  71.662  1.00  0.00    -0.370 C  
BRANCH  14  18
HETATM   18  O   UNL     1     -11.011   8.418  71.126  1.00  0.00    -0.231 OA 
HETATM   19  S   UNL     1     -11.408   6.927  70.630  1.00  0.00    -0.340 S  
HETATM   20  O   UNL     1     -12.838   6.771  70.756  1.00  0.00    -0.205 OA 
HETATM   21  O   UNL     1     -11.048   6.921  69.065  1.00  0.00    -0.205 OA 
HETATM   22  O   UNL     1     -10.479   6.012  71.253  1.00  0.00    -0.214 OA 
ENDBRANCH  14  18
BRANCH  12  23
HETATM   23  O   UNL     1      -9.916   9.872  68.838  1.00  0.00    -0.167 OA 
HETATM   24  S   UNL     1      -8.318   9.620  68.964  1.00  0.00    -0.130 S  
HETATM   25  O   UNL     1      -7.652  10.896  68.835  1.00  0.00    -0.110 OA 
HETATM   26  O   UNL     1      -8.000   8.819  67.605  1.00  0.00    -0.105 OA 
HETATM   27  O   UNL     1      -8.046   8.737  70.069  1.00  0.00    -0.099 OA 
ENDBRANCH  12  23
ENDBRANCH   9  10
ENDBRANCH   6   9
BRANCH   7  28
HETATM   28  O   UNL     1      -8.772  14.068  66.747  1.00  0.00    -0.203 OA 
HETATM   29  O   UNL     1      -8.865  16.279  65.605  1.00  0.00    -0.374 OA 
HETATM   30  O   UNL     1      -7.506  16.047  67.608  1.00  0.00    -0.130 OA 
HETATM   31  S   UNL     1      -8.914  15.685  66.921  1.00  0.00    -0.263 S  
HETATM   32  O   UNL     1      -9.956  15.965  67.878  1.00  0.00    -0.219 OA 
ENDBRANCH   7  28
BRANCH   8  33
HETATM   33  O   UNL     1      -9.677  13.196  64.102  1.00  0.00    -0.103 OA 
HETATM   34  S   UNL     1      -9.810  11.631  63.683  1.00  0.00    -0.340 S  
HETATM   35  O   UNL     1      -9.048  10.831  64.609  1.00  0.00    -0.199 OA 
HETATM   36  O   UNL     1     -11.191  11.359  63.351  1.00  0.00    -0.357 OA 
HETATM   37  O   UNL     1      -8.941  11.584  62.333  1.00  0.00    -0.316 OA 
ENDBRANCH   8  33
TORSDOF 6
ENDMDL
MODEL       30
REMARK 921   NORMALIZED FREE ENERGY PREDICTED BY IDOCK:   -5.51 KCAL/MOL
REMARK 922        TOTAL FREE ENERGY PREDICTED BY IDOCK:   -9.54 KCAL/MOL
REMARK 923 INTER-LIGAND FREE ENERGY PREDICTED BY IDOCK:   -8.30 KCAL/MOL
REMARK 924 INTRA-LIGAND FREE ENERGY PREDICTED BY IDOCK:   -1.24 KCAL/MOL
REMARK 927      BINDING AFFINITY PREDICTED BY RF-SCORE:    0.00 PKD
ROOT
HETATM    1  O   UNL     1     -11.210   5.645  73.570  1.00  0.00    -0.455 OA 
HETATM    2  H   UNL     1     -10.479   5.656  74.176  1.00  0.00     0.000 HD 
HETATM    3  C   UNL     1     -11.197   6.858  72.823  1.00  0.00    -0.240 C  
HETATM    4  C   UNL     1     -12.366   6.840  71.854  1.00  0.00    -0.326 C  
HETATM    5  O   UNL     1     -12.403   8.029  71.095  1.00  0.00    -0.294 OA 
HETATM    6  C   UNL     1     -11.273   8.209  70.264  1.00  0.00    -0.182 C  
HETATM    7  C   UNL     1      -9.947   8.224  71.063  1.00  0.00    -0.187 C  
HETATM    8  C   UNL     1      -9.864   7.063  72.085  1.00  0.00    -0.154 C  
ENDROOT
BRANCH   6   9
HETATM    9  O   UNL     1     -11.406   9.468  69.598  1.00  0.00    -0.165 OA 
BRANCH   9  10
HETATM   10  C   UNL     1     -11.606  10.592  70.465  1.00  0.00    -0.350 C  
HETATM   11  H   UNL     1     -13.786  14.566  71.748  1.00  0.00     0.000 HD 
HETATM   12  C   UNL     1     -11.776  11.870  69.599  1.00  0.00    -0.343 C  
HETATM   13  C   UNL     1     -12.824  10.423  71.386  1.00  0.00    -0.452 C  
HETATM   14  C   UNL     1     -12.168  13.076  70.476  1.00  0.00    -0.313 C  
HETATM   15  O   UNL     1     -13.582  13.805  72.280  1.00  0.00    -0.460 OA 
HETATM   16  O   UNL     1     -13.044  11.584  72.184  1.00  0.00    -0.466 OA 
HETATM   17  C   UNL     1     -13.347  12.720  71.390  1.00  0.00    -0.031 C  
BRANCH  14  18
HETATM   18  O   UNL     1     -12.310  14.309  69.775  1.00  0.00    -0.328 OA 
HETATM   19  S   UNL     1     -11.302  15.567  69.946  1.00  0.00    -0.347 S  
HETATM   20  O   UNL     1     -11.197  15.877  71.352  1.00  0.00    -0.346 OA 
HETATM   21  O   UNL     1      -9.879  15.003  69.460  1.00  0.00    -0.199 OA 
HETATM   22  O   UNL     1     -11.690  16.558  68.969  1.00  0.00    -0.168 OA 
ENDBRANCH  14  18
BRANCH  12  23
HETATM   23  O   UNL     1     -10.641  12.133  68.760  1.00  0.00    -0.229 OA 
HETATM   24  S   UNL     1     -10.756  12.199  67.143  1.00  0.00    -0.241 S  
HETATM   25  O   UNL     1     -11.007  10.862  66.656  1.00  0.00    -0.235 OA 
HETATM   26  O   UNL     1      -9.243  12.544  66.716  1.00  0.00    -0.209 OA 
HETATM   27  O   UNL     1     -11.586  13.311  66.755  1.00  0.00    -0.330 OA 
ENDBRANCH  12  23
ENDBRANCH   9  10
ENDBRANCH   6   9
BRANCH   7  28
HETATM   28  O   UNL     1      -8.825   8.099  70.172  1.00  0.00    -0.142 OA 
HETATM   29  O   UNL     1      -8.114  10.316  69.289  1.00  0.00    -0.131 OA 
HETATM   30  O   UNL     1      -6.482   8.517  69.404  1.00  0.00    -0.037 OA 
HETATM   31  S   UNL     1      -7.679   9.261  70.176  1.00  0.00    -0.139 S  
HETATM   32  O   UNL     1      -7.251   9.495  71.533  1.00  0.00    -0.320 OA 
ENDBRANCH   7  28
BRANCH   8  33
HETATM   33  O   UNL     1      -8.825   7.407  73.017  1.00  0.00    -0.127 OA 
HETATM   34  S   UNL     1      -7.654   6.341  73.384  1.00  0.00    -0.094 S  
HETATM   35  O   UNL     1      -8.134   5.450  74.411  1.00  0.00    -0.104 OA 
HETATM   36  O   UNL     1      -7.050   5.880  72.154  1.00  0.00    -0.083 OA 
HETATM   37  O   UNL     1      -6.597   7.276  74.152  1.00  0.00    -0.077 OA 
ENDBRANCH   8  33
TORSDOF 6
ENDMDL
MODEL       31
REMARK 921   NORMALIZED FREE ENERGY PREDICTED BY IDOCK:   -5.49 KCAL/MOL
REMARK 922        TOTAL FREE ENERGY PREDICTED BY IDOCK:   -9.52 KCAL/MOL
REMARK 923 INTER-LIGAND FREE ENERGY PREDICTED BY IDOCK:   -8.83 KCAL/MOL
REMARK 924 INTRA-LIGAND FREE ENERGY PREDICTED BY IDOCK:   -0.69 KCAL/MOL
REMARK 927      BINDING AFFINITY PREDICTED BY RF-SCORE:    0.00 PKD
ROOT
HETATM    1  O   UNL     1     -12.238  15.721  68.460  1.00  0.00    -0.489 OA 
HETATM    2  H   UNL     1     -12.552  16.017  67.614  1.00  0.00     0.000 HD 
HETATM    3  C   UNL     1     -12.241  14.296  68.471  1.00  0.00    -0.159 C  
HETATM    4  C   UNL     1     -11.739  13.824  69.824  1.00  0.00    -0.302 C  
HETATM    5  O   UNL     1     -11.732  12.414  69.888  1.00  0.00    -0.309 OA 
HETATM    6  C   UNL     1     -10.850  11.806  68.964  1.00  0.00    -0.195 C  
HETATM    7  C   UNL     1     -11.170  12.191  67.499  1.00  0.00    -0.297 C  
HETATM    8  C   UNL     1     -11.395  13.714  67.327  1.00  0.00    -0.323 C  
ENDROOT
BRANCH   6   9
HETATM    9  O   UNL     1     -10.979  10.387  69.091  1.00  0.00    -0.214 OA 
BRANCH   9  10
HETATM   10  C   UNL     1     -10.192   9.800  70.136  1.00  0.00    -0.275 C  
HETATM   11  H   UNL     1      -7.396   6.446  71.903  1.00  0.00     0.000 HD 
HETATM   12  C   UNL     1     -10.509   8.282  70.210  1.00  0.00    -0.218 C  
HETATM   13  C   UNL     1      -8.683  10.006  69.930  1.00  0.00    -0.142 C  
HETATM   14  C   UNL     1      -9.562   7.574  71.199  1.00  0.00    -0.158 C  
HETATM   15  O   UNL     1      -7.275   7.389  71.925  1.00  0.00    -0.066 OA 
HETATM   16  O   UNL     1      -7.922   9.350  70.941  1.00  0.00    -0.249 OA 
HETATM   17  C   UNL     1      -8.101   7.943  70.907  1.00  0.00    -0.101 C  
BRANCH  14  18
HETATM   18  O   UNL     1      -9.800   6.179  71.366  1.00  0.00    -0.173 OA 
HETATM   19  S   UNL     1      -9.674   5.092  70.171  1.00  0.00    -0.231 S  
HETATM   20  O   UNL     1     -10.482   5.540  69.061  1.00  0.00    -0.229 OA 
HETATM   21  O   UNL     1      -8.134   5.173  69.722  1.00  0.00    -0.080 OA 
HETATM   22  O   UNL     1      -9.845   3.786  70.764  1.00  0.00    -0.181 OA 
ENDBRANCH  14  18
BRANCH  12  23
HETATM   23  O   UNL     1     -11.895   8.012  70.472  1.00  0.00    -0.166 OA 
HETATM   24  S   UNL     1     -12.668   8.624  71.760  1.00  0.00    -0.378 S  
HETATM   25  O   UNL     1     -12.153   7.975  72.943  1.00  0.00    -0.247 OA 
HETATM   26  O   UNL     1     -14.158   8.050  71.557  1.00  0.00    -0.390 OA 
HETATM   27  O   UNL     1     -12.733  10.060  71.657  1.00  0.00    -0.369 OA 
ENDBRANCH  12  23
ENDBRANCH   9  10
ENDBRANCH   6   9
BRANCH   7  28
HETATM   28  O   UNL     1     -10.086  11.812  66.634  1.00  0.00    -0.200 OA 
HETATM   29  O   UNL     1     -10.193   9.395  66.045  1.00  0.00    -0.269 OA 
HETATM   30  O   UNL     1      -9.067  10.926  64.528  1.00  0.00    -0.199 OA 
HETATM   31  S   UNL     1     -10.356  10.708  65.463  1.00  0.00    -0.185 S  
HETATM   32  O   UNL     1     -11.521  11.099  64.707  1.00  0.00     0.005 OA 
ENDBRANCH   7  28
BRANCH   8  33
HETATM   33  O   UNL     1     -12.067  13.892  66.068  1.00  0.00    -0.388 OA 
HETATM   34  S   UNL     1     -11.341  14.679  64.846  1.00  0.00    -0.408 S  
HETATM   35  O   UNL     1     -11.526  16.098  65.025  1.00  0.00    -0.139 OA 
HETATM   36  O   UNL     1     -10.050  14.072  64.609  1.00  0.00    -0.358 OA 
HETATM   37  O   UNL     1     -12.308  14.321  63.613  1.00  0.00    -0.741 OA 
ENDBRANCH   8  33
TORSDOF 6
ENDMDL
MODEL       32
REMARK 921   NORMALIZED FREE ENERGY PREDICTED BY IDOCK:   -5.47 KCAL/MOL
REMARK 922        TOTAL FREE ENERGY PREDICTED BY IDOCK:   -9.49 KCAL/MOL
REMARK 923 INTER-LIGAND FREE ENERGY PREDICTED BY IDOCK:   -8.71 KCAL/MOL
REMARK 924 INTRA-LIGAND FREE ENERGY PREDICTED BY IDOCK:   -0.78 KCAL/MOL
REMARK 927      BINDING AFFINITY PREDICTED BY RF-SCORE:    0.00 PKD
ROOT
HETATM    1  O   UNL     1      -8.768  17.849  68.279  1.00  0.00    -0.261 OA 
HETATM    2  H   UNL     1      -8.053  17.659  68.873  1.00  0.00     0.000 HD 
HETATM    3  C   UNL     1      -9.308  16.616  67.810  1.00  0.00    -0.222 C  
HETATM    4  C   UNL     1     -10.452  16.921  66.860  1.00  0.00    -0.271 C  
HETATM    5  O   UNL     1     -11.015  15.728  66.359  1.00  0.00    -0.273 OA 
HETATM    6  C   UNL     1     -11.604  14.914  67.355  1.00  0.00    -0.332 C  
HETATM    7  C   UNL     1     -10.599  14.510  68.460  1.00  0.00    -0.252 C  
HETATM    8  C   UNL     1      -9.768  15.715  68.968  1.00  0.00    -0.241 C  
ENDROOT
BRANCH   6   9
HETATM    9  O   UNL     1     -12.083  13.720  66.729  1.00  0.00    -0.411 OA 
BRANCH   9  10
HETATM   10  C   UNL     1     -11.213  13.173  65.728  1.00  0.00    -0.286 C  
HETATM   11  H   UNL     1      -9.927   9.844  62.653  1.00  0.00     0.000 HD 
HETATM   12  C   UNL     1     -10.966  11.672  66.045  1.00  0.00    -0.286 C  
HETATM   13  C   UNL     1     -11.778  13.317  64.307  1.00  0.00    -0.407 C  
HETATM   14  C   UNL     1     -10.180  10.996  64.904  1.00  0.00    -0.311 C  
HETATM   15  O   UNL     1      -9.996  10.782  62.515  1.00  0.00    -0.143 OA 
HETATM   16  O   UNL     1     -10.931  12.699  63.340  1.00  0.00    -0.428 OA 
HETATM   17  C   UNL     1     -10.828  11.300  63.547  1.00  0.00    -0.294 C  
BRANCH  14  18
HETATM   18  O   UNL     1      -9.869   9.622  65.121  1.00  0.00    -0.295 OA 
HETATM   19  S   UNL     1      -8.363   9.058  65.324  1.00  0.00    -0.159 S  
HETATM   20  O   UNL     1      -7.552   9.518  64.221  1.00  0.00    -0.113 OA 
HETATM   21  O   UNL     1      -7.843   9.791  66.655  1.00  0.00    -0.107 OA 
HETATM   22  O   UNL     1      -8.476   7.658  65.661  1.00  0.00    -0.141 OA 
ENDBRANCH  14  18
BRANCH  12  23
HETATM   23  O   UNL     1     -10.371  11.464  67.335  1.00  0.00    -0.193 OA 
HETATM   24  S   UNL     1     -11.016  10.461  68.435  1.00  0.00    -0.266 S  
HETATM   25  O   UNL     1     -12.241  11.055  68.919  1.00  0.00    -0.519 OA 
HETATM   26  O   UNL     1      -9.964  10.575  69.647  1.00  0.00    -0.202 OA 
HETATM   27  O   UNL     1     -10.978   9.106  67.946  1.00  0.00    -0.141 OA 
ENDBRANCH  12  23
ENDBRANCH   9  10
ENDBRANCH   6   9
BRANCH   7  28
HETATM   28  O   UNL     1     -11.295  13.956  69.590  1.00  0.00    -0.252 OA 
HETATM   29  O   UNL     1     -11.088  15.420  71.593  1.00  0.00    -0.363 OA 
HETATM   30  O   UNL     1     -13.008  13.938  71.413  1.00  0.00    -0.329 OA 
HETATM   31  S   UNL     1     -12.056  14.965  70.622  1.00  0.00    -0.336 S  
HETATM   32  O   UNL     1     -12.902  15.859  69.870  1.00  0.00    -0.150 OA 
ENDBRANCH   7  28
BRANCH   8  33
HETATM   33  O   UNL     1      -8.631  15.171  69.659  1.00  0.00    -0.198 OA 
HETATM   34  S   UNL     1      -7.430  14.448  68.837  1.00  0.00    -0.122 S  
HETATM   35  O   UNL     1      -7.796  13.077  68.579  1.00  0.00    -0.137 OA 
HETATM   36  O   UNL     1      -6.967  15.352  67.807  1.00  0.00    -0.131 OA 
HETATM   37  O   UNL     1      -6.291  14.333  69.965  1.00  0.00    -0.143 OA 
ENDBRANCH   8  33
TORSDOF 6
ENDMDL
MODEL       33
REMARK 921   NORMALIZED FREE ENERGY PREDICTED BY IDOCK:   -5.41 KCAL/MOL
REMARK 922        TOTAL FREE ENERGY PREDICTED BY IDOCK:   -9.41 KCAL/MOL
REMARK 923 INTER-LIGAND FREE ENERGY PREDICTED BY IDOCK:   -7.18 KCAL/MOL
REMARK 924 INTRA-LIGAND FREE ENERGY PREDICTED BY IDOCK:   -2.23 KCAL/MOL
REMARK 927      BINDING AFFINITY PREDICTED BY RF-SCORE:    0.00 PKD
ROOT
HETATM    1  O   UNL     1     -10.748   7.546  66.477  1.00  0.00    -0.455 OA 
HETATM    2  H   UNL     1     -10.876   6.815  67.069  1.00  0.00     0.000 HD 
HETATM    3  C   UNL     1     -10.355   8.684  67.240  1.00  0.00    -0.296 C  
HETATM    4  C   UNL     1     -10.150   9.852  66.292  1.00  0.00    -0.241 C  
HETATM    5  O   UNL     1      -9.768  11.010  67.003  1.00  0.00    -0.179 OA 
HETATM    6  C   UNL     1      -8.525  10.886  67.668  1.00  0.00    -0.123 C  
HETATM    7  C   UNL     1      -8.508   9.710  68.674  1.00  0.00    -0.119 C  
HETATM    8  C   UNL     1      -9.090   8.409  68.069  1.00  0.00    -0.137 C  
ENDROOT
BRANCH   6   9
HETATM    9  O   UNL     1      -8.284  12.096  68.391  1.00  0.00    -0.154 OA 
BRANCH   9  10
HETATM   10  C   UNL     1      -7.601  13.116  67.651  1.00  0.00    -0.171 C  
HETATM   11  H   UNL     1      -5.493  17.310  67.248  1.00  0.00     0.000 HD 
HETATM   12  C   UNL     1      -8.219  14.496  68.009  1.00  0.00    -0.145 C  
HETATM   13  C   UNL     1      -6.089  13.137  67.925  1.00  0.00    -0.139 C  
HETATM   14  C   UNL     1      -7.405  15.640  67.373  1.00  0.00    -0.204 C  
HETATM   15  O   UNL     1      -5.182  16.461  66.954  1.00  0.00    -0.329 OA 
HETATM   16  O   UNL     1      -5.446  14.206  67.235  1.00  0.00    -0.295 OA 
HETATM   17  C   UNL     1      -5.909  15.473  67.675  1.00  0.00    -0.107 C  
BRANCH  14  18
HETATM   18  O   UNL     1      -7.917  16.948  67.613  1.00  0.00    -0.170 OA 
HETATM   19  S   UNL     1      -8.481  17.924  66.448  1.00  0.00    -0.200 S  
HETATM   20  O   UNL     1      -7.473  18.035  65.420  1.00  0.00    -0.482 OA 
HETATM   21  O   UNL     1      -9.728  17.124  65.830  1.00  0.00    -0.527 OA 
HETATM   22  O   UNL     1      -9.041  19.085  67.101  1.00  0.00    -0.276 OA 
ENDBRANCH  14  18
BRANCH  12  23
HETATM   23  O   UNL     1      -9.621  14.574  67.712  1.00  0.00    -0.209 OA 
HETATM   24  S   UNL     1     -10.736  14.844  68.860  1.00  0.00    -0.253 S  
HETATM   25  O   UNL     1     -10.815  13.667  69.693  1.00  0.00    -0.024 OA 
HETATM   26  O   UNL     1     -12.097  14.868  68.002  1.00  0.00    -0.252 OA 
HETATM   27  O   UNL     1     -10.550  16.156  69.425  1.00  0.00    -0.254 OA 
ENDBRANCH  12  23
ENDBRANCH   9  10
ENDBRANCH   6   9
BRANCH   7  28
HETATM   28  O   UNL     1      -7.160   9.430  69.092  1.00  0.00    -0.060 OA 
HETATM   29  O   UNL     1      -6.376  11.066  70.797  1.00  0.00    -0.349 OA 
HETATM   30  O   UNL     1      -5.370   8.853  70.740  1.00  0.00    -0.027 OA 
HETATM   31  S   UNL     1      -6.747   9.677  70.651  1.00  0.00    -0.101 S  
HETATM   32  O   UNL     1      -7.709   9.022  71.502  1.00  0.00    -0.284 OA 
ENDBRANCH   7  28
BRANCH   8  33
HETATM   33  O   UNL     1      -9.396   7.540  69.173  1.00  0.00    -0.148 OA 
HETATM   34  S   UNL     1      -8.860   6.006  69.193  1.00  0.00    -0.118 S  
HETATM   35  O   UNL     1      -9.766   5.182  68.432  1.00  0.00    -0.133 OA 
HETATM   36  O   UNL     1      -7.430   6.014  68.981  1.00  0.00    -0.082 OA 
HETATM   37  O   UNL     1      -9.149   5.584  70.716  1.00  0.00    -0.142 OA 
ENDBRANCH   8  33
TORSDOF 6
ENDMDL
MODEL       34
REMARK 921   NORMALIZED FREE ENERGY PREDICTED BY IDOCK:   -5.40 KCAL/MOL
REMARK 922        TOTAL FREE ENERGY PREDICTED BY IDOCK:   -9.40 KCAL/MOL
REMARK 923 INTER-LIGAND FREE ENERGY PREDICTED BY IDOCK:   -8.62 KCAL/MOL
REMARK 924 INTRA-LIGAND FREE ENERGY PREDICTED BY IDOCK:   -0.78 KCAL/MOL
REMARK 927      BINDING AFFINITY PREDICTED BY RF-SCORE:    0.00 PKD
ROOT
HETATM    1  O   UNL     1     -11.302  11.235  62.966  1.00  0.00    -0.847 OA 
HETATM    2  H   UNL     1     -11.601  12.103  62.724  1.00  0.00     0.000 HD 
HETATM    3  C   UNL     1     -10.190  11.369  63.847  1.00  0.00    -0.363 C  
HETATM    4  C   UNL     1      -9.711   9.981  64.233  1.00  0.00    -0.172 C  
HETATM    5  O   UNL     1      -8.601  10.060  65.101  1.00  0.00    -0.141 OA 
HETATM    6  C   UNL     1      -8.890  10.680  66.340  1.00  0.00    -0.154 C  
HETATM    7  C   UNL     1      -9.434  12.118  66.169  1.00  0.00    -0.224 C  
HETATM    8  C   UNL     1     -10.541  12.204  65.089  1.00  0.00    -0.286 C  
ENDROOT
BRANCH   6   9
HETATM    9  O   UNL     1      -7.677  10.748  67.097  1.00  0.00    -0.112 OA 
BRANCH   9  10
HETATM   10  C   UNL     1      -7.832  10.528  68.505  1.00  0.00    -0.111 C  
HETATM   11  H   UNL     1      -7.019   8.164  72.497  1.00  0.00     0.000 HD 
HETATM   12  C   UNL     1      -8.098   9.018  68.751  1.00  0.00    -0.105 C  
HETATM   13  C   UNL     1      -6.607  10.979  69.315  1.00  0.00    -0.091 C  
HETATM   14  C   UNL     1      -8.097   8.702  70.260  1.00  0.00    -0.109 C  
HETATM   15  O   UNL     1      -6.957   9.099  72.341  1.00  0.00    -0.317 OA 
HETATM   16  O   UNL     1      -6.756  10.681  70.701  1.00  0.00    -0.332 OA 
HETATM   17  C   UNL     1      -6.848   9.285  70.935  1.00  0.00    -0.103 C  
BRANCH  14  18
HETATM   18  O   UNL     1      -8.372   7.343  70.590  1.00  0.00    -0.124 OA 
HETATM   19  S   UNL     1      -9.640   6.869  71.481  1.00  0.00    -0.161 S  
HETATM   20  O   UNL     1      -9.639   7.623  72.712  1.00  0.00    -0.163 OA 
HETATM   21  O   UNL     1     -10.919   7.328  70.624  1.00  0.00    -0.244 OA 
HETATM   22  O   UNL     1      -9.653   5.424  71.466  1.00  0.00    -0.147 OA 
ENDBRANCH  14  18
BRANCH  12  23
HETATM   23  O   UNL     1      -9.273   8.540  68.080  1.00  0.00    -0.137 OA 
HETATM   24  S   UNL     1      -9.290   7.145  67.251  1.00  0.00    -0.139 S  
HETATM   25  O   UNL     1      -8.488   7.321  66.062  1.00  0.00    -0.132 OA 
HETATM   26  O   UNL     1     -10.816   7.078  66.744  1.00  0.00    -0.318 OA 
HETATM   27  O   UNL     1      -9.076   6.038  68.147  1.00  0.00    -0.119 OA 
ENDBRANCH  12  23
ENDBRANCH   9  10
ENDBRANCH   6   9
BRANCH   7  28
HETATM   28  O   UNL     1      -9.996  12.590  67.406  1.00  0.00    -0.204 OA 
HETATM   29  O   UNL     1      -8.291  13.758  68.794  1.00  0.00    -0.102 OA 
HETATM   30  O   UNL     1     -10.637  14.324  69.091  1.00  0.00    -0.236 OA 
HETATM   31  S   UNL     1      -9.482  14.013  68.017  1.00  0.00    -0.212 S  
HETATM   32  O   UNL     1      -9.553  15.021  66.987  1.00  0.00    -0.215 OA 
ENDBRANCH   7  28
BRANCH   8  33
HETATM   33  O   UNL     1     -10.669  13.592  64.738  1.00  0.00    -0.363 OA 
HETATM   34  S   UNL     1     -12.124  14.229  64.395  1.00  0.00    -0.425 S  
HETATM   35  O   UNL     1     -12.442  13.960  63.014  1.00  0.00    -0.689 OA 
HETATM   36  O   UNL     1     -13.026  13.934  65.487  1.00  0.00    -0.673 OA 
HETATM   37  O   UNL     1     -11.799  15.803  64.412  1.00  0.00    -0.350 OA 
ENDBRANCH   8  33
TORSDOF 6
ENDMDL
MODEL       35
REMARK 921   NORMALIZED FREE ENERGY PREDICTED BY IDOCK:   -5.36 KCAL/MOL
REMARK 922        TOTAL FREE ENERGY PREDICTED BY IDOCK:   -9.34 KCAL/MOL
REMARK 923 INTER-LIGAND FREE ENERGY PREDICTED BY IDOCK:   -8.28 KCAL/MOL
REMARK 924 INTRA-LIGAND FREE ENERGY PREDICTED BY IDOCK:   -1.07 KCAL/MOL
REMARK 927      BINDING AFFINITY PREDICTED BY RF-SCORE:    0.00 PKD
ROOT
HETATM    1  O   UNL     1      -7.248   7.070  70.530  1.00  0.00    -0.066 OA 
HETATM    2  H   UNL     1      -7.172   6.291  69.992  1.00  0.00     0.000 HD 
HETATM    3  C   UNL     1      -8.385   7.811  70.094  1.00  0.00    -0.128 C  
HETATM    4  C   UNL     1      -8.506   9.057  70.954  1.00  0.00    -0.208 C  
HETATM    5  O   UNL     1      -9.615   9.832  70.554  1.00  0.00    -0.239 OA 
HETATM    6  C   UNL     1     -10.858   9.178  70.721  1.00  0.00    -0.268 C  
HETATM    7  C   UNL     1     -10.934   7.844  69.940  1.00  0.00    -0.178 C  
HETATM    8  C   UNL     1      -9.671   6.970  70.144  1.00  0.00    -0.175 C  
ENDROOT
BRANCH   6   9
HETATM    9  O   UNL     1     -11.887  10.042  70.229  1.00  0.00    -0.252 OA 
BRANCH   9  10
HETATM   10  C   UNL     1     -11.924  11.341  70.834  1.00  0.00    -0.214 C  
HETATM   11  H   UNL     1     -13.604  15.721  71.268  1.00  0.00     0.000 HD 
HETATM   12  C   UNL     1     -11.998  12.414  69.713  1.00  0.00    -0.289 C  
HETATM   13  C   UNL     1     -13.108  11.514  71.798  1.00  0.00    -0.398 C  
HETATM   14  C   UNL     1     -12.217  13.817  70.315  1.00  0.00    -0.359 C  
HETATM   15  O   UNL     1     -13.458  15.073  71.948  1.00  0.00    -0.340 OA 
HETATM   16  O   UNL     1     -13.165  12.837  72.327  1.00  0.00    -0.475 OA 
HETATM   17  C   UNL     1     -13.383  13.803  71.312  1.00  0.00    -0.212 C  
BRANCH  14  18
HETATM   18  O   UNL     1     -12.260  14.878  69.364  1.00  0.00    -0.274 OA 
HETATM   19  S   UNL     1     -11.135  16.041  69.257  1.00  0.00    -0.352 S  
HETATM   20  O   UNL     1     -10.968  16.634  70.563  1.00  0.00    -0.223 OA 
HETATM   21  O   UNL     1      -9.783  15.251  68.899  1.00  0.00    -0.200 OA 
HETATM   22  O   UNL     1     -11.452  16.832  68.090  1.00  0.00    -0.157 OA 
ENDBRANCH  14  18
BRANCH  12  23
HETATM   23  O   UNL     1     -10.883  12.360  68.811  1.00  0.00    -0.228 OA 
HETATM   24  S   UNL     1     -11.058  12.011  67.237  1.00  0.00    -0.305 S  
HETATM   25  O   UNL     1     -11.423  10.617  67.125  1.00  0.00    -0.359 OA 
HETATM   26  O   UNL     1      -9.544  12.113  66.703  1.00  0.00    -0.208 OA 
HETATM   27  O   UNL     1     -11.824  13.044  66.587  1.00  0.00    -0.367 OA 
ENDBRANCH  12  23
ENDBRANCH   9  10
ENDBRANCH   6   9
BRANCH   7  28
HETATM   28  O   UNL     1     -12.068   7.074  70.376  1.00  0.00    -0.265 OA 
HETATM   29  O   UNL     1     -11.540   5.749  72.416  1.00  0.00    -0.301 OA 
HETATM   30  O   UNL     1     -13.851   6.372  71.984  1.00  0.00    -0.009 OA 
HETATM   31  S   UNL     1     -12.325   6.879  71.975  1.00  0.00    -0.219 S  
HETATM   32  O   UNL     1     -12.286   8.169  72.619  1.00  0.00    -0.334 OA 
ENDBRANCH   7  28
BRANCH   8  33
HETATM   33  O   UNL     1      -9.670   5.993  69.089  1.00  0.00    -0.132 OA 
HETATM   34  S   UNL     1      -9.136   4.482  69.361  1.00  0.00    -0.124 S  
HETATM   35  O   UNL     1      -7.700   4.462  69.237  1.00  0.00    -0.055 OA 
HETATM   36  O   UNL     1      -9.841   3.943  70.503  1.00  0.00    -0.190 OA 
HETATM   37  O   UNL     1      -9.644   3.720  68.041  1.00  0.00    -0.173 OA 
ENDBRANCH   8  33
TORSDOF 6
ENDMDL
MODEL       36
REMARK 921   NORMALIZED FREE ENERGY PREDICTED BY IDOCK:   -5.32 KCAL/MOL
REMARK 922        TOTAL FREE ENERGY PREDICTED BY IDOCK:   -9.28 KCAL/MOL
REMARK 923 INTER-LIGAND FREE ENERGY PREDICTED BY IDOCK:   -8.37 KCAL/MOL
REMARK 924 INTRA-LIGAND FREE ENERGY PREDICTED BY IDOCK:   -0.91 KCAL/MOL
REMARK 927      BINDING AFFINITY PREDICTED BY RF-SCORE:    0.00 PKD
ROOT
HETATM    1  O   UNL     1     -12.628  11.068  70.439  1.00  0.00    -0.304 OA 
HETATM    2  H   UNL     1     -12.605  10.179  70.105  1.00  0.00     0.000 HD 
HETATM    3  C   UNL     1     -11.690  11.851  69.705  1.00  0.00    -0.331 C  
HETATM    4  C   UNL     1     -11.727  13.272  70.238  1.00  0.00    -0.143 C  
HETATM    5  O   UNL     1     -10.805  14.087  69.548  1.00  0.00    -0.165 OA 
HETATM    6  C   UNL     1     -11.092  14.231  68.170  1.00  0.00    -0.258 C  
HETATM    7  C   UNL     1     -11.137  12.872  67.430  1.00  0.00    -0.273 C  
HETATM    8  C   UNL     1     -11.972  11.814  68.194  1.00  0.00    -0.143 C  
ENDROOT
BRANCH   6   9
HETATM    9  O   UNL     1     -10.059  15.026  67.580  1.00  0.00    -0.229 OA 
BRANCH   9  10
HETATM   10  C   UNL     1     -10.040  16.397  67.999  1.00  0.00    -0.248 C  
HETATM   11  H   UNL     1      -8.998  20.952  67.403  1.00  0.00     0.000 HD 
HETATM   12  C   UNL     1      -8.633  16.990  67.710  1.00  0.00    -0.213 C  
HETATM   13  C   UNL     1     -11.115  17.247  67.304  1.00  0.00     0.136 C  
HETATM   14  C   UNL     1      -8.615  18.508  67.981  1.00  0.00    -0.291 C  
HETATM   15  O   UNL     1      -9.823  20.565  67.671  1.00  0.00    -0.416 OA 
HETATM   16  O   UNL     1     -11.025  18.619  67.681  1.00  0.00    -0.365 OA 
HETATM   17  C   UNL     1      -9.793  19.197  67.280  1.00  0.00    -0.334 C  
BRANCH  14  18
HETATM   18  O   UNL     1      -7.353  19.138  67.781  1.00  0.00    -0.242 OA 
HETATM   19  S   UNL     1      -6.371  19.597  68.987  1.00  0.00    -0.313 S  
HETATM   20  O   UNL     1      -7.127  20.419  69.901  1.00  0.00     0.038 OA 
HETATM   21  O   UNL     1      -6.007  18.227  69.743  1.00  0.00    -0.241 OA 
HETATM   22  O   UNL     1      -5.141  20.054  68.382  1.00  0.00    -0.181 OA 
ENDBRANCH  14  18
BRANCH  12  23
HETATM   23  O   UNL     1      -7.580  16.288  68.388  1.00  0.00    -0.153 OA 
HETATM   24  S   UNL     1      -6.430  15.469  67.587  1.00  0.00    -0.161 S  
HETATM   25  O   UNL     1      -7.042  14.304  66.992  1.00  0.00    -0.047 OA 
HETATM   26  O   UNL     1      -5.516  14.918  68.791  1.00  0.00    -0.084 OA 
HETATM   27  O   UNL     1      -5.631  16.381  66.809  1.00  0.00    -0.345 OA 
ENDBRANCH  12  23
ENDBRANCH   9  10
ENDBRANCH   6   9
BRANCH   7  28
HETATM   28  O   UNL     1     -11.726  13.032  66.128  1.00  0.00    -0.354 OA 
HETATM   29  O   UNL     1     -10.235  14.322  64.607  1.00  0.00    -0.387 OA 
HETATM   30  O   UNL     1     -11.840  12.770  63.643  1.00  0.00    -0.453 OA 
HETATM   31  S   UNL     1     -10.760  12.992  64.813  1.00  0.00    -0.373 S  
HETATM   32  O   UNL     1      -9.929  11.814  64.875  1.00  0.00    -0.245 OA 
ENDBRANCH   7  28
BRANCH   8  33
HETATM   33  O   UNL     1     -11.611  10.533  67.650  1.00  0.00    -0.447 OA 
HETATM   34  S   UNL     1     -10.325   9.721  68.224  1.00  0.00    -0.208 S  
HETATM   35  O   UNL     1      -9.133  10.212  67.578  1.00  0.00    -0.134 OA 
HETATM   36  O   UNL     1     -10.457   9.604  69.659  1.00  0.00    -0.201 OA 
HETATM   37  O   UNL     1     -10.543   8.269  67.571  1.00  0.00    -0.257 OA 
ENDBRANCH   8  33
TORSDOF 6
ENDMDL
MODEL       37
REMARK 921   NORMALIZED FREE ENERGY PREDICTED BY IDOCK:   -5.31 KCAL/MOL
REMARK 922        TOTAL FREE ENERGY PREDICTED BY IDOCK:   -9.27 KCAL/MOL
REMARK 923 INTER-LIGAND FREE ENERGY PREDICTED BY IDOCK:   -8.23 KCAL/MOL
REMARK 924 INTRA-LIGAND FREE ENERGY PREDICTED BY IDOCK:   -1.05 KCAL/MOL
REMARK 927      BINDING AFFINITY PREDICTED BY RF-SCORE:    0.00 PKD
ROOT
HETATM    1  O   UNL     1     -12.270  14.397  63.541  1.00  0.00    -1.015 OA 
HETATM    2  H   UNL     1     -12.405  15.218  63.999  1.00  0.00     0.000 HD 
HETATM    3  C   UNL     1     -11.383  13.589  64.311  1.00  0.00    -0.375 C  
HETATM    4  C   UNL     1     -11.168  12.277  63.578  1.00  0.00    -0.460 C  
HETATM    5  O   UNL     1     -10.286  11.444  64.299  1.00  0.00    -0.264 OA 
HETATM    6  C   UNL     1     -10.780  11.052  65.565  1.00  0.00    -0.148 C  
HETATM    7  C   UNL     1     -11.103  12.262  66.474  1.00  0.00    -0.299 C  
HETATM    8  C   UNL     1     -11.915  13.353  65.734  1.00  0.00    -0.407 C  
ENDROOT
BRANCH   6   9
HETATM    9  O   UNL     1      -9.775  10.264  66.211  1.00  0.00    -0.189 OA 
BRANCH   9  10
HETATM   10  C   UNL     1     -10.047   8.857  66.253  1.00  0.00    -0.214 C  
HETATM   11  H   UNL     1      -8.958   4.404  67.342  1.00  0.00     0.000 HD 
HETATM   12  C   UNL     1      -8.772   8.086  65.813  1.00  0.00    -0.146 C  
HETATM   13  C   UNL     1     -10.488   8.378  67.645  1.00  0.00    -0.239 C  
HETATM   14  C   UNL     1      -8.956   6.568  66.009  1.00  0.00    -0.122 C  
HETATM   15  O   UNL     1      -9.766   4.875  67.514  1.00  0.00    -0.147 OA 
HETATM   16  O   UNL     1     -10.678   6.966  67.678  1.00  0.00    -0.230 OA 
HETATM   17  C   UNL     1      -9.472   6.264  67.422  1.00  0.00    -0.115 C  
BRANCH  14  18
HETATM   18  O   UNL     1      -7.850   5.770  65.596  1.00  0.00    -0.093 OA 
HETATM   19  S   UNL     1      -7.896   4.746  64.340  1.00  0.00    -0.090 S  
HETATM   20  O   UNL     1      -9.026   3.865  64.512  1.00  0.00    -0.121 OA 
HETATM   21  O   UNL     1      -8.193   5.686  63.073  1.00  0.00    -0.107 OA 
HETATM   22  O   UNL     1      -6.554   4.243  64.153  1.00  0.00    -0.040 OA 
ENDBRANCH  14  18
BRANCH  12  23
HETATM   23  O   UNL     1      -8.339   8.431  64.488  1.00  0.00    -0.166 OA 
HETATM   24  S   UNL     1      -6.867   9.043  64.189  1.00  0.00    -0.088 S  
HETATM   25  O   UNL     1      -6.821  10.384  64.725  1.00  0.00    -0.111 OA 
HETATM   26  O   UNL     1      -6.895   9.211  62.589  1.00  0.00    -0.094 OA 
HETATM   27  O   UNL     1      -5.856   8.068  64.510  1.00  0.00    -0.044 OA 
ENDBRANCH  12  23
ENDBRANCH   9  10
ENDBRANCH   6   9
BRANCH   7  28
HETATM   28  O   UNL     1     -11.878  11.840  67.611  1.00  0.00    -0.558 OA 
HETATM   29  O   UNL     1     -10.418  11.035  69.460  1.00  0.00    -0.195 OA 
HETATM   30  O   UNL     1     -12.624  11.905  69.997  1.00  0.00    -0.065 OA 
HETATM   31  S   UNL     1     -11.301  12.124  69.110  1.00  0.00    -0.274 S  
HETATM   32  O   UNL     1     -10.925  13.512  69.215  1.00  0.00    -0.216 OA 
ENDBRANCH   7  28
BRANCH   8  33
HETATM   33  O   UNL     1     -11.799  14.555  66.516  1.00  0.00    -0.383 OA 
HETATM   34  S   UNL     1     -10.531  15.552  66.319  1.00  0.00    -0.317 S  
HETATM   35  O   UNL     1      -9.423  15.063  67.102  1.00  0.00    -0.206 OA 
HETATM   36  O   UNL     1     -10.423  15.889  64.917  1.00  0.00    -0.542 OA 
HETATM   37  O   UNL     1     -11.020  16.856  67.121  1.00  0.00    -0.149 OA 
ENDBRANCH   8  33
TORSDOF 6
ENDMDL
MODEL       38
REMARK 921   NORMALIZED FREE ENERGY PREDICTED BY IDOCK:   -5.29 KCAL/MOL
REMARK 922        TOTAL FREE ENERGY PREDICTED BY IDOCK:   -9.25 KCAL/MOL
REMARK 923 INTER-LIGAND FREE ENERGY PREDICTED BY IDOCK:   -8.05 KCAL/MOL
REMARK 924 INTRA-LIGAND FREE ENERGY PREDICTED BY IDOCK:   -1.21 KCAL/MOL
REMARK 927      BINDING AFFINITY PREDICTED BY RF-SCORE:    0.00 PKD
ROOT
HETATM    1  O   UNL     1     -10.995  17.453  64.945  1.00  0.00    -0.862 OA 
HETATM    2  H   UNL     1     -10.184  17.848  65.239  1.00  0.00     0.000 HD 
HETATM    3  C   UNL     1     -10.823  16.038  64.912  1.00  0.00    -0.372 C  
HETATM    4  C   UNL     1     -12.121  15.406  64.441  1.00  0.00    -0.196 C  
HETATM    5  O   UNL     1     -11.998  14.001  64.382  1.00  0.00    -0.420 OA 
HETATM    6  C   UNL     1     -11.759  13.398  65.639  1.00  0.00    -0.346 C  
HETATM    7  C   UNL     1     -10.477  13.935  66.319  1.00  0.00    -0.287 C  
HETATM    8  C   UNL     1     -10.395  15.482  66.279  1.00  0.00    -0.302 C  
ENDROOT
BRANCH   6   9
HETATM    9  O   UNL     1     -11.599  11.991  65.434  1.00  0.00    -0.343 OA 
BRANCH   9  10
HETATM   10  C   UNL     1     -10.369  11.609  64.803  1.00  0.00    -0.282 C  
HETATM   11  H   UNL     1      -7.412   8.448  62.945  1.00  0.00     0.000 HD 
HETATM   12  C   UNL     1      -9.818  10.339  65.507  1.00  0.00    -0.282 C  
HETATM   13  C   UNL     1     -10.531  11.340  63.298  1.00  0.00    -0.305 C  
HETATM   14  C   UNL     1      -8.590   9.787  64.755  1.00  0.00    -0.179 C  
HETATM   15  O   UNL     1      -7.694   9.278  62.580  1.00  0.00    -0.114 OA 
HETATM   16  O   UNL     1      -9.312  10.890  62.712  1.00  0.00    -0.290 OA 
HETATM   17  C   UNL     1      -8.890   9.650  63.256  1.00  0.00    -0.238 C  
BRANCH  14  18
HETATM   18  O   UNL     1      -7.987   8.641  65.348  1.00  0.00    -0.099 OA 
HETATM   19  S   UNL     1      -6.519   8.647  66.036  1.00  0.00    -0.057 S  
HETATM   20  O   UNL     1      -5.575   9.193  65.091  1.00  0.00    -0.052 OA 
HETATM   21  O   UNL     1      -6.657   9.688  67.252  1.00  0.00    -0.069 OA 
HETATM   22  O   UNL     1      -6.331   7.350  66.646  1.00  0.00    -0.042 OA 
ENDBRANCH  14  18
BRANCH  12  23
HETATM   23  O   UNL     1      -9.573  10.537  66.908  1.00  0.00    -0.169 OA 
HETATM   24  S   UNL     1     -10.458   9.805  68.054  1.00  0.00    -0.239 S  
HETATM   25  O   UNL     1     -11.780  10.388  68.038  1.00  0.00    -0.383 OA 
HETATM   26  O   UNL     1      -9.760  10.337  69.402  1.00  0.00    -0.213 OA 
HETATM   27  O   UNL     1     -10.262   8.380  67.989  1.00  0.00    -0.194 OA 
ENDBRANCH  12  23
ENDBRANCH   9  10
ENDBRANCH   6   9
BRANCH   7  28
HETATM   28  O   UNL     1     -10.439  13.534  67.700  1.00  0.00    -0.234 OA 
HETATM   29  O   UNL     1     -11.309  15.327  69.193  1.00  0.00    -0.260 OA 
HETATM   30  O   UNL     1     -11.425  13.015  69.940  1.00  0.00    -0.202 OA 
HETATM   31  S   UNL     1     -11.640  14.011  68.696  1.00  0.00    -0.347 S  
HETATM   32  O   UNL     1     -12.909  13.691  68.090  1.00  0.00     0.717 OA 
ENDBRANCH   7  28
BRANCH   8  33
HETATM   33  O   UNL     1      -9.027  15.829  66.554  1.00  0.00    -0.249 OA 
HETATM   34  S   UNL     1      -8.631  17.340  67.003  1.00  0.00    -0.237 S  
HETATM   35  O   UNL     1      -8.492  18.160  65.825  1.00  0.00    -0.482 OA 
HETATM   36  O   UNL     1      -9.448  17.714  68.136  1.00  0.00    -0.268 OA 
HETATM   37  O   UNL     1      -7.119  17.139  67.509  1.00  0.00    -0.147 OA 
ENDBRANCH   8  33
TORSDOF 6
ENDMDL
MODEL       39
REMARK 921   NORMALIZED FREE ENERGY PREDICTED BY IDOCK:   -5.28 KCAL/MOL
REMARK 922        TOTAL FREE ENERGY PREDICTED BY IDOCK:   -9.23 KCAL/MOL
REMARK 923 INTER-LIGAND FREE ENERGY PREDICTED BY IDOCK:   -8.13 KCAL/MOL
REMARK 924 INTRA-LIGAND FREE ENERGY PREDICTED BY IDOCK:   -1.11 KCAL/MOL
REMARK 927      BINDING AFFINITY PREDICTED BY RF-SCORE:    0.00 PKD
ROOT
HETATM    1  O   UNL     1     -11.245   6.054  69.052  1.00  0.00    -0.367 OA 
HETATM    2  H   UNL     1     -11.773   6.177  69.831  1.00  0.00     0.000 HD 
HETATM    3  C   UNL     1     -11.018   7.326  68.452  1.00  0.00     0.029 C  
HETATM    4  C   UNL     1     -10.173   7.128  67.206  1.00  0.00    -0.245 C  
HETATM    5  O   UNL     1      -9.928   8.363  66.569  1.00  0.00    -0.258 OA 
HETATM    6  C   UNL     1      -9.176   9.269  67.352  1.00  0.00    -0.126 C  
HETATM    7  C   UNL     1      -9.856   9.586  68.706  1.00  0.00    -0.169 C  
HETATM    8  C   UNL     1     -10.351   8.309  69.428  1.00  0.00    -0.222 C  
ENDROOT
BRANCH   6   9
HETATM    9  O   UNL     1      -9.049  10.492  66.620  1.00  0.00    -0.152 OA 
BRANCH   9  10
HETATM   10  C   UNL     1     -10.158  11.391  66.748  1.00  0.00    -0.216 C  
HETATM   11  H   UNL     1     -12.527  15.314  65.656  1.00  0.00     0.000 HD 
HETATM   12  C   UNL     1      -9.618  12.846  66.828  1.00  0.00    -0.246 C  
HETATM   13  C   UNL     1     -11.158  11.271  65.588  1.00  0.00    -0.072 C  
HETATM   14  C   UNL     1     -10.777  13.861  66.790  1.00  0.00    -0.281 C  
HETATM   15  O   UNL     1     -12.852  14.422  65.709  1.00  0.00    -0.389 OA 
HETATM   16  O   UNL     1     -12.210  12.227  65.701  1.00  0.00    -0.605 OA 
HETATM   17  C   UNL     1     -11.725  13.558  65.622  1.00  0.00    -0.339 C  
BRANCH  14  18
HETATM   18  O   UNL     1     -10.384  15.227  66.897  1.00  0.00    -0.267 OA 
HETATM   19  S   UNL     1     -10.623  16.135  68.218  1.00  0.00    -0.301 S  
HETATM   20  O   UNL     1     -12.019  16.056  68.577  1.00  0.00    -0.273 OA 
HETATM   21  O   UNL     1      -9.778  15.394  69.366  1.00  0.00    -0.244 OA 
HETATM   22  O   UNL     1      -9.960  17.398  67.992  1.00  0.00    -0.275 OA 
ENDBRANCH  14  18
BRANCH  12  23
HETATM   23  O   UNL     1      -8.728  13.052  67.935  1.00  0.00    -0.169 OA 
HETATM   24  S   UNL     1      -7.177  13.483  67.732  1.00  0.00    -0.167 S  
HETATM   25  O   UNL     1      -6.469  12.357  67.167  1.00  0.00    -0.159 OA 
HETATM   26  O   UNL     1      -6.664  13.606  69.252  1.00  0.00    -0.111 OA 
HETATM   27  O   UNL     1      -7.106  14.793  67.137  1.00  0.00    -0.192 OA 
ENDBRANCH  12  23
ENDBRANCH   9  10
ENDBRANCH   6   9
BRANCH   7  28
HETATM   28  O   UNL     1      -8.932  10.251  69.585  1.00  0.00    -0.190 OA 
HETATM   29  O   UNL     1      -7.846   8.646  71.148  1.00  0.00    -0.094 OA 
HETATM   30  O   UNL     1      -6.688  10.710  70.591  1.00  0.00    -0.332 OA 
HETATM   31  S   UNL     1      -7.554   9.487  70.010  1.00  0.00    -0.151 S  
HETATM   32  O   UNL     1      -6.896   9.007  68.819  1.00  0.00    -0.060 OA 
ENDBRANCH   7  28
BRANCH   8  33
HETATM   33  O   UNL     1     -11.294   8.738  70.426  1.00  0.00    -0.256 OA 
HETATM   34  S   UNL     1     -11.687   7.765  71.667  1.00  0.00    -0.293 S  
HETATM   35  O   UNL     1     -12.717   6.851  71.239  1.00  0.00    -0.370 OA 
HETATM   36  O   UNL     1     -10.470   7.337  72.320  1.00  0.00    -0.204 OA 
HETATM   37  O   UNL     1     -12.460   8.782  72.641  1.00  0.00    -0.361 OA 
ENDBRANCH   8  33
TORSDOF 6
ENDMDL
MODEL       40
REMARK 921   NORMALIZED FREE ENERGY PREDICTED BY IDOCK:   -5.25 KCAL/MOL
REMARK 922        TOTAL FREE ENERGY PREDICTED BY IDOCK:   -9.20 KCAL/MOL
REMARK 923 INTER-LIGAND FREE ENERGY PREDICTED BY IDOCK:   -9.39 KCAL/MOL
REMARK 924 INTRA-LIGAND FREE ENERGY PREDICTED BY IDOCK:    0.19 KCAL/MOL
REMARK 927      BINDING AFFINITY PREDICTED BY RF-SCORE:    0.00 PKD
ROOT
HETATM    1  O   UNL     1     -10.917  14.930  64.520  1.00  0.00    -0.599 OA 
HETATM    2  H   UNL     1     -10.834  15.874  64.565  1.00  0.00     0.000 HD 
HETATM    3  C   UNL     1     -10.609  14.386  65.801  1.00  0.00    -0.318 C  
HETATM    4  C   UNL     1     -10.744  12.876  65.728  1.00  0.00    -0.273 C  
HETATM    5  O   UNL     1     -10.439  12.288  66.974  1.00  0.00    -0.215 OA 
HETATM    6  C   UNL     1     -11.325  12.661  68.012  1.00  0.00    -0.290 C  
HETATM    7  C   UNL     1     -11.366  14.192  68.232  1.00  0.00    -0.291 C  
HETATM    8  C   UNL     1     -11.506  14.974  66.902  1.00  0.00    -0.263 C  
ENDROOT
BRANCH   6   9
HETATM    9  O   UNL     1     -10.875  12.048  69.224  1.00  0.00    -0.184 OA 
BRANCH   9  10
HETATM   10  C   UNL     1     -11.516  10.807  69.547  1.00  0.00    -0.294 C  
HETATM   11  H   UNL     1     -12.215   7.029  72.273  1.00  0.00     0.000 HD 
HETATM   12  C   UNL     1     -10.436   9.788  70.002  1.00  0.00    -0.270 C  
HETATM   13  C   UNL     1     -12.584  10.957  70.642  1.00  0.00    -0.346 C  
HETATM   14  C   UNL     1     -11.093   8.495  70.526  1.00  0.00    -0.244 C  
HETATM   15  O   UNL     1     -12.862   7.617  71.901  1.00  0.00    -0.313 OA 
HETATM   16  O   UNL     1     -13.152   9.698  70.996  1.00  0.00    -0.319 OA 
HETATM   17  C   UNL     1     -12.186   8.820  71.552  1.00  0.00    -0.327 C  
BRANCH  14  18
HETATM   18  O   UNL     1     -10.179   7.479  70.933  1.00  0.00    -0.193 OA 
HETATM   19  S   UNL     1      -9.450   7.448  72.380  1.00  0.00    -0.158 S  
HETATM   20  O   UNL     1      -8.805   8.722  72.592  1.00  0.00    -0.394 OA 
HETATM   21  O   UNL     1     -10.659   7.329  73.430  1.00  0.00    -0.346 OA 
HETATM   22  O   UNL     1      -8.728   6.200  72.465  1.00  0.00    -0.122 OA 
ENDBRANCH  14  18
BRANCH  12  23
HETATM   23  O   UNL     1      -9.440   9.542  68.998  1.00  0.00    -0.151 OA 
HETATM   24  S   UNL     1      -7.931  10.127  69.114  1.00  0.00    -0.136 S  
HETATM   25  O   UNL     1      -7.990  11.559  68.933  1.00  0.00    -0.131 OA 
HETATM   26  O   UNL     1      -7.245   9.544  67.780  1.00  0.00    -0.081 OA 
HETATM   27  O   UNL     1      -7.262   9.537  70.246  1.00  0.00    -0.085 OA 
ENDBRANCH  12  23
ENDBRANCH   9  10
ENDBRANCH   6   9
BRANCH   7  28
HETATM   28  O   UNL     1     -12.485  14.548  69.064  1.00  0.00    -0.145 OA 
HETATM   29  O   UNL     1     -12.007  14.107  71.468  1.00  0.00    -0.272 OA 
HETATM   30  O   UNL     1     -13.646  15.807  70.887  1.00  0.00    -0.538 OA 
HETATM   31  S   UNL     1     -12.202  15.194  70.536  1.00  0.00    -0.371 S  
HETATM   32  O   UNL     1     -11.278  16.293  70.398  1.00  0.00    -0.373 OA 
ENDBRANCH   7  28
BRANCH   8  33
HETATM   33  O   UNL     1     -11.129  16.333  67.181  1.00  0.00    -0.179 OA 
HETATM   34  S   UNL     1      -9.564  16.773  67.192  1.00  0.00    -0.242 S  
HETATM   35  O   UNL     1      -8.998  16.463  68.482  1.00  0.00    -0.206 OA 
HETATM   36  O   UNL     1      -8.961  16.362  65.944  1.00  0.00    -0.433 OA 
HETATM   37  O   UNL     1      -9.679  18.375  67.200  1.00  0.00    -0.285 OA 
ENDBRANCH   8  33
TORSDOF 6
ENDMDL
MODEL       41
REMARK 921   NORMALIZED FREE ENERGY PREDICTED BY IDOCK:   -5.25 KCAL/MOL
REMARK 922        TOTAL FREE ENERGY PREDICTED BY IDOCK:   -9.19 KCAL/MOL
REMARK 923 INTER-LIGAND FREE ENERGY PREDICTED BY IDOCK:   -9.06 KCAL/MOL
REMARK 924 INTRA-LIGAND FREE ENERGY PREDICTED BY IDOCK:   -0.13 KCAL/MOL
REMARK 927      BINDING AFFINITY PREDICTED BY RF-SCORE:    0.00 PKD
ROOT
HETATM    1  O   UNL     1     -11.945   9.907  71.374  1.00  0.00    -0.362 OA 
HETATM    2  H   UNL     1     -11.524   9.220  71.875  1.00  0.00     0.000 HD 
HETATM    3  C   UNL     1     -11.114  10.232  70.263  1.00  0.00    -0.319 C  
HETATM    4  C   UNL     1     -11.788  11.331  69.462  1.00  0.00    -0.357 C  
HETATM    5  O   UNL     1     -10.997  11.696  68.351  1.00  0.00    -0.193 OA 
HETATM    6  C   UNL     1     -10.815  10.652  67.415  1.00  0.00    -0.296 C  
HETATM    7  C   UNL     1     -10.160   9.399  68.045  1.00  0.00    -0.191 C  
HETATM    8  C   UNL     1     -10.823   9.002  69.387  1.00  0.00    -0.138 C  
ENDROOT
BRANCH   6   9
HETATM    9  O   UNL     1      -9.955  11.130  66.376  1.00  0.00    -0.204 OA 
BRANCH   9  10
HETATM   10  C   UNL     1      -9.182  12.289  66.718  1.00  0.00    -0.210 C  
HETATM   11  H   UNL     1      -8.483  16.333  69.030  1.00  0.00     0.000 HD 
HETATM   12  C   UNL     1     -10.110  13.534  66.696  1.00  0.00    -0.277 C  
HETATM   13  C   UNL     1      -8.506  12.169  68.092  1.00  0.00    -0.175 C  
HETATM   14  C   UNL     1      -9.368  14.778  67.226  1.00  0.00    -0.206 C  
HETATM   15  O   UNL     1      -7.895  15.591  68.946  1.00  0.00    -0.152 OA 
HETATM   16  O   UNL     1      -7.807  13.362  68.439  1.00  0.00    -0.131 OA 
HETATM   17  C   UNL     1      -8.684  14.470  68.565  1.00  0.00    -0.177 C  
BRANCH  14  18
HETATM   18  O   UNL     1     -10.127  15.983  67.209  1.00  0.00    -0.255 OA 
HETATM   19  S   UNL     1      -9.946  17.149  66.097  1.00  0.00    -0.251 S  
HETATM   20  O   UNL     1      -8.550  17.514  66.044  1.00  0.00    -0.497 OA 
HETATM   21  O   UNL     1     -10.320  16.433  64.709  1.00  0.00    -0.532 OA 
HETATM   22  O   UNL     1     -10.985  18.125  66.332  1.00  0.00    -0.058 OA 
ENDBRANCH  14  18
BRANCH  12  23
HETATM   23  O   UNL     1     -10.725  13.752  65.417  1.00  0.00    -0.293 OA 
HETATM   24  S   UNL     1     -12.328  13.643  65.196  1.00  0.00    -0.461 S  
HETATM   25  O   UNL     1     -12.704  12.253  65.319  1.00  0.00    -0.543 OA 
HETATM   26  O   UNL     1     -12.474  14.001  63.634  1.00  0.00    -0.803 OA 
HETATM   27  O   UNL     1     -12.998  14.674  65.948  1.00  0.00    -0.073 OA 
ENDBRANCH  12  23
ENDBRANCH   9  10
ENDBRANCH   6   9
BRANCH   7  28
HETATM   28  O   UNL     1     -10.275   8.274  67.155  1.00  0.00    -0.237 OA 
HETATM   29  O   UNL     1      -8.552   8.355  65.359  1.00  0.00    -0.169 OA 
HETATM   30  O   UNL     1      -9.478   6.201  66.006  1.00  0.00    -0.121 OA 
HETATM   31  S   UNL     1      -8.917   7.609  66.542  1.00  0.00    -0.165 S  
HETATM   32  O   UNL     1      -7.999   7.336  67.620  1.00  0.00    -0.111 OA 
ENDBRANCH   7  28
BRANCH   8  33
HETATM   33  O   UNL     1      -9.905   8.120  70.056  1.00  0.00    -0.180 OA 
HETATM   34  S   UNL     1     -10.398   6.672  70.604  1.00  0.00    -0.206 S  
HETATM   35  O   UNL     1     -11.010   6.843  71.898  1.00  0.00    -0.227 OA 
HETATM   36  O   UNL     1     -11.031   5.959  69.517  1.00  0.00    -0.346 OA 
HETATM   37  O   UNL     1      -8.997   5.959  70.936  1.00  0.00    -0.143 OA 
ENDBRANCH   8  33
TORSDOF 6
ENDMDL
MODEL       42
REMARK 921   NORMALIZED FREE ENERGY PREDICTED BY IDOCK:   -5.23 KCAL/MOL
REMARK 922        TOTAL FREE ENERGY PREDICTED BY IDOCK:   -9.17 KCAL/MOL
REMARK 923 INTER-LIGAND FREE ENERGY PREDICTED BY IDOCK:   -7.53 KCAL/MOL
REMARK 924 INTRA-LIGAND FREE ENERGY PREDICTED BY IDOCK:   -1.64 KCAL/MOL
REMARK 927      BINDING AFFINITY PREDICTED BY RF-SCORE:    0.00 PKD
ROOT
HETATM    1  O   UNL     1     -11.944  13.858  65.332  1.00  0.00    -0.346 OA 
HETATM    2  H   UNL     1     -11.616  14.686  65.005  1.00  0.00     0.000 HD 
HETATM    3  C   UNL     1     -10.836  13.061  65.742  1.00  0.00    -0.272 C  
HETATM    4  C   UNL     1     -11.363  11.737  66.266  1.00  0.00    -0.287 C  
HETATM    5  O   UNL     1     -10.299  10.905  66.678  1.00  0.00    -0.223 OA 
HETATM    6  C   UNL     1      -9.552  11.429  67.759  1.00  0.00    -0.172 C  
HETATM    7  C   UNL     1      -8.944  12.816  67.441  1.00  0.00    -0.195 C  
HETATM    8  C   UNL     1      -9.976  13.776  66.797  1.00  0.00    -0.270 C  
ENDROOT
BRANCH   6   9
HETATM    9  O   UNL     1      -8.478  10.525  68.038  1.00  0.00    -0.117 OA 
BRANCH   9  10
HETATM   10  C   UNL     1      -8.506   9.941  69.347  1.00  0.00    -0.165 C  
HETATM   11  H   UNL     1      -7.236   6.704  72.524  1.00  0.00     0.000 HD 
HETATM   12  C   UNL     1      -8.662   8.402  69.206  1.00  0.00    -0.138 C  
HETATM   13  C   UNL     1      -7.247  10.263  70.168  1.00  0.00    -0.129 C  
HETATM   14  C   UNL     1      -8.521   7.712  70.578  1.00  0.00    -0.128 C  
HETATM   15  O   UNL     1      -7.241   7.650  72.614  1.00  0.00    -0.071 OA 
HETATM   16  O   UNL     1      -7.266   9.610  71.435  1.00  0.00    -0.315 OA 
HETATM   17  C   UNL     1      -7.258   8.197  71.301  1.00  0.00    -0.066 C  
BRANCH  14  18
HETATM   18  O   UNL     1      -8.688   6.297  70.558  1.00  0.00    -0.140 OA 
HETATM   19  S   UNL     1      -9.940   5.526  71.241  1.00  0.00    -0.200 S  
HETATM   20  O   UNL     1     -10.044   5.956  72.615  1.00  0.00    -0.175 OA 
HETATM   21  O   UNL     1     -11.224   6.081  70.453  1.00  0.00    -0.337 OA 
HETATM   22  O   UNL     1      -9.828   4.131  70.881  1.00  0.00    -0.188 OA 
ENDBRANCH  14  18
BRANCH  12  23
HETATM   23  O   UNL     1      -9.858   8.022  68.509  1.00  0.00    -0.165 OA 
HETATM   24  S   UNL     1      -9.827   7.099  67.175  1.00  0.00    -0.198 S  
HETATM   25  O   UNL     1      -9.257   7.880  66.102  1.00  0.00    -0.187 OA 
HETATM   26  O   UNL     1     -11.393   6.957  66.833  1.00  0.00    -0.269 OA 
HETATM   27  O   UNL     1      -9.327   5.787  67.499  1.00  0.00    -0.112 OA 
ENDBRANCH  12  23
ENDBRANCH   9  10
ENDBRANCH   6   9
BRANCH   7  28
HETATM   28  O   UNL     1      -8.465  13.440  68.645  1.00  0.00    -0.113 OA 
HETATM   29  O   UNL     1      -6.188  12.630  69.245  1.00  0.00    -0.091 OA 
HETATM   30  O   UNL     1      -6.895  14.828  70.011  1.00  0.00    -0.178 OA 
HETATM   31  S   UNL     1      -6.880  13.806  68.769  1.00  0.00    -0.111 S  
HETATM   32  O   UNL     1      -6.474  14.543  67.598  1.00  0.00    -0.175 OA 
ENDBRANCH   7  28
BRANCH   8  33
HETATM   33  O   UNL     1      -9.225  14.841  66.189  1.00  0.00    -0.276 OA 
HETATM   34  S   UNL     1      -9.765  16.373  66.247  1.00  0.00    -0.328 S  
HETATM   35  O   UNL     1     -10.715  16.577  65.182  1.00  0.00    -0.606 OA 
HETATM   36  O   UNL     1     -10.036  16.714  67.626  1.00  0.00    -0.258 OA 
HETATM   37  O   UNL     1      -8.468  17.190  65.765  1.00  0.00    -0.522 OA 
ENDBRANCH   8  33
TORSDOF 6
ENDMDL
MODEL       43
REMARK 921   NORMALIZED FREE ENERGY PREDICTED BY IDOCK:   -5.19 KCAL/MOL
REMARK 922        TOTAL FREE ENERGY PREDICTED BY IDOCK:   -9.11 KCAL/MOL
REMARK 923 INTER-LIGAND FREE ENERGY PREDICTED BY IDOCK:   -8.54 KCAL/MOL
REMARK 924 INTRA-LIGAND FREE ENERGY PREDICTED BY IDOCK:   -0.58 KCAL/MOL
REMARK 927      BINDING AFFINITY PREDICTED BY RF-SCORE:    0.00 PKD
ROOT
HETATM    1  O   UNL     1      -8.659   6.652  69.480  1.00  0.00    -0.130 OA 
HETATM    2  H   UNL     1      -9.286   6.055  69.870  1.00  0.00     0.000 HD 
HETATM    3  C   UNL     1      -9.366   7.777  68.963  1.00  0.00    -0.150 C  
HETATM    4  C   UNL     1      -8.363   8.731  68.341  1.00  0.00    -0.126 C  
HETATM    5  O   UNL     1      -9.018   9.861  67.804  1.00  0.00    -0.131 OA 
HETATM    6  C   UNL     1      -9.683  10.647  68.773  1.00  0.00    -0.189 C  
HETATM    7  C   UNL     1     -10.744   9.842  69.561  1.00  0.00    -0.242 C  
HETATM    8  C   UNL     1     -10.202   8.475  70.048  1.00  0.00    -0.198 C  
ENDROOT
BRANCH   6   9
HETATM    9  O   UNL     1     -10.348  11.719  68.097  1.00  0.00    -0.187 OA 
BRANCH   9  10
HETATM   10  C   UNL     1      -9.479  12.630  67.410  1.00  0.00    -0.189 C  
HETATM   11  H   UNL     1      -7.441  16.833  66.802  1.00  0.00     0.000 HD 
HETATM   12  C   UNL     1     -10.208  13.992  67.248  1.00  0.00    -0.260 C  
HETATM   13  C   UNL     1      -8.142  12.840  68.137  1.00  0.00    -0.158 C  
HETATM   14  C   UNL     1      -9.254  15.057  66.671  1.00  0.00    -0.276 C  
HETATM   15  O   UNL     1      -7.034  15.975  66.811  1.00  0.00    -0.215 OA 
HETATM   16  O   UNL     1      -7.330  13.805  67.473  1.00  0.00    -0.165 OA 
HETATM   17  C   UNL     1      -7.938  15.087  67.460  1.00  0.00    -0.178 C  
BRANCH  14  18
HETATM   18  O   UNL     1      -9.843  16.335  66.449  1.00  0.00    -0.257 OA 
HETATM   19  S   UNL     1     -10.422  17.280  67.632  1.00  0.00    -0.352 S  
HETATM   20  O   UNL     1     -11.351  16.505  68.420  1.00  0.00    -0.348 OA 
HETATM   21  O   UNL     1      -9.142  17.595  68.549  1.00  0.00    -0.273 OA 
HETATM   22  O   UNL     1     -10.794  18.538  67.026  1.00  0.00    -0.364 OA 
ENDBRANCH  14  18
BRANCH  12  23
HETATM   23  O   UNL     1     -11.437  13.885  66.512  1.00  0.00    -0.324 OA 
HETATM   24  S   UNL     1     -11.517  13.168  65.059  1.00  0.00    -0.321 S  
HETATM   25  O   UNL     1     -10.834  14.012  64.106  1.00  0.00    -0.204 OA 
HETATM   26  O   UNL     1     -13.084  13.294  64.713  1.00  0.00    -0.709 OA 
HETATM   27  O   UNL     1     -11.206  11.768  65.185  1.00  0.00    -0.302 OA 
ENDBRANCH  12  23
ENDBRANCH   9  10
ENDBRANCH   6   9
BRANCH   7  28
HETATM   28  O   UNL     1     -11.169  10.578  70.722  1.00  0.00    -0.300 OA 
HETATM   29  O   UNL     1     -12.487  12.594  70.088  1.00  0.00    -0.163 OA 
HETATM   30  O   UNL     1     -12.847  11.592  72.275  1.00  0.00    -0.161 OA 
HETATM   31  S   UNL     1     -12.634  11.297  70.709  1.00  0.00    -0.304 S  
HETATM   32  O   UNL     1     -13.628  10.334  70.303  1.00  0.00     0.096 OA 
ENDBRANCH   7  28
BRANCH   8  33
HETATM   33  O   UNL     1     -11.348   7.674  70.387  1.00  0.00    -0.272 OA 
HETATM   34  S   UNL     1     -11.444   6.937  71.832  1.00  0.00    -0.286 S  
HETATM   35  O   UNL     1     -10.723   5.690  71.772  1.00  0.00    -0.234 OA 
HETATM   36  O   UNL     1     -11.234   7.924  72.868  1.00  0.00    -0.398 OA 
HETATM   37  O   UNL     1     -12.986   6.486  71.861  1.00  0.00    -0.268 OA 
ENDBRANCH   8  33
TORSDOF 6
ENDMDL
MODEL       44
REMARK 921   NORMALIZED FREE ENERGY PREDICTED BY IDOCK:   -5.16 KCAL/MOL
REMARK 922        TOTAL FREE ENERGY PREDICTED BY IDOCK:   -9.07 KCAL/MOL
REMARK 923 INTER-LIGAND FREE ENERGY PREDICTED BY IDOCK:   -8.87 KCAL/MOL
REMARK 924 INTRA-LIGAND FREE ENERGY PREDICTED BY IDOCK:   -0.20 KCAL/MOL
REMARK 927      BINDING AFFINITY PREDICTED BY RF-SCORE:    0.00 PKD
ROOT
HETATM    1  O   UNL     1     -12.896   9.346  71.435  1.00  0.00    -0.324 OA 
HETATM    2  H   UNL     1     -12.506   8.961  72.211  1.00  0.00     0.000 HD 
HETATM    3  C   UNL     1     -11.947  10.228  70.841  1.00  0.00    -0.375 C  
HETATM    4  C   UNL     1     -12.571  10.842  69.601  1.00  0.00    -0.007 C  
HETATM    5  O   UNL     1     -11.670  11.733  68.980  1.00  0.00    -0.278 OA 
HETATM    6  C   UNL     1     -10.494  11.111  68.499  1.00  0.00    -0.191 C  
HETATM    7  C   UNL     1      -9.710  10.383  69.617  1.00  0.00    -0.124 C  
HETATM    8  C   UNL     1     -10.630   9.508  70.505  1.00  0.00    -0.297 C  
ENDROOT
BRANCH   6   9
HETATM    9  O   UNL     1      -9.647  12.125  67.948  1.00  0.00    -0.185 OA 
BRANCH   9  10
HETATM   10  C   UNL     1     -10.336  13.187  67.276  1.00  0.00    -0.243 C  
HETATM   11  H   UNL     1     -10.488  17.300  64.984  1.00  0.00     0.000 HD 
HETATM   12  C   UNL     1      -9.780  14.546  67.784  1.00  0.00    -0.216 C  
HETATM   13  C   UNL     1     -10.201  13.110  65.747  1.00  0.00    -0.289 C  
HETATM   14  C   UNL     1     -10.365  15.715  66.967  1.00  0.00    -0.289 C  
HETATM   15  O   UNL     1     -10.897  16.476  64.747  1.00  0.00    -0.720 OA 
HETATM   16  O   UNL     1     -10.831  14.218  65.108  1.00  0.00    -0.332 OA 
HETATM   17  C   UNL     1     -10.220  15.449  65.462  1.00  0.00    -0.382 C  
BRANCH  14  18
HETATM   18  O   UNL     1      -9.943  17.010  67.384  1.00  0.00    -0.264 OA 
HETATM   19  S   UNL     1      -8.404  17.519  67.334  1.00  0.00    -0.214 S  
HETATM   20  O   UNL     1      -7.583  16.552  68.023  1.00  0.00    -0.154 OA 
HETATM   21  O   UNL     1      -8.021  17.467  65.775  1.00  0.00    -0.548 OA 
HETATM   22  O   UNL     1      -8.408  18.918  67.695  1.00  0.00    -0.267 OA 
ENDBRANCH  14  18
BRANCH  12  23
HETATM   23  O   UNL     1      -9.937  14.720  69.201  1.00  0.00    -0.220 OA 
HETATM   24  S   UNL     1     -11.303  15.303  69.856  1.00  0.00    -0.316 S  
HETATM   25  O   UNL     1     -11.402  16.702  69.511  1.00  0.00    -0.174 OA 
HETATM   26  O   UNL     1     -10.961  15.261  71.428  1.00  0.00    -0.314 OA 
HETATM   27  O   UNL     1     -12.390  14.389  69.618  1.00  0.00    -0.317 OA 
ENDBRANCH  12  23
ENDBRANCH   9  10
ENDBRANCH   6   9
BRANCH   7  28
HETATM   28  O   UNL     1      -8.711   9.520  69.046  1.00  0.00    -0.132 OA 
HETATM   29  O   UNL     1      -6.705  10.806  68.323  1.00  0.00    -0.062 OA 
HETATM   30  O   UNL     1      -6.452   8.456  68.895  1.00  0.00    -0.047 OA 
HETATM   31  S   UNL     1      -7.135   9.849  69.316  1.00  0.00    -0.077 S  
HETATM   32  O   UNL     1      -6.928  10.031  70.732  1.00  0.00    -0.305 OA 
ENDBRANCH   7  28
BRANCH   8  33
HETATM   33  O   UNL     1      -9.895   9.226  71.708  1.00  0.00    -0.252 OA 
HETATM   34  S   UNL     1      -9.858   7.722  72.322  1.00  0.00    -0.210 S  
HETATM   35  O   UNL     1     -11.039   7.511  73.121  1.00  0.00    -0.383 OA 
HETATM   36  O   UNL     1      -9.431   6.810  71.284  1.00  0.00    -0.165 OA 
HETATM   37  O   UNL     1      -8.680   7.846  73.408  1.00  0.00    -0.195 OA 
ENDBRANCH   8  33
TORSDOF 6
ENDMDL
MODEL       45
REMARK 921   NORMALIZED FREE ENERGY PREDICTED BY IDOCK:   -5.16 KCAL/MOL
REMARK 922        TOTAL FREE ENERGY PREDICTED BY IDOCK:   -9.07 KCAL/MOL
REMARK 923 INTER-LIGAND FREE ENERGY PREDICTED BY IDOCK:   -8.87 KCAL/MOL
REMARK 924 INTRA-LIGAND FREE ENERGY PREDICTED BY IDOCK:   -0.21 KCAL/MOL
REMARK 927      BINDING AFFINITY PREDICTED BY RF-SCORE:    0.00 PKD
ROOT
HETATM    1  O   UNL     1     -10.709   5.679  70.492  1.00  0.00    -0.278 OA 
HETATM    2  H   UNL     1     -11.158   5.835  71.314  1.00  0.00     0.000 HD 
HETATM    3  C   UNL     1     -10.515   6.931  69.838  1.00  0.00    -0.216 C  
HETATM    4  C   UNL     1      -9.796   6.681  68.524  1.00  0.00    -0.139 C  
HETATM    5  O   UNL     1      -9.589   7.893  67.832  1.00  0.00    -0.143 OA 
HETATM    6  C   UNL     1      -8.748   8.803  68.515  1.00  0.00    -0.135 C  
HETATM    7  C   UNL     1      -9.290   9.170  69.917  1.00  0.00    -0.186 C  
HETATM    8  C   UNL     1      -9.740   7.923  70.719  1.00  0.00    -0.172 C  
ENDROOT
BRANCH   6   9
HETATM    9  O   UNL     1      -8.667  10.002  67.739  1.00  0.00    -0.125 OA 
BRANCH   9  10
HETATM   10  C   UNL     1      -9.265   9.922  66.439  1.00  0.00    -0.158 C  
HETATM   11  H   UNL     1      -9.958  11.453  62.038  1.00  0.00     0.000 HD 
HETATM   12  C   UNL     1      -9.750  11.338  66.022  1.00  0.00    -0.220 C  
HETATM   13  C   UNL     1      -8.304   9.368  65.375  1.00  0.00    -0.137 C  
HETATM   14  C   UNL     1     -10.242  11.338  64.560  1.00  0.00    -0.314 C  
HETATM   15  O   UNL     1      -9.753  10.573  62.332  1.00  0.00    -0.214 OA 
HETATM   16  O   UNL     1      -8.898   9.370  64.079  1.00  0.00    -0.215 OA 
HETATM   17  C   UNL     1      -9.203  10.684  63.640  1.00  0.00    -0.259 C  
BRANCH  14  18
HETATM   18  O   UNL     1     -10.745  12.588  64.096  1.00  0.00    -0.334 OA 
HETATM   19  S   UNL     1     -12.320  12.905  63.886  1.00  0.00    -0.378 S  
HETATM   20  O   UNL     1     -12.885  11.872  63.050  1.00  0.00    -0.520 OA 
HETATM   21  O   UNL     1     -12.954  12.751  65.354  1.00  0.00    -0.587 OA 
HETATM   22  O   UNL     1     -12.431  14.306  63.552  1.00  0.00    -0.798 OA 
ENDBRANCH  14  18
BRANCH  12  23
HETATM   23  O   UNL     1     -10.709  11.892  66.935  1.00  0.00    -0.228 OA 
HETATM   24  S   UNL     1     -10.452  13.290  67.717  1.00  0.00    -0.243 S  
HETATM   25  O   UNL     1      -9.409  13.073  68.693  1.00  0.00    -0.123 OA 
HETATM   26  O   UNL     1     -11.814  13.455  68.559  1.00  0.00    -0.334 OA 
HETATM   27  O   UNL     1     -10.385  14.376  66.773  1.00  0.00    -0.268 OA 
ENDBRANCH  12  23
ENDBRANCH   9  10
ENDBRANCH   6   9
BRANCH   7  28
HETATM   28  O   UNL     1      -8.274   9.838  70.686  1.00  0.00    -0.246 OA 
HETATM   29  O   UNL     1      -7.494   8.425  72.582  1.00  0.00    -0.175 OA 
HETATM   30  O   UNL     1      -5.994  10.112  71.677  1.00  0.00    -0.304 OA 
HETATM   31  S   UNL     1      -7.052   8.958  71.314  1.00  0.00    -0.074 S  
HETATM   32  O   UNL     1      -6.475   8.143  70.272  1.00  0.00    -0.036 OA 
ENDBRANCH   7  28
BRANCH   8  33
HETATM   33  O   UNL     1     -10.575   8.399  71.788  1.00  0.00    -0.239 OA 
HETATM   34  S   UNL     1     -12.134   8.771  71.520  1.00  0.00    -0.347 S  
HETATM   35  O   UNL     1     -12.214  10.114  71.001  1.00  0.00    -0.315 OA 
HETATM   36  O   UNL     1     -12.775   7.639  70.889  1.00  0.00    -0.169 OA 
HETATM   37  O   UNL     1     -12.696   8.906  73.019  1.00  0.00    -0.239 OA 
ENDBRANCH   8  33
TORSDOF 6
ENDMDL
MODEL       46
REMARK 921   NORMALIZED FREE ENERGY PREDICTED BY IDOCK:   -5.14 KCAL/MOL
REMARK 922        TOTAL FREE ENERGY PREDICTED BY IDOCK:   -9.05 KCAL/MOL
REMARK 923 INTER-LIGAND FREE ENERGY PREDICTED BY IDOCK:   -8.08 KCAL/MOL
REMARK 924 INTRA-LIGAND FREE ENERGY PREDICTED BY IDOCK:   -0.97 KCAL/MOL
REMARK 927      BINDING AFFINITY PREDICTED BY RF-SCORE:    0.00 PKD
ROOT
HETATM    1  O   UNL     1      -9.995  14.304  66.027  1.00  0.00    -0.294 OA 
HETATM    2  H   UNL     1     -10.887  14.318  65.702  1.00  0.00     0.000 HD 
HETATM    3  C   UNL     1      -9.747  13.030  66.615  1.00  0.00    -0.256 C  
HETATM    4  C   UNL     1      -8.321  13.008  67.133  1.00  0.00    -0.150 C  
HETATM    5  O   UNL     1      -8.029  11.765  67.735  1.00  0.00    -0.125 OA 
HETATM    6  C   UNL     1      -8.085  10.671  66.840  1.00  0.00    -0.124 C  
HETATM    7  C   UNL     1      -9.469  10.531  66.163  1.00  0.00    -0.180 C  
HETATM    8  C   UNL     1      -9.998  11.883  65.622  1.00  0.00    -0.241 C  
ENDROOT
BRANCH   6   9
HETATM    9  O   UNL     1      -7.828   9.475  67.582  1.00  0.00    -0.101 OA 
BRANCH   9  10
HETATM   10  C   UNL     1      -8.207   9.528  68.964  1.00  0.00    -0.113 C  
HETATM   11  H   UNL     1      -8.459   7.746  73.317  1.00  0.00     0.000 HD 
HETATM   12  C   UNL     1      -8.831   8.163  69.365  1.00  0.00    -0.143 C  
HETATM   13  C   UNL     1      -7.027   9.853  69.892  1.00  0.00    -0.105 C  
HETATM   14  C   UNL     1      -9.095   8.109  70.883  1.00  0.00    -0.151 C  
HETATM   15  O   UNL     1      -8.172   8.611  73.048  1.00  0.00    -0.402 OA 
HETATM   16  O   UNL     1      -7.415   9.826  71.264  1.00  0.00    -0.260 OA 
HETATM   17  C   UNL     1      -7.845   8.535  71.665  1.00  0.00    -0.124 C  
BRANCH  14  18
HETATM   18  O   UNL     1      -9.704   6.907  71.345  1.00  0.00    -0.174 OA 
HETATM   19  S   UNL     1     -11.202   6.832  71.959  1.00  0.00    -0.275 S  
HETATM   20  O   UNL     1     -11.308   7.807  73.019  1.00  0.00    -0.399 OA 
HETATM   21  O   UNL     1     -12.149   7.311  70.754  1.00  0.00    -0.307 OA 
HETATM   22  O   UNL     1     -11.506   5.435  72.169  1.00  0.00    -0.161 OA 
ENDBRANCH  14  18
BRANCH  12  23
HETATM   23  O   UNL     1      -9.987   7.825  68.584  1.00  0.00    -0.171 OA 
HETATM   24  S   UNL     1     -10.041   6.503  67.645  1.00  0.00    -0.165 S  
HETATM   25  O   UNL     1      -9.148   6.709  66.528  1.00  0.00    -0.141 OA 
HETATM   26  O   UNL     1     -11.529   6.586  67.039  1.00  0.00    -0.223 OA 
HETATM   27  O   UNL     1      -9.965   5.318  68.462  1.00  0.00    -0.149 OA 
ENDBRANCH  12  23
ENDBRANCH   9  10
ENDBRANCH   6   9
BRANCH   7  28
HETATM   28  O   UNL     1      -9.392   9.620  65.053  1.00  0.00    -0.242 OA 
HETATM   29  O   UNL     1      -8.991  10.825  62.912  1.00  0.00    -0.218 OA 
HETATM   30  O   UNL     1      -8.287   8.505  63.106  1.00  0.00    -0.176 OA 
HETATM   31  S   UNL     1      -8.342   9.932  63.844  1.00  0.00    -0.187 S  
HETATM   32  O   UNL     1      -7.039  10.187  64.407  1.00  0.00    -0.135 OA 
ENDBRANCH   7  28
BRANCH   8  33
HETATM   33  O   UNL     1     -11.409  11.715  65.399  1.00  0.00    -0.258 OA 
HETATM   34  S   UNL     1     -12.203  12.675  64.356  1.00  0.00    -0.457 S  
HETATM   35  O   UNL     1     -12.563  13.901  65.026  1.00  0.00    -0.563 OA 
HETATM   36  O   UNL     1     -11.517  12.640  63.084  1.00  0.00    -0.424 OA 
HETATM   37  O   UNL     1     -13.601  11.899  64.205  1.00  0.00    -0.481 OA 
ENDBRANCH   8  33
TORSDOF 6
ENDMDL
MODEL       47
REMARK 921   NORMALIZED FREE ENERGY PREDICTED BY IDOCK:   -5.14 KCAL/MOL
REMARK 922        TOTAL FREE ENERGY PREDICTED BY IDOCK:   -9.04 KCAL/MOL
REMARK 923 INTER-LIGAND FREE ENERGY PREDICTED BY IDOCK:   -8.78 KCAL/MOL
REMARK 924 INTRA-LIGAND FREE ENERGY PREDICTED BY IDOCK:   -0.26 KCAL/MOL
REMARK 927      BINDING AFFINITY PREDICTED BY RF-SCORE:    0.00 PKD
ROOT
HETATM    1  O   UNL     1      -6.958   8.381  66.729  1.00  0.00    -0.071 OA 
HETATM    2  H   UNL     1      -7.534   7.631  66.640  1.00  0.00     0.000 HD 
HETATM    3  C   UNL     1      -7.756   9.561  66.785  1.00  0.00    -0.098 C  
HETATM    4  C   UNL     1      -6.835  10.759  66.928  1.00  0.00    -0.101 C  
HETATM    5  O   UNL     1      -7.580  11.957  66.979  1.00  0.00    -0.151 OA 
HETATM    6  C   UNL     1      -8.437  12.047  68.100  1.00  0.00    -0.171 C  
HETATM    7  C   UNL     1      -9.451  10.881  68.166  1.00  0.00    -0.165 C  
HETATM    8  C   UNL     1      -8.780   9.504  67.930  1.00  0.00    -0.119 C  
ENDROOT
BRANCH   6   9
HETATM    9  O   UNL     1      -9.170  13.272  68.003  1.00  0.00    -0.202 OA 
BRANCH   9  10
HETATM   10  C   UNL     1      -8.607  14.244  67.112  1.00  0.00    -0.216 C  
HETATM   11  H   UNL     1      -7.469  18.647  65.882  1.00  0.00     0.000 HD 
HETATM   12  C   UNL     1      -9.579  15.451  67.007  1.00  0.00    -0.218 C  
HETATM   13  C   UNL     1      -7.221  14.731  67.563  1.00  0.00    -0.197 C  
HETATM   14  C   UNL     1      -8.939  16.598  66.200  1.00  0.00    -0.286 C  
HETATM   15  O   UNL     1      -6.923  17.869  65.867  1.00  0.00    -0.291 OA 
HETATM   16  O   UNL     1      -6.717  15.750  66.702  1.00  0.00    -0.153 OA 
HETATM   17  C   UNL     1      -7.532  16.911  66.725  1.00  0.00    -0.241 C  
BRANCH  14  18
HETATM   18  O   UNL     1      -9.772  17.740  66.015  1.00  0.00    -0.496 OA 
HETATM   19  S   UNL     1     -10.357  18.637  67.231  1.00  0.00    -0.419 S  
HETATM   20  O   UNL     1     -11.024  17.760  68.163  1.00  0.00    -0.271 OA 
HETATM   21  O   UNL     1      -9.048  19.222  67.956  1.00  0.00    -0.300 OA 
HETATM   22  O   UNL     1     -11.022  19.775  66.638  1.00  0.00    -0.417 OA 
ENDBRANCH  14  18
BRANCH  12  23
HETATM   23  O   UNL     1     -10.879  15.082  66.522  1.00  0.00    -0.310 OA 
HETATM   24  S   UNL     1     -11.132  14.625  64.986  1.00  0.00    -0.412 S  
HETATM   25  O   UNL     1     -10.970  15.785  64.141  1.00  0.00    -0.230 OA 
HETATM   26  O   UNL     1     -12.709  14.303  64.991  1.00  0.00    -0.625 OA 
HETATM   27  O   UNL     1     -10.433  13.394  64.718  1.00  0.00    -0.366 OA 
ENDBRANCH  12  23
ENDBRANCH   9  10
ENDBRANCH   6   9
BRANCH   7  28
HETATM   28  O   UNL     1     -10.083  10.840  69.458  1.00  0.00    -0.189 OA 
HETATM   29  O   UNL     1     -11.664  12.739  69.759  1.00  0.00    -0.308 OA 
HETATM   30  O   UNL     1     -12.022  10.698  71.031  1.00  0.00    -0.343 OA 
HETATM   31  S   UNL     1     -11.641  11.304  69.592  1.00  0.00    -0.359 S  
HETATM   32  O   UNL     1     -12.426  10.611  68.600  1.00  0.00    -0.252 OA 
ENDBRANCH   7  28
BRANCH   8  33
HETATM   33  O   UNL     1      -9.835   8.581  67.611  1.00  0.00    -0.156 OA 
HETATM   34  S   UNL     1      -9.901   7.121  68.323  1.00  0.00    -0.156 S  
HETATM   35  O   UNL     1      -9.035   6.213  67.614  1.00  0.00    -0.114 OA 
HETATM   36  O   UNL     1      -9.852   7.305  69.757  1.00  0.00    -0.175 OA 
HETATM   37  O   UNL     1     -11.378   6.633  67.921  1.00  0.00    -0.202 OA 
ENDBRANCH   8  33
TORSDOF 6
ENDMDL
MODEL       48
REMARK 921   NORMALIZED FREE ENERGY PREDICTED BY IDOCK:   -5.14 KCAL/MOL
REMARK 922        TOTAL FREE ENERGY PREDICTED BY IDOCK:   -9.04 KCAL/MOL
REMARK 923 INTER-LIGAND FREE ENERGY PREDICTED BY IDOCK:   -8.45 KCAL/MOL
REMARK 924 INTRA-LIGAND FREE ENERGY PREDICTED BY IDOCK:   -0.59 KCAL/MOL
REMARK 927      BINDING AFFINITY PREDICTED BY RF-SCORE:    0.00 PKD
ROOT
HETATM    1  O   UNL     1      -8.990  14.604  66.282  1.00  0.00    -0.459 OA 
HETATM    2  H   UNL     1      -9.318  14.976  65.472  1.00  0.00     0.000 HD 
HETATM    3  C   UNL     1      -9.802  13.484  66.626  1.00  0.00    -0.279 C  
HETATM    4  C   UNL     1      -9.277  12.889  67.921  1.00  0.00    -0.208 C  
HETATM    5  O   UNL     1     -10.056  11.779  68.310  1.00  0.00    -0.186 OA 
HETATM    6  C   UNL     1     -10.010  10.702  67.395  1.00  0.00    -0.181 C  
HETATM    7  C   UNL     1     -10.480  11.109  65.978  1.00  0.00    -0.256 C  
HETATM    8  C   UNL     1      -9.836  12.435  65.503  1.00  0.00    -0.200 C  
ENDROOT
BRANCH   6   9
HETATM    9  O   UNL     1     -10.879   9.672  67.875  1.00  0.00    -0.259 OA 
BRANCH   9  10
HETATM   10  C   UNL     1     -10.214   8.505  68.377  1.00  0.00    -0.203 C  
HETATM   11  H   UNL     1     -10.124   4.025  69.829  1.00  0.00     0.000 HD 
HETATM   12  C   UNL     1     -11.072   7.889  69.515  1.00  0.00     0.024 C  
HETATM   13  C   UNL     1      -9.961   7.451  67.288  1.00  0.00    -0.198 C  
HETATM   14  C   UNL     1     -10.488   6.536  69.968  1.00  0.00    -0.212 C  
HETATM   15  O   UNL     1      -9.551   4.455  69.204  1.00  0.00    -0.160 OA 
HETATM   16  O   UNL     1      -9.367   6.272  67.827  1.00  0.00    -0.116 OA 
HETATM   17  C   UNL     1     -10.221   5.629  68.759  1.00  0.00    -0.204 C  
BRANCH  14  18
HETATM   18  O   UNL     1     -11.186   5.908  71.040  1.00  0.00    -0.279 OA 
HETATM   19  S   UNL     1     -10.556   5.674  72.515  1.00  0.00    -0.237 S  
HETATM   20  O   UNL     1      -9.290   4.996  72.366  1.00  0.00    -0.135 OA 
HETATM   21  O   UNL     1     -10.259   7.156  73.058  1.00  0.00    -0.204 OA 
HETATM   22  O   UNL     1     -11.612   5.150  73.350  1.00  0.00    -0.256 OA 
ENDBRANCH  14  18
BRANCH  12  23
HETATM   23  O   UNL     1     -11.292   8.797  70.605  1.00  0.00    -0.262 OA 
HETATM   24  S   UNL     1     -12.766   9.361  70.980  1.00  0.00    -0.140 S  
HETATM   25  O   UNL     1     -13.178  10.267  69.932  1.00  0.00     0.055 OA 
HETATM   26  O   UNL     1     -12.454  10.284  72.260  1.00  0.00    -0.128 OA 
HETATM   27  O   UNL     1     -13.610   8.278  71.414  1.00  0.00    -0.304 OA 
ENDBRANCH  12  23
ENDBRANCH   9  10
ENDBRANCH   6   9
BRANCH   7  28
HETATM   28  O   UNL     1     -10.132  10.091  65.024  1.00  0.00    -0.323 OA 
HETATM   29  O   UNL     1      -8.240  10.812  63.574  1.00  0.00    -0.074 OA 
HETATM   30  O   UNL     1      -8.611   8.435  63.928  1.00  0.00    -0.048 OA 
HETATM   31  S   UNL     1      -8.562   9.880  64.630  1.00  0.00    -0.199 S  
HETATM   32  O   UNL     1      -7.786   9.756  65.840  1.00  0.00    -0.104 OA 
ENDBRANCH   7  28
BRANCH   8  33
HETATM   33  O   UNL     1     -10.630  12.909  64.402  1.00  0.00    -0.351 OA 
HETATM   34  S   UNL     1     -12.128  13.487  64.649  1.00  0.00    -0.419 S  
HETATM   35  O   UNL     1     -13.055  12.384  64.704  1.00  0.00    -0.825 OA 
HETATM   36  O   UNL     1     -12.063  14.518  65.661  1.00  0.00    -0.357 OA 
HETATM   37  O   UNL     1     -12.443  14.180  63.234  1.00  0.00    -0.758 OA 
ENDBRANCH   8  33
TORSDOF 6
ENDMDL
MODEL       49
REMARK 921   NORMALIZED FREE ENERGY PREDICTED BY IDOCK:   -5.09 KCAL/MOL
REMARK 922        TOTAL FREE ENERGY PREDICTED BY IDOCK:   -8.97 KCAL/MOL
REMARK 923 INTER-LIGAND FREE ENERGY PREDICTED BY IDOCK:   -7.08 KCAL/MOL
REMARK 924 INTRA-LIGAND FREE ENERGY PREDICTED BY IDOCK:   -1.90 KCAL/MOL
REMARK 927      BINDING AFFINITY PREDICTED BY RF-SCORE:    0.00 PKD
ROOT
HETATM    1  O   UNL     1     -12.285  13.011  69.558  1.00  0.00    -0.248 OA 
HETATM    2  H   UNL     1     -12.573  13.516  68.807  1.00  0.00     0.000 HD 
HETATM    3  C   UNL     1     -12.003  11.682  69.127  1.00  0.00    -0.313 C  
HETATM    4  C   UNL     1     -11.542  10.874  70.328  1.00  0.00    -0.334 C  
HETATM    5  O   UNL     1     -11.258   9.543  69.953  1.00  0.00    -0.234 OA 
HETATM    6  C   UNL     1     -10.192   9.426  69.032  1.00  0.00    -0.205 C  
HETATM    7  C   UNL     1     -10.447  10.218  67.727  1.00  0.00    -0.226 C  
HETATM    8  C   UNL     1     -10.956  11.655  68.001  1.00  0.00    -0.224 C  
ENDROOT
BRANCH   6   9
HETATM    9  O   UNL     1     -10.045   8.044  68.694  1.00  0.00    -0.188 OA 
BRANCH   9  10
HETATM   10  C   UNL     1      -8.871   7.414  69.224  1.00  0.00    -0.136 C  
HETATM   11  H   UNL     1      -6.457   3.688  70.798  1.00  0.00     0.000 HD 
HETATM   12  C   UNL     1      -9.289   6.468  70.383  1.00  0.00    -0.162 C  
HETATM   13  C   UNL     1      -8.091   6.621  68.163  1.00  0.00    -0.111 C  
HETATM   14  C   UNL     1      -8.086   5.637  70.870  1.00  0.00    -0.118 C  
HETATM   15  O   UNL     1      -6.190   4.338  70.159  1.00  0.00    -0.024 OA 
HETATM   16  O   UNL     1      -6.972   5.945  68.731  1.00  0.00    -0.067 OA 
HETATM   17  C   UNL     1      -7.372   4.974  69.685  1.00  0.00    -0.056 C  
BRANCH  14  18
HETATM   18  O   UNL     1      -8.362   4.764  71.963  1.00  0.00    -0.114 OA 
HETATM   19  S   UNL     1      -7.727   4.942  73.443  1.00  0.00    -0.096 S  
HETATM   20  O   UNL     1      -6.292   5.036  73.315  1.00  0.00    -0.050 OA 
HETATM   21  O   UNL     1      -8.271   6.370  73.938  1.00  0.00    -0.108 OA 
HETATM   22  O   UNL     1      -8.357   3.961  74.296  1.00  0.00    -0.088 OA 
ENDBRANCH  14  18
BRANCH  12  23
HETATM   23  O   UNL     1      -9.964   7.155  71.449  1.00  0.00    -0.187 OA 
HETATM   24  S   UNL     1     -11.413   6.681  72.004  1.00  0.00    -0.305 S  
HETATM   25  O   UNL     1     -12.397   6.964  70.984  1.00  0.00    -0.381 OA 
HETATM   26  O   UNL     1     -11.682   7.745  73.181  1.00  0.00    -0.226 OA 
HETATM   27  O   UNL     1     -11.306   5.377  72.606  1.00  0.00    -0.279 OA 
ENDBRANCH  12  23
ENDBRANCH   9  10
ENDBRANCH   6   9
BRANCH   7  28
HETATM   28  O   UNL     1      -9.234  10.326  66.962  1.00  0.00    -0.148 OA 
HETATM   29  O   UNL     1      -8.885   8.325  65.522  1.00  0.00    -0.169 OA 
HETATM   30  O   UNL     1      -7.879  10.438  64.863  1.00  0.00    -0.149 OA 
HETATM   31  S   UNL     1      -9.202   9.733  65.442  1.00  0.00    -0.246 S  
HETATM   32  O   UNL     1     -10.333  10.248  64.711  1.00  0.00    -0.277 OA 
ENDBRANCH   7  28
BRANCH   8  33
HETATM   33  O   UNL     1     -11.533  12.130  66.773  1.00  0.00    -0.330 OA 
HETATM   34  S   UNL     1     -11.095  13.569  66.155  1.00  0.00    -0.294 S  
HETATM   35  O   UNL     1     -11.864  14.608  66.794  1.00  0.00    -0.377 OA 
HETATM   36  O   UNL     1      -9.654  13.604  66.045  1.00  0.00    -0.253 OA 
HETATM   37  O   UNL     1     -11.719  13.487  64.676  1.00  0.00    -0.351 OA 
ENDBRANCH   8  33
TORSDOF 6
ENDMDL
MODEL       50
REMARK 921   NORMALIZED FREE ENERGY PREDICTED BY IDOCK:   -5.08 KCAL/MOL
REMARK 922        TOTAL FREE ENERGY PREDICTED BY IDOCK:   -8.96 KCAL/MOL
REMARK 923 INTER-LIGAND FREE ENERGY PREDICTED BY IDOCK:   -8.72 KCAL/MOL
REMARK 924 INTRA-LIGAND FREE ENERGY PREDICTED BY IDOCK:   -0.24 KCAL/MOL
REMARK 927      BINDING AFFINITY PREDICTED BY RF-SCORE:    0.00 PKD
ROOT
HETATM    1  O   UNL     1     -12.537  13.921  64.109  1.00  0.00    -0.675 OA 
HETATM    2  H   UNL     1     -12.037  13.743  63.322  1.00  0.00     0.000 HD 
HETATM    3  C   UNL     1     -11.979  13.165  65.181  1.00  0.00    -0.394 C  
HETATM    4  C   UNL     1     -12.778  13.451  66.440  1.00  0.00     0.094 C  
HETATM    5  O   UNL     1     -12.268  12.716  67.531  1.00  0.00    -0.389 OA 
HETATM    6  C   UNL     1     -10.942  13.063  67.882  1.00  0.00    -0.241 C  
HETATM    7  C   UNL     1      -9.952  12.875  66.708  1.00  0.00    -0.243 C  
HETATM    8  C   UNL     1     -10.487  13.477  65.385  1.00  0.00    -0.315 C  
ENDROOT
BRANCH   6   9
HETATM    9  O   UNL     1     -10.529  12.213  68.956  1.00  0.00    -0.159 OA 
BRANCH   9  10
HETATM   10  C   UNL     1     -11.578  11.440  69.553  1.00  0.00    -0.331 C  
HETATM   11  H   UNL     1     -13.466   8.934  73.067  1.00  0.00     0.000 HD 
HETATM   12  C   UNL     1     -10.957  10.186  70.227  1.00  0.00    -0.317 C  
HETATM   13  C   UNL     1     -12.390  12.237  70.586  1.00  0.00    -0.286 C  
HETATM   14  C   UNL     1     -12.022   9.415  71.032  1.00  0.00    -0.315 C  
HETATM   15  O   UNL     1     -13.857   9.645  72.571  1.00  0.00    -0.364 OA 
HETATM   16  O   UNL     1     -13.377  11.425  71.217  1.00  0.00    -0.155 OA 
HETATM   17  C   UNL     1     -12.794  10.365  71.957  1.00  0.00    -0.346 C  
BRANCH  14  18
HETATM   18  O   UNL     1     -11.555   8.223  71.658  1.00  0.00    -0.260 OA 
HETATM   19  S   UNL     1     -12.122   6.743  71.318  1.00  0.00    -0.354 S  
HETATM   20  O   UNL     1     -13.560   6.766  71.446  1.00  0.00    -0.191 OA 
HETATM   21  O   UNL     1     -11.770   6.531  69.766  1.00  0.00    -0.382 OA 
HETATM   22  O   UNL     1     -11.303   5.798  72.042  1.00  0.00    -0.271 OA 
ENDBRANCH  14  18
BRANCH  12  23
HETATM   23  O   UNL     1     -10.239   9.352  69.304  1.00  0.00    -0.187 OA 
HETATM   24  S   UNL     1      -8.761   8.770  69.632  1.00  0.00    -0.139 S  
HETATM   25  O   UNL     1      -7.829   9.875  69.607  1.00  0.00    -0.119 OA 
HETATM   26  O   UNL     1      -8.447   7.901  68.315  1.00  0.00    -0.123 OA 
HETATM   27  O   UNL     1      -8.827   7.866  70.751  1.00  0.00    -0.136 OA 
ENDBRANCH  12  23
ENDBRANCH   9  10
ENDBRANCH   6   9
BRANCH   7  28
HETATM   28  O   UNL     1      -8.700  13.519  67.002  1.00  0.00    -0.216 OA 
HETATM   29  O   UNL     1      -7.506  12.377  68.866  1.00  0.00    -0.089 OA 
HETATM   30  O   UNL     1      -6.212  13.641  67.239  1.00  0.00    -0.313 OA 
HETATM   31  S   UNL     1      -7.423  12.602  67.441  1.00  0.00    -0.121 S  
HETATM   32  O   UNL     1      -7.255  11.538  66.481  1.00  0.00    -0.106 OA 
ENDBRANCH   7  28
BRANCH   8  33
HETATM   33  O   UNL     1      -9.707  12.899  64.323  1.00  0.00    -0.059 OA 
HETATM   34  S   UNL     1     -10.095  11.447  63.706  1.00  0.00    -0.403 S  
HETATM   35  O   UNL     1      -9.529  10.416  64.540  1.00  0.00    -0.234 OA 
HETATM   36  O   UNL     1     -11.486  11.471  63.311  1.00  0.00    -0.309 OA 
HETATM   37  O   UNL     1      -9.188  11.407  62.381  1.00  0.00    -0.276 OA 
ENDBRANCH   8  33
TORSDOF 6
ENDMDL
MODEL       51
REMARK 921   NORMALIZED FREE ENERGY PREDICTED BY IDOCK:   -5.04 KCAL/MOL
REMARK 922        TOTAL FREE ENERGY PREDICTED BY IDOCK:   -8.90 KCAL/MOL
REMARK 923 INTER-LIGAND FREE ENERGY PREDICTED BY IDOCK:   -7.17 KCAL/MOL
REMARK 924 INTRA-LIGAND FREE ENERGY PREDICTED BY IDOCK:   -1.73 KCAL/MOL
REMARK 927      BINDING AFFINITY PREDICTED BY RF-SCORE:    0.00 PKD
ROOT
HETATM    1  O   UNL     1     -10.258  17.622  65.783  1.00  0.00    -0.560 OA 
HETATM    2  H   UNL     1      -9.515  18.212  65.823  1.00  0.00     0.000 HD 
HETATM    3  C   UNL     1      -9.771  16.284  65.718  1.00  0.00    -0.264 C  
HETATM    4  C   UNL     1     -10.959  15.341  65.654  1.00  0.00    -0.344 C  
HETATM    5  O   UNL     1     -10.527  14.000  65.579  1.00  0.00    -0.298 OA 
HETATM    6  C   UNL     1      -9.808  13.568  66.718  1.00  0.00    -0.267 C  
HETATM    7  C   UNL     1      -8.553  14.433  66.988  1.00  0.00    -0.203 C  
HETATM    8  C   UNL     1      -8.856  15.950  66.908  1.00  0.00    -0.236 C  
ENDROOT
BRANCH   6   9
HETATM    9  O   UNL     1      -9.382  12.221  66.492  1.00  0.00    -0.223 OA 
BRANCH   9  10
HETATM   10  C   UNL     1     -10.112  11.226  67.221  1.00  0.00    -0.186 C  
HETATM   11  H   UNL     1     -10.521   7.924  70.555  1.00  0.00     0.000 HD 
HETATM   12  C   UNL     1      -9.218   9.967  67.384  1.00  0.00    -0.134 C  
HETATM   13  C   UNL     1     -10.573  11.719  68.601  1.00  0.00    -0.223 C  
HETATM   14  C   UNL     1      -9.892   8.935  68.310  1.00  0.00    -0.167 C  
HETATM   15  O   UNL     1     -11.103   8.653  70.370  1.00  0.00    -0.240 OA 
HETATM   16  O   UNL     1     -11.230  10.688  69.334  1.00  0.00    -0.231 OA 
HETATM   17  C   UNL     1     -10.362   9.601  69.610  1.00  0.00    -0.227 C  
BRANCH  14  18
HETATM   18  O   UNL     1      -9.164   7.724  68.492  1.00  0.00    -0.138 OA 
HETATM   19  S   UNL     1      -9.664   6.279  67.952  1.00  0.00    -0.125 S  
HETATM   20  O   UNL     1     -11.007   6.054  68.433  1.00  0.00    -0.292 OA 
HETATM   21  O   UNL     1      -9.736   6.456  66.358  1.00  0.00    -0.159 OA 
HETATM   22  O   UNL     1      -8.594   5.340  68.198  1.00  0.00    -0.100 OA 
ENDBRANCH  14  18
BRANCH  12  23
HETATM   23  O   UNL     1      -8.806   9.406  66.128  1.00  0.00    -0.140 OA 
HETATM   24  S   UNL     1      -7.244   9.257  65.717  1.00  0.00    -0.091 S  
HETATM   25  O   UNL     1      -6.714  10.580  65.482  1.00  0.00    -0.126 OA 
HETATM   26  O   UNL     1      -7.346   8.562  64.269  1.00  0.00    -0.094 OA 
HETATM   27  O   UNL     1      -6.590   8.329  66.604  1.00  0.00    -0.055 OA 
ENDBRANCH  12  23
ENDBRANCH   9  10
ENDBRANCH   6   9
BRANCH   7  28
HETATM   28  O   UNL     1      -8.034  14.163  68.302  1.00  0.00    -0.123 OA 
HETATM   29  O   UNL     1      -6.792  12.006  68.365  1.00  0.00    -0.062 OA 
HETATM   30  O   UNL     1      -6.235  13.731  69.986  1.00  0.00    -0.138 OA 
HETATM   31  S   UNL     1      -6.582  13.433  68.445  1.00  0.00    -0.109 S  
HETATM   32  O   UNL     1      -5.620  14.137  67.632  1.00  0.00    -0.307 OA 
ENDBRANCH   7  28
BRANCH   8  33
HETATM   33  O   UNL     1      -7.590  16.617  66.767  1.00  0.00    -0.202 OA 
HETATM   34  S   UNL     1      -7.490  18.235  66.872  1.00  0.00    -0.222 S  
HETATM   35  O   UNL     1      -7.816  18.811  65.591  1.00  0.00    -0.465 OA 
HETATM   36  O   UNL     1      -8.109  18.656  68.109  1.00  0.00    -0.277 OA 
HETATM   37  O   UNL     1      -5.903  18.453  66.996  1.00  0.00    -0.147 OA 
ENDBRANCH   8  33
TORSDOF 6
ENDMDL
MODEL       52
REMARK 921   NORMALIZED FREE ENERGY PREDICTED BY IDOCK:   -5.03 KCAL/MOL
REMARK 922        TOTAL FREE ENERGY PREDICTED BY IDOCK:   -8.89 KCAL/MOL
REMARK 923 INTER-LIGAND FREE ENERGY PREDICTED BY IDOCK:   -9.55 KCAL/MOL
REMARK 924 INTRA-LIGAND FREE ENERGY PREDICTED BY IDOCK:    0.66 KCAL/MOL
REMARK 927      BINDING AFFINITY PREDICTED BY RF-SCORE:    0.00 PKD
ROOT
HETATM    1  O   UNL     1     -11.774   7.547  72.745  1.00  0.00    -0.530 OA 
HETATM    2  H   UNL     1     -11.111   7.164  73.306  1.00  0.00     0.000 HD 
HETATM    3  C   UNL     1     -11.223   8.702  72.117  1.00  0.00    -0.367 C  
HETATM    4  C   UNL     1     -12.283   9.314  71.219  1.00  0.00    -0.334 C  
HETATM    5  O   UNL     1     -11.787  10.471  70.579  1.00  0.00    -0.291 OA 
HETATM    6  C   UNL     1     -10.703  10.218  69.707  1.00  0.00    -0.285 C  
HETATM    7  C   UNL     1      -9.507   9.552  70.427  1.00  0.00    -0.262 C  
HETATM    8  C   UNL     1      -9.946   8.370  71.328  1.00  0.00    -0.204 C  
ENDROOT
BRANCH   6   9
HETATM    9  O   UNL     1     -10.261  11.470  69.172  1.00  0.00    -0.141 OA 
BRANCH   9  10
HETATM   10  C   UNL     1     -11.226  12.155  68.362  1.00  0.00    -0.265 C  
HETATM   11  H   UNL     1     -12.469  15.187  64.979  1.00  0.00     0.000 HD 
HETATM   12  C   UNL     1     -10.841  13.657  68.286  1.00  0.00    -0.251 C  
HETATM   13  C   UNL     1     -11.333  11.572  66.944  1.00  0.00    -0.253 C  
HETATM   14  C   UNL     1     -11.747  14.403  67.285  1.00  0.00    -0.404 C  
HETATM   15  O   UNL     1     -12.761  14.292  65.106  1.00  0.00    -0.596 OA 
HETATM   16  O   UNL     1     -12.243  12.317  66.139  1.00  0.00    -0.647 OA 
HETATM   17  C   UNL     1     -11.807  13.654  65.948  1.00  0.00    -0.378 C  
BRANCH  14  18
HETATM   18  O   UNL     1     -11.495  15.801  67.173  1.00  0.00    -0.114 OA 
HETATM   19  S   UNL     1     -10.187  16.427  66.449  1.00  0.00    -0.326 S  
HETATM   20  O   UNL     1      -9.012  15.820  67.027  1.00  0.00    -0.202 OA 
HETATM   21  O   UNL     1     -10.300  15.928  64.927  1.00  0.00    -0.517 OA 
HETATM   22  O   UNL     1     -10.369  17.860  66.409  1.00  0.00    -0.363 OA 
ENDBRANCH  14  18
BRANCH  12  23
HETATM   23  O   UNL     1     -10.791  14.289  69.574  1.00  0.00    -0.210 OA 
HETATM   24  S   UNL     1     -12.121  14.540  70.467  1.00  0.00    -0.348 S  
HETATM   25  O   UNL     1     -12.910  15.563  69.819  1.00  0.00    -0.102 OA 
HETATM   26  O   UNL     1     -11.510  15.228  71.787  1.00  0.00    -0.393 OA 
HETATM   27  O   UNL     1     -12.697  13.279  70.856  1.00  0.00    -0.318 OA 
ENDBRANCH  12  23
ENDBRANCH   9  10
ENDBRANCH   6   9
BRANCH   7  28
HETATM   28  O   UNL     1      -8.567   9.039  69.466  1.00  0.00    -0.129 OA 
HETATM   29  O   UNL     1      -8.825   6.581  69.164  1.00  0.00    -0.128 OA 
HETATM   30  O   UNL     1      -7.885   7.897  67.348  1.00  0.00    -0.116 OA 
HETATM   31  S   UNL     1      -9.033   7.832  68.471  1.00  0.00    -0.132 S  
HETATM   32  O   UNL     1     -10.282   8.193  67.847  1.00  0.00    -0.197 OA 
ENDBRANCH   7  28
BRANCH   8  33
HETATM   33  O   UNL     1      -8.856   8.110  72.228  1.00  0.00    -0.148 OA 
HETATM   34  S   UNL     1      -8.867   6.795  73.183  1.00  0.00    -0.123 S  
HETATM   35  O   UNL     1      -9.638   7.081  74.368  1.00  0.00    -0.251 OA 
HETATM   36  O   UNL     1      -9.087   5.628  72.359  1.00  0.00    -0.141 OA 
HETATM   37  O   UNL     1      -7.350   6.768  73.712  1.00  0.00    -0.083 OA 
ENDBRANCH   8  33
TORSDOF 6
ENDMDL
MODEL       53
REMARK 921   NORMALIZED FREE ENERGY PREDICTED BY IDOCK:   -5.01 KCAL/MOL
REMARK 922        TOTAL FREE ENERGY PREDICTED BY IDOCK:   -8.86 KCAL/MOL
REMARK 923 INTER-LIGAND FREE ENERGY PREDICTED BY IDOCK:   -9.58 KCAL/MOL
REMARK 924 INTRA-LIGAND FREE ENERGY PREDICTED BY IDOCK:    0.72 KCAL/MOL
REMARK 927      BINDING AFFINITY PREDICTED BY RF-SCORE:    0.00 PKD
ROOT
HETATM    1  O   UNL     1     -10.134   7.808  65.960  1.00  0.00    -0.418 OA 
HETATM    2  H   UNL     1     -10.581   7.181  66.516  1.00  0.00     0.000 HD 
HETATM    3  C   UNL     1     -10.270   9.103  66.539  1.00  0.00    -0.252 C  
HETATM    4  C   UNL     1      -9.555  10.105  65.651  1.00  0.00    -0.243 C  
HETATM    5  O   UNL     1      -9.670  11.409  66.178  1.00  0.00    -0.205 OA 
HETATM    6  C   UNL     1      -9.053  11.569  67.441  1.00  0.00    -0.166 C  
HETATM    7  C   UNL     1      -9.622  10.600  68.505  1.00  0.00    -0.175 C  
HETATM    8  C   UNL     1      -9.730   9.147  67.978  1.00  0.00    -0.154 C  
ENDROOT
BRANCH   6   9
HETATM    9  O   UNL     1      -9.289  12.908  67.886  1.00  0.00    -0.193 OA 
BRANCH   9  10
HETATM   10  C   UNL     1      -8.682  13.928  67.081  1.00  0.00    -0.221 C  
HETATM   11  H   UNL     1      -7.424  18.380  66.196  1.00  0.00     0.000 HD 
HETATM   12  C   UNL     1      -9.627  15.160  67.035  1.00  0.00    -0.226 C  
HETATM   13  C   UNL     1      -7.300  14.352  67.603  1.00  0.00    -0.180 C  
HETATM   14  C   UNL     1      -8.942  16.347  66.328  1.00  0.00    -0.333 C  
HETATM   15  O   UNL     1      -6.893  17.594  66.141  1.00  0.00    -0.253 OA 
HETATM   16  O   UNL     1      -6.752  15.417  66.830  1.00  0.00    -0.211 OA 
HETATM   17  C   UNL     1      -7.544  16.591  66.913  1.00  0.00    -0.237 C  
BRANCH  14  18
HETATM   18  O   UNL     1      -9.746  17.516  66.201  1.00  0.00    -0.405 OA 
HETATM   19  S   UNL     1     -10.324  18.356  67.462  1.00  0.00    -0.408 S  
HETATM   20  O   UNL     1     -11.021  17.442  68.336  1.00  0.00    -0.285 OA 
HETATM   21  O   UNL     1      -9.010  18.867  68.232  1.00  0.00    -0.305 OA 
HETATM   22  O   UNL     1     -10.957  19.540  66.929  1.00  0.00    -0.462 OA 
ENDBRANCH  14  18
BRANCH  12  23
HETATM   23  O   UNL     1     -10.919  14.854  66.490  1.00  0.00    -0.318 OA 
HETATM   24  S   UNL     1     -11.192  14.789  64.892  1.00  0.00    -0.403 S  
HETATM   25  O   UNL     1     -11.113  16.134  64.369  1.00  0.00    -0.628 OA 
HETATM   26  O   UNL     1     -12.749  14.387  64.837  1.00  0.00    -0.614 OA 
HETATM   27  O   UNL     1     -10.438  13.708  64.309  1.00  0.00    -0.392 OA 
ENDBRANCH  12  23
ENDBRANCH   9  10
ENDBRANCH   6   9
BRANCH   7  28
HETATM   28  O   UNL     1      -8.773  10.578  69.666  1.00  0.00    -0.105 OA 
HETATM   29  O   UNL     1      -7.080   8.758  69.522  1.00  0.00    -0.053 OA 
HETATM   30  O   UNL     1      -6.593  10.712  70.884  1.00  0.00    -0.333 OA 
HETATM   31  S   UNL     1      -7.196  10.198  69.486  1.00  0.00    -0.133 S  
HETATM   32  O   UNL     1      -6.633  11.011  68.437  1.00  0.00    -0.057 OA 
ENDBRANCH   7  28
BRANCH   8  33
HETATM   33  O   UNL     1     -10.620   8.451  68.867  1.00  0.00    -0.212 OA 
HETATM   34  S   UNL     1     -10.490   6.845  69.079  1.00  0.00    -0.218 S  
HETATM   35  O   UNL     1     -11.196   6.172  68.017  1.00  0.00    -0.310 OA 
HETATM   36  O   UNL     1      -9.125   6.537  69.442  1.00  0.00    -0.141 OA 
HETATM   37  O   UNL     1     -11.425   6.613  70.365  1.00  0.00    -0.335 OA 
ENDBRANCH   8  33
TORSDOF 6
ENDMDL
MODEL       54
REMARK 921   NORMALIZED FREE ENERGY PREDICTED BY IDOCK:   -5.00 KCAL/MOL
REMARK 922        TOTAL FREE ENERGY PREDICTED BY IDOCK:   -8.85 KCAL/MOL
REMARK 923 INTER-LIGAND FREE ENERGY PREDICTED BY IDOCK:   -8.71 KCAL/MOL
REMARK 924 INTRA-LIGAND FREE ENERGY PREDICTED BY IDOCK:   -0.14 KCAL/MOL
REMARK 927      BINDING AFFINITY PREDICTED BY RF-SCORE:    0.00 PKD
ROOT
HETATM    1  O   UNL     1      -9.499  17.403  65.588  1.00  0.00    -0.509 OA 
HETATM    2  H   UNL     1      -9.461  18.220  66.070  1.00  0.00     0.000 HD 
HETATM    3  C   UNL     1      -9.482  16.326  66.522  1.00  0.00    -0.264 C  
HETATM    4  C   UNL     1      -9.543  15.019  65.751  1.00  0.00    -0.292 C  
HETATM    5  O   UNL     1      -9.519  13.919  66.635  1.00  0.00    -0.270 OA 
HETATM    6  C   UNL     1     -10.637  13.859  67.500  1.00  0.00    -0.256 C  
HETATM    7  C   UNL     1     -10.783  15.132  68.368  1.00  0.00    -0.248 C  
HETATM    8  C   UNL     1     -10.633  16.430  67.536  1.00  0.00    -0.309 C  
ENDROOT
BRANCH   6   9
HETATM    9  O   UNL     1     -10.464  12.740  68.374  1.00  0.00    -0.233 OA 
BRANCH   9  10
HETATM   10  C   UNL     1     -10.048  11.529  67.730  1.00  0.00    -0.182 C  
HETATM   11  H   UNL     1     -10.043   6.848  67.195  1.00  0.00     0.000 HD 
HETATM   12  C   UNL     1      -9.693  10.478  68.817  1.00  0.00    -0.184 C  
HETATM   13  C   UNL     1     -11.119  10.959  66.786  1.00  0.00    -0.126 C  
HETATM   14  C   UNL     1      -9.408   9.104  68.177  1.00  0.00    -0.138 C  
HETATM   15  O   UNL     1     -10.162   7.519  66.532  1.00  0.00    -0.210 OA 
HETATM   16  O   UNL     1     -10.710   9.717  66.217  1.00  0.00    -0.055 OA 
HETATM   17  C   UNL     1     -10.531   8.716  67.207  1.00  0.00    -0.289 C  
BRANCH  14  18
HETATM   18  O   UNL     1      -9.035   8.080  69.095  1.00  0.00    -0.144 OA 
HETATM   19  S   UNL     1     -10.037   7.448  70.201  1.00  0.00    -0.200 S  
HETATM   20  O   UNL     1     -10.608   8.530  70.967  1.00  0.00    -0.203 OA 
HETATM   21  O   UNL     1     -11.216   6.785  69.333  1.00  0.00    -0.268 OA 
HETATM   22  O   UNL     1      -9.341   6.349  70.827  1.00  0.00    -0.157 OA 
ENDBRANCH  14  18
BRANCH  12  23
HETATM   23  O   UNL     1      -8.645  10.914  69.697  1.00  0.00     0.104 OA 
HETATM   24  S   UNL     1      -7.138  11.203  69.171  1.00  0.00    -0.116 S  
HETATM   25  O   UNL     1      -6.535   9.936  68.820  1.00  0.00    -0.045 OA 
HETATM   26  O   UNL     1      -6.401  11.681  70.519  1.00  0.00    -0.265 OA 
HETATM   27  O   UNL     1      -7.142  12.314  68.254  1.00  0.00    -0.079 OA 
ENDBRANCH  12  23
ENDBRANCH   9  10
ENDBRANCH   6   9
BRANCH   7  28
HETATM   28  O   UNL     1     -12.077  15.164  68.994  1.00  0.00    -0.285 OA 
HETATM   29  O   UNL     1     -12.150  13.704  71.009  1.00  0.00    -0.322 OA 
HETATM   30  O   UNL     1     -13.681  15.588  70.866  1.00  0.00    -0.524 OA 
HETATM   31  S   UNL     1     -12.170  15.096  70.621  1.00  0.00    -0.385 S  
HETATM   32  O   UNL     1     -11.287  16.087  71.186  1.00  0.00    -0.387 OA 
ENDBRANCH   7  28
BRANCH   8  33
HETATM   33  O   UNL     1     -10.379  17.493  68.471  1.00  0.00    -0.348 OA 
HETATM   34  S   UNL     1      -9.977  18.978  67.949  1.00  0.00    -0.381 S  
HETATM   35  O   UNL     1      -8.560  19.016  67.685  1.00  0.00    -0.283 OA 
HETATM   36  O   UNL     1     -10.972  19.416  66.996  1.00  0.00    -0.467 OA 
HETATM   37  O   UNL     1     -10.138  19.846  69.291  1.00  0.00    -0.389 OA 
ENDBRANCH   8  33
TORSDOF 6
ENDMDL
MODEL       55
REMARK 921   NORMALIZED FREE ENERGY PREDICTED BY IDOCK:   -4.99 KCAL/MOL
REMARK 922        TOTAL FREE ENERGY PREDICTED BY IDOCK:   -8.84 KCAL/MOL
REMARK 923 INTER-LIGAND FREE ENERGY PREDICTED BY IDOCK:   -8.21 KCAL/MOL
REMARK 924 INTRA-LIGAND FREE ENERGY PREDICTED BY IDOCK:   -0.63 KCAL/MOL
REMARK 927      BINDING AFFINITY PREDICTED BY RF-SCORE:    0.00 PKD
ROOT
HETATM    1  O   UNL     1     -12.779  14.586  71.289  1.00  0.00    -0.303 OA 
HETATM    2  H   UNL     1     -12.867  15.188  70.561  1.00  0.00     0.000 HD 
HETATM    3  C   UNL     1     -12.865  13.254  70.788  1.00  0.00    -0.121 C  
HETATM    4  C   UNL     1     -12.723  12.291  71.953  1.00  0.00    -0.091 C  
HETATM    5  O   UNL     1     -12.811  10.954  71.508  1.00  0.00    -0.411 OA 
HETATM    6  C   UNL     1     -11.773  10.579  70.624  1.00  0.00    -0.357 C  
HETATM    7  C   UNL     1     -11.718  11.473  69.362  1.00  0.00    -0.346 C  
HETATM    8  C   UNL     1     -11.809  12.981  69.705  1.00  0.00    -0.311 C  
ENDROOT
BRANCH   6   9
HETATM    9  O   UNL     1     -12.010   9.231  70.206  1.00  0.00    -0.082 OA 
BRANCH   9  10
HETATM   10  C   UNL     1     -11.553   8.226  71.121  1.00  0.00    -0.279 C  
HETATM   11  H   UNL     1      -8.698   6.619  74.506  1.00  0.00     0.000 HD 
HETATM   12  C   UNL     1     -10.002   8.164  71.065  1.00  0.00    -0.187 C  
HETATM   13  C   UNL     1     -12.011   8.485  72.565  1.00  0.00    -0.331 C  
HETATM   14  C   UNL     1      -9.454   7.222  72.156  1.00  0.00    -0.135 C  
HETATM   15  O   UNL     1      -9.648   6.586  74.468  1.00  0.00    -0.233 OA 
HETATM   16  O   UNL     1     -11.482   7.514  73.465  1.00  0.00    -0.105 OA 
HETATM   17  C   UNL     1     -10.065   7.563  73.521  1.00  0.00    -0.323 C  
BRANCH  14  18
HETATM   18  O   UNL     1      -8.037   7.068  72.160  1.00  0.00    -0.094 OA 
HETATM   19  S   UNL     1      -6.998   8.284  72.423  1.00  0.00    -0.085 S  
HETATM   20  O   UNL     1      -7.315   9.358  71.511  1.00  0.00    -0.334 OA 
HETATM   21  O   UNL     1      -7.341   8.783  73.910  1.00  0.00    -0.391 OA 
HETATM   22  O   UNL     1      -5.676   7.704  72.495  1.00  0.00    -0.039 OA 
ENDBRANCH  14  18
BRANCH  12  23
HETATM   23  O   UNL     1      -9.502   7.854  69.755  1.00  0.00    -0.163 OA 
HETATM   24  S   UNL     1      -9.818   6.443  69.018  1.00  0.00    -0.142 S  
HETATM   25  O   UNL     1      -9.098   5.402  69.715  1.00  0.00    -0.123 OA 
HETATM   26  O   UNL     1      -9.067   6.629  67.608  1.00  0.00    -0.115 OA 
HETATM   27  O   UNL     1     -11.230   6.334  68.753  1.00  0.00    -0.363 OA 
ENDBRANCH  12  23
ENDBRANCH   9  10
ENDBRANCH   6   9
BRANCH   7  28
HETATM   28  O   UNL     1     -10.484  11.262  68.654  1.00  0.00    -0.188 OA 
HETATM   29  O   UNL     1     -10.645   9.324  67.100  1.00  0.00    -0.258 OA 
HETATM   30  O   UNL     1      -9.037  11.084  66.621  1.00  0.00    -0.159 OA 
HETATM   31  S   UNL     1     -10.538  10.765  67.101  1.00  0.00    -0.266 S  
HETATM   32  O   UNL     1     -11.429  11.625  66.361  1.00  0.00    -0.390 OA 
ENDBRANCH   7  28
BRANCH   8  33
HETATM   33  O   UNL     1     -12.155  13.661  68.487  1.00  0.00    -0.364 OA 
HETATM   34  S   UNL     1     -11.234  14.878  67.927  1.00  0.00    -0.326 S  
HETATM   35  O   UNL     1     -11.614  16.100  68.593  1.00  0.00    -0.376 OA 
HETATM   36  O   UNL     1      -9.866  14.418  67.838  1.00  0.00    -0.217 OA 
HETATM   37  O   UNL     1     -11.810  15.060  66.439  1.00  0.00    -0.207 OA 
ENDBRANCH   8  33
TORSDOF 6
ENDMDL
MODEL       56
REMARK 921   NORMALIZED FREE ENERGY PREDICTED BY IDOCK:   -4.99 KCAL/MOL
REMARK 922        TOTAL FREE ENERGY PREDICTED BY IDOCK:   -8.84 KCAL/MOL
REMARK 923 INTER-LIGAND FREE ENERGY PREDICTED BY IDOCK:   -6.56 KCAL/MOL
REMARK 924 INTRA-LIGAND FREE ENERGY PREDICTED BY IDOCK:   -2.28 KCAL/MOL
REMARK 927      BINDING AFFINITY PREDICTED BY RF-SCORE:    0.00 PKD
ROOT
HETATM    1  O   UNL     1     -10.224   4.926  69.269  1.00  0.00    -0.207 OA 
HETATM    2  H   UNL     1      -9.674   4.274  68.853  1.00  0.00     0.000 HD 
HETATM    3  C   UNL     1      -9.625   6.207  69.087  1.00  0.00    -0.135 C  
HETATM    4  C   UNL     1     -10.504   7.250  69.752  1.00  0.00    -0.227 C  
HETATM    5  O   UNL     1      -9.947   8.538  69.607  1.00  0.00    -0.185 OA 
HETATM    6  C   UNL     1      -9.858   8.971  68.263  1.00  0.00    -0.166 C  
HETATM    7  C   UNL     1      -9.017   8.013  67.387  1.00  0.00    -0.134 C  
HETATM    8  C   UNL     1      -9.405   6.528  67.600  1.00  0.00    -0.118 C  
ENDROOT
BRANCH   6   9
HETATM    9  O   UNL     1      -9.228  10.256  68.251  1.00  0.00    -0.134 OA 
BRANCH   9  10
HETATM   10  C   UNL     1     -10.107  11.356  67.979  1.00  0.00    -0.180 C  
HETATM   11  H   UNL     1     -11.585  15.007  65.395  1.00  0.00     0.000 HD 
HETATM   12  C   UNL     1      -9.257  12.582  67.546  1.00  0.00    -0.188 C  
HETATM   13  C   UNL     1     -11.145  11.034  66.893  1.00  0.00    -0.213 C  
HETATM   14  C   UNL     1     -10.164  13.737  67.076  1.00  0.00    -0.254 C  
HETATM   15  O   UNL     1     -12.097  14.292  65.755  1.00  0.00    -0.395 OA 
HETATM   16  O   UNL     1     -11.956  12.167  66.590  1.00  0.00    -0.616 OA 
HETATM   17  C   UNL     1     -11.192  13.235  66.053  1.00  0.00    -0.297 C  
BRANCH  14  18
HETATM   18  O   UNL     1      -9.475  14.924  66.693  1.00  0.00    -0.237 OA 
HETATM   19  S   UNL     1      -9.534  16.311  67.529  1.00  0.00    -0.228 S  
HETATM   20  O   UNL     1     -10.919  16.660  67.735  1.00  0.00    -0.320 OA 
HETATM   21  O   UNL     1      -8.903  15.938  68.958  1.00  0.00    -0.212 OA 
HETATM   22  O   UNL     1      -8.598  17.221  66.909  1.00  0.00    -0.221 OA 
ENDBRANCH  14  18
BRANCH  12  23
HETATM   23  O   UNL     1      -8.308  12.987  68.545  1.00  0.00    -0.139 OA 
HETATM   24  S   UNL     1      -6.719  13.092  68.239  1.00  0.00    -0.111 S  
HETATM   25  O   UNL     1      -6.206  11.752  68.066  1.00  0.00    -0.049 OA 
HETATM   26  O   UNL     1      -6.141  13.604  69.650  1.00  0.00    -0.107 OA 
HETATM   27  O   UNL     1      -6.474  14.123  67.263  1.00  0.00    -0.288 OA 
ENDBRANCH  12  23
ENDBRANCH   9  10
ENDBRANCH   6   9
BRANCH   7  28
HETATM   28  O   UNL     1      -9.205   8.315  65.993  1.00  0.00    -0.192 OA 
HETATM   29  O   UNL     1      -7.835  10.272  65.292  1.00  0.00    -0.140 OA 
HETATM   30  O   UNL     1      -8.476   8.627  63.621  1.00  0.00    -0.156 OA 
HETATM   31  S   UNL     1      -7.932   8.841  65.118  1.00  0.00    -0.133 S  
HETATM   32  O   UNL     1      -6.821   7.943  65.317  1.00  0.00    -0.054 OA 
ENDBRANCH   7  28
BRANCH   8  33
HETATM   33  O   UNL     1      -8.324   5.740  67.073  1.00  0.00    -0.108 OA 
HETATM   34  S   UNL     1      -8.623   4.455  66.124  1.00  0.00    -0.114 S  
HETATM   35  O   UNL     1      -8.910   3.312  66.956  1.00  0.00    -0.117 OA 
HETATM   36  O   UNL     1      -9.475   4.875  65.034  1.00  0.00    -0.125 OA 
HETATM   37  O   UNL     1      -7.160   4.141  65.537  1.00  0.00    -0.061 OA 
ENDBRANCH   8  33
TORSDOF 6
ENDMDL
MODEL       57
REMARK 921   NORMALIZED FREE ENERGY PREDICTED BY IDOCK:   -4.98 KCAL/MOL
REMARK 922        TOTAL FREE ENERGY PREDICTED BY IDOCK:   -8.83 KCAL/MOL
REMARK 923 INTER-LIGAND FREE ENERGY PREDICTED BY IDOCK:   -8.46 KCAL/MOL
REMARK 924 INTRA-LIGAND FREE ENERGY PREDICTED BY IDOCK:   -0.37 KCAL/MOL
REMARK 927      BINDING AFFINITY PREDICTED BY RF-SCORE:    0.00 PKD
ROOT
HETATM    1  O   UNL     1     -10.195  17.133  65.354  1.00  0.00    -0.605 OA 
HETATM    2  H   UNL     1      -9.383  17.610  65.235  1.00  0.00     0.000 HD 
HETATM    3  C   UNL     1      -9.883  15.765  65.605  1.00  0.00    -0.322 C  
HETATM    4  C   UNL     1     -11.182  15.002  65.796  1.00  0.00    -0.318 C  
HETATM    5  O   UNL     1     -10.926  13.636  66.039  1.00  0.00    -0.286 OA 
HETATM    6  C   UNL     1     -10.209  13.395  67.234  1.00  0.00    -0.241 C  
HETATM    7  C   UNL     1      -8.843  14.122  67.262  1.00  0.00    -0.218 C  
HETATM    8  C   UNL     1      -8.957  15.603  66.822  1.00  0.00    -0.261 C  
ENDROOT
BRANCH   6   9
HETATM    9  O   UNL     1      -9.967  11.988  67.333  1.00  0.00    -0.190 OA 
BRANCH   9  10
HETATM   10  C   UNL     1     -10.869  11.279  68.193  1.00  0.00    -0.217 C  
HETATM   11  H   UNL     1     -12.180   9.514  72.359  1.00  0.00     0.000 HD 
HETATM   12  C   UNL     1     -10.053  10.293  69.073  1.00  0.00    -0.213 C  
HETATM   13  C   UNL     1     -11.695  12.214  69.089  1.00  0.00    -0.328 C  
HETATM   14  C   UNL     1     -10.955   9.634  70.135  1.00  0.00    -0.275 C  
HETATM   15  O   UNL     1     -12.689  10.041  71.754  1.00  0.00    -0.383 OA 
HETATM   16  O   UNL     1     -12.528  11.483  69.985  1.00  0.00    -0.213 OA 
HETATM   17  C   UNL     1     -11.768  10.696  70.888  1.00  0.00    -0.289 C  
BRANCH  14  18
HETATM   18  O   UNL     1     -10.303   8.681  70.970  1.00  0.00    -0.196 OA 
HETATM   19  S   UNL     1     -10.768   7.135  71.109  1.00  0.00    -0.235 S  
HETATM   20  O   UNL     1     -12.174   7.110  71.438  1.00  0.00    -0.321 OA 
HETATM   21  O   UNL     1     -10.599   6.536  69.628  1.00  0.00    -0.206 OA 
HETATM   22  O   UNL     1      -9.779   6.465  71.922  1.00  0.00    -0.154 OA 
ENDBRANCH  14  18
BRANCH  12  23
HETATM   23  O   UNL     1      -9.308   9.339  68.301  1.00  0.00    -0.134 OA 
HETATM   24  S   UNL     1      -9.903   8.663  66.952  1.00  0.00    -0.264 S  
HETATM   25  O   UNL     1     -10.968   7.763  67.333  1.00  0.00    -0.189 OA 
HETATM   26  O   UNL     1      -8.682   7.725  66.484  1.00  0.00    -0.134 OA 
HETATM   27  O   UNL     1     -10.094   9.671  65.941  1.00  0.00    -0.288 OA 
ENDBRANCH  12  23
ENDBRANCH   9  10
ENDBRANCH   6   9
BRANCH   7  28
HETATM   28  O   UNL     1      -8.295  14.105  68.591  1.00  0.00    -0.154 OA 
HETATM   29  O   UNL     1      -7.038  12.001  69.031  1.00  0.00    -0.108 OA 
HETATM   30  O   UNL     1      -6.458  14.002  70.286  1.00  0.00    -0.124 OA 
HETATM   31  S   UNL     1      -6.835  13.419  68.836  1.00  0.00    -0.103 S  
HETATM   32  O   UNL     1      -5.895  13.959  67.885  1.00  0.00    -0.128 OA 
ENDBRANCH   7  28
BRANCH   8  33
HETATM   33  O   UNL     1      -7.627  16.041  66.498  1.00  0.00    -0.208 OA 
HETATM   34  S   UNL     1      -7.182  17.586  66.738  1.00  0.00    -0.239 S  
HETATM   35  O   UNL     1      -7.603  18.377  65.608  1.00  0.00    -0.522 OA 
HETATM   36  O   UNL     1      -7.476  17.943  68.107  1.00  0.00    -0.233 OA 
HETATM   37  O   UNL     1      -5.587  17.492  66.565  1.00  0.00    -0.161 OA 
ENDBRANCH   8  33
TORSDOF 6
ENDMDL
MODEL       58
REMARK 921   NORMALIZED FREE ENERGY PREDICTED BY IDOCK:   -4.95 KCAL/MOL
REMARK 922        TOTAL FREE ENERGY PREDICTED BY IDOCK:   -8.78 KCAL/MOL
REMARK 923 INTER-LIGAND FREE ENERGY PREDICTED BY IDOCK:   -7.25 KCAL/MOL
REMARK 924 INTRA-LIGAND FREE ENERGY PREDICTED BY IDOCK:   -1.53 KCAL/MOL
REMARK 927      BINDING AFFINITY PREDICTED BY RF-SCORE:    0.00 PKD
ROOT
HETATM    1  O   UNL     1      -8.604   8.076  64.418  1.00  0.00    -0.382 OA 
HETATM    2  H   UNL     1      -7.756   8.324  64.071  1.00  0.00     0.000 HD 
HETATM    3  C   UNL     1      -8.786   8.721  65.676  1.00  0.00    -0.199 C  
HETATM    4  C   UNL     1     -10.142   8.324  66.230  1.00  0.00    -0.031 C  
HETATM    5  O   UNL     1     -10.366   8.932  67.484  1.00  0.00    -0.230 OA 
HETATM    6  C   UNL     1     -10.419  10.345  67.430  1.00  0.00    -0.249 C  
HETATM    7  C   UNL     1      -9.124  10.964  66.852  1.00  0.00    -0.154 C  
HETATM    8  C   UNL     1      -8.657  10.249  65.559  1.00  0.00    -0.164 C  
ENDROOT
BRANCH   6   9
HETATM    9  O   UNL     1     -10.592  10.835  68.763  1.00  0.00    -0.177 OA 
BRANCH   9  10
HETATM   10  C   UNL     1     -11.430  10.027  69.599  1.00  0.00    -0.155 C  
HETATM   11  H   UNL     1     -13.049   8.597  73.786  1.00  0.00     0.000 HD 
HETATM   12  C   UNL     1     -10.579   9.473  70.775  1.00  0.00    -0.317 C  
HETATM   13  C   UNL     1     -12.639  10.798  70.151  1.00  0.00    -0.240 C  
HETATM   14  C   UNL     1     -11.472   8.742  71.798  1.00  0.00    -0.342 C  
HETATM   15  O   UNL     1     -13.545   8.852  73.016  1.00  0.00    -0.283 OA 
HETATM   16  O   UNL     1     -13.413   9.994  71.038  1.00  0.00    -0.367 OA 
HETATM   17  C   UNL     1     -12.674   9.614  72.187  1.00  0.00    -0.344 C  
BRANCH  14  18
HETATM   18  O   UNL     1     -10.776   8.163  72.898  1.00  0.00    -0.352 OA 
HETATM   19  S   UNL     1     -10.551   6.569  73.086  1.00  0.00    -0.280 S  
HETATM   20  O   UNL     1     -11.834   5.914  72.991  1.00  0.00    -0.059 OA 
HETATM   21  O   UNL     1      -9.683   6.139  71.805  1.00  0.00    -0.155 OA 
HETATM   22  O   UNL     1      -9.683   6.395  74.228  1.00  0.00    -0.214 OA 
ENDBRANCH  14  18
BRANCH  12  23
HETATM   23  O   UNL     1      -9.466   8.680  70.336  1.00  0.00    -0.159 OA 
HETATM   24  S   UNL     1      -7.932   9.063  70.699  1.00  0.00    -0.154 S  
HETATM   25  O   UNL     1      -7.581  10.254  69.960  1.00  0.00    -0.163 OA 
HETATM   26  O   UNL     1      -7.117   7.860  70.008  1.00  0.00    -0.049 OA 
HETATM   27  O   UNL     1      -7.728   8.972  72.122  1.00  0.00    -0.351 OA 
ENDBRANCH  12  23
ENDBRANCH   9  10
ENDBRANCH   6   9
BRANCH   7  28
HETATM   28  O   UNL     1      -9.333  12.350  66.530  1.00  0.00    -0.229 OA 
HETATM   29  O   UNL     1      -9.430  13.756  68.582  1.00  0.00    -0.189 OA 
HETATM   30  O   UNL     1      -8.747  14.781  66.485  1.00  0.00    -0.232 OA 
HETATM   31  S   UNL     1      -8.595  13.491  67.433  1.00  0.00    -0.216 S  
HETATM   32  O   UNL     1      -7.190  13.179  67.531  1.00  0.00    -0.146 OA 
ENDBRANCH   7  28
BRANCH   8  33
HETATM   33  O   UNL     1      -7.282  10.619  65.356  1.00  0.00    -0.110 OA 
HETATM   34  S   UNL     1      -6.466  10.091  64.054  1.00  0.00    -0.123 S  
HETATM   35  O   UNL     1      -5.959   8.768  64.322  1.00  0.00    -0.065 OA 
HETATM   36  O   UNL     1      -7.224  10.423  62.868  1.00  0.00    -0.141 OA 
HETATM   37  O   UNL     1      -5.155  11.018  64.098  1.00  0.00    -0.229 OA 
ENDBRANCH   8  33
TORSDOF 6
ENDMDL
MODEL       59
REMARK 921   NORMALIZED FREE ENERGY PREDICTED BY IDOCK:   -4.94 KCAL/MOL
REMARK 922        TOTAL FREE ENERGY PREDICTED BY IDOCK:   -8.78 KCAL/MOL
REMARK 923 INTER-LIGAND FREE ENERGY PREDICTED BY IDOCK:   -7.80 KCAL/MOL
REMARK 924 INTRA-LIGAND FREE ENERGY PREDICTED BY IDOCK:   -0.97 KCAL/MOL
REMARK 927      BINDING AFFINITY PREDICTED BY RF-SCORE:    0.00 PKD
ROOT
HETATM    1  O   UNL     1     -10.906  17.512  69.550  1.00  0.00    -0.308 OA 
HETATM    2  H   UNL     1     -11.385  18.143  69.027  1.00  0.00     0.000 HD 
HETATM    3  C   UNL     1     -10.379  16.512  68.682  1.00  0.00    -0.287 C  
HETATM    4  C   UNL     1      -9.613  15.503  69.519  1.00  0.00    -0.278 C  
HETATM    5  O   UNL     1      -9.077  14.483  68.703  1.00  0.00    -0.189 OA 
HETATM    6  C   UNL     1      -8.124  14.946  67.766  1.00  0.00    -0.152 C  
HETATM    7  C   UNL     1      -8.699  16.026  66.820  1.00  0.00    -0.253 C  
HETATM    8  C   UNL     1      -9.488  17.118  67.585  1.00  0.00    -0.241 C  
ENDROOT
BRANCH   6   9
HETATM    9  O   UNL     1      -7.705  13.833  66.970  1.00  0.00    -0.045 OA 
BRANCH   9  10
HETATM   10  C   UNL     1      -7.531  12.606  67.692  1.00  0.00    -0.143 C  
HETATM   11  H   UNL     1      -6.897   7.945  67.953  1.00  0.00     0.000 HD 
HETATM   12  C   UNL     1      -8.436  11.516  67.053  1.00  0.00    -0.164 C  
HETATM   13  C   UNL     1      -6.072  12.126  67.707  1.00  0.00    -0.090 C  
HETATM   14  C   UNL     1      -8.155  10.137  67.682  1.00  0.00    -0.109 C  
HETATM   15  O   UNL     1      -6.422   8.633  68.405  1.00  0.00    -0.054 OA 
HETATM   16  O   UNL     1      -5.940  10.869  68.365  1.00  0.00    -0.043 OA 
HETATM   17  C   UNL     1      -6.649   9.842  67.690  1.00  0.00    -0.068 C  
BRANCH  14  18
HETATM   18  O   UNL     1      -8.966   9.075  67.187  1.00  0.00    -0.128 OA 
HETATM   19  S   UNL     1     -10.099   8.319  68.066  1.00  0.00    -0.207 S  
HETATM   20  O   UNL     1      -9.495   7.866  69.296  1.00  0.00    -0.152 OA 
HETATM   21  O   UNL     1     -11.152   9.476  68.432  1.00  0.00    -0.121 OA 
HETATM   22  O   UNL     1     -10.795   7.418  67.176  1.00  0.00    -0.331 OA 
ENDBRANCH  14  18
BRANCH  12  23
HETATM   23  O   UNL     1      -9.828  11.866  67.068  1.00  0.00    -0.190 OA 
HETATM   24  S   UNL     1     -10.692  12.040  65.706  1.00  0.00    -0.290 S  
HETATM   25  O   UNL     1     -10.235  13.236  65.036  1.00  0.00    -0.321 OA 
HETATM   26  O   UNL     1     -12.153  12.391  66.282  1.00  0.00    -0.612 OA 
HETATM   27  O   UNL     1     -10.783  10.778  65.018  1.00  0.00    -0.229 OA 
ENDBRANCH  12  23
ENDBRANCH   9  10
ENDBRANCH   6   9
BRANCH   7  28
HETATM   28  O   UNL     1      -7.637  16.680  66.103  1.00  0.00    -0.259 OA 
HETATM   29  O   UNL     1      -6.592  18.481  67.469  1.00  0.00    -0.194 OA 
HETATM   30  O   UNL     1      -5.278  17.418  65.720  1.00  0.00    -0.294 OA 
HETATM   31  S   UNL     1      -6.315  17.172  66.924  1.00  0.00    -0.219 S  
HETATM   32  O   UNL     1      -5.818  16.074  67.716  1.00  0.00    -0.121 OA 
ENDBRANCH   7  28
BRANCH   8  33
HETATM   33  O   UNL     1     -10.293  17.805  66.611  1.00  0.00    -0.343 OA 
HETATM   34  S   UNL     1     -10.293  19.428  66.532  1.00  0.00    -0.506 S  
HETATM   35  O   UNL     1     -11.219  19.946  67.508  1.00  0.00    -0.137 OA 
HETATM   36  O   UNL     1      -8.925  19.883  66.420  1.00  0.00    -0.352 OA 
HETATM   37  O   UNL     1     -11.033  19.683  65.129  1.00  0.00    -0.373 OA 
ENDBRANCH   8  33
TORSDOF 6
ENDMDL
MODEL       60
REMARK 921   NORMALIZED FREE ENERGY PREDICTED BY IDOCK:   -4.93 KCAL/MOL
REMARK 922        TOTAL FREE ENERGY PREDICTED BY IDOCK:   -8.76 KCAL/MOL
REMARK 923 INTER-LIGAND FREE ENERGY PREDICTED BY IDOCK:   -9.01 KCAL/MOL
REMARK 924 INTRA-LIGAND FREE ENERGY PREDICTED BY IDOCK:    0.25 KCAL/MOL
REMARK 927      BINDING AFFINITY PREDICTED BY RF-SCORE:    0.00 PKD
ROOT
HETATM    1  O   UNL     1     -12.231  14.385  67.701  1.00  0.00    -0.598 OA 
HETATM    2  H   UNL     1     -12.745  14.434  66.905  1.00  0.00     0.000 HD 
HETATM    3  C   UNL     1     -12.014  13.012  68.017  1.00  0.00    -0.290 C  
HETATM    4  C   UNL     1     -11.191  12.935  69.290  1.00  0.00    -0.190 C  
HETATM    5  O   UNL     1     -10.956  11.590  69.650  1.00  0.00    -0.181 OA 
HETATM    6  C   UNL     1     -10.190  10.872  68.703  1.00  0.00    -0.189 C  
HETATM    7  C   UNL     1     -10.845  10.857  67.301  1.00  0.00    -0.287 C  
HETATM    8  C   UNL     1     -11.329  12.261  66.863  1.00  0.00    -0.333 C  
ENDROOT
BRANCH   6   9
HETATM    9  O   UNL     1     -10.074   9.520  69.157  1.00  0.00    -0.180 OA 
BRANCH   9  10
HETATM   10  C   UNL     1      -9.371   9.357  70.396  1.00  0.00    -0.268 C  
HETATM   11  H   UNL     1      -6.437   7.070  73.286  1.00  0.00     0.000 HD 
HETATM   12  C   UNL     1      -9.495   7.878  70.852  1.00  0.00    -0.156 C  
HETATM   13  C   UNL     1      -7.888   9.747  70.294  1.00  0.00    -0.171 C  
HETATM   14  C   UNL     1      -8.611   7.611  72.087  1.00  0.00    -0.118 C  
HETATM   15  O   UNL     1      -6.445   7.994  73.061  1.00  0.00    -0.068 OA 
HETATM   16  O   UNL     1      -7.197   9.505  71.517  1.00  0.00    -0.320 OA 
HETATM   17  C   UNL     1      -7.185   8.126  71.853  1.00  0.00    -0.087 C  
BRANCH  14  18
HETATM   18  O   UNL     1      -8.687   6.286  72.606  1.00  0.00    -0.124 OA 
HETATM   19  S   UNL     1      -8.273   4.963  71.766  1.00  0.00    -0.116 S  
HETATM   20  O   UNL     1      -8.986   4.979  70.511  1.00  0.00    -0.119 OA 
HETATM   21  O   UNL     1      -6.712   5.169  71.448  1.00  0.00    -0.040 OA 
HETATM   22  O   UNL     1      -8.347   3.843  72.675  1.00  0.00    -0.095 OA 
ENDBRANCH  14  18
BRANCH  12  23
HETATM   23  O   UNL     1     -10.857   7.462  71.038  1.00  0.00    -0.234 OA 
HETATM   24  S   UNL     1     -11.836   8.162  72.125  1.00  0.00    -0.383 S  
HETATM   25  O   UNL     1     -11.375   7.795  73.445  1.00  0.00    -0.287 OA 
HETATM   26  O   UNL     1     -13.211   7.358  71.901  1.00  0.00    -0.311 OA 
HETATM   27  O   UNL     1     -12.066   9.537  71.764  1.00  0.00    -0.370 OA 
ENDBRANCH  12  23
ENDBRANCH   9  10
ENDBRANCH   6   9
BRANCH   7  28
HETATM   28  O   UNL     1      -9.905  10.394  66.316  1.00  0.00    -0.199 OA 
HETATM   29  O   UNL     1      -8.332   8.718  67.273  1.00  0.00    -0.104 OA 
HETATM   30  O   UNL     1      -8.779   8.680  64.883  1.00  0.00    -0.169 OA 
HETATM   31  S   UNL     1      -9.433   8.832  66.344  1.00  0.00    -0.246 S  
HETATM   32  O   UNL     1     -10.601   7.988  66.395  1.00  0.00    -0.036 OA 
ENDBRANCH   7  28
BRANCH   8  33
HETATM   33  O   UNL     1     -12.253  12.060  65.780  1.00  0.00    -0.520 OA 
HETATM   34  S   UNL     1     -12.170  12.976  64.440  1.00  0.00    -0.407 S  
HETATM   35  O   UNL     1     -12.875  14.212  64.671  1.00  0.00    -0.663 OA 
HETATM   36  O   UNL     1     -10.821  12.919  63.925  1.00  0.00    -0.394 OA 
HETATM   37  O   UNL     1     -13.134  12.169  63.439  1.00  0.00    -0.752 OA 
ENDBRANCH   8  33
TORSDOF 6
ENDMDL
MODEL       61
REMARK 921   NORMALIZED FREE ENERGY PREDICTED BY IDOCK:   -4.91 KCAL/MOL
REMARK 922        TOTAL FREE ENERGY PREDICTED BY IDOCK:   -8.74 KCAL/MOL
REMARK 923 INTER-LIGAND FREE ENERGY PREDICTED BY IDOCK:   -7.39 KCAL/MOL
REMARK 924 INTRA-LIGAND FREE ENERGY PREDICTED BY IDOCK:   -1.35 KCAL/MOL
REMARK 927      BINDING AFFINITY PREDICTED BY RF-SCORE:    0.00 PKD
ROOT
HETATM    1  O   UNL     1     -13.163  13.424  72.465  1.00  0.00    -0.486 OA 
HETATM    2  H   UNL     1     -13.276  14.321  72.175  1.00  0.00     0.000 HD 
HETATM    3  C   UNL     1     -13.087  12.584  71.316  1.00  0.00    -0.132 C  
HETATM    4  C   UNL     1     -12.907  11.149  71.780  1.00  0.00    -0.374 C  
HETATM    5  O   UNL     1     -12.836  10.274  70.675  1.00  0.00    -0.336 OA 
HETATM    6  C   UNL     1     -11.721  10.506  69.836  1.00  0.00    -0.294 C  
HETATM    7  C   UNL     1     -11.694  11.947  69.273  1.00  0.00    -0.328 C  
HETATM    8  C   UNL     1     -11.955  13.011  70.368  1.00  0.00    -0.258 C  
ENDROOT
BRANCH   6   9
HETATM    9  O   UNL     1     -11.797   9.597  68.733  1.00  0.00     0.434 OA 
BRANCH   9  10
HETATM   10  C   UNL     1     -10.569   8.930  68.414  1.00  0.00    -0.143 C  
HETATM   11  H   UNL     1      -8.022   5.115  67.342  1.00  0.00     0.000 HD 
HETATM   12  C   UNL     1     -10.481   7.619  69.243  1.00  0.00    -0.218 C  
HETATM   13  C   UNL     1     -10.438   8.608  66.917  1.00  0.00    -0.258 C  
HETATM   14  C   UNL     1      -9.263   6.779  68.808  1.00  0.00    -0.130 C  
HETATM   15  O   UNL     1      -8.028   5.962  66.911  1.00  0.00    -0.101 OA 
HETATM   16  O   UNL     1      -9.245   7.880  66.639  1.00  0.00    -0.157 OA 
HETATM   17  C   UNL     1      -9.237   6.615  67.282  1.00  0.00    -0.125 C  
BRANCH  14  18
HETATM   18  O   UNL     1      -9.074   5.571  69.539  1.00  0.00    -0.117 OA 
HETATM   19  S   UNL     1      -7.791   5.281  70.486  1.00  0.00    -0.085 S  
HETATM   20  O   UNL     1      -6.593   5.512  69.713  1.00  0.00    -0.045 OA 
HETATM   21  O   UNL     1      -7.871   6.415  71.620  1.00  0.00    -0.099 OA 
HETATM   22  O   UNL     1      -8.036   4.028  71.162  1.00  0.00    -0.066 OA 
ENDBRANCH  14  18
BRANCH  12  23
HETATM   23  O   UNL     1     -10.525   7.849  70.659  1.00  0.00    -0.209 OA 
HETATM   24  S   UNL     1     -11.521   7.025  71.640  1.00  0.00    -0.282 S  
HETATM   25  O   UNL     1     -12.874   7.454  71.367  1.00  0.00    -0.358 OA 
HETATM   26  O   UNL     1     -11.149   7.637  73.081  1.00  0.00    -0.404 OA 
HETATM   27  O   UNL     1     -11.160   5.631  71.648  1.00  0.00    -0.251 OA 
ENDBRANCH  12  23
ENDBRANCH   9  10
ENDBRANCH   6   9
BRANCH   7  28
HETATM   28  O   UNL     1     -10.410  12.231  68.689  1.00  0.00    -0.225 OA 
HETATM   29  O   UNL     1     -10.362  11.652  66.268  1.00  0.00    -0.221 OA 
HETATM   30  O   UNL     1      -8.840  13.356  67.100  1.00  0.00    -0.209 OA 
HETATM   31  S   UNL     1     -10.343  12.790  67.158  1.00  0.00    -0.234 S  
HETATM   32  O   UNL     1     -11.242  13.911  67.026  1.00  0.00    -0.298 OA 
ENDBRANCH   7  28
BRANCH   8  33
HETATM   33  O   UNL     1     -12.306  14.227  69.687  1.00  0.00    -0.329 OA 
HETATM   34  S   UNL     1     -11.557  15.624  70.045  1.00  0.00    -0.376 S  
HETATM   35  O   UNL     1     -12.188  16.213  71.200  1.00  0.00    -0.381 OA 
HETATM   36  O   UNL     1     -10.129  15.420  69.941  1.00  0.00    -0.277 OA 
HETATM   37  O   UNL     1     -12.029  16.564  68.830  1.00  0.00    -0.014 OA 
ENDBRANCH   8  33
TORSDOF 6
ENDMDL
MODEL       62
REMARK 921   NORMALIZED FREE ENERGY PREDICTED BY IDOCK:   -4.88 KCAL/MOL
REMARK 922        TOTAL FREE ENERGY PREDICTED BY IDOCK:   -8.69 KCAL/MOL
REMARK 923 INTER-LIGAND FREE ENERGY PREDICTED BY IDOCK:   -6.70 KCAL/MOL
REMARK 924 INTRA-LIGAND FREE ENERGY PREDICTED BY IDOCK:   -1.99 KCAL/MOL
REMARK 927      BINDING AFFINITY PREDICTED BY RF-SCORE:    0.00 PKD
ROOT
HETATM    1  O   UNL     1      -9.660   3.239  68.797  1.00  0.00    -0.160 OA 
HETATM    2  H   UNL     1      -9.412   2.977  69.675  1.00  0.00     0.000 HD 
HETATM    3  C   UNL     1      -9.829   4.654  68.778  1.00  0.00    -0.131 C  
HETATM    4  C   UNL     1     -10.226   5.073  67.374  1.00  0.00    -0.148 C  
HETATM    5  O   UNL     1     -10.415   6.470  67.306  1.00  0.00    -0.198 OA 
HETATM    6  C   UNL     1      -9.243   7.217  67.568  1.00  0.00    -0.125 C  
HETATM    7  C   UNL     1      -8.644   6.909  68.961  1.00  0.00    -0.128 C  
HETATM    8  C   UNL     1      -8.561   5.388  69.242  1.00  0.00    -0.102 C  
ENDROOT
BRANCH   6   9
HETATM    9  O   UNL     1      -9.581   8.607  67.524  1.00  0.00    -0.148 OA 
BRANCH   9  10
HETATM   10  C   UNL     1      -9.880   9.114  66.217  1.00  0.00    -0.289 C  
HETATM   11  H   UNL     1      -9.397  12.224  62.712  1.00  0.00     0.000 HD 
HETATM   12  C   UNL     1     -10.094  10.650  66.312  1.00  0.00    -0.235 C  
HETATM   13  C   UNL     1      -8.777   8.806  65.192  1.00  0.00    -0.167 C  
HETATM   14  C   UNL     1     -10.246  11.268  64.908  1.00  0.00    -0.286 C  
HETATM   15  O   UNL     1      -9.365  11.275  62.668  1.00  0.00    -0.348 OA 
HETATM   16  O   UNL     1      -9.064   9.386  63.922  1.00  0.00    -0.196 OA 
HETATM   17  C   UNL     1      -9.111  10.802  63.986  1.00  0.00    -0.197 C  
BRANCH  14  18
HETATM   18  O   UNL     1     -10.486  12.672  64.892  1.00  0.00    -0.290 OA 
HETATM   19  S   UNL     1     -11.878  13.345  64.404  1.00  0.00    -0.429 S  
HETATM   20  O   UNL     1     -12.193  12.836  63.090  1.00  0.00    -0.505 OA 
HETATM   21  O   UNL     1     -12.974  12.773  65.429  1.00  0.00    -0.587 OA 
HETATM   22  O   UNL     1     -11.783  14.761  64.676  1.00  0.00    -0.409 OA 
ENDBRANCH  14  18
BRANCH  12  23
HETATM   23  O   UNL     1     -11.162  11.011  67.201  1.00  0.00    -0.309 OA 
HETATM   24  S   UNL     1     -10.915  11.904  68.533  1.00  0.00    -0.253 S  
HETATM   25  O   UNL     1     -10.183  11.099  69.483  1.00  0.00    -0.091 OA 
HETATM   26  O   UNL     1     -12.405  12.036  69.126  1.00  0.00    -0.126 OA 
HETATM   27  O   UNL     1     -10.471  13.224  68.163  1.00  0.00    -0.231 OA 
ENDBRANCH  12  23
ENDBRANCH   9  10
ENDBRANCH   6   9
BRANCH   7  28
HETATM   28  O   UNL     1      -7.312   7.443  69.062  1.00  0.00    -0.086 OA 
HETATM   29  O   UNL     1      -7.341   9.920  69.311  1.00  0.00    -0.071 OA 
HETATM   30  O   UNL     1      -5.440   8.674  70.175  1.00  0.00    -0.025 OA 
HETATM   31  S   UNL     1      -7.042   8.715  70.049  1.00  0.00    -0.049 S  
HETATM   32  O   UNL     1      -7.594   8.426  71.350  1.00  0.00    -0.079 OA 
ENDBRANCH   7  28
BRANCH   8  33
HETATM   33  O   UNL     1      -8.390   5.240  70.663  1.00  0.00    -0.109 OA 
HETATM   34  S   UNL     1      -7.382   4.115  71.262  1.00  0.00    -0.044 S  
HETATM   35  O   UNL     1      -8.071   2.849  71.320  1.00  0.00    -0.059 OA 
HETATM   36  O   UNL     1      -6.085   4.282  70.646  1.00  0.00    -0.016 OA 
HETATM   37  O   UNL     1      -7.277   4.563  72.801  1.00  0.00    -0.075 OA 
ENDBRANCH   8  33
TORSDOF 6
ENDMDL
MODEL       63
REMARK 921   NORMALIZED FREE ENERGY PREDICTED BY IDOCK:   -4.84 KCAL/MOL
REMARK 922        TOTAL FREE ENERGY PREDICTED BY IDOCK:   -8.63 KCAL/MOL
REMARK 923 INTER-LIGAND FREE ENERGY PREDICTED BY IDOCK:   -8.84 KCAL/MOL
REMARK 924 INTRA-LIGAND FREE ENERGY PREDICTED BY IDOCK:    0.21 KCAL/MOL
REMARK 927      BINDING AFFINITY PREDICTED BY RF-SCORE:    0.00 PKD
ROOT
HETATM    1  O   UNL     1     -10.301  17.515  67.543  1.00  0.00    -0.330 OA 
HETATM    2  H   UNL     1     -11.041  17.715  68.104  1.00  0.00     0.000 HD 
HETATM    3  C   UNL     1      -9.972  16.138  67.701  1.00  0.00    -0.241 C  
HETATM    4  C   UNL     1      -8.790  15.819  66.803  1.00  0.00    -0.267 C  
HETATM    5  O   UNL     1      -8.419  14.463  66.932  1.00  0.00    -0.202 OA 
HETATM    6  C   UNL     1      -9.420  13.556  66.514  1.00  0.00    -0.256 C  
HETATM    7  C   UNL     1     -10.745  13.737  67.294  1.00  0.00    -0.283 C  
HETATM    8  C   UNL     1     -11.169  15.224  67.394  1.00  0.00    -0.311 C  
ENDROOT
BRANCH   6   9
HETATM    9  O   UNL     1      -8.943  12.228  66.748  1.00  0.00    -0.204 OA 
BRANCH   9  10
HETATM   10  C   UNL     1      -8.509  11.969  68.089  1.00  0.00    -0.171 C  
HETATM   11  H   UNL     1      -5.706   9.916  71.270  1.00  0.00     0.000 HD 
HETATM   12  C   UNL     1      -8.262  10.444  68.251  1.00  0.00    -0.114 C  
HETATM   13  C   UNL     1      -7.236  12.744  68.463  1.00  0.00    -0.114 C  
HETATM   14  C   UNL     1      -7.628  10.136  69.622  1.00  0.00    -0.156 C  
HETATM   15  O   UNL     1      -5.952  10.832  71.203  1.00  0.00    -0.342 OA 
HETATM   16  O   UNL     1      -6.785  12.412  69.773  1.00  0.00    -0.023 OA 
HETATM   17  C   UNL     1      -6.418  11.045  69.875  1.00  0.00    -0.144 C  
BRANCH  14  18
HETATM   18  O   UNL     1      -7.398   8.754  69.882  1.00  0.00    -0.050 OA 
HETATM   19  S   UNL     1      -8.148   7.917  71.049  1.00  0.00    -0.102 S  
HETATM   20  O   UNL     1      -7.981   8.626  72.296  1.00  0.00    -0.301 OA 
HETATM   21  O   UNL     1      -9.702   7.985  70.649  1.00  0.00    -0.172 OA 
HETATM   22  O   UNL     1      -7.760   6.534  70.896  1.00  0.00    -0.097 OA 
ENDBRANCH  14  18
BRANCH  12  23
HETATM   23  O   UNL     1      -9.433   9.656  67.987  1.00  0.00    -0.132 OA 
HETATM   24  S   UNL     1      -9.466   8.513  66.836  1.00  0.00    -0.200 S  
HETATM   25  O   UNL     1      -9.423   9.171  65.550  1.00  0.00    -0.250 OA 
HETATM   26  O   UNL     1     -10.961   7.936  66.983  1.00  0.00    -0.219 OA 
HETATM   27  O   UNL     1      -8.551   7.453  67.171  1.00  0.00    -0.116 OA 
ENDBRANCH  12  23
ENDBRANCH   9  10
ENDBRANCH   6   9
BRANCH   7  28
HETATM   28  O   UNL     1     -11.810  13.024  66.642  1.00  0.00    -0.367 OA 
HETATM   29  O   UNL     1     -13.140  14.525  65.166  1.00  0.00    -0.538 OA 
HETATM   30  O   UNL     1     -13.079  12.144  64.674  1.00  0.00    -0.673 OA 
HETATM   31  S   UNL     1     -12.207  13.423  65.111  1.00  0.00    -0.461 S  
HETATM   32  O   UNL     1     -11.012  13.438  64.303  1.00  0.00    -0.382 OA 
ENDBRANCH   7  28
BRANCH   8  33
HETATM   33  O   UNL     1     -12.143  15.305  68.448  1.00  0.00    -0.236 OA 
HETATM   34  S   UNL     1     -11.713  15.050  69.995  1.00  0.00    -0.330 S  
HETATM   35  O   UNL     1     -11.708  13.631  70.253  1.00  0.00    -0.270 OA 
HETATM   36  O   UNL     1     -10.600  15.917  70.312  1.00  0.00    -0.309 OA 
HETATM   37  O   UNL     1     -13.011  15.577  70.781  1.00  0.00    -0.475 OA 
ENDBRANCH   8  33
TORSDOF 6
ENDMDL
MODEL       64
REMARK 921   NORMALIZED FREE ENERGY PREDICTED BY IDOCK:   -4.76 KCAL/MOL
REMARK 922        TOTAL FREE ENERGY PREDICTED BY IDOCK:   -8.53 KCAL/MOL
REMARK 923 INTER-LIGAND FREE ENERGY PREDICTED BY IDOCK:   -6.29 KCAL/MOL
REMARK 924 INTRA-LIGAND FREE ENERGY PREDICTED BY IDOCK:   -2.24 KCAL/MOL
REMARK 927      BINDING AFFINITY PREDICTED BY RF-SCORE:    0.00 PKD
ROOT
HETATM    1  O   UNL     1      -5.289   6.805  69.635  1.00  0.00    -0.014 OA 
HETATM    2  H   UNL     1      -5.309   5.863  69.755  1.00  0.00     0.000 HD 
HETATM    3  C   UNL     1      -6.581   7.237  69.217  1.00  0.00    -0.041 C  
HETATM    4  C   UNL     1      -6.547   8.742  69.026  1.00  0.00    -0.048 C  
HETATM    5  O   UNL     1      -7.806   9.219  68.602  1.00  0.00    -0.087 OA 
HETATM    6  C   UNL     1      -8.840   9.016  69.546  1.00  0.00    -0.146 C  
HETATM    7  C   UNL     1      -9.022   7.524  69.913  1.00  0.00    -0.141 C  
HETATM    8  C   UNL     1      -7.673   6.825  70.218  1.00  0.00    -0.101 C  
ENDROOT
BRANCH   6   9
HETATM    9  O   UNL     1     -10.064   9.487  68.974  1.00  0.00    -0.179 OA 
BRANCH   9  10
HETATM   10  C   UNL     1     -10.345  10.874  69.208  1.00  0.00    -0.187 C  
HETATM   11  H   UNL     1     -12.930  14.777  68.686  1.00  0.00     0.000 HD 
HETATM   12  C   UNL     1     -10.750  11.537  67.863  1.00  0.00    -0.200 C  
HETATM   13  C   UNL     1     -11.456  11.088  70.248  1.00  0.00    -0.273 C  
HETATM   14  C   UNL     1     -11.230  12.984  68.091  1.00  0.00    -0.272 C  
HETATM   15  O   UNL     1     -12.587  14.398  69.487  1.00  0.00    -0.217 OA 
HETATM   16  O   UNL     1     -11.767  12.470  70.406  1.00  0.00    -0.222 OA 
HETATM   17  C   UNL     1     -12.279  13.036  69.210  1.00  0.00    -0.089 C  
BRANCH  14  18
HETATM   18  O   UNL     1     -11.588  13.692  66.907  1.00  0.00    -0.332 OA 
HETATM   19  S   UNL     1     -10.828  15.027  66.389  1.00  0.00    -0.328 S  
HETATM   20  O   UNL     1     -10.795  15.981  67.472  1.00  0.00    -0.317 OA 
HETATM   21  O   UNL     1      -9.322  14.543  66.113  1.00  0.00    -0.277 OA 
HETATM   22  O   UNL     1     -11.381  15.355  65.095  1.00  0.00    -0.340 OA 
ENDBRANCH  14  18
BRANCH  12  23
HETATM   23  O   UNL     1      -9.727  11.438  66.860  1.00  0.00    -0.189 OA 
HETATM   24  S   UNL     1      -9.975  10.693  65.441  1.00  0.00    -0.296 S  
HETATM   25  O   UNL     1     -10.088   9.275  65.693  1.00  0.00    -0.215 OA 
HETATM   26  O   UNL     1      -8.557  10.896  64.707  1.00  0.00    -0.124 OA 
HETATM   27  O   UNL     1     -10.969  11.405  64.680  1.00  0.00    -0.310 OA 
ENDBRANCH  12  23
ENDBRANCH   9  10
ENDBRANCH   6   9
BRANCH   7  28
HETATM   28  O   UNL     1      -9.851   7.394  71.081  1.00  0.00    -0.175 OA 
HETATM   29  O   UNL     1     -12.269   7.521  70.498  1.00  0.00    -0.103 OA 
HETATM   30  O   UNL     1     -11.605   6.327  72.510  1.00  0.00    -0.276 OA 
HETATM   31  S   UNL     1     -11.266   6.589  70.960  1.00  0.00    -0.326 S  
HETATM   32  O   UNL     1     -11.028   5.310  70.338  1.00  0.00    -0.153 OA 
ENDBRANCH   7  28
BRANCH   8  33
HETATM   33  O   UNL     1      -7.915   5.410  70.139  1.00  0.00    -0.082 OA 
HETATM   34  S   UNL     1      -7.489   4.427  71.362  1.00  0.00    -0.062 S  
HETATM   35  O   UNL     1      -6.093   4.089  71.228  1.00  0.00    -0.013 OA 
HETATM   36  O   UNL     1      -8.066   4.937  72.585  1.00  0.00    -0.102 OA 
HETATM   37  O   UNL     1      -8.250   3.069  70.964  1.00  0.00    -0.056 OA 
ENDBRANCH   8  33
TORSDOF 6
ENDMDL
MODEL       65
REMARK 921   NORMALIZED FREE ENERGY PREDICTED BY IDOCK:   -4.76 KCAL/MOL
REMARK 922        TOTAL FREE ENERGY PREDICTED BY IDOCK:   -8.53 KCAL/MOL
REMARK 923 INTER-LIGAND FREE ENERGY PREDICTED BY IDOCK:   -7.80 KCAL/MOL
REMARK 924 INTRA-LIGAND FREE ENERGY PREDICTED BY IDOCK:   -0.74 KCAL/MOL
REMARK 927      BINDING AFFINITY PREDICTED BY RF-SCORE:    0.00 PKD
ROOT
HETATM    1  O   UNL     1      -6.441  15.395  68.042  1.00  0.00    -0.111 OA 
HETATM    2  H   UNL     1      -6.923  16.181  68.269  1.00  0.00     0.000 HD 
HETATM    3  C   UNL     1      -7.347  14.295  68.032  1.00  0.00    -0.142 C  
HETATM    4  C   UNL     1      -6.575  13.039  67.669  1.00  0.00    -0.159 C  
HETATM    5  O   UNL     1      -7.430  11.916  67.656  1.00  0.00    -0.110 OA 
HETATM    6  C   UNL     1      -8.449  11.987  66.677  1.00  0.00    -0.117 C  
HETATM    7  C   UNL     1      -9.346  13.237  66.847  1.00  0.00    -0.244 C  
HETATM    8  C   UNL     1      -8.520  14.528  67.067  1.00  0.00    -0.196 C  
ENDROOT
BRANCH   6   9
HETATM    9  O   UNL     1      -9.273  10.825  66.806  1.00  0.00    -0.155 OA 
BRANCH   9  10
HETATM   10  C   UNL     1      -8.627   9.587  66.480  1.00  0.00    -0.134 C  
HETATM   11  H   UNL     1      -8.554   4.910  65.927  1.00  0.00     0.000 HD 
HETATM   12  C   UNL     1      -9.002   8.528  67.552  1.00  0.00    -0.135 C  
HETATM   13  C   UNL     1      -9.004   9.070  65.083  1.00  0.00    -0.165 C  
HETATM   14  C   UNL     1      -8.474   7.135  67.151  1.00  0.00    -0.121 C  
HETATM   15  O   UNL     1      -8.245   5.580  65.329  1.00  0.00    -0.122 OA 
HETATM   16  O   UNL     1      -8.408   7.803  64.814  1.00  0.00    -0.130 OA 
HETATM   17  C   UNL     1      -8.870   6.802  65.707  1.00  0.00    -0.069 C  
BRANCH  14  18
HETATM   18  O   UNL     1      -8.736   6.099  68.094  1.00  0.00    -0.115 OA 
HETATM   19  S   UNL     1     -10.121   5.259  68.151  1.00  0.00    -0.129 S  
HETATM   20  O   UNL     1     -11.218   6.196  68.219  1.00  0.00    -0.323 OA 
HETATM   21  O   UNL     1     -10.194   4.519  66.727  1.00  0.00    -0.219 OA 
HETATM   22  O   UNL     1      -9.944   4.214  69.132  1.00  0.00    -0.118 OA 
ENDBRANCH  14  18
BRANCH  12  23
HETATM   23  O   UNL     1      -8.614   8.913  68.879  1.00  0.00    -0.132 OA 
HETATM   24  S   UNL     1      -9.700   9.205  70.049  1.00  0.00    -0.210 S  
HETATM   25  O   UNL     1     -10.390  10.432  69.722  1.00  0.00    -0.240 OA 
HETATM   26  O   UNL     1      -8.753   9.555  71.302  1.00  0.00    -0.241 OA 
HETATM   27  O   UNL     1     -10.419   7.998  70.364  1.00  0.00    -0.210 OA 
ENDBRANCH  12  23
ENDBRANCH   9  10
ENDBRANCH   6   9
BRANCH   7  28
HETATM   28  O   UNL     1     -10.156  13.433  65.675  1.00  0.00    -0.289 OA 
HETATM   29  O   UNL     1     -12.255  12.099  65.784  1.00  0.00    -0.586 OA 
HETATM   30  O   UNL     1     -12.215  14.117  64.429  1.00  0.00    -0.484 OA 
HETATM   31  S   UNL     1     -11.780  13.462  65.831  1.00  0.00    -0.375 S  
HETATM   32  O   UNL     1     -12.136  14.388  66.879  1.00  0.00    -0.425 OA 
ENDBRANCH   7  28
BRANCH   8  33
HETATM   33  O   UNL     1      -9.423  15.509  67.606  1.00  0.00    -0.207 OA 
HETATM   34  S   UNL     1      -9.409  17.038  67.057  1.00  0.00    -0.249 S  
HETATM   35  O   UNL     1      -8.372  17.773  67.738  1.00  0.00    -0.228 OA 
HETATM   36  O   UNL     1      -9.546  17.013  65.618  1.00  0.00    -0.536 OA 
HETATM   37  O   UNL     1     -10.767  17.620  67.688  1.00  0.00    -0.374 OA 
ENDBRANCH   8  33
TORSDOF 6
ENDMDL
MODEL       66
REMARK 921   NORMALIZED FREE ENERGY PREDICTED BY IDOCK:   -4.69 KCAL/MOL
REMARK 922        TOTAL FREE ENERGY PREDICTED BY IDOCK:   -8.44 KCAL/MOL
REMARK 923 INTER-LIGAND FREE ENERGY PREDICTED BY IDOCK:   -7.81 KCAL/MOL
REMARK 924 INTRA-LIGAND FREE ENERGY PREDICTED BY IDOCK:   -0.63 KCAL/MOL
REMARK 927      BINDING AFFINITY PREDICTED BY RF-SCORE:    0.00 PKD
ROOT
HETATM    1  O   UNL     1      -7.402  17.444  66.855  1.00  0.00    -0.173 OA 
HETATM    2  H   UNL     1      -7.821  18.293  66.929  1.00  0.00     0.000 HD 
HETATM    3  C   UNL     1      -8.238  16.470  67.474  1.00  0.00    -0.154 C  
HETATM    4  C   UNL     1      -7.567  15.114  67.355  1.00  0.00    -0.203 C  
HETATM    5  O   UNL     1      -8.355  14.113  67.964  1.00  0.00    -0.140 OA 
HETATM    6  C   UNL     1      -9.614  13.927  67.347  1.00  0.00    -0.235 C  
HETATM    7  C   UNL     1     -10.462  15.222  67.330  1.00  0.00    -0.275 C  
HETATM    8  C   UNL     1      -9.647  16.452  66.858  1.00  0.00    -0.244 C  
ENDROOT
BRANCH   6   9
HETATM    9  O   UNL     1     -10.331  12.935  68.088  1.00  0.00    -0.226 OA 
BRANCH   9  10
HETATM   10  C   UNL     1      -9.691  11.654  68.156  1.00  0.00    -0.189 C  
HETATM   11  H   UNL     1      -9.605   6.973  67.633  1.00  0.00     0.000 HD 
HETATM   12  C   UNL     1     -10.672  10.637  68.802  1.00  0.00    -0.215 C  
HETATM   13  C   UNL     1      -9.240  11.139  66.780  1.00  0.00    -0.171 C  
HETATM   14  C   UNL     1     -10.096   9.208  68.738  1.00  0.00    -0.197 C  
HETATM   15  O   UNL     1      -8.970   7.613  67.332  1.00  0.00    -0.126 OA 
HETATM   16  O   UNL     1      -8.676   9.833  66.867  1.00  0.00    -0.133 OA 
HETATM   17  C   UNL     1      -9.623   8.878  67.316  1.00  0.00    -0.164 C  
BRANCH  14  18
HETATM   18  O   UNL     1     -10.910   8.205  69.342  1.00  0.00    -0.193 OA 
HETATM   19  S   UNL     1     -10.446   7.310  70.611  1.00  0.00    -0.217 S  
HETATM   20  O   UNL     1      -9.172   6.706  70.301  1.00  0.00    -0.155 OA 
HETATM   21  O   UNL     1     -10.211   8.380  71.785  1.00  0.00    -0.208 OA 
HETATM   22  O   UNL     1     -11.588   6.523  71.016  1.00  0.00    -0.318 OA 
ENDBRANCH  14  18
BRANCH  12  23
HETATM   23  O   UNL     1     -11.082  11.017  70.124  1.00  0.00    -0.237 OA 
HETATM   24  S   UNL     1     -12.618  11.405  70.476  1.00  0.00    -0.178 S  
HETATM   25  O   UNL     1     -12.916  12.671  69.847  1.00  0.00     0.492 OA 
HETATM   26  O   UNL     1     -12.530  11.709  72.054  1.00  0.00     0.028 OA 
HETATM   27  O   UNL     1     -13.468  10.255  70.297  1.00  0.00    -0.009 OA 
ENDBRANCH  12  23
ENDBRANCH   9  10
ENDBRANCH   6   9
BRANCH   7  28
HETATM   28  O   UNL     1     -11.581  15.075  66.438  1.00  0.00    -0.294 OA 
HETATM   29  O   UNL     1     -11.199  16.277  64.292  1.00  0.00    -0.770 OA 
HETATM   30  O   UNL     1     -12.719  14.379  64.322  1.00  0.00    -0.657 OA 
HETATM   31  S   UNL     1     -11.303  14.943  64.836  1.00  0.00    -0.406 S  
HETATM   32  O   UNL     1     -10.314  13.918  64.612  1.00  0.00    -0.432 OA 
ENDBRANCH   7  28
BRANCH   8  33
HETATM   33  O   UNL     1     -10.385  17.617  67.264  1.00  0.00    -0.334 OA 
HETATM   34  S   UNL     1      -9.837  19.107  66.917  1.00  0.00    -0.361 S  
HETATM   35  O   UNL     1      -8.875  19.498  67.917  1.00  0.00    -0.308 OA 
HETATM   36  O   UNL     1      -9.579  19.184  65.497  1.00  0.00    -0.207 OA 
HETATM   37  O   UNL     1     -11.124  20.009  67.252  1.00  0.00    -0.197 OA 
ENDBRANCH   8  33
TORSDOF 6
ENDMDL
MODEL       67
REMARK 921   NORMALIZED FREE ENERGY PREDICTED BY IDOCK:   -4.68 KCAL/MOL
REMARK 922        TOTAL FREE ENERGY PREDICTED BY IDOCK:   -8.42 KCAL/MOL
REMARK 923 INTER-LIGAND FREE ENERGY PREDICTED BY IDOCK:   -8.36 KCAL/MOL
REMARK 924 INTRA-LIGAND FREE ENERGY PREDICTED BY IDOCK:   -0.05 KCAL/MOL
REMARK 927      BINDING AFFINITY PREDICTED BY RF-SCORE:    0.00 PKD
ROOT
HETATM    1  O   UNL     1     -10.380   6.605  71.305  1.00  0.00    -0.203 OA 
HETATM    2  H   UNL     1      -9.565   6.156  71.491  1.00  0.00     0.000 HD 
HETATM    3  C   UNL     1     -10.086   7.958  70.967  1.00  0.00    -0.192 C  
HETATM    4  C   UNL     1     -11.390   8.676  70.671  1.00  0.00    -0.247 C  
HETATM    5  O   UNL     1     -11.151  10.026  70.339  1.00  0.00    -0.280 OA 
HETATM    6  C   UNL     1     -10.390  10.197  69.159  1.00  0.00    -0.219 C  
HETATM    7  C   UNL     1      -9.011   9.500  69.238  1.00  0.00    -0.160 C  
HETATM    8  C   UNL     1      -9.114   8.053  69.780  1.00  0.00    -0.149 C  
ENDROOT
BRANCH   6   9
HETATM    9  O   UNL     1     -10.172  11.598  68.968  1.00  0.00    -0.164 OA 
BRANCH   9  10
HETATM   10  C   UNL     1     -11.204  12.276  68.238  1.00  0.00    -0.267 C  
HETATM   11  H   UNL     1     -12.741  15.180  64.863  1.00  0.00     0.000 HD 
HETATM   12  C   UNL     1     -10.786  13.758  68.039  1.00  0.00    -0.249 C  
HETATM   13  C   UNL     1     -11.491  11.629  66.874  1.00  0.00    -0.247 C  
HETATM   14  C   UNL     1     -11.780  14.485  67.110  1.00  0.00    -0.399 C  
HETATM   15  O   UNL     1     -13.043  14.303  65.070  1.00  0.00    -0.682 OA 
HETATM   16  O   UNL     1     -12.466  12.364  66.139  1.00  0.00    -0.507 OA 
HETATM   17  C   UNL     1     -12.016  13.674  65.830  1.00  0.00    -0.395 C  
BRANCH  14  18
HETATM   18  O   UNL     1     -11.502  15.866  66.896  1.00  0.00     0.016 OA 
HETATM   19  S   UNL     1     -10.218  16.412  66.071  1.00  0.00    -0.361 S  
HETATM   20  O   UNL     1      -9.030  15.812  66.630  1.00  0.00    -0.229 OA 
HETATM   21  O   UNL     1     -10.418  15.820  64.591  1.00  0.00    -0.436 OA 
HETATM   22  O   UNL     1     -10.369  17.843  65.948  1.00  0.00    -0.525 OA 
ENDBRANCH  14  18
BRANCH  12  23
HETATM   23  O   UNL     1     -10.569  14.450  69.278  1.00  0.00    -0.236 OA 
HETATM   24  S   UNL     1     -11.735  14.615  70.394  1.00  0.00    -0.293 S  
HETATM   25  O   UNL     1     -12.728  15.527  69.873  1.00  0.00    -0.242 OA 
HETATM   26  O   UNL     1     -10.969  15.418  71.559  1.00  0.00    -0.316 OA 
HETATM   27  O   UNL     1     -12.100  13.323  70.917  1.00  0.00    -0.321 OA 
ENDBRANCH  12  23
ENDBRANCH   9  10
ENDBRANCH   6   9
BRANCH   7  28
HETATM   28  O   UNL     1      -8.408   9.434  67.934  1.00  0.00    -0.115 OA 
HETATM   29  O   UNL     1      -7.567  11.661  67.205  1.00  0.00    -0.137 OA 
HETATM   30  O   UNL     1      -6.542   9.658  66.283  1.00  0.00    -0.069 OA 
HETATM   31  S   UNL     1      -7.101  10.357  67.618  1.00  0.00    -0.086 S  
HETATM   32  O   UNL     1      -6.123  10.161  68.661  1.00  0.00    -0.044 OA 
ENDBRANCH   7  28
BRANCH   8  33
HETATM   33  O   UNL     1      -7.789   7.669  70.187  1.00  0.00    -0.093 OA 
HETATM   34  S   UNL     1      -7.241   8.035  71.673  1.00  0.00    -0.081 S  
HETATM   35  O   UNL     1      -6.733   9.385  71.667  1.00  0.00    -0.296 OA 
HETATM   36  O   UNL     1      -8.193   7.552  72.648  1.00  0.00    -0.103 OA 
HETATM   37  O   UNL     1      -5.916   7.130  71.759  1.00  0.00    -0.037 OA 
ENDBRANCH   8  33
TORSDOF 6
ENDMDL
MODEL       68
REMARK 921   NORMALIZED FREE ENERGY PREDICTED BY IDOCK:   -4.67 KCAL/MOL
REMARK 922        TOTAL FREE ENERGY PREDICTED BY IDOCK:   -8.41 KCAL/MOL
REMARK 923 INTER-LIGAND FREE ENERGY PREDICTED BY IDOCK:   -9.04 KCAL/MOL
REMARK 924 INTRA-LIGAND FREE ENERGY PREDICTED BY IDOCK:    0.63 KCAL/MOL
REMARK 927      BINDING AFFINITY PREDICTED BY RF-SCORE:    0.00 PKD
ROOT
HETATM    1  O   UNL     1     -13.114   8.387  72.470  1.00  0.00    -0.561 OA 
HETATM    2  H   UNL     1     -12.794   7.700  73.041  1.00  0.00     0.000 HD 
HETATM    3  C   UNL     1     -11.993   9.062  71.903  1.00  0.00    -0.375 C  
HETATM    4  C   UNL     1     -12.504  10.161  70.989  1.00  0.00    -0.375 C  
HETATM    5  O   UNL     1     -11.428  10.866  70.409  1.00  0.00    -0.307 OA 
HETATM    6  C   UNL     1     -10.614  10.073  69.568  1.00  0.00    -0.244 C  
HETATM    7  C   UNL     1     -10.010   8.855  70.308  1.00  0.00    -0.186 C  
HETATM    8  C   UNL     1     -11.065   8.095  71.150  1.00  0.00    -0.245 C  
ENDROOT
BRANCH   6   9
HETATM    9  O   UNL     1      -9.537  10.886  69.093  1.00  0.00    -0.186 OA 
BRANCH   9  10
HETATM   10  C   UNL     1      -9.919  11.914  68.169  1.00  0.00    -0.197 C  
HETATM   11  H   UNL     1     -13.083  14.321  65.643  1.00  0.00     0.000 HD 
HETATM   12  C   UNL     1     -10.924  11.320  67.146  1.00  0.00    -0.291 C  
HETATM   13  C   UNL     1     -10.543  13.135  68.862  1.00  0.00    -0.131 C  
HETATM   14  C   UNL     1     -11.498  12.426  66.238  1.00  0.00    -0.371 C  
HETATM   15  O   UNL     1     -12.395  14.659  66.205  1.00  0.00    -0.257 OA 
HETATM   16  O   UNL     1     -10.981  14.108  67.917  1.00  0.00    -0.244 OA 
HETATM   17  C   UNL     1     -12.009  13.604  67.079  1.00  0.00    -0.406 C  
BRANCH  14  18
HETATM   18  O   UNL     1     -12.405  11.973  65.237  1.00  0.00    -0.442 OA 
HETATM   19  S   UNL     1     -12.359  12.458  63.691  1.00  0.00    -0.536 S  
HETATM   20  O   UNL     1     -12.373  13.902  63.667  1.00  0.00    -0.696 OA 
HETATM   21  O   UNL     1     -10.922  11.971  63.166  1.00  0.00    -0.341 OA 
HETATM   22  O   UNL     1     -13.332  11.671  62.970  1.00  0.00    -0.341 OA 
ENDBRANCH  14  18
BRANCH  12  23
HETATM   23  O   UNL     1     -10.383  10.214  66.406  1.00  0.00    -0.229 OA 
HETATM   24  S   UNL     1      -8.856  10.205  65.857  1.00  0.00    -0.155 S  
HETATM   25  O   UNL     1      -8.758  11.174  64.790  1.00  0.00    -0.047 OA 
HETATM   26  O   UNL     1      -8.767   8.762  65.149  1.00  0.00    -0.186 OA 
HETATM   27  O   UNL     1      -7.936  10.208  66.965  1.00  0.00    -0.108 OA 
ENDBRANCH  12  23
ENDBRANCH   9  10
ENDBRANCH   6   9
BRANCH   7  28
HETATM   28  O   UNL     1      -9.454   7.922  69.364  1.00  0.00    -0.156 OA 
HETATM   29  O   UNL     1      -7.085   8.470  68.830  1.00  0.00    -0.061 OA 
HETATM   30  O   UNL     1      -7.846   6.174  68.582  1.00  0.00    -0.098 OA 
HETATM   31  S   UNL     1      -7.890   7.483  69.513  1.00  0.00    -0.122 S  
HETATM   32  O   UNL     1      -7.645   7.066  70.872  1.00  0.00    -0.084 OA 
ENDBRANCH   7  28
BRANCH   8  33
HETATM   33  O   UNL     1     -10.338   7.274  72.080  1.00  0.00    -0.190 OA 
HETATM   34  S   UNL     1     -10.625   5.678  72.175  1.00  0.00    -0.230 S  
HETATM   35  O   UNL     1     -11.763   5.455  73.032  1.00  0.00    -0.275 OA 
HETATM   36  O   UNL     1     -10.507   5.108  70.851  1.00  0.00    -0.237 OA 
HETATM   37  O   UNL     1      -9.379   5.179  73.058  1.00  0.00    -0.132 OA 
ENDBRANCH   8  33
TORSDOF 6
ENDMDL
MODEL       69
REMARK 921   NORMALIZED FREE ENERGY PREDICTED BY IDOCK:   -4.65 KCAL/MOL
REMARK 922        TOTAL FREE ENERGY PREDICTED BY IDOCK:   -8.39 KCAL/MOL
REMARK 923 INTER-LIGAND FREE ENERGY PREDICTED BY IDOCK:   -8.09 KCAL/MOL
REMARK 924 INTRA-LIGAND FREE ENERGY PREDICTED BY IDOCK:   -0.30 KCAL/MOL
REMARK 927      BINDING AFFINITY PREDICTED BY RF-SCORE:    0.00 PKD
ROOT
HETATM    1  O   UNL     1     -11.325  12.977  62.953  1.00  0.00    -0.567 OA 
HETATM    2  H   UNL     1     -11.149  13.910  62.921  1.00  0.00     0.000 HD 
HETATM    3  C   UNL     1     -10.375  12.366  63.822  1.00  0.00    -0.425 C  
HETATM    4  C   UNL     1     -10.658  10.875  63.873  1.00  0.00    -0.214 C  
HETATM    5  O   UNL     1      -9.735  10.222  64.717  1.00  0.00    -0.287 OA 
HETATM    6  C   UNL     1      -9.811  10.631  66.069  1.00  0.00    -0.228 C  
HETATM    7  C   UNL     1      -9.582  12.152  66.241  1.00  0.00    -0.237 C  
HETATM    8  C   UNL     1     -10.404  12.988  65.228  1.00  0.00    -0.304 C  
ENDROOT
BRANCH   6   9
HETATM    9  O   UNL     1      -8.793   9.941  66.801  1.00  0.00    -0.133 OA 
BRANCH   9  10
HETATM   10  C   UNL     1      -9.161   8.634  67.261  1.00  0.00    -0.140 C  
HETATM   11  H   UNL     1     -11.117   5.675  70.361  1.00  0.00     0.000 HD 
HETATM   12  C   UNL     1      -8.810   8.517  68.770  1.00  0.00    -0.139 C  
HETATM   13  C   UNL     1     -10.652   8.327  67.049  1.00  0.00    -0.258 C  
HETATM   14  C   UNL     1      -9.346   7.194  69.354  1.00  0.00    -0.147 C  
HETATM   15  O   UNL     1     -11.239   5.710  69.419  1.00  0.00    -0.228 OA 
HETATM   16  O   UNL     1     -11.006   7.054  67.583  1.00  0.00    -0.233 OA 
HETATM   17  C   UNL     1     -10.824   7.001  68.989  1.00  0.00    -0.182 C  
BRANCH  14  18
HETATM   18  O   UNL     1      -9.040   6.976  70.728  1.00  0.00    -0.153 OA 
HETATM   19  S   UNL     1      -8.054   5.804  71.259  1.00  0.00    -0.115 S  
HETATM   20  O   UNL     1      -8.505   4.547  70.710  1.00  0.00    -0.088 OA 
HETATM   21  O   UNL     1      -6.634   6.150  70.592  1.00  0.00    -0.045 OA 
HETATM   22  O   UNL     1      -7.883   6.003  72.679  1.00  0.00    -0.103 OA 
ENDBRANCH  14  18
BRANCH  12  23
HETATM   23  O   UNL     1      -7.415   8.722  69.038  1.00  0.00    -0.078 OA 
HETATM   24  S   UNL     1      -6.888   9.864  70.063  1.00  0.00    -0.127 S  
HETATM   25  O   UNL     1      -7.126  11.154  69.458  1.00  0.00    -0.126 OA 
HETATM   26  O   UNL     1      -5.295   9.643  70.016  1.00  0.00    -0.032 OA 
HETATM   27  O   UNL     1      -7.334   9.565  71.400  1.00  0.00    -0.330 OA 
ENDBRANCH  12  23
ENDBRANCH   9  10
ENDBRANCH   6   9
BRANCH   7  28
HETATM   28  O   UNL     1      -9.967  12.569  67.562  1.00  0.00    -0.197 OA 
HETATM   29  O   UNL     1     -12.290  13.464  67.593  1.00  0.00    -0.228 OA 
HETATM   30  O   UNL     1     -11.364  12.527  69.637  1.00  0.00    -0.211 OA 
HETATM   31  S   UNL     1     -11.508  12.337  68.047  1.00  0.00    -0.342 S  
HETATM   32  O   UNL     1     -11.879  10.966  67.798  1.00  0.00    -0.579 OA 
ENDBRANCH   7  28
BRANCH   8  33
HETATM   33  O   UNL     1      -9.818  14.301  65.205  1.00  0.00    -0.304 OA 
HETATM   34  S   UNL     1     -10.757  15.627  65.229  1.00  0.00    -0.428 S  
HETATM   35  O   UNL     1     -11.197  15.916  63.887  1.00  0.00    -0.323 OA 
HETATM   36  O   UNL     1     -11.660  15.532  66.355  1.00  0.00    -0.025 OA 
HETATM   37  O   UNL     1      -9.680  16.779  65.534  1.00  0.00    -0.537 OA 
ENDBRANCH   8  33
TORSDOF 6
ENDMDL
MODEL       70
REMARK 921   NORMALIZED FREE ENERGY PREDICTED BY IDOCK:   -4.65 KCAL/MOL
REMARK 922        TOTAL FREE ENERGY PREDICTED BY IDOCK:   -8.38 KCAL/MOL
REMARK 923 INTER-LIGAND FREE ENERGY PREDICTED BY IDOCK:   -8.37 KCAL/MOL
REMARK 924 INTRA-LIGAND FREE ENERGY PREDICTED BY IDOCK:   -0.01 KCAL/MOL
REMARK 927      BINDING AFFINITY PREDICTED BY RF-SCORE:    0.00 PKD
ROOT
HETATM    1  O   UNL     1      -6.673   5.829  69.456  1.00  0.00    -0.054 OA 
HETATM    2  H   UNL     1      -7.219   5.076  69.265  1.00  0.00     0.000 HD 
HETATM    3  C   UNL     1      -7.222   6.965  68.793  1.00  0.00    -0.091 C  
HETATM    4  C   UNL     1      -6.349   8.169  69.099  1.00  0.00    -0.039 C  
HETATM    5  O   UNL     1      -6.848   9.322  68.455  1.00  0.00    -0.062 OA 
HETATM    6  C   UNL     1      -8.134   9.710  68.897  1.00  0.00    -0.098 C  
HETATM    7  C   UNL     1      -9.188   8.594  68.704  1.00  0.00    -0.138 C  
HETATM    8  C   UNL     1      -8.682   7.216  69.202  1.00  0.00    -0.133 C  
ENDROOT
BRANCH   6   9
HETATM    9  O   UNL     1      -8.543  10.848  68.131  1.00  0.00    -0.123 OA 
BRANCH   9  10
HETATM   10  C   UNL     1      -9.120  10.540  66.855  1.00  0.00    -0.147 C  
HETATM   11  H   UNL     1      -9.874  11.375  62.280  1.00  0.00     0.000 HD 
HETATM   12  C   UNL     1      -9.701  11.843  66.240  1.00  0.00    -0.229 C  
HETATM   13  C   UNL     1      -8.111   9.911  65.882  1.00  0.00    -0.121 C  
HETATM   14  C   UNL     1     -10.176  11.600  64.794  1.00  0.00    -0.275 C  
HETATM   15  O   UNL     1      -9.610  10.563  62.697  1.00  0.00    -0.301 OA 
HETATM   16  O   UNL     1      -8.690   9.685  64.599  1.00  0.00    -0.173 OA 
HETATM   17  C   UNL     1      -9.083  10.898  63.976  1.00  0.00    -0.149 C  
BRANCH  14  18
HETATM   18  O   UNL     1     -10.762  12.731  64.155  1.00  0.00    -0.362 OA 
HETATM   19  S   UNL     1     -12.334  12.840  63.776  1.00  0.00    -0.432 S  
HETATM   20  O   UNL     1     -12.699  11.672  63.010  1.00  0.00    -0.351 OA 
HETATM   21  O   UNL     1     -13.089  12.756  65.191  1.00  0.00    -0.750 OA 
HETATM   22  O   UNL     1     -12.561  14.180  63.286  1.00  0.00    -0.766 OA 
ENDBRANCH  14  18
BRANCH  12  23
HETATM   23  O   UNL     1     -10.706  12.452  67.065  1.00  0.00    -0.232 OA 
HETATM   24  S   UNL     1     -10.622  14.003  67.531  1.00  0.00    -0.261 S  
HETATM   25  O   UNL     1      -9.540  14.127  68.482  1.00  0.00    -0.217 OA 
HETATM   26  O   UNL     1     -11.977  14.168  68.384  1.00  0.00    -0.347 OA 
HETATM   27  O   UNL     1     -10.718  14.867  66.383  1.00  0.00    -0.302 OA 
ENDBRANCH  12  23
ENDBRANCH   9  10
ENDBRANCH   6   9
BRANCH   7  28
HETATM   28  O   UNL     1     -10.386   8.906  69.435  1.00  0.00    -0.204 OA 
HETATM   29  O   UNL     1     -10.708   7.360  71.360  1.00  0.00    -0.220 OA 
HETATM   30  O   UNL     1     -11.702   9.577  71.453  1.00  0.00    -0.336 OA 
HETATM   31  S   UNL     1     -10.390   8.737  71.058  1.00  0.00    -0.256 S  
HETATM   32  O   UNL     1      -9.245   9.423  71.605  1.00  0.00    -0.258 OA 
ENDBRANCH   7  28
BRANCH   8  33
HETATM   33  O   UNL     1      -9.542   6.224  68.615  1.00  0.00    -0.124 OA 
HETATM   34  S   UNL     1      -9.976   6.324  67.052  1.00  0.00    -0.175 S  
HETATM   35  O   UNL     1     -11.101   7.218  66.932  1.00  0.00    -0.287 OA 
HETATM   36  O   UNL     1      -8.779   6.446  66.249  1.00  0.00    -0.133 OA 
HETATM   37  O   UNL     1     -10.613   4.871  66.801  1.00  0.00    -0.226 OA 
ENDBRANCH   8  33
TORSDOF 6
ENDMDL
MODEL       71
REMARK 921   NORMALIZED FREE ENERGY PREDICTED BY IDOCK:   -4.63 KCAL/MOL
REMARK 922        TOTAL FREE ENERGY PREDICTED BY IDOCK:   -8.35 KCAL/MOL
REMARK 923 INTER-LIGAND FREE ENERGY PREDICTED BY IDOCK:   -7.70 KCAL/MOL
REMARK 924 INTRA-LIGAND FREE ENERGY PREDICTED BY IDOCK:   -0.65 KCAL/MOL
REMARK 927      BINDING AFFINITY PREDICTED BY RF-SCORE:    0.00 PKD
ROOT
HETATM    1  O   UNL     1      -6.282   7.493  66.915  1.00  0.00    -0.045 OA 
HETATM    2  H   UNL     1      -6.139   6.555  66.889  1.00  0.00     0.000 HD 
HETATM    3  C   UNL     1      -7.648   7.734  67.243  1.00  0.00    -0.104 C  
HETATM    4  C   UNL     1      -7.876   9.234  67.286  1.00  0.00    -0.099 C  
HETATM    5  O   UNL     1      -9.221   9.525  67.599  1.00  0.00    -0.125 OA 
HETATM    6  C   UNL     1      -9.615   9.082  68.883  1.00  0.00    -0.156 C  
HETATM    7  C   UNL     1      -9.428   7.557  69.066  1.00  0.00    -0.145 C  
HETATM    8  C   UNL     1      -8.042   7.072  68.574  1.00  0.00    -0.124 C  
ENDROOT
BRANCH   6   9
HETATM    9  O   UNL     1     -11.004   9.385  69.052  1.00  0.00    -0.176 OA 
BRANCH   9  10
HETATM   10  C   UNL     1     -11.301  10.265  70.144  1.00  0.00    -0.316 C  
HETATM   11  H   UNL     1     -13.968  13.460  72.351  1.00  0.00     0.000 HD 
HETATM   12  C   UNL     1     -11.758  11.636  69.573  1.00  0.00    -0.344 C  
HETATM   13  C   UNL     1     -12.383   9.706  71.081  1.00  0.00    -0.339 C  
HETATM   14  C   UNL     1     -12.256  12.559  70.703  1.00  0.00    -0.276 C  
HETATM   15  O   UNL     1     -13.594  12.659  72.700  1.00  0.00    -0.390 OA 
HETATM   16  O   UNL     1     -12.713  10.632  72.113  1.00  0.00    -0.296 OA 
HETATM   17  C   UNL     1     -13.271  11.827  71.592  1.00  0.00    -0.266 C  
BRANCH  14  18
HETATM   18  O   UNL     1     -12.663  13.858  70.282  1.00  0.00    -0.296 OA 
HETATM   19  S   UNL     1     -11.913  15.226  70.724  1.00  0.00    -0.378 S  
HETATM   20  O   UNL     1     -11.815  15.247  72.164  1.00  0.00    -0.375 OA 
HETATM   21  O   UNL     1     -10.427  15.071  70.132  1.00  0.00    -0.189 OA 
HETATM   22  O   UNL     1     -12.524  16.304  69.981  1.00  0.00    -0.023 OA 
ENDBRANCH  14  18
BRANCH  12  23
HETATM   23  O   UNL     1     -10.765  12.255  68.741  1.00  0.00    -0.228 OA 
HETATM   24  S   UNL     1     -11.059  12.662  67.199  1.00  0.00    -0.295 S  
HETATM   25  O   UNL     1     -11.176  11.445  66.428  1.00  0.00    -0.283 OA 
HETATM   26  O   UNL     1      -9.661  13.327  66.759  1.00  0.00    -0.243 OA 
HETATM   27  O   UNL     1     -12.069  13.687  67.146  1.00  0.00    -0.389 OA 
ENDBRANCH  12  23
ENDBRANCH   9  10
ENDBRANCH   6   9
BRANCH   7  28
HETATM   28  O   UNL     1      -9.543   7.203  70.456  1.00  0.00    -0.169 OA 
HETATM   29  O   UNL     1     -11.895   6.656  71.063  1.00  0.00    -0.348 OA 
HETATM   30  O   UNL     1     -10.087   5.692  72.374  1.00  0.00    -0.175 OA 
HETATM   31  S   UNL     1     -10.601   6.038  70.890  1.00  0.00    -0.264 S  
HETATM   32  O   UNL     1     -10.384   4.874  70.066  1.00  0.00    -0.268 OA 
ENDBRANCH   7  28
BRANCH   8  33
HETATM   33  O   UNL     1      -8.137   5.646  68.412  1.00  0.00    -0.101 OA 
HETATM   34  S   UNL     1      -8.704   5.005  67.031  1.00  0.00    -0.102 S  
HETATM   35  O   UNL     1     -10.145   4.990  67.075  1.00  0.00    -0.186 OA 
HETATM   36  O   UNL     1      -7.952   5.555  65.925  1.00  0.00    -0.102 OA 
HETATM   37  O   UNL     1      -8.300   3.459  67.203  1.00  0.00    -0.089 OA 
ENDBRANCH   8  33
TORSDOF 6
ENDMDL
MODEL       72
REMARK 921   NORMALIZED FREE ENERGY PREDICTED BY IDOCK:   -4.55 KCAL/MOL
REMARK 922        TOTAL FREE ENERGY PREDICTED BY IDOCK:   -8.24 KCAL/MOL
REMARK 923 INTER-LIGAND FREE ENERGY PREDICTED BY IDOCK:   -8.60 KCAL/MOL
REMARK 924 INTRA-LIGAND FREE ENERGY PREDICTED BY IDOCK:    0.36 KCAL/MOL
REMARK 927      BINDING AFFINITY PREDICTED BY RF-SCORE:    0.00 PKD
ROOT
HETATM    1  O   UNL     1     -11.449   8.037  70.135  1.00  0.00    -0.453 OA 
HETATM    2  H   UNL     1     -10.971   7.221  70.050  1.00  0.00     0.000 HD 
HETATM    3  C   UNL     1     -10.680   9.076  69.534  1.00  0.00    -0.206 C  
HETATM    4  C   UNL     1     -11.444  10.381  69.669  1.00  0.00    -0.262 C  
HETATM    5  O   UNL     1     -10.717  11.446  69.095  1.00  0.00    -0.216 OA 
HETATM    6  C   UNL     1     -10.514  11.311  67.702  1.00  0.00    -0.193 C  
HETATM    7  C   UNL     1      -9.768  10.005  67.337  1.00  0.00    -0.161 C  
HETATM    8  C   UNL     1     -10.355   8.769  68.063  1.00  0.00    -0.220 C  
ENDROOT
BRANCH   6   9
HETATM    9  O   UNL     1      -9.722  12.417  67.258  1.00  0.00    -0.196 OA 
BRANCH   9  10
HETATM   10  C   UNL     1     -10.467  13.508  66.702  1.00  0.00    -0.274 C  
HETATM   11  H   UNL     1     -10.841  17.836  64.879  1.00  0.00     0.000 HD 
HETATM   12  C   UNL     1      -9.990  14.830  67.363  1.00  0.00    -0.223 C  
HETATM   13  C   UNL     1     -10.322  13.609  65.175  1.00  0.00    -0.364 C  
HETATM   14  C   UNL     1     -10.636  16.049  66.674  1.00  0.00    -0.297 C  
HETATM   15  O   UNL     1     -11.202  17.021  64.548  1.00  0.00    -1.091 OA 
HETATM   16  O   UNL     1     -11.011  14.744  64.657  1.00  0.00    -0.374 OA 
HETATM   17  C   UNL     1     -10.471  15.960  65.151  1.00  0.00    -0.335 C  
BRANCH  14  18
HETATM   18  O   UNL     1     -10.288  17.311  67.237  1.00  0.00    -0.319 OA 
HETATM   19  S   UNL     1      -8.768  17.861  67.351  1.00  0.00    -0.239 S  
HETATM   20  O   UNL     1      -7.969  16.857  68.012  1.00  0.00    -0.176 OA 
HETATM   21  O   UNL     1      -8.269  17.963  65.827  1.00  0.00    -0.530 OA 
HETATM   22  O   UNL     1      -8.844  19.221  67.834  1.00  0.00    -0.296 OA 
ENDBRANCH  14  18
BRANCH  12  23
HETATM   23  O   UNL     1     -10.161  14.836  68.789  1.00  0.00    -0.227 OA 
HETATM   24  S   UNL     1     -11.620  14.976  69.485  1.00  0.00    -0.333 S  
HETATM   25  O   UNL     1     -12.096  16.322  69.261  1.00  0.00    -0.138 OA 
HETATM   26  O   UNL     1     -11.251  14.896  71.049  1.00  0.00    -0.255 OA 
HETATM   27  O   UNL     1     -12.429  13.828  69.164  1.00  0.00    -0.216 OA 
ENDBRANCH  12  23
ENDBRANCH   9  10
ENDBRANCH   6   9
BRANCH   7  28
HETATM   28  O   UNL     1      -9.854   9.759  65.922  1.00  0.00    -0.248 OA 
HETATM   29  O   UNL     1      -8.126  11.040  64.668  1.00  0.00     0.139 OA 
HETATM   30  O   UNL     1      -9.007   8.992  63.697  1.00  0.00    -0.085 OA 
HETATM   31  S   UNL     1      -8.480   9.691  65.045  1.00  0.00    -0.163 S  
HETATM   32  O   UNL     1      -7.560   8.781  65.683  1.00  0.00    -0.084 OA 
ENDBRANCH   7  28
BRANCH   8  33
HETATM   33  O   UNL     1      -9.365   7.730  67.976  1.00  0.00    -0.141 OA 
HETATM   34  S   UNL     1      -8.180   7.621  69.083  1.00  0.00    -0.131 S  
HETATM   35  O   UNL     1      -7.114   8.521  68.720  1.00  0.00    -0.065 OA 
HETATM   36  O   UNL     1      -8.779   7.593  70.398  1.00  0.00    -0.140 OA 
HETATM   37  O   UNL     1      -7.576   6.166  68.766  1.00  0.00    -0.088 OA 
ENDBRANCH   8  33
TORSDOF 6
ENDMDL
MODEL       73
REMARK 921   NORMALIZED FREE ENERGY PREDICTED BY IDOCK:   -4.53 KCAL/MOL
REMARK 922        TOTAL FREE ENERGY PREDICTED BY IDOCK:   -8.22 KCAL/MOL
REMARK 923 INTER-LIGAND FREE ENERGY PREDICTED BY IDOCK:   -7.75 KCAL/MOL
REMARK 924 INTRA-LIGAND FREE ENERGY PREDICTED BY IDOCK:   -0.47 KCAL/MOL
REMARK 927      BINDING AFFINITY PREDICTED BY RF-SCORE:    0.00 PKD
ROOT
HETATM    1  O   UNL     1      -8.955  14.275  66.218  1.00  0.00    -0.478 OA 
HETATM    2  H   UNL     1      -9.350  14.709  65.473  1.00  0.00     0.000 HD 
HETATM    3  C   UNL     1      -9.702  13.096  66.505  1.00  0.00    -0.268 C  
HETATM    4  C   UNL     1      -9.069  12.402  67.697  1.00  0.00    -0.186 C  
HETATM    5  O   UNL     1      -9.782  11.228  68.027  1.00  0.00    -0.169 OA 
HETATM    6  C   UNL     1      -9.763  10.246  67.009  1.00  0.00    -0.176 C  
HETATM    7  C   UNL     1     -10.344  10.767  65.673  1.00  0.00    -0.230 C  
HETATM    8  C   UNL     1      -9.779  12.158  65.289  1.00  0.00    -0.141 C  
ENDROOT
BRANCH   6   9
HETATM    9  O   UNL     1     -10.562   9.141  67.442  1.00  0.00    -0.272 OA 
BRANCH   9  10
HETATM   10  C   UNL     1      -9.942   7.856  67.303  1.00  0.00    -0.215 C  
HETATM   11  H   UNL     1      -9.310   3.348  68.514  1.00  0.00     0.000 HD 
HETATM   12  C   UNL     1      -9.563   7.326  68.713  1.00  0.00    -0.142 C  
HETATM   13  C   UNL     1     -10.842   6.836  66.588  1.00  0.00    -0.072 C  
HETATM   14  C   UNL     1      -9.052   5.873  68.630  1.00  0.00    -0.115 C  
HETATM   15  O   UNL     1      -9.449   3.713  67.647  1.00  0.00    -0.190 OA 
HETATM   16  O   UNL     1     -10.232   5.549  66.529  1.00  0.00    -0.194 OA 
HETATM   17  C   UNL     1     -10.024   5.003  67.822  1.00  0.00    -0.147 C  
BRANCH  14  18
HETATM   18  O   UNL     1      -8.642   5.309  69.873  1.00  0.00    -0.099 OA 
HETATM   19  S   UNL     1      -7.101   4.978  70.250  1.00  0.00    -0.055 S  
HETATM   20  O   UNL     1      -6.540   4.164  69.197  1.00  0.00    -0.038 OA 
HETATM   21  O   UNL     1      -6.368   6.407  70.209  1.00  0.00    -0.037 OA 
HETATM   22  O   UNL     1      -7.081   4.563  71.633  1.00  0.00    -0.047 OA 
ENDBRANCH  14  18
BRANCH  12  23
HETATM   23  O   UNL     1      -8.663   8.197  69.415  1.00  0.00    -0.140 OA 
HETATM   24  S   UNL     1      -9.040   8.859  70.847  1.00  0.00    -0.249 S  
HETATM   25  O   UNL     1     -10.075   9.843  70.627  1.00  0.00    -0.240 OA 
HETATM   26  O   UNL     1      -7.706   9.693  71.188  1.00  0.00    -0.302 OA 
HETATM   27  O   UNL     1      -9.180   7.828  71.843  1.00  0.00    -0.133 OA 
ENDBRANCH  12  23
ENDBRANCH   9  10
ENDBRANCH   6   9
BRANCH   7  28
HETATM   28  O   UNL     1     -10.028   9.860  64.603  1.00  0.00    -0.254 OA 
HETATM   29  O   UNL     1      -8.407  10.867  63.004  1.00  0.00    -0.121 OA 
HETATM   30  O   UNL     1      -8.514   8.445  63.201  1.00  0.00    -0.134 OA 
HETATM   31  S   UNL     1      -8.508   9.834  64.010  1.00  0.00    -0.200 S  
HETATM   32  O   UNL     1      -7.578   9.703  65.105  1.00  0.00    -0.106 OA 
ENDBRANCH   7  28
BRANCH   8  33
HETATM   33  O   UNL     1     -10.662  12.702  64.293  1.00  0.00    -0.331 OA 
HETATM   34  S   UNL     1     -12.098  13.335  64.717  1.00  0.00    -0.433 S  
HETATM   35  O   UNL     1     -13.063  12.270  64.839  1.00  0.00    -0.654 OA 
HETATM   36  O   UNL     1     -11.879  14.326  65.746  1.00  0.00    -0.355 OA 
HETATM   37  O   UNL     1     -12.530  14.088  63.366  1.00  0.00    -0.826 OA 
ENDBRANCH   8  33
TORSDOF 6
ENDMDL
MODEL       74
REMARK 921   NORMALIZED FREE ENERGY PREDICTED BY IDOCK:   -4.49 KCAL/MOL
REMARK 922        TOTAL FREE ENERGY PREDICTED BY IDOCK:   -8.16 KCAL/MOL
REMARK 923 INTER-LIGAND FREE ENERGY PREDICTED BY IDOCK:   -7.50 KCAL/MOL
REMARK 924 INTRA-LIGAND FREE ENERGY PREDICTED BY IDOCK:   -0.66 KCAL/MOL
REMARK 927      BINDING AFFINITY PREDICTED BY RF-SCORE:    0.00 PKD
ROOT
HETATM    1  O   UNL     1      -9.095   8.951  64.337  1.00  0.00    -0.423 OA 
HETATM    2  H   UNL     1      -8.391   8.489  64.774  1.00  0.00     0.000 HD 
HETATM    3  C   UNL     1      -9.649   9.898  65.246  1.00  0.00    -0.295 C  
HETATM    4  C   UNL     1     -10.775  10.637  64.546  1.00  0.00     0.074 C  
HETATM    5  O   UNL     1     -11.364  11.584  65.412  1.00  0.00    -0.207 OA 
HETATM    6  C   UNL     1     -10.481  12.611  65.818  1.00  0.00    -0.277 C  
HETATM    7  C   UNL     1      -9.225  12.062  66.535  1.00  0.00    -0.216 C  
HETATM    8  C   UNL     1      -8.585  10.874  65.774  1.00  0.00    -0.173 C  
ENDROOT
BRANCH   6   9
HETATM    9  O   UNL     1     -11.179  13.464  66.730  1.00  0.00    -0.296 OA 
BRANCH   9  10
HETATM   10  C   UNL     1     -11.374  14.808  66.271  1.00  0.00    -0.334 C  
HETATM   11  H   UNL     1     -10.235  19.374  66.050  1.00  0.00     0.000 HD 
HETATM   12  C   UNL     1     -11.217  15.777  67.474  1.00  0.00    -0.218 C  
HETATM   13  C   UNL     1     -10.395  15.203  65.154  1.00  0.00    -0.385 C  
HETATM   14  C   UNL     1     -11.244  17.244  67.001  1.00  0.00     0.448 C  
HETATM   15  O   UNL     1     -10.430  18.778  65.336  1.00  0.00    -0.509 OA 
HETATM   16  O   UNL     1     -10.561  16.566  64.769  1.00  0.00    -0.684 OA 
HETATM   17  C   UNL     1     -10.270  17.455  65.835  1.00  0.00    -0.256 C  
BRANCH  14  18
HETATM   18  O   UNL     1     -11.145  18.213  68.042  1.00  0.00    -0.151 OA 
HETATM   19  S   UNL     1      -9.739  18.762  68.634  1.00  0.00    -0.390 S  
HETATM   20  O   UNL     1      -8.935  17.627  69.019  1.00  0.00    -0.170 OA 
HETATM   21  O   UNL     1      -9.028  19.464  67.377  1.00  0.00    -0.290 OA 
HETATM   22  O   UNL     1     -10.054  19.827  69.557  1.00  0.00    -0.338 OA 
ENDBRANCH  14  18
BRANCH  12  23
HETATM   23  O   UNL     1     -12.151  15.513  68.532  1.00  0.00    -0.246 OA 
HETATM   24  S   UNL     1     -11.694  14.881  69.955  1.00  0.00    -0.326 S  
HETATM   25  O   UNL     1     -11.311  13.506  69.732  1.00  0.00    -0.200 OA 
HETATM   26  O   UNL     1     -13.087  14.825  70.757  1.00  0.00    -0.361 OA 
HETATM   27  O   UNL     1     -10.827  15.803  70.644  1.00  0.00    -0.322 OA 
ENDBRANCH  12  23
ENDBRANCH   9  10
ENDBRANCH   6   9
BRANCH   7  28
HETATM   28  O   UNL     1      -8.226  13.091  66.652  1.00  0.00     0.038 OA 
HETATM   29  O   UNL     1      -8.540  14.433  68.726  1.00  0.00    -0.170 OA 
HETATM   30  O   UNL     1      -6.321  14.289  67.743  1.00  0.00    -0.155 OA 
HETATM   31  S   UNL     1      -7.646  13.466  68.131  1.00  0.00    -0.153 S  
HETATM   32  O   UNL     1      -7.235  12.255  68.796  1.00  0.00    -0.106 OA 
ENDBRANCH   7  28
BRANCH   8  33
HETATM   33  O   UNL     1      -7.715  10.208  66.705  1.00  0.00    -0.102 OA 
HETATM   34  S   UNL     1      -6.184   9.847  66.295  1.00  0.00    -0.071 S  
HETATM   35  O   UNL     1      -6.174   8.606  65.562  1.00  0.00    -0.051 OA 
HETATM   36  O   UNL     1      -5.537  11.051  65.824  1.00  0.00    -0.145 OA 
HETATM   37  O   UNL     1      -5.554   9.453  67.720  1.00  0.00    -0.037 OA 
ENDBRANCH   8  33
TORSDOF 6
ENDMDL
MODEL       75
REMARK 921   NORMALIZED FREE ENERGY PREDICTED BY IDOCK:   -4.48 KCAL/MOL
REMARK 922        TOTAL FREE ENERGY PREDICTED BY IDOCK:   -8.16 KCAL/MOL
REMARK 923 INTER-LIGAND FREE ENERGY PREDICTED BY IDOCK:   -8.35 KCAL/MOL
REMARK 924 INTRA-LIGAND FREE ENERGY PREDICTED BY IDOCK:    0.20 KCAL/MOL
REMARK 927      BINDING AFFINITY PREDICTED BY RF-SCORE:    0.00 PKD
ROOT
HETATM    1  O   UNL     1     -12.692  15.255  64.075  1.00  0.00    -0.719 OA 
HETATM    2  H   UNL     1     -12.133  16.002  63.903  1.00  0.00     0.000 HD 
HETATM    3  C   UNL     1     -11.890  14.201  64.603  1.00  0.00    -0.431 C  
HETATM    4  C   UNL     1     -12.785  13.006  64.878  1.00  0.00    -0.390 C  
HETATM    5  O   UNL     1     -12.033  11.929  65.395  1.00  0.00    -0.362 OA 
HETATM    6  C   UNL     1     -11.433  12.203  66.646  1.00  0.00    -0.365 C  
HETATM    7  C   UNL     1     -10.491  13.429  66.595  1.00  0.00    -0.280 C  
HETATM    8  C   UNL     1     -11.136  14.636  65.870  1.00  0.00    -0.338 C  
ENDROOT
BRANCH   6   9
HETATM    9  O   UNL     1     -10.660  11.061  67.029  1.00  0.00    -0.231 OA 
BRANCH   9  10
HETATM   10  C   UNL     1      -9.549  10.770  66.172  1.00  0.00    -0.194 C  
HETATM   11  H   UNL     1      -6.945   7.884  63.510  1.00  0.00     0.000 HD 
HETATM   12  C   UNL     1      -8.903   9.432  66.624  1.00  0.00    -0.135 C  
HETATM   13  C   UNL     1      -9.947  10.680  64.690  1.00  0.00    -0.337 C  
HETATM   14  C   UNL     1      -7.813   8.987  65.628  1.00  0.00    -0.102 C  
HETATM   15  O   UNL     1      -7.275   8.750  63.295  1.00  0.00    -0.093 OA 
HETATM   16  O   UNL     1      -8.839  10.316  63.870  1.00  0.00    -0.184 OA 
HETATM   17  C   UNL     1      -8.347   9.025  64.190  1.00  0.00    -0.173 C  
BRANCH  14  18
HETATM   18  O   UNL     1      -7.134   7.784  65.979  1.00  0.00    -0.063 OA 
HETATM   19  S   UNL     1      -7.702   6.300  65.661  1.00  0.00    -0.098 S  
HETATM   20  O   UNL     1      -9.046   6.207  66.181  1.00  0.00    -0.154 OA 
HETATM   21  O   UNL     1      -7.791   6.246  64.058  1.00  0.00    -0.109 OA 
HETATM   22  O   UNL     1      -6.669   5.361  66.032  1.00  0.00    -0.053 OA 
ENDBRANCH  14  18
BRANCH  12  23
HETATM   23  O   UNL     1      -8.440   9.465  67.983  1.00  0.00    -0.119 OA 
HETATM   24  S   UNL     1      -9.162   8.621  69.165  1.00  0.00    -0.153 S  
HETATM   25  O   UNL     1     -10.451   9.221  69.421  1.00  0.00    -0.208 OA 
HETATM   26  O   UNL     1      -8.248   8.983  70.439  1.00  0.00    -0.115 OA 
HETATM   27  O   UNL     1      -9.025   7.209  68.914  1.00  0.00    -0.131 OA 
ENDBRANCH  12  23
ENDBRANCH   9  10
ENDBRANCH   6   9
BRANCH   7  28
HETATM   28  O   UNL     1     -10.151  13.854  67.927  1.00  0.00    -0.232 OA 
HETATM   29  O   UNL     1      -8.138  12.660  68.776  1.00  0.00    -0.043 OA 
HETATM   30  O   UNL     1      -8.674  14.853  69.681  1.00  0.00    -0.058 OA 
HETATM   31  S   UNL     1      -8.577  13.967  68.343  1.00  0.00    -0.146 S  
HETATM   32  O   UNL     1      -7.881  14.745  67.348  1.00  0.00    -0.173 OA 
ENDBRANCH   7  28
BRANCH   8  33
HETATM   33  O   UNL     1     -10.064  15.533  65.529  1.00  0.00    -0.347 OA 
HETATM   34  S   UNL     1     -10.161  17.114  65.893  1.00  0.00    -0.210 S  
HETATM   35  O   UNL     1     -10.911  17.788  64.862  1.00  0.00    -0.866 OA 
HETATM   36  O   UNL     1     -10.457  17.246  67.302  1.00  0.00    -0.334 OA 
HETATM   37  O   UNL     1      -8.649  17.596  65.641  1.00  0.00    -0.410 OA 
ENDBRANCH   8  33
TORSDOF 6
ENDMDL
MODEL       76
REMARK 921   NORMALIZED FREE ENERGY PREDICTED BY IDOCK:   -4.40 KCAL/MOL
REMARK 922        TOTAL FREE ENERGY PREDICTED BY IDOCK:   -8.04 KCAL/MOL
REMARK 923 INTER-LIGAND FREE ENERGY PREDICTED BY IDOCK:   -9.29 KCAL/MOL
REMARK 924 INTRA-LIGAND FREE ENERGY PREDICTED BY IDOCK:    1.25 KCAL/MOL
REMARK 927      BINDING AFFINITY PREDICTED BY RF-SCORE:    0.00 PKD
ROOT
HETATM    1  O   UNL     1      -8.378   8.160  65.468  1.00  0.00    -0.138 OA 
HETATM    2  H   UNL     1      -8.014   7.576  66.122  1.00  0.00     0.000 HD 
HETATM    3  C   UNL     1      -9.413   8.931  66.074  1.00  0.00    -0.252 C  
HETATM    4  C   UNL     1      -9.993   9.865  65.028  1.00  0.00    -0.165 C  
HETATM    5  O   UNL     1     -11.032  10.646  65.579  1.00  0.00    -0.004 OA 
HETATM    6  C   UNL     1     -10.606  11.512  66.613  1.00  0.00    -0.253 C  
HETATM    7  C   UNL     1      -9.942  10.751  67.786  1.00  0.00    -0.171 C  
HETATM    8  C   UNL     1      -8.904   9.710  67.298  1.00  0.00    -0.132 C  
ENDROOT
BRANCH   6   9
HETATM    9  O   UNL     1     -11.755  12.198  67.120  1.00  0.00    -0.465 OA 
BRANCH   9  10
HETATM   10  C   UNL     1     -12.055  13.438  66.465  1.00  0.00    -0.388 C  
HETATM   11  H   UNL     1     -11.053  16.982  63.527  1.00  0.00     0.000 HD 
HETATM   12  C   UNL     1     -10.799  14.350  66.517  1.00  0.00    -0.310 C  
HETATM   13  C   UNL     1     -12.498  13.247  65.006  1.00  0.00    -0.443 C  
HETATM   14  C   UNL     1     -11.014  15.624  65.675  1.00  0.00    -0.272 C  
HETATM   15  O   UNL     1     -11.850  16.467  63.582  1.00  0.00    -0.871 OA 
HETATM   16  O   UNL     1     -12.718  14.497  64.356  1.00  0.00    -0.655 OA 
HETATM   17  C   UNL     1     -11.528  15.266  64.274  1.00  0.00    -0.153 C  
BRANCH  14  18
HETATM   18  O   UNL     1      -9.927  16.545  65.691  1.00  0.00    -0.497 OA 
HETATM   19  S   UNL     1     -10.092  18.129  65.995  1.00  0.00    -0.192 S  
HETATM   20  O   UNL     1     -11.098  18.661  65.107  1.00  0.00    -0.449 OA 
HETATM   21  O   UNL     1     -10.675  18.187  67.491  1.00  0.00    -0.412 OA 
HETATM   22  O   UNL     1      -8.761  18.688  66.068  1.00  0.00    -0.491 OA 
ENDBRANCH  14  18
BRANCH  12  23
HETATM   23  O   UNL     1     -10.367  14.631  67.857  1.00  0.00    -0.234 OA 
HETATM   24  S   UNL     1     -11.414  14.837  69.079  1.00  0.00    -0.311 S  
HETATM   25  O   UNL     1     -12.108  16.087  68.870  1.00  0.00    -0.283 OA 
HETATM   26  O   UNL     1     -10.426  15.086  70.325  1.00  0.00    -0.162 OA 
HETATM   27  O   UNL     1     -12.129  13.610  69.325  1.00  0.00    -0.334 OA 
ENDBRANCH  12  23
ENDBRANCH   9  10
ENDBRANCH   6   9
BRANCH   7  28
HETATM   28  O   UNL     1      -9.258  11.671  68.655  1.00  0.00    -0.179 OA 
HETATM   29  O   UNL     1      -6.789  11.376  68.531  1.00  0.00    -0.064 OA 
HETATM   30  O   UNL     1      -7.684  13.539  69.193  1.00  0.00     0.046 OA 
HETATM   31  S   UNL     1      -7.835  12.306  68.172  1.00  0.00    -0.157 S  
HETATM   32  O   UNL     1      -7.988  12.850  66.844  1.00  0.00    -0.071 OA 
ENDBRANCH   7  28
BRANCH   8  33
HETATM   33  O   UNL     1      -8.669   8.814  68.398  1.00  0.00    -0.133 OA 
HETATM   34  S   UNL     1      -9.819   7.769  68.874  1.00  0.00    -0.170 S  
HETATM   35  O   UNL     1     -10.734   8.447  69.759  1.00  0.00    -0.229 OA 
HETATM   36  O   UNL     1     -10.250   7.003  67.726  1.00  0.00    -0.157 OA 
HETATM   37  O   UNL     1      -8.989   6.801  69.852  1.00  0.00    -0.144 OA 
ENDBRANCH   8  33
TORSDOF 6
ENDMDL
MODEL       77
REMARK 921   NORMALIZED FREE ENERGY PREDICTED BY IDOCK:   -4.40 KCAL/MOL
REMARK 922        TOTAL FREE ENERGY PREDICTED BY IDOCK:   -8.04 KCAL/MOL
REMARK 923 INTER-LIGAND FREE ENERGY PREDICTED BY IDOCK:   -7.36 KCAL/MOL
REMARK 924 INTRA-LIGAND FREE ENERGY PREDICTED BY IDOCK:   -0.68 KCAL/MOL
REMARK 927      BINDING AFFINITY PREDICTED BY RF-SCORE:    0.00 PKD
ROOT
HETATM    1  O   UNL     1      -9.685   6.429  73.583  1.00  0.00    -0.155 OA 
HETATM    2  H   UNL     1      -9.024   5.752  73.504  1.00  0.00     0.000 HD 
HETATM    3  C   UNL     1      -9.666   7.219  72.397  1.00  0.00    -0.154 C  
HETATM    4  C   UNL     1     -10.723   8.302  72.523  1.00  0.00    -0.341 C  
HETATM    5  O   UNL     1     -10.737   9.120  71.373  1.00  0.00    -0.290 OA 
HETATM    6  C   UNL     1     -11.093   8.432  70.189  1.00  0.00    -0.182 C  
HETATM    7  C   UNL     1     -10.146   7.245  69.888  1.00  0.00    -0.194 C  
HETATM    8  C   UNL     1      -9.890   6.366  71.138  1.00  0.00    -0.179 C  
ENDROOT
BRANCH   6   9
HETATM    9  O   UNL     1     -11.015   9.353  69.097  1.00  0.00    -0.192 OA 
BRANCH   9  10
HETATM   10  C   UNL     1     -10.931  10.733  69.477  1.00  0.00    -0.266 C  
HETATM   11  H   UNL     1     -11.725  15.327  68.800  1.00  0.00     0.000 HD 
HETATM   12  C   UNL     1     -10.504  11.569  68.239  1.00  0.00    -0.197 C  
HETATM   13  C   UNL     1     -12.253  11.277  70.040  1.00  0.00    -0.314 C  
HETATM   14  C   UNL     1     -10.569  13.078  68.550  1.00  0.00    -0.258 C  
HETATM   15  O   UNL     1     -11.888  14.807  69.579  1.00  0.00    -0.293 OA 
HETATM   16  O   UNL     1     -12.164  12.667  70.339  1.00  0.00    -0.349 OA 
HETATM   17  C   UNL     1     -11.922  13.443  69.176  1.00  0.00    -0.317 C  
BRANCH  14  18
HETATM   18  O   UNL     1     -10.158  13.929  67.484  1.00  0.00    -0.239 OA 
HETATM   19  S   UNL     1     -10.855  13.946  66.021  1.00  0.00    -0.294 S  
HETATM   20  O   UNL     1     -10.879  12.595  65.513  1.00  0.00    -0.270 OA 
HETATM   21  O   UNL     1     -12.372  14.389  66.311  1.00  0.00    -0.409 OA 
HETATM   22  O   UNL     1     -10.260  15.034  65.280  1.00  0.00    -0.361 OA 
ENDBRANCH  14  18
BRANCH  12  23
HETATM   23  O   UNL     1      -9.237  11.163  67.700  1.00  0.00    -0.148 OA 
HETATM   24  S   UNL     1      -7.874  11.186  68.579  1.00  0.00    -0.143 S  
HETATM   25  O   UNL     1      -7.514  12.566  68.810  1.00  0.00    -0.108 OA 
HETATM   26  O   UNL     1      -6.792  10.620  67.530  1.00  0.00    -0.076 OA 
HETATM   27  O   UNL     1      -7.972  10.242  69.662  1.00  0.00    -0.160 OA 
ENDBRANCH  12  23
ENDBRANCH   9  10
ENDBRANCH   6   9
BRANCH   7  28
HETATM   28  O   UNL     1     -10.712   6.400  68.871  1.00  0.00    -0.228 OA 
HETATM   29  O   UNL     1     -10.464   7.407  66.608  1.00  0.00    -0.254 OA 
HETATM   30  O   UNL     1     -10.660   4.992  66.805  1.00  0.00    -0.252 OA 
HETATM   31  S   UNL     1      -9.978   6.313  67.416  1.00  0.00    -0.155 S  
HETATM   32  O   UNL     1      -8.576   6.035  67.612  1.00  0.00    -0.108 OA 
ENDBRANCH   7  28
BRANCH   8  33
HETATM   33  O   UNL     1      -8.721   5.578  70.855  1.00  0.00    -0.131 OA 
HETATM   34  S   UNL     1      -8.739   3.966  71.061  1.00  0.00    -0.084 S  
HETATM   35  O   UNL     1      -8.476   3.666  72.447  1.00  0.00    -0.083 OA 
HETATM   36  O   UNL     1      -9.863   3.421  70.332  1.00  0.00    -0.137 OA 
HETATM   37  O   UNL     1      -7.385   3.530  70.312  1.00  0.00    -0.041 OA 
ENDBRANCH   8  33
TORSDOF 6
ENDMDL
MODEL       78
REMARK 921   NORMALIZED FREE ENERGY PREDICTED BY IDOCK:   -4.38 KCAL/MOL
REMARK 922        TOTAL FREE ENERGY PREDICTED BY IDOCK:   -8.02 KCAL/MOL
REMARK 923 INTER-LIGAND FREE ENERGY PREDICTED BY IDOCK:   -9.10 KCAL/MOL
REMARK 924 INTRA-LIGAND FREE ENERGY PREDICTED BY IDOCK:    1.08 KCAL/MOL
REMARK 927      BINDING AFFINITY PREDICTED BY RF-SCORE:    0.00 PKD
ROOT
HETATM    1  O   UNL     1      -6.079   9.349  66.569  1.00  0.00    -0.061 OA 
HETATM    2  H   UNL     1      -6.308   9.008  65.712  1.00  0.00     0.000 HD 
HETATM    3  C   UNL     1      -6.627  10.658  66.697  1.00  0.00    -0.101 C  
HETATM    4  C   UNL     1      -6.261  11.202  68.066  1.00  0.00    -0.049 C  
HETATM    5  O   UNL     1      -6.775  12.505  68.238  1.00  0.00    -0.067 OA 
HETATM    6  C   UNL     1      -8.188  12.568  68.211  1.00  0.00    -0.168 C  
HETATM    7  C   UNL     1      -8.779  12.020  66.890  1.00  0.00    -0.193 C  
HETATM    8  C   UNL     1      -8.149  10.665  66.482  1.00  0.00    -0.140 C  
ENDROOT
BRANCH   6   9
HETATM    9  O   UNL     1      -8.575  13.940  68.338  1.00  0.00    -0.171 OA 
BRANCH   9  10
HETATM   10  C   UNL     1      -8.157  14.787  67.260  1.00  0.00    -0.207 C  
HETATM   11  H   UNL     1      -7.501  18.992  65.239  1.00  0.00     0.000 HD 
HETATM   12  C   UNL     1      -9.239  15.878  67.030  1.00  0.00    -0.214 C  
HETATM   13  C   UNL     1      -6.796  15.453  67.519  1.00  0.00    -0.194 C  
HETATM   14  C   UNL     1      -8.757  16.918  65.999  1.00  0.00    -0.158 C  
HETATM   15  O   UNL     1      -6.889  18.269  65.312  1.00  0.00    -0.505 OA 
HETATM   16  O   UNL     1      -6.440  16.346  66.467  1.00  0.00    -0.255 OA 
HETATM   17  C   UNL     1      -7.354  17.426  66.359  1.00  0.00    -0.305 C  
BRANCH  14  18
HETATM   18  O   UNL     1      -9.699  17.941  65.691  1.00  0.00    -0.487 OA 
HETATM   19  S   UNL     1     -10.164  19.086  66.741  1.00  0.00    -0.428 S  
HETATM   20  O   UNL     1     -10.606  18.439  67.953  1.00  0.00    -0.394 OA 
HETATM   21  O   UNL     1      -8.813  19.887  67.076  1.00  0.00    -0.308 OA 
HETATM   22  O   UNL     1     -11.003  20.011  66.016  1.00  0.00    -0.270 OA 
ENDBRANCH  14  18
BRANCH  12  23
HETATM   23  O   UNL     1     -10.527  15.329  66.711  1.00  0.00    -0.281 OA 
HETATM   24  S   UNL     1     -10.971  14.991  65.188  1.00  0.00    -0.430 S  
HETATM   25  O   UNL     1     -11.152  16.241  64.486  1.00  0.00    -0.672 OA 
HETATM   26  O   UNL     1     -12.448  14.388  65.399  1.00  0.00    -0.407 OA 
HETATM   27  O   UNL     1     -10.140  13.941  64.656  1.00  0.00    -0.357 OA 
ENDBRANCH  12  23
ENDBRANCH   9  10
ENDBRANCH   6   9
BRANCH   7  28
HETATM   28  O   UNL     1     -10.197  11.817  67.024  1.00  0.00    -0.210 OA 
HETATM   29  O   UNL     1     -10.750   9.405  67.291  1.00  0.00    -0.267 OA 
HETATM   30  O   UNL     1     -12.281  11.068  68.185  1.00  0.00    -0.578 OA 
HETATM   31  S   UNL     1     -10.738  10.649  68.026  1.00  0.00    -0.255 S  
HETATM   32  O   UNL     1     -10.104  10.802  69.312  1.00  0.00    -0.218 OA 
ENDBRANCH   7  28
BRANCH   8  33
HETATM   33  O   UNL     1      -8.458  10.469  65.091  1.00  0.00    -0.169 OA 
HETATM   34  S   UNL     1      -8.042   9.091  64.337  1.00  0.00    -0.153 S  
HETATM   35  O   UNL     1      -6.668   9.186  63.909  1.00  0.00    -0.088 OA 
HETATM   36  O   UNL     1      -8.559   7.975  65.097  1.00  0.00    -0.139 OA 
HETATM   37  O   UNL     1      -8.877   9.208  62.969  1.00  0.00    -0.201 OA 
ENDBRANCH   8  33
TORSDOF 6
ENDMDL
MODEL       79
REMARK 921   NORMALIZED FREE ENERGY PREDICTED BY IDOCK:   -4.37 KCAL/MOL
REMARK 922        TOTAL FREE ENERGY PREDICTED BY IDOCK:   -8.00 KCAL/MOL
REMARK 923 INTER-LIGAND FREE ENERGY PREDICTED BY IDOCK:   -8.57 KCAL/MOL
REMARK 924 INTRA-LIGAND FREE ENERGY PREDICTED BY IDOCK:    0.57 KCAL/MOL
REMARK 927      BINDING AFFINITY PREDICTED BY RF-SCORE:    0.00 PKD
ROOT
HETATM    1  O   UNL     1      -7.752   8.482  66.462  1.00  0.00    -0.090 OA 
HETATM    2  H   UNL     1      -7.561   8.510  65.532  1.00  0.00     0.000 HD 
HETATM    3  C   UNL     1      -8.223   9.764  66.867  1.00  0.00    -0.117 C  
HETATM    4  C   UNL     1      -8.528   9.718  68.353  1.00  0.00    -0.114 C  
HETATM    5  O   UNL     1      -8.992  10.972  68.806  1.00  0.00    -0.165 OA 
HETATM    6  C   UNL     1     -10.214  11.374  68.218  1.00  0.00    -0.193 C  
HETATM    7  C   UNL     1     -10.130  11.453  66.674  1.00  0.00    -0.212 C  
HETATM    8  C   UNL     1      -9.455  10.202  66.057  1.00  0.00    -0.197 C  
ENDROOT
BRANCH   6   9
HETATM    9  O   UNL     1     -10.540  12.675  68.714  1.00  0.00    -0.237 OA 
BRANCH   9  10
HETATM   10  C   UNL     1      -9.881  13.759  68.046  1.00  0.00    -0.239 C  
HETATM   11  H   UNL     1      -7.101  17.561  67.954  1.00  0.00     0.000 HD 
HETATM   12  C   UNL     1     -10.059  15.051  68.891  1.00  0.00    -0.234 C  
HETATM   13  C   UNL     1      -8.386  13.493  67.813  1.00  0.00    -0.181 C  
HETATM   14  C   UNL     1      -9.221  16.205  68.305  1.00  0.00    -0.197 C  
HETATM   15  O   UNL     1      -7.077  16.797  67.388  1.00  0.00    -0.136 OA 
HETATM   16  O   UNL     1      -7.740  14.615  67.216  1.00  0.00    -0.194 OA 
HETATM   17  C   UNL     1      -7.775  15.754  68.060  1.00  0.00    -0.129 C  
BRANCH  14  18
HETATM   18  O   UNL     1      -9.348  17.448  68.991  1.00  0.00    -0.214 OA 
HETATM   19  S   UNL     1      -9.759  18.840  68.269  1.00  0.00    -0.384 S  
HETATM   20  O   UNL     1      -8.873  19.051  67.149  1.00  0.00    -0.280 OA 
HETATM   21  O   UNL     1     -11.230  18.564  67.686  1.00  0.00    -0.126 OA 
HETATM   22  O   UNL     1      -9.926  19.826  69.312  1.00  0.00    -0.412 OA 
ENDBRANCH  14  18
BRANCH  12  23
HETATM   23  O   UNL     1     -11.436  15.404  69.091  1.00  0.00    -0.289 OA 
HETATM   24  S   UNL     1     -12.180  15.212  70.520  1.00  0.00    -0.371 S  
HETATM   25  O   UNL     1     -12.343  13.795  70.753  1.00  0.00    -0.343 OA 
HETATM   26  O   UNL     1     -13.654  15.777  70.205  1.00  0.00    -0.052 OA 
HETATM   27  O   UNL     1     -11.580  16.073  71.506  1.00  0.00    -0.425 OA 
ENDBRANCH  12  23
ENDBRANCH   9  10
ENDBRANCH   6   9
BRANCH   7  28
HETATM   28  O   UNL     1     -11.447  11.559  66.107  1.00  0.00    -0.308 OA 
HETATM   29  O   UNL     1     -12.249  13.916  66.102  1.00  0.00    -0.423 OA 
HETATM   30  O   UNL     1     -13.150  12.365  64.462  1.00  0.00    -0.823 OA 
HETATM   31  S   UNL     1     -11.818  12.868  65.206  1.00  0.00    -0.418 S  
HETATM   32  O   UNL     1     -10.796  13.054  64.205  1.00  0.00    -0.378 OA 
ENDBRANCH   7  28
BRANCH   8  33
HETATM   33  O   UNL     1      -9.071  10.559  64.718  1.00  0.00    -0.187 OA 
HETATM   34  S   UNL     1      -8.025   9.638  63.883  1.00  0.00    -0.155 S  
HETATM   35  O   UNL     1      -6.679  10.003  64.252  1.00  0.00    -0.123 OA 
HETATM   36  O   UNL     1      -8.505   8.274  63.889  1.00  0.00    -0.080 OA 
HETATM   37  O   UNL     1      -8.187  10.230  62.399  1.00  0.00    -0.139 OA 
ENDBRANCH   8  33
TORSDOF 6
ENDMDL
MODEL       80
REMARK 921   NORMALIZED FREE ENERGY PREDICTED BY IDOCK:   -4.36 KCAL/MOL
REMARK 922        TOTAL FREE ENERGY PREDICTED BY IDOCK:   -7.99 KCAL/MOL
REMARK 923 INTER-LIGAND FREE ENERGY PREDICTED BY IDOCK:   -8.74 KCAL/MOL
REMARK 924 INTRA-LIGAND FREE ENERGY PREDICTED BY IDOCK:    0.76 KCAL/MOL
REMARK 927      BINDING AFFINITY PREDICTED BY RF-SCORE:    0.00 PKD
ROOT
HETATM    1  O   UNL     1     -10.171  19.186  68.965  1.00  0.00    -0.537 OA 
HETATM    2  H   UNL     1      -9.714  19.825  68.432  1.00  0.00     0.000 HD 
HETATM    3  C   UNL     1     -10.501  18.066  68.148  1.00  0.00    -0.361 C  
HETATM    4  C   UNL     1     -11.231  17.045  69.001  1.00  0.00     0.165 C  
HETATM    5  O   UNL     1     -11.589  15.917  68.232  1.00  0.00    -0.355 OA 
HETATM    6  C   UNL     1     -10.482  15.204  67.717  1.00  0.00    -0.247 C  
HETATM    7  C   UNL     1      -9.571  16.086  66.829  1.00  0.00    -0.232 C  
HETATM    8  C   UNL     1      -9.256  17.453  67.486  1.00  0.00    -0.233 C  
ENDROOT
BRANCH   6   9
HETATM    9  O   UNL     1     -10.979  14.128  66.915  1.00  0.00    -0.293 OA 
BRANCH   9  10
HETATM   10  C   UNL     1     -10.756  12.819  67.457  1.00  0.00    -0.229 C  
HETATM   11  H   UNL     1      -8.422   8.737  67.738  1.00  0.00     0.000 HD 
HETATM   12  C   UNL     1     -10.481  11.833  66.288  1.00  0.00    -0.244 C  
HETATM   13  C   UNL     1      -9.588  12.780  68.455  1.00  0.00    -0.175 C  
HETATM   14  C   UNL     1     -10.063  10.451  66.828  1.00  0.00    -0.214 C  
HETATM   15  O   UNL     1      -8.688   9.315  68.443  1.00  0.00    -0.127 OA 
HETATM   16  O   UNL     1      -9.340  11.455  68.920  1.00  0.00    -0.142 OA 
HETATM   17  C   UNL     1      -8.943  10.592  67.867  1.00  0.00    -0.137 C  
BRANCH  14  18
HETATM   18  O   UNL     1      -9.826   9.462  65.829  1.00  0.00    -0.297 OA 
HETATM   19  S   UNL     1      -8.440   9.333  64.998  1.00  0.00    -0.173 S  
HETATM   20  O   UNL     1      -8.137  10.619  64.417  1.00  0.00    -0.089 OA 
HETATM   21  O   UNL     1      -7.333   9.027  66.120  1.00  0.00    -0.088 OA 
HETATM   22  O   UNL     1      -8.535   8.133  64.198  1.00  0.00    -0.069 OA 
ENDBRANCH  14  18
BRANCH  12  23
HETATM   23  O   UNL     1     -11.565  11.763  65.349  1.00  0.00    -0.256 OA 
HETATM   24  S   UNL     1     -11.468  12.413  63.866  1.00  0.00    -0.480 S  
HETATM   25  O   UNL     1     -11.471  13.852  64.006  1.00  0.00    -0.304 OA 
HETATM   26  O   UNL     1     -12.901  12.030  63.241  1.00  0.00    -0.732 OA 
HETATM   27  O   UNL     1     -10.458  11.734  63.097  1.00  0.00    -0.378 OA 
ENDBRANCH  12  23
ENDBRANCH   9  10
ENDBRANCH   6   9
BRANCH   7  28
HETATM   28  O   UNL     1      -8.318  15.423  66.584  1.00  0.00    -0.258 OA 
HETATM   29  O   UNL     1      -6.389  16.842  67.266  1.00  0.00    -0.138 OA 
HETATM   30  O   UNL     1      -6.116  14.426  67.227  1.00  0.00    -0.300 OA 
HETATM   31  S   UNL     1      -7.092  15.636  67.639  1.00  0.00    -0.185 S  
HETATM   32  O   UNL     1      -7.571  15.381  68.976  1.00  0.00    -0.146 OA 
ENDBRANCH   7  28
BRANCH   8  33
HETATM   33  O   UNL     1      -8.773  18.313  66.439  1.00  0.00    -0.313 OA 
HETATM   34  S   UNL     1      -8.375  19.857  66.753  1.00  0.00    -0.333 S  
HETATM   35  O   UNL     1      -9.568  20.666  66.721  1.00  0.00    -0.350 OA 
HETATM   36  O   UNL     1      -7.434  19.876  67.851  1.00  0.00    -0.280 OA 
HETATM   37  O   UNL     1      -7.598  20.269  65.408  1.00  0.00    -0.213 OA 
ENDBRANCH   8  33
TORSDOF 6
ENDMDL
MODEL       81
REMARK 921   NORMALIZED FREE ENERGY PREDICTED BY IDOCK:   -4.35 KCAL/MOL
REMARK 922        TOTAL FREE ENERGY PREDICTED BY IDOCK:   -7.97 KCAL/MOL
REMARK 923 INTER-LIGAND FREE ENERGY PREDICTED BY IDOCK:   -6.78 KCAL/MOL
REMARK 924 INTRA-LIGAND FREE ENERGY PREDICTED BY IDOCK:   -1.20 KCAL/MOL
REMARK 927      BINDING AFFINITY PREDICTED BY RF-SCORE:    0.00 PKD
ROOT
HETATM    1  O   UNL     1      -5.689   9.072  65.947  1.00  0.00    -0.048 OA 
HETATM    2  H   UNL     1      -5.778   9.163  65.006  1.00  0.00     0.000 HD 
HETATM    3  C   UNL     1      -6.160  10.268  66.564  1.00  0.00    -0.071 C  
HETATM    4  C   UNL     1      -6.018  10.122  68.068  1.00  0.00    -0.041 C  
HETATM    5  O   UNL     1      -6.464  11.288  68.726  1.00  0.00    -0.051 OA 
HETATM    6  C   UNL     1      -7.839  11.559  68.536  1.00  0.00    -0.140 C  
HETATM    7  C   UNL     1      -8.211  11.713  67.041  1.00  0.00    -0.170 C  
HETATM    8  C   UNL     1      -7.611  10.583  66.167  1.00  0.00    -0.135 C  
ENDROOT
BRANCH   6   9
HETATM    9  O   UNL     1      -8.147  12.788  69.201  1.00  0.00     0.264 OA 
BRANCH   9  10
HETATM   10  C   UNL     1      -7.590  13.960  68.592  1.00  0.00    -0.130 C  
HETATM   11  H   UNL     1      -6.788  18.597  68.373  1.00  0.00     0.000 HD 
HETATM   12  C   UNL     1      -8.665  15.081  68.585  1.00  0.00    -0.176 C  
HETATM   13  C   UNL     1      -6.325  14.458  69.308  1.00  0.00    -0.115 C  
HETATM   14  C   UNL     1      -8.060  16.414  68.100  1.00  0.00    -0.165 C  
HETATM   15  O   UNL     1      -6.165  17.885  68.286  1.00  0.00    -0.172 OA 
HETATM   16  O   UNL     1      -5.834  15.665  68.729  1.00  0.00    -0.098 OA 
HETATM   17  C   UNL     1      -6.764  16.729  68.860  1.00  0.00    -0.195 C  
BRANCH  14  18
HETATM   18  O   UNL     1      -8.981  17.499  68.022  1.00  0.00    -0.245 OA 
HETATM   19  S   UNL     1      -9.415  18.217  66.635  1.00  0.00    -0.315 S  
HETATM   20  O   UNL     1      -8.217  18.614  65.935  1.00  0.00    -0.488 OA 
HETATM   21  O   UNL     1     -10.117  17.048  65.787  1.00  0.00    -0.516 OA 
HETATM   22  O   UNL     1     -10.464  19.158  66.954  1.00  0.00    -0.384 OA 
ENDBRANCH  14  18
BRANCH  12  23
HETATM   23  O   UNL     1      -9.853  14.713  67.869  1.00  0.00    -0.213 OA 
HETATM   24  S   UNL     1     -11.307  14.638  68.585  1.00  0.00    -0.300 S  
HETATM   25  O   UNL     1     -11.306  13.507  69.485  1.00  0.00    -0.257 OA 
HETATM   26  O   UNL     1     -12.261  14.221  67.357  1.00  0.00    -0.378 OA 
HETATM   27  O   UNL     1     -11.706  15.950  69.024  1.00  0.00    -0.385 OA 
ENDBRANCH  12  23
ENDBRANCH   9  10
ENDBRANCH   6   9
BRANCH   7  28
HETATM   28  O   UNL     1      -9.639  11.678  66.875  1.00  0.00    -0.182 OA 
HETATM   29  O   UNL     1     -10.494   9.340  66.838  1.00  0.00    -0.248 OA 
HETATM   30  O   UNL     1     -11.987  11.127  67.540  1.00  0.00    -0.580 OA 
HETATM   31  S   UNL     1     -10.498  10.531  67.656  1.00  0.00    -0.253 S  
HETATM   32  O   UNL     1     -10.130  10.534  69.050  1.00  0.00    -0.197 OA 
ENDBRANCH   7  28
BRANCH   8  33
HETATM   33  O   UNL     1      -7.669  11.040  64.805  1.00  0.00     0.248 OA 
HETATM   34  S   UNL     1      -8.250  10.077  63.632  1.00  0.00    -0.169 S  
HETATM   35  O   UNL     1      -7.200   9.199  63.181  1.00  0.00    -0.092 OA 
HETATM   36  O   UNL     1      -9.560   9.608  64.028  1.00  0.00    -0.106 OA 
HETATM   37  O   UNL     1      -8.425  11.117  62.420  1.00  0.00    -0.272 OA 
ENDBRANCH   8  33
TORSDOF 6
ENDMDL
MODEL       82
REMARK 921   NORMALIZED FREE ENERGY PREDICTED BY IDOCK:   -4.35 KCAL/MOL
REMARK 922        TOTAL FREE ENERGY PREDICTED BY IDOCK:   -7.97 KCAL/MOL
REMARK 923 INTER-LIGAND FREE ENERGY PREDICTED BY IDOCK:   -7.58 KCAL/MOL
REMARK 924 INTRA-LIGAND FREE ENERGY PREDICTED BY IDOCK:   -0.39 KCAL/MOL
REMARK 927      BINDING AFFINITY PREDICTED BY RF-SCORE:    0.00 PKD
ROOT
HETATM    1  O   UNL     1      -8.896   8.738  63.905  1.00  0.00    -0.426 OA 
HETATM    2  H   UNL     1      -8.993   7.838  64.191  1.00  0.00     0.000 HD 
HETATM    3  C   UNL     1      -9.784   9.552  64.667  1.00  0.00     0.172 C  
HETATM    4  C   UNL     1      -9.629  10.992  64.209  1.00  0.00    -0.262 C  
HETATM    5  O   UNL     1     -10.496  11.840  64.931  1.00  0.00    -0.262 OA 
HETATM    6  C   UNL     1     -10.222  11.890  66.317  1.00  0.00    -0.216 C  
HETATM    7  C   UNL     1     -10.294  10.495  66.985  1.00  0.00    -0.237 C  
HETATM    8  C   UNL     1      -9.531   9.416  66.177  1.00  0.00    -0.226 C  
ENDROOT
BRANCH   6   9
HETATM    9  O   UNL     1     -11.200  12.732  66.935  1.00  0.00    -0.270 OA 
BRANCH   9  10
HETATM   10  C   UNL     1     -10.955  14.138  66.804  1.00  0.00    -0.300 C  
HETATM   11  H   UNL     1      -8.134  17.905  66.603  1.00  0.00     0.000 HD 
HETATM   12  C   UNL     1      -9.916  14.568  67.875  1.00  0.00    -0.226 C  
HETATM   13  C   UNL     1     -10.451  14.526  65.405  1.00  0.00    -0.380 C  
HETATM   14  C   UNL     1      -9.488  16.034  67.663  1.00  0.00    -0.216 C  
HETATM   15  O   UNL     1      -8.841  17.664  66.015  1.00  0.00    -0.502 OA 
HETATM   16  O   UNL     1     -10.144  15.916  65.325  1.00  0.00    -0.433 OA 
HETATM   17  C   UNL     1      -9.088  16.275  66.201  1.00  0.00    -0.341 C  
BRANCH  14  18
HETATM   18  O   UNL     1      -8.562  16.535  68.623  1.00  0.00    -0.221 OA 
HETATM   19  S   UNL     1      -7.074  15.931  68.843  1.00  0.00    -0.160 S  
HETATM   20  O   UNL     1      -7.188  14.507  69.052  1.00  0.00    -0.118 OA 
HETATM   21  O   UNL     1      -6.340  16.163  67.434  1.00  0.00    -0.153 OA 
HETATM   22  O   UNL     1      -6.401  16.792  69.787  1.00  0.00    -0.227 OA 
ENDBRANCH  14  18
BRANCH  12  23
HETATM   23  O   UNL     1     -10.351  14.301  69.217  1.00  0.00    -0.176 OA 
HETATM   24  S   UNL     1     -11.669  14.999  69.855  1.00  0.00    -0.330 S  
HETATM   25  O   UNL     1     -11.380  16.400  70.057  1.00  0.00    -0.312 OA 
HETATM   26  O   UNL     1     -11.714  14.343  71.323  1.00  0.00    -0.289 OA 
HETATM   27  O   UNL     1     -12.846  14.568  69.144  1.00  0.00     0.218 OA 
ENDBRANCH  12  23
ENDBRANCH   9  10
ENDBRANCH   6   9
BRANCH   7  28
HETATM   28  O   UNL     1      -9.716  10.542  68.302  1.00  0.00    -0.147 OA 
HETATM   29  O   UNL     1     -11.426  11.087  70.027  1.00  0.00    -0.285 OA 
HETATM   30  O   UNL     1      -9.448   9.837  70.686  1.00  0.00    -0.196 OA 
HETATM   31  S   UNL     1     -10.591  10.001  69.569  1.00  0.00    -0.261 S  
HETATM   32  O   UNL     1     -11.100   8.686  69.262  1.00  0.00    -0.048 OA 
ENDBRANCH   7  28
BRANCH   8  33
HETATM   33  O   UNL     1      -9.997   8.141  66.649  1.00  0.00    -0.247 OA 
HETATM   34  S   UNL     1      -8.948   6.943  66.972  1.00  0.00    -0.124 S  
HETATM   35  O   UNL     1      -8.629   6.254  65.747  1.00  0.00    -0.147 OA 
HETATM   36  O   UNL     1      -7.944   7.444  67.884  1.00  0.00    -0.115 OA 
HETATM   37  O   UNL     1      -9.882   5.902  67.763  1.00  0.00    -0.114 OA 
ENDBRANCH   8  33
TORSDOF 6
ENDMDL
MODEL       83
REMARK 921   NORMALIZED FREE ENERGY PREDICTED BY IDOCK:   -4.33 KCAL/MOL
REMARK 922        TOTAL FREE ENERGY PREDICTED BY IDOCK:   -7.94 KCAL/MOL
REMARK 923 INTER-LIGAND FREE ENERGY PREDICTED BY IDOCK:   -7.50 KCAL/MOL
REMARK 924 INTRA-LIGAND FREE ENERGY PREDICTED BY IDOCK:   -0.44 KCAL/MOL
REMARK 927      BINDING AFFINITY PREDICTED BY RF-SCORE:    0.00 PKD
ROOT
HETATM    1  O   UNL     1      -7.308  19.864  69.816  1.00  0.00    -0.168 OA 
HETATM    2  H   UNL     1      -7.979  20.508  69.624  1.00  0.00     0.000 HD 
HETATM    3  C   UNL     1      -7.597  18.678  69.080  1.00  0.00    -0.192 C  
HETATM    4  C   UNL     1      -6.524  17.648  69.386  1.00  0.00    -0.231 C  
HETATM    5  O   UNL     1      -6.772  16.448  68.685  1.00  0.00    -0.134 OA 
HETATM    6  C   UNL     1      -6.720  16.588  67.279  1.00  0.00    -0.181 C  
HETATM    7  C   UNL     1      -7.730  17.636  66.752  1.00  0.00    -0.226 C  
HETATM    8  C   UNL     1      -7.694  18.951  67.570  1.00  0.00    -0.233 C  
ENDROOT
BRANCH   6   9
HETATM    9  O   UNL     1      -7.042  15.323  66.693  1.00  0.00     0.046 OA 
BRANCH   9  10
HETATM   10  C   UNL     1      -7.268  14.263  67.631  1.00  0.00    -0.183 C  
HETATM   11  H   UNL     1      -8.321   9.812  68.760  1.00  0.00     0.000 HD 
HETATM   12  C   UNL     1      -8.543  13.483  67.210  1.00  0.00    -0.213 C  
HETATM   13  C   UNL     1      -6.078  13.296  67.733  1.00  0.00    -0.153 C  
HETATM   14  C   UNL     1      -8.730  12.228  68.086  1.00  0.00    -0.186 C  
HETATM   15  O   UNL     1      -7.601  10.348  69.075  1.00  0.00    -0.089 OA 
HETATM   16  O   UNL     1      -6.357  12.212  68.615  1.00  0.00    -0.056 OA 
HETATM   17  C   UNL     1      -7.431  11.413  68.146  1.00  0.00    -0.100 C  
BRANCH  14  18
HETATM   18  O   UNL     1      -9.899  11.464  67.800  1.00  0.00    -0.170 OA 
HETATM   19  S   UNL     1     -11.102  11.225  68.859  1.00  0.00    -0.262 S  
HETATM   20  O   UNL     1     -10.535  10.709  70.083  1.00  0.00    -0.144 OA 
HETATM   21  O   UNL     1     -11.663  12.699  69.161  1.00  0.00    -0.290 OA 
HETATM   22  O   UNL     1     -12.158  10.536  68.154  1.00  0.00    -0.279 OA 
ENDBRANCH  14  18
BRANCH  12  23
HETATM   23  O   UNL     1      -9.715  14.312  67.162  1.00  0.00    -0.241 OA 
HETATM   24  S   UNL     1     -10.614  14.464  65.820  1.00  0.00    -0.336 S  
HETATM   25  O   UNL     1      -9.848  15.215  64.851  1.00  0.00    -0.178 OA 
HETATM   26  O   UNL     1     -11.785  15.451  66.314  1.00  0.00    -0.016 OA 
HETATM   27  O   UNL     1     -11.217  13.199  65.486  1.00  0.00    -0.280 OA 
ENDBRANCH  12  23
ENDBRANCH   9  10
ENDBRANCH   6   9
BRANCH   7  28
HETATM   28  O   UNL     1      -7.436  17.968  65.383  1.00  0.00    -0.482 OA 
HETATM   29  O   UNL     1      -6.998  20.404  65.112  1.00  0.00    -0.297 OA 
HETATM   30  O   UNL     1      -6.025  18.849  63.516  1.00  0.00    -0.262 OA 
HETATM   31  S   UNL     1      -6.328  19.124  65.070  1.00  0.00    -0.203 S  
HETATM   32  O   UNL     1      -5.125  18.837  65.812  1.00  0.00    -0.132 OA 
ENDBRANCH   7  28
BRANCH   8  33
HETATM   33  O   UNL     1      -8.909  19.658  67.268  1.00  0.00    -0.299 OA 
HETATM   34  S   UNL     1     -10.297  18.851  67.017  1.00  0.00    -0.429 S  
HETATM   35  O   UNL     1     -10.341  18.405  65.647  1.00  0.00    -0.605 OA 
HETATM   36  O   UNL     1     -10.529  17.974  68.143  1.00  0.00    -0.376 OA 
HETATM   37  O   UNL     1     -11.375  20.041  67.066  1.00  0.00     0.078 OA 
ENDBRANCH   8  33
TORSDOF 6
ENDMDL
MODEL       84
REMARK 921   NORMALIZED FREE ENERGY PREDICTED BY IDOCK:   -4.24 KCAL/MOL
REMARK 922        TOTAL FREE ENERGY PREDICTED BY IDOCK:   -7.82 KCAL/MOL
REMARK 923 INTER-LIGAND FREE ENERGY PREDICTED BY IDOCK:   -6.78 KCAL/MOL
REMARK 924 INTRA-LIGAND FREE ENERGY PREDICTED BY IDOCK:   -1.04 KCAL/MOL
REMARK 927      BINDING AFFINITY PREDICTED BY RF-SCORE:    0.00 PKD
ROOT
HETATM    1  O   UNL     1      -6.683   8.049  66.421  1.00  0.00    -0.056 OA 
HETATM    2  H   UNL     1      -6.262   8.189  65.581  1.00  0.00     0.000 HD 
HETATM    3  C   UNL     1      -7.390   9.235  66.776  1.00  0.00    -0.086 C  
HETATM    4  C   UNL     1      -8.063   9.011  68.118  1.00  0.00    -0.105 C  
HETATM    5  O   UNL     1      -8.771  10.165  68.518  1.00  0.00    -0.116 OA 
HETATM    6  C   UNL     1      -9.836  10.509  67.654  1.00  0.00    -0.166 C  
HETATM    7  C   UNL     1      -9.364  10.750  66.200  1.00  0.00    -0.183 C  
HETATM    8  C   UNL     1      -8.411   9.637  65.699  1.00  0.00    -0.132 C  
ENDROOT
BRANCH   6   9
HETATM    9  O   UNL     1     -10.430  11.717  68.137  1.00  0.00    -0.188 OA 
BRANCH   9  10
HETATM   10  C   UNL     1     -11.006  11.625  69.447  1.00  0.00    -0.152 C  
HETATM   11  H   UNL     1     -14.521  12.186  72.533  1.00  0.00     0.000 HD 
HETATM   12  C   UNL     1     -11.754  12.950  69.760  1.00  0.00    -0.281 C  
HETATM   13  C   UNL     1     -11.971  10.438  69.590  1.00  0.00    -0.136 C  
HETATM   14  C   UNL     1     -12.537  12.836  71.083  1.00  0.00    -0.271 C  
HETATM   15  O   UNL     1     -13.981  11.418  72.384  1.00  0.00     0.217 OA 
HETATM   16  O   UNL     1     -12.586  10.414  70.876  1.00  0.00    -0.328 OA 
HETATM   17  C   UNL     1     -13.391  11.561  71.098  1.00  0.00     0.276 C  
BRANCH  14  18
HETATM   18  O   UNL     1     -13.228  14.018  71.477  1.00  0.00    -0.336 OA 
HETATM   19  S   UNL     1     -12.851  14.889  72.791  1.00  0.00    -0.455 S  
HETATM   20  O   UNL     1     -12.821  14.003  73.931  1.00  0.00     0.040 OA 
HETATM   21  O   UNL     1     -11.349  15.387  72.517  1.00  0.00    -0.431 OA 
HETATM   22  O   UNL     1     -13.673  16.077  72.764  1.00  0.00    -0.529 OA 
ENDBRANCH  14  18
BRANCH  12  23
HETATM   23  O   UNL     1     -10.897  14.101  69.715  1.00  0.00    -0.107 OA 
HETATM   24  S   UNL     1     -11.311  15.459  68.930  1.00  0.00    -0.336 S  
HETATM   25  O   UNL     1     -11.282  15.184  67.511  1.00  0.00    -0.318 OA 
HETATM   26  O   UNL     1     -10.044  16.409  69.218  1.00  0.00    -0.255 OA 
HETATM   27  O   UNL     1     -12.460  16.058  69.557  1.00  0.00    -0.090 OA 
ENDBRANCH  12  23
ENDBRANCH   9  10
ENDBRANCH   6   9
BRANCH   7  28
HETATM   28  O   UNL     1     -10.492  10.791  65.308  1.00  0.00    -0.270 OA 
HETATM   29  O   UNL     1     -11.941  12.764  65.762  1.00  0.00    -0.409 OA 
HETATM   30  O   UNL     1     -11.947  11.788  63.535  1.00  0.00    -0.482 OA 
HETATM   31  S   UNL     1     -11.027  12.237  64.774  1.00  0.00    -0.318 S  
HETATM   32  O   UNL     1      -9.913  12.986  64.248  1.00  0.00    -0.268 OA 
ENDBRANCH   7  28
BRANCH   8  33
HETATM   33  O   UNL     1      -7.737  10.160  64.542  1.00  0.00    -0.143 OA 
HETATM   34  S   UNL     1      -6.772   9.209  63.644  1.00  0.00    -0.091 S  
HETATM   35  O   UNL     1      -5.465   9.158  64.252  1.00  0.00    -0.058 OA 
HETATM   36  O   UNL     1      -7.514   8.028  63.263  1.00  0.00    -0.104 OA 
HETATM   37  O   UNL     1      -6.550  10.117  62.337  1.00  0.00    -0.113 OA 
ENDBRANCH   8  33
TORSDOF 6
ENDMDL
MODEL       85
REMARK 921   NORMALIZED FREE ENERGY PREDICTED BY IDOCK:   -4.23 KCAL/MOL
REMARK 922        TOTAL FREE ENERGY PREDICTED BY IDOCK:   -7.82 KCAL/MOL
REMARK 923 INTER-LIGAND FREE ENERGY PREDICTED BY IDOCK:   -8.08 KCAL/MOL
REMARK 924 INTRA-LIGAND FREE ENERGY PREDICTED BY IDOCK:    0.26 KCAL/MOL
REMARK 927      BINDING AFFINITY PREDICTED BY RF-SCORE:    0.00 PKD
ROOT
HETATM    1  O   UNL     1     -12.890   6.397  72.446  1.00  0.00    -0.543 OA 
HETATM    2  H   UNL     1     -12.668   5.474  72.452  1.00  0.00     0.000 HD 
HETATM    3  C   UNL     1     -11.827   7.115  71.826  1.00  0.00    -0.303 C  
HETATM    4  C   UNL     1     -12.182   8.591  71.818  1.00  0.00    -0.334 C  
HETATM    5  O   UNL     1     -11.152   9.349  71.220  1.00  0.00    -0.319 OA 
HETATM    6  C   UNL     1     -10.936   9.040  69.857  1.00  0.00    -0.193 C  
HETATM    7  C   UNL     1     -10.588   7.549  69.635  1.00  0.00    -0.239 C  
HETATM    8  C   UNL     1     -11.541   6.602  70.406  1.00  0.00    -0.398 C  
ENDROOT
BRANCH   6   9
HETATM    9  O   UNL     1      -9.838   9.830  69.390  1.00  0.00    -0.181 OA 
BRANCH   9  10
HETATM   10  C   UNL     1     -10.202  11.091  68.815  1.00  0.00    -0.198 C  
HETATM   11  H   UNL     1     -11.975  13.781  65.378  1.00  0.00     0.000 HD 
HETATM   12  C   UNL     1      -9.732  11.123  67.335  1.00  0.00    -0.173 C  
HETATM   13  C   UNL     1     -11.713  11.364  68.887  1.00  0.00    -0.343 C  
HETATM   14  C   UNL     1     -10.253  12.387  66.623  1.00  0.00    -0.224 C  
HETATM   15  O   UNL     1     -12.173  13.803  66.308  1.00  0.00    -0.425 OA 
HETATM   16  O   UNL     1     -12.056  12.588  68.242  1.00  0.00    -0.284 OA 
HETATM   17  C   UNL     1     -11.761  12.556  66.855  1.00  0.00    -0.377 C  
BRANCH  14  18
HETATM   18  O   UNL     1      -9.841  12.526  65.267  1.00  0.00    -0.235 OA 
HETATM   19  S   UNL     1     -10.317  11.539  64.073  1.00  0.00    -0.395 S  
HETATM   20  O   UNL     1     -10.045  10.178  64.472  1.00  0.00    -0.304 OA 
HETATM   21  O   UNL     1     -11.912  11.725  64.017  1.00  0.00    -0.348 OA 
HETATM   22  O   UNL     1      -9.811  12.091  62.837  1.00  0.00    -0.307 OA 
ENDBRANCH  14  18
BRANCH  12  23
HETATM   23  O   UNL     1      -8.314  10.946  67.195  1.00  0.00    -0.121 OA 
HETATM   24  S   UNL     1      -7.243  11.946  67.890  1.00  0.00    -0.105 S  
HETATM   25  O   UNL     1      -7.313  13.220  67.211  1.00  0.00    -0.140 OA 
HETATM   26  O   UNL     1      -5.841  11.290  67.450  1.00  0.00    -0.050 OA 
HETATM   27  O   UNL     1      -7.342  11.851  69.324  1.00  0.00    -0.036 OA 
ENDBRANCH  12  23
ENDBRANCH   9  10
ENDBRANCH   6   9
BRANCH   7  28
HETATM   28  O   UNL     1     -10.680   7.216  68.239  1.00  0.00    -0.201 OA 
HETATM   29  O   UNL     1      -8.591   7.809  67.021  1.00  0.00    -0.124 OA 
HETATM   30  O   UNL     1     -10.005   6.039  66.138  1.00  0.00    -0.081 OA 
HETATM   31  S   UNL     1      -9.352   6.665  67.467  1.00  0.00    -0.124 S  
HETATM   32  O   UNL     1      -8.780   5.583  68.230  1.00  0.00    -0.100 OA 
ENDBRANCH   7  28
BRANCH   8  33
HETATM   33  O   UNL     1     -10.894   5.319  70.459  1.00  0.00    -0.199 OA 
HETATM   34  S   UNL     1      -9.907   4.940  71.694  1.00  0.00    -0.191 S  
HETATM   35  O   UNL     1      -8.594   5.473  71.426  1.00  0.00    -0.128 OA 
HETATM   36  O   UNL     1     -10.614   5.164  72.935  1.00  0.00    -0.202 OA 
HETATM   37  O   UNL     1      -9.726   3.357  71.487  1.00  0.00    -0.154 OA 
ENDBRANCH   8  33
TORSDOF 6
ENDMDL
MODEL       86
REMARK 921   NORMALIZED FREE ENERGY PREDICTED BY IDOCK:   -4.22 KCAL/MOL
REMARK 922        TOTAL FREE ENERGY PREDICTED BY IDOCK:   -7.80 KCAL/MOL
REMARK 923 INTER-LIGAND FREE ENERGY PREDICTED BY IDOCK:   -6.99 KCAL/MOL
REMARK 924 INTRA-LIGAND FREE ENERGY PREDICTED BY IDOCK:   -0.81 KCAL/MOL
REMARK 927      BINDING AFFINITY PREDICTED BY RF-SCORE:    0.00 PKD
ROOT
HETATM    1  O   UNL     1     -12.640  14.530  69.396  1.00  0.00    -0.566 OA 
HETATM    2  H   UNL     1     -13.329  13.925  69.643  1.00  0.00     0.000 HD 
HETATM    3  C   UNL     1     -11.436  13.791  69.203  1.00  0.00    -0.298 C  
HETATM    4  C   UNL     1     -10.335  14.759  68.807  1.00  0.00    -0.248 C  
HETATM    5  O   UNL     1      -9.117  14.074  68.613  1.00  0.00    -0.179 OA 
HETATM    6  C   UNL     1      -9.151  13.141  67.550  1.00  0.00    -0.205 C  
HETATM    7  C   UNL     1     -10.248  12.067  67.741  1.00  0.00    -0.202 C  
HETATM    8  C   UNL     1     -11.609  12.682  68.152  1.00  0.00    -0.338 C  
ENDROOT
BRANCH   6   9
HETATM    9  O   UNL     1      -7.883  12.480  67.496  1.00  0.00    -0.146 OA 
BRANCH   9  10
HETATM   10  C   UNL     1      -7.580  11.663  68.634  1.00  0.00    -0.133 C  
HETATM   11  H   UNL     1      -4.857   8.664  71.040  1.00  0.00     0.000 HD 
HETATM   12  C   UNL     1      -7.068  10.283  68.137  1.00  0.00    -0.082 C  
HETATM   13  C   UNL     1      -6.536  12.301  69.563  1.00  0.00    -0.094 C  
HETATM   14  C   UNL     1      -6.563   9.430  69.319  1.00  0.00    -0.048 C  
HETATM   15  O   UNL     1      -5.264   9.468  71.344  1.00  0.00    -0.046 OA 
HETATM   16  O   UNL     1      -6.198  11.436  70.645  1.00  0.00    -0.332 OA 
HETATM   17  C   UNL     1      -5.591  10.236  70.191  1.00  0.00    -0.053 C  
BRANCH  14  18
HETATM   18  O   UNL     1      -6.107   8.127  68.968  1.00  0.00    -0.037 OA 
HETATM   19  S   UNL     1      -6.842   6.758  69.431  1.00  0.00    -0.063 S  
HETATM   20  O   UNL     1      -7.002   6.790  70.865  1.00  0.00    -0.064 OA 
HETATM   21  O   UNL     1      -8.303   6.851  68.770  1.00  0.00    -0.120 OA 
HETATM   22  O   UNL     1      -6.172   5.669  68.758  1.00  0.00    -0.027 OA 
ENDBRANCH  14  18
BRANCH  12  23
HETATM   23  O   UNL     1      -8.023   9.593  67.317  1.00  0.00    -0.105 OA 
HETATM   24  S   UNL     1      -7.671   9.086  65.817  1.00  0.00    -0.092 S  
HETATM   25  O   UNL     1      -7.544  10.250  64.969  1.00  0.00    -0.140 OA 
HETATM   26  O   UNL     1      -9.044   8.371  65.377  1.00  0.00    -0.119 OA 
HETATM   27  O   UNL     1      -6.646   8.076  65.868  1.00  0.00    -0.045 OA 
ENDBRANCH  12  23
ENDBRANCH   9  10
ENDBRANCH   6   9
BRANCH   7  28
HETATM   28  O   UNL     1     -10.453  11.339  66.517  1.00  0.00    -0.235 OA 
HETATM   29  O   UNL     1     -12.352  12.275  65.208  1.00  0.00    -0.555 OA 
HETATM   30  O   UNL     1     -10.596  11.071  64.034  1.00  0.00    -0.366 OA 
HETATM   31  S   UNL     1     -10.913  12.153  65.180  1.00  0.00    -0.320 S  
HETATM   32  O   UNL     1     -10.027  13.275  64.984  1.00  0.00    -0.243 OA 
ENDBRANCH   7  28
BRANCH   8  33
HETATM   33  O   UNL     1     -12.403  11.609  68.685  1.00  0.00    -0.394 OA 
HETATM   34  S   UNL     1     -12.245  11.153  70.237  1.00  0.00    -0.352 S  
HETATM   35  O   UNL     1     -11.132  10.243  70.348  1.00  0.00    -0.292 OA 
HETATM   36  O   UNL     1     -12.402  12.318  71.078  1.00  0.00    -0.351 OA 
HETATM   37  O   UNL     1     -13.531  10.208  70.428  1.00  0.00    -0.098 OA 
ENDBRANCH   8  33
TORSDOF 6
ENDMDL
MODEL       87
REMARK 921   NORMALIZED FREE ENERGY PREDICTED BY IDOCK:   -4.21 KCAL/MOL
REMARK 922        TOTAL FREE ENERGY PREDICTED BY IDOCK:   -7.79 KCAL/MOL
REMARK 923 INTER-LIGAND FREE ENERGY PREDICTED BY IDOCK:   -7.44 KCAL/MOL
REMARK 924 INTRA-LIGAND FREE ENERGY PREDICTED BY IDOCK:   -0.35 KCAL/MOL
REMARK 927      BINDING AFFINITY PREDICTED BY RF-SCORE:    0.00 PKD
ROOT
HETATM    1  O   UNL     1      -7.718   8.937  69.855  1.00  0.00    -0.068 OA 
HETATM    2  H   UNL     1      -7.901   8.121  69.406  1.00  0.00     0.000 HD 
HETATM    3  C   UNL     1      -7.569   9.967  68.882  1.00  0.00    -0.086 C  
HETATM    4  C   UNL     1      -7.276  11.272  69.602  1.00  0.00     0.036 C  
HETATM    5  O   UNL     1      -7.111  12.325  68.676  1.00  0.00    -0.093 OA 
HETATM    6  C   UNL     1      -8.272  12.605  67.918  1.00  0.00    -0.170 C  
HETATM    7  C   UNL     1      -8.767  11.375  67.120  1.00  0.00    -0.155 C  
HETATM    8  C   UNL     1      -8.811  10.091  67.985  1.00  0.00    -0.125 C  
ENDROOT
BRANCH   6   9
HETATM    9  O   UNL     1      -7.956  13.644  66.987  1.00  0.00    -0.091 OA 
BRANCH   9  10
HETATM   10  C   UNL     1      -9.029  14.553  66.710  1.00  0.00    -0.246 C  
HETATM   11  H   UNL     1     -10.901  18.307  64.566  1.00  0.00     0.000 HD 
HETATM   12  C   UNL     1      -8.480  16.005  66.750  1.00  0.00    -0.260 C  
HETATM   13  C   UNL     1      -9.698  14.287  65.352  1.00  0.00    -0.100 C  
HETATM   14  C   UNL     1      -9.555  17.009  66.287  1.00  0.00    -0.267 C  
HETATM   15  O   UNL     1     -11.258  17.429  64.640  1.00  0.00    -0.992 OA 
HETATM   16  O   UNL     1     -10.710  15.250  65.068  1.00  0.00    -0.400 OA 
HETATM   17  C   UNL     1     -10.177  16.560  64.958  1.00  0.00     0.308 C  
BRANCH  14  18
HETATM   18  O   UNL     1      -9.157  18.376  66.326  1.00  0.00    -0.405 OA 
HETATM   19  S   UNL     1      -9.863  19.496  67.261  1.00  0.00    -0.384 S  
HETATM   20  O   UNL     1     -11.285  19.465  67.013  1.00  0.00    -0.322 OA 
HETATM   21  O   UNL     1      -9.614  18.975  68.759  1.00  0.00    -0.370 OA 
HETATM   22  O   UNL     1      -9.089  20.709  67.130  1.00  0.00    -0.352 OA 
ENDBRANCH  14  18
BRANCH  12  23
HETATM   23  O   UNL     1      -7.902  16.350  68.018  1.00  0.00    -0.150 OA 
HETATM   24  S   UNL     1      -6.387  16.916  68.154  1.00  0.00    -0.144 S  
HETATM   25  O   UNL     1      -5.476  15.836  67.852  1.00  0.00    -0.118 OA 
HETATM   26  O   UNL     1      -6.266  17.162  69.740  1.00  0.00    -0.244 OA 
HETATM   27  O   UNL     1      -6.281  18.196  67.502  1.00  0.00    -0.168 OA 
ENDBRANCH  12  23
ENDBRANCH   9  10
ENDBRANCH   6   9
BRANCH   7  28
HETATM   28  O   UNL     1     -10.096  11.607  66.619  1.00  0.00    -0.203 OA 
HETATM   29  O   UNL     1     -11.804  10.420  67.988  1.00  0.00    -0.328 OA 
HETATM   30  O   UNL     1     -12.462  12.408  66.752  1.00  0.00    -0.294 OA 
HETATM   31  S   UNL     1     -11.327  11.749  67.681  1.00  0.00    -0.307 S  
HETATM   32  O   UNL     1     -10.969  12.714  68.691  1.00  0.00    -0.237 OA 
ENDBRANCH   7  28
BRANCH   8  33
HETATM   33  O   UNL     1      -8.881   8.981  67.073  1.00  0.00    -0.118 OA 
HETATM   34  S   UNL     1      -9.209   7.484  67.614  1.00  0.00    -0.127 S  
HETATM   35  O   UNL     1      -7.989   6.879  68.090  1.00  0.00    -0.112 OA 
HETATM   36  O   UNL     1     -10.425   7.531  68.394  1.00  0.00    -0.194 OA 
HETATM   37  O   UNL     1      -9.511   6.705  66.242  1.00  0.00    -0.154 OA 
ENDBRANCH   8  33
TORSDOF 6
ENDMDL
MODEL       88
REMARK 921   NORMALIZED FREE ENERGY PREDICTED BY IDOCK:   -4.21 KCAL/MOL
REMARK 922        TOTAL FREE ENERGY PREDICTED BY IDOCK:   -7.78 KCAL/MOL
REMARK 923 INTER-LIGAND FREE ENERGY PREDICTED BY IDOCK:   -7.99 KCAL/MOL
REMARK 924 INTRA-LIGAND FREE ENERGY PREDICTED BY IDOCK:    0.21 KCAL/MOL
REMARK 927      BINDING AFFINITY PREDICTED BY RF-SCORE:    0.00 PKD
ROOT
HETATM    1  O   UNL     1     -11.252  14.444  66.932  1.00  0.00    -0.314 OA 
HETATM    2  H   UNL     1     -11.953  14.996  67.256  1.00  0.00     0.000 HD 
HETATM    3  C   UNL     1     -10.771  13.645  68.010  1.00  0.00    -0.247 C  
HETATM    4  C   UNL     1      -9.651  12.761  67.492  1.00  0.00    -0.192 C  
HETATM    5  O   UNL     1      -9.133  11.954  68.528  1.00  0.00    -0.184 OA 
HETATM    6  C   UNL     1     -10.072  11.040  69.061  1.00  0.00    -0.180 C  
HETATM    7  C   UNL     1     -11.330  11.744  69.622  1.00  0.00    -0.215 C  
HETATM    8  C   UNL     1     -11.893  12.808  68.647  1.00  0.00    -0.304 C  
ENDROOT
BRANCH   6   9
HETATM    9  O   UNL     1      -9.443  10.329  70.132  1.00  0.00    -0.059 OA 
BRANCH   9  10
HETATM   10  C   UNL     1      -9.286   8.921  69.912  1.00  0.00    -0.166 C  
HETATM   11  H   UNL     1     -10.448   4.410  70.615  1.00  0.00     0.000 HD 
HETATM   12  C   UNL     1      -9.352   8.190  71.281  1.00  0.00    -0.156 C  
HETATM   13  C   UNL     1     -10.349   8.345  68.964  1.00  0.00    -0.218 C  
HETATM   14  C   UNL     1      -9.364   6.661  71.083  1.00  0.00    -0.163 C  
HETATM   15  O   UNL     1     -10.307   4.863  69.791  1.00  0.00    -0.260 OA 
HETATM   16  O   UNL     1     -10.217   6.933  68.822  1.00  0.00    -0.161 OA 
HETATM   17  C   UNL     1     -10.426   6.257  70.052  1.00  0.00    -0.218 C  
BRANCH  14  18
HETATM   18  O   UNL     1      -9.384   5.899  72.287  1.00  0.00    -0.145 OA 
HETATM   19  S   UNL     1     -10.569   5.983  73.389  1.00  0.00    -0.263 S  
HETATM   20  O   UNL     1     -10.758   7.368  73.749  1.00  0.00    -0.331 OA 
HETATM   21  O   UNL     1     -11.880   5.498  72.598  1.00  0.00    -0.274 OA 
HETATM   22  O   UNL     1     -10.303   4.964  74.377  1.00  0.00    -0.242 OA 
ENDBRANCH  14  18
BRANCH  12  23
HETATM   23  O   UNL     1      -8.337   8.627  72.198  1.00  0.00    -0.283 OA 
HETATM   24  S   UNL     1      -6.755   8.485  71.872  1.00  0.00    -0.077 S  
HETATM   25  O   UNL     1      -6.413   7.081  71.915  1.00  0.00    -0.048 OA 
HETATM   26  O   UNL     1      -6.085   9.139  73.181  1.00  0.00    -0.289 OA 
HETATM   27  O   UNL     1      -6.410   9.310  70.743  1.00  0.00    -0.058 OA 
ENDBRANCH  12  23
ENDBRANCH   9  10
ENDBRANCH   6   9
BRANCH   7  28
HETATM   28  O   UNL     1     -12.373  10.783  69.865  1.00  0.00    -0.329 OA 
HETATM   29  O   UNL     1     -12.033   9.598  72.028  1.00  0.00    -0.332 OA 
HETATM   30  O   UNL     1     -14.285   9.783  71.130  1.00  0.00     0.067 OA 
HETATM   31  S   UNL     1     -12.903  10.561  71.392  1.00  0.00    -0.476 S  
HETATM   32  O   UNL     1     -13.222  11.843  71.972  1.00  0.00    -0.495 OA 
ENDBRANCH   7  28
BRANCH   8  33
HETATM   33  O   UNL     1     -12.769  13.650  69.415  1.00  0.00     0.037 OA 
HETATM   34  S   UNL     1     -12.187  14.939  70.216  1.00  0.00    -0.351 S  
HETATM   35  O   UNL     1     -11.663  14.505  71.487  1.00  0.00    -0.300 OA 
HETATM   36  O   UNL     1     -11.439  15.758  69.288  1.00  0.00    -0.316 OA 
HETATM   37  O   UNL     1     -13.540  15.714  70.605  1.00  0.00    -0.448 OA 
ENDBRANCH   8  33
TORSDOF 6
ENDMDL
MODEL       89
REMARK 921   NORMALIZED FREE ENERGY PREDICTED BY IDOCK:   -4.20 KCAL/MOL
REMARK 922        TOTAL FREE ENERGY PREDICTED BY IDOCK:   -7.78 KCAL/MOL
REMARK 923 INTER-LIGAND FREE ENERGY PREDICTED BY IDOCK:   -7.28 KCAL/MOL
REMARK 924 INTRA-LIGAND FREE ENERGY PREDICTED BY IDOCK:   -0.50 KCAL/MOL
REMARK 927      BINDING AFFINITY PREDICTED BY RF-SCORE:    0.00 PKD
ROOT
HETATM    1  O   UNL     1     -11.375  16.614  69.522  1.00  0.00    -0.299 OA 
HETATM    2  H   UNL     1     -11.166  17.387  69.012  1.00  0.00     0.000 HD 
HETATM    3  C   UNL     1     -11.460  15.499  68.639  1.00  0.00    -0.359 C  
HETATM    4  C   UNL     1     -11.794  14.263  69.455  1.00  0.00    -0.329 C  
HETATM    5  O   UNL     1     -11.898  13.129  68.621  1.00  0.00    -0.308 OA 
HETATM    6  C   UNL     1     -10.692  12.791  67.966  1.00  0.00    -0.230 C  
HETATM    7  C   UNL     1     -10.150  13.946  67.091  1.00  0.00    -0.252 C  
HETATM    8  C   UNL     1     -10.163  15.304  67.836  1.00  0.00    -0.235 C  
ENDROOT
BRANCH   6   9
HETATM    9  O   UNL     1     -10.946  11.668  67.115  1.00  0.00    -0.248 OA 
BRANCH   9  10
HETATM   10  C   UNL     1     -11.079  10.413  67.795  1.00  0.00    -0.299 C  
HETATM   11  H   UNL     1      -9.389   6.801  70.302  1.00  0.00     0.000 HD 
HETATM   12  C   UNL     1      -9.880   9.504  67.408  1.00  0.00    -0.170 C  
HETATM   13  C   UNL     1     -11.141  10.568  69.323  1.00  0.00    -0.246 C  
HETATM   14  C   UNL     1      -9.883   8.210  68.246  1.00  0.00    -0.171 C  
HETATM   15  O   UNL     1     -10.172   7.316  70.461  1.00  0.00    -0.195 OA 
HETATM   16  O   UNL     1     -11.197   9.303  69.977  1.00  0.00    -0.235 OA 
HETATM   17  C   UNL     1     -10.028   8.534  69.739  1.00  0.00    -0.191 C  
BRANCH  14  18
HETATM   18  O   UNL     1      -8.840   7.290  67.936  1.00  0.00    -0.129 OA 
HETATM   19  S   UNL     1      -9.094   5.808  67.331  1.00  0.00    -0.109 S  
HETATM   20  O   UNL     1     -10.036   5.124  68.185  1.00  0.00    -0.151 OA 
HETATM   21  O   UNL     1      -9.813   6.074  65.920  1.00  0.00     0.019 OA 
HETATM   22  O   UNL     1      -7.799   5.250  67.017  1.00  0.00    -0.099 OA 
ENDBRANCH  14  18
BRANCH  12  23
HETATM   23  O   UNL     1      -9.800   9.256  65.996  1.00  0.00    -0.277 OA 
HETATM   24  S   UNL     1      -8.462   9.574  65.135  1.00  0.00    -0.161 S  
HETATM   25  O   UNL     1      -8.313  11.009  65.053  1.00  0.00    -0.036 OA 
HETATM   26  O   UNL     1      -8.893   9.093  63.661  1.00  0.00    -0.178 OA 
HETATM   27  O   UNL     1      -7.382   8.728  65.576  1.00  0.00    -0.083 OA 
ENDBRANCH  12  23
ENDBRANCH   9  10
ENDBRANCH   6   9
BRANCH   7  28
HETATM   28  O   UNL     1      -8.792  13.681  66.697  1.00  0.00    -0.181 OA 
HETATM   29  O   UNL     1      -7.169  14.822  68.201  1.00  0.00    -0.103 OA 
HETATM   30  O   UNL     1      -6.466  12.819  67.015  1.00  0.00    -0.180 OA 
HETATM   31  S   UNL     1      -7.653  13.506  67.852  1.00  0.00    -0.171 S  
HETATM   32  O   UNL     1      -8.115  12.550  68.828  1.00  0.00    -0.050 OA 
ENDBRANCH   7  28
BRANCH   8  33
HETATM   33  O   UNL     1     -10.039  16.327  66.833  1.00  0.00    -0.263 OA 
HETATM   34  S   UNL     1      -9.550  17.824  67.233  1.00  0.00    -0.280 S  
HETATM   35  O   UNL     1     -10.683  18.578  67.710  1.00  0.00    -0.410 OA 
HETATM   36  O   UNL     1      -8.304  17.723  67.961  1.00  0.00    -0.236 OA 
HETATM   37  O   UNL     1      -9.248  18.461  65.790  1.00  0.00    -0.431 OA 
ENDBRANCH   8  33
TORSDOF 6
ENDMDL
MODEL       90
REMARK 921   NORMALIZED FREE ENERGY PREDICTED BY IDOCK:   -4.18 KCAL/MOL
REMARK 922        TOTAL FREE ENERGY PREDICTED BY IDOCK:   -7.74 KCAL/MOL
REMARK 923 INTER-LIGAND FREE ENERGY PREDICTED BY IDOCK:   -7.66 KCAL/MOL
REMARK 924 INTRA-LIGAND FREE ENERGY PREDICTED BY IDOCK:   -0.09 KCAL/MOL
REMARK 927      BINDING AFFINITY PREDICTED BY RF-SCORE:    0.00 PKD
ROOT
HETATM    1  O   UNL     1     -12.776  16.553  68.836  1.00  0.00     0.211 OA 
HETATM    2  H   UNL     1     -12.700  17.311  68.269  1.00  0.00     0.000 HD 
HETATM    3  C   UNL     1     -11.831  15.573  68.412  1.00  0.00    -0.224 C  
HETATM    4  C   UNL     1     -11.953  14.362  69.319  1.00  0.00    -0.324 C  
HETATM    5  O   UNL     1     -11.042  13.356  68.932  1.00  0.00    -0.253 OA 
HETATM    6  C   UNL     1      -9.686  13.739  69.053  1.00  0.00     0.148 C  
HETATM    7  C   UNL     1      -9.350  14.999  68.219  1.00  0.00    -0.192 C  
HETATM    8  C   UNL     1     -10.397  16.125  68.408  1.00  0.00    -0.257 C  
ENDROOT
BRANCH   6   9
HETATM    9  O   UNL     1      -8.874  12.661  68.579  1.00  0.00    -0.146 OA 
BRANCH   9  10
HETATM   10  C   UNL     1      -9.599  11.492  68.175  1.00  0.00    -0.187 C  
HETATM   11  H   UNL     1     -10.020   7.401  65.878  1.00  0.00     0.000 HD 
HETATM   12  C   UNL     1      -9.372  11.261  66.656  1.00  0.00    -0.180 C  
HETATM   13  C   UNL     1      -9.186  10.236  68.958  1.00  0.00    -0.183 C  
HETATM   14  C   UNL     1      -9.988   9.920  66.209  1.00  0.00    -0.256 C  
HETATM   15  O   UNL     1     -10.239   7.597  66.781  1.00  0.00    -0.267 OA 
HETATM   16  O   UNL     1      -9.867   9.076  68.486  1.00  0.00    -0.160 OA 
HETATM   17  C   UNL     1      -9.539   8.783  67.137  1.00  0.00    -0.175 C  
BRANCH  14  18
HETATM   18  O   UNL     1      -9.865   9.636  64.818  1.00  0.00    -0.184 OA 
HETATM   19  S   UNL     1      -8.464   9.262  64.094  1.00  0.00    -0.186 S  
HETATM   20  O   UNL     1      -7.499  10.286  64.414  1.00  0.00    -0.143 OA 
HETATM   21  O   UNL     1      -7.998   7.903  64.812  1.00  0.00    -0.128 OA 
HETATM   22  O   UNL     1      -8.775   8.901  62.730  1.00  0.00    -0.200 OA 
ENDBRANCH  14  18
BRANCH  12  23
HETATM   23  O   UNL     1      -9.803  12.370  65.851  1.00  0.00    -0.253 OA 
HETATM   24  S   UNL     1     -11.251  12.399  65.120  1.00  0.00    -0.325 S  
HETATM   25  O   UNL     1     -11.233  11.425  64.053  1.00  0.00    -0.368 OA 
HETATM   26  O   UNL     1     -11.231  13.838  64.401  1.00  0.00    -0.376 OA 
HETATM   27  O   UNL     1     -12.299  12.415  66.107  1.00  0.00    -0.606 OA 
ENDBRANCH  12  23
ENDBRANCH   9  10
ENDBRANCH   6   9
BRANCH   7  28
HETATM   28  O   UNL     1      -8.069  15.527  68.605  1.00  0.00    -0.142 OA 
HETATM   29  O   UNL     1      -6.212  14.364  67.424  1.00  0.00    -0.334 OA 
HETATM   30  O   UNL     1      -5.862  16.637  68.213  1.00  0.00    -0.113 OA 
HETATM   31  S   UNL     1      -6.889  15.639  67.484  1.00  0.00    -0.198 S  
HETATM   32  O   UNL     1      -7.408  16.314  66.319  1.00  0.00    -0.078 OA 
ENDBRANCH   7  28
BRANCH   8  33
HETATM   33  O   UNL     1     -10.218  17.043  67.315  1.00  0.00    -0.295 OA 
HETATM   34  S   UNL     1      -9.976  18.626  67.594  1.00  0.00    -0.360 S  
HETATM   35  O   UNL     1     -11.253  19.269  67.786  1.00  0.00    -0.212 OA 
HETATM   36  O   UNL     1      -8.871  18.768  68.515  1.00  0.00    -0.330 OA 
HETATM   37  O   UNL     1      -9.504  19.139  66.146  1.00  0.00    -0.377 OA 
ENDBRANCH   8  33
TORSDOF 6
ENDMDL
MODEL       91
REMARK 921   NORMALIZED FREE ENERGY PREDICTED BY IDOCK:   -4.16 KCAL/MOL
REMARK 922        TOTAL FREE ENERGY PREDICTED BY IDOCK:   -7.72 KCAL/MOL
REMARK 923 INTER-LIGAND FREE ENERGY PREDICTED BY IDOCK:   -8.61 KCAL/MOL
REMARK 924 INTRA-LIGAND FREE ENERGY PREDICTED BY IDOCK:    0.89 KCAL/MOL
REMARK 927      BINDING AFFINITY PREDICTED BY RF-SCORE:    0.00 PKD
ROOT
HETATM    1  O   UNL     1     -10.817  16.882  68.130  1.00  0.00    -0.362 OA 
HETATM    2  H   UNL     1     -11.588  16.933  68.682  1.00  0.00     0.000 HD 
HETATM    3  C   UNL     1     -10.393  15.522  68.069  1.00  0.00    -0.247 C  
HETATM    4  C   UNL     1      -9.161  15.441  67.187  1.00  0.00    -0.220 C  
HETATM    5  O   UNL     1      -8.696  14.111  67.102  1.00  0.00    -0.209 OA 
HETATM    6  C   UNL     1      -9.613  13.225  66.491  1.00  0.00    -0.264 C  
HETATM    7  C   UNL     1     -10.974  13.182  67.227  1.00  0.00    -0.268 C  
HETATM    8  C   UNL     1     -11.509  14.598  67.556  1.00  0.00    -0.361 C  
ENDROOT
BRANCH   6   9
HETATM    9  O   UNL     1      -9.049  11.910  66.519  1.00  0.00    -0.204 OA 
BRANCH   9  10
HETATM   10  C   UNL     1      -9.679  11.002  67.432  1.00  0.00    -0.168 C  
HETATM   11  H   UNL     1      -9.616   7.494  70.576  1.00  0.00     0.000 HD 
HETATM   12  C   UNL     1      -9.086   9.582  67.216  1.00  0.00    -0.130 C  
HETATM   13  C   UNL     1      -9.507  11.419  68.900  1.00  0.00    -0.050 C  
HETATM   14  C   UNL     1      -9.605   8.605  68.290  1.00  0.00    -0.147 C  
HETATM   15  O   UNL     1     -10.049   8.338  70.640  1.00  0.00    -0.189 OA 
HETATM   16  O   UNL     1     -10.077  10.461  69.788  1.00  0.00    -0.227 OA 
HETATM   17  C   UNL     1      -9.430   9.202  69.693  1.00  0.00    -0.172 C  
BRANCH  14  18
HETATM   18  O   UNL     1      -9.146   7.263  68.153  1.00  0.00    -0.135 OA 
HETATM   19  S   UNL     1     -10.126   5.991  67.937  1.00  0.00    -0.174 S  
HETATM   20  O   UNL     1     -11.125   6.004  68.980  1.00  0.00    -0.351 OA 
HETATM   21  O   UNL     1     -10.866   6.294  66.544  1.00  0.00    -0.229 OA 
HETATM   22  O   UNL     1      -9.285   4.842  67.696  1.00  0.00    -0.118 OA 
ENDBRANCH  14  18
BRANCH  12  23
HETATM   23  O   UNL     1      -9.274   9.095  65.878  1.00  0.00    -0.193 OA 
HETATM   24  S   UNL     1      -8.028   8.729  64.907  1.00  0.00    -0.143 S  
HETATM   25  O   UNL     1      -7.372   9.962  64.536  1.00  0.00    -0.130 OA 
HETATM   26  O   UNL     1      -8.780   8.216  63.580  1.00  0.00     0.145 OA 
HETATM   27  O   UNL     1      -7.290   7.618  65.451  1.00  0.00    -0.066 OA 
ENDBRANCH  12  23
ENDBRANCH   9  10
ENDBRANCH   6   9
BRANCH   7  28
HETATM   28  O   UNL     1     -11.961  12.522  66.415  1.00  0.00    -0.516 OA 
HETATM   29  O   UNL     1     -13.531  14.156  65.385  1.00  0.00    -0.648 OA 
HETATM   30  O   UNL     1     -13.177  12.015  64.289  1.00  0.00    -0.710 OA 
HETATM   31  S   UNL     1     -12.465  13.244  65.041  1.00  0.00    -0.426 S  
HETATM   32  O   UNL     1     -11.314  13.630  64.262  1.00  0.00    -0.379 OA 
ENDBRANCH   7  28
BRANCH   8  33
HETATM   33  O   UNL     1     -12.523  14.432  68.562  1.00  0.00    -0.101 OA 
HETATM   34  S   UNL     1     -12.117  14.257  70.126  1.00  0.00    -0.357 S  
HETATM   35  O   UNL     1     -11.793  12.874  70.376  1.00  0.00    -0.284 OA 
HETATM   36  O   UNL     1     -11.252  15.353  70.503  1.00  0.00    -0.282 OA 
HETATM   37  O   UNL     1     -13.537  14.454  70.852  1.00  0.00    -0.295 OA 
ENDBRANCH   8  33
TORSDOF 6
ENDMDL
MODEL       92
REMARK 921   NORMALIZED FREE ENERGY PREDICTED BY IDOCK:   -4.15 KCAL/MOL
REMARK 922        TOTAL FREE ENERGY PREDICTED BY IDOCK:   -7.71 KCAL/MOL
REMARK 923 INTER-LIGAND FREE ENERGY PREDICTED BY IDOCK:   -9.81 KCAL/MOL
REMARK 924 INTRA-LIGAND FREE ENERGY PREDICTED BY IDOCK:    2.10 KCAL/MOL
REMARK 927      BINDING AFFINITY PREDICTED BY RF-SCORE:    0.00 PKD
ROOT
HETATM    1  O   UNL     1      -5.387  15.555  66.964  1.00  0.00    -0.262 OA 
HETATM    2  H   UNL     1      -4.844  16.333  66.995  1.00  0.00     0.000 HD 
HETATM    3  C   UNL     1      -6.678  15.882  67.470  1.00  0.00    -0.185 C  
HETATM    4  C   UNL     1      -7.545  14.637  67.420  1.00  0.00    -0.192 C  
HETATM    5  O   UNL     1      -8.836  14.909  67.922  1.00  0.00    -0.159 OA 
HETATM    6  C   UNL     1      -9.556  15.858  67.159  1.00  0.00    -0.218 C  
HETATM    7  C   UNL     1      -8.817  17.214  67.053  1.00  0.00    -0.229 C  
HETATM    8  C   UNL     1      -7.321  17.042  66.692  1.00  0.00    -0.261 C  
ENDROOT
BRANCH   6   9
HETATM    9  O   UNL     1     -10.814  16.084  67.801  1.00  0.00    -0.318 OA 
BRANCH   9  10
HETATM   10  C   UNL     1     -11.569  14.898  68.084  1.00  0.00    -0.334 C  
HETATM   11  H   UNL     1     -11.989  10.259  68.785  1.00  0.00     0.000 HD 
HETATM   12  C   UNL     1     -11.124  13.776  67.108  1.00  0.00    -0.302 C  
HETATM   13  C   UNL     1     -11.405  14.421  69.535  1.00  0.00    -0.276 C  
HETATM   14  C   UNL     1     -11.780  12.432  67.484  1.00  0.00    -0.357 C  
HETATM   15  O   UNL     1     -12.332  10.970  69.314  1.00  0.00    -0.412 OA 
HETATM   16  O   UNL     1     -12.105  13.201  69.768  1.00  0.00    -0.307 OA 
HETATM   17  C   UNL     1     -11.593  12.139  68.979  1.00  0.00    -0.319 C  
BRANCH  14  18
HETATM   18  O   UNL     1     -11.462  11.345  66.621  1.00  0.00    -0.408 OA 
HETATM   19  S   UNL     1      -9.966  10.750  66.431  1.00  0.00    -0.223 S  
HETATM   20  O   UNL     1      -9.082  11.841  66.098  1.00  0.00    -0.215 OA 
HETATM   21  O   UNL     1      -9.563  10.219  67.892  1.00  0.00    -0.144 OA 
HETATM   22  O   UNL     1     -10.079   9.574  65.599  1.00  0.00    -0.285 OA 
ENDBRANCH  14  18
BRANCH  12  23
HETATM   23  O   UNL     1     -11.315  14.125  65.728  1.00  0.00    -0.308 OA 
HETATM   24  S   UNL     1     -12.699  13.813  64.940  1.00  0.00    -0.202 S  
HETATM   25  O   UNL     1     -12.799  12.383  64.758  1.00  0.00    -0.728 OA 
HETATM   26  O   UNL     1     -12.395  14.421  63.482  1.00  0.00    -0.689 OA 
HETATM   27  O   UNL     1     -13.775  14.576  65.519  1.00  0.00    -0.103 OA 
ENDBRANCH  12  23
ENDBRANCH   9  10
ENDBRANCH   6   9
BRANCH   7  28
HETATM   28  O   UNL     1      -9.419  18.032  66.034  1.00  0.00    -0.504 OA 
HETATM   29  O   UNL     1     -11.407  19.253  66.903  1.00  0.00    -0.077 OA 
HETATM   30  O   UNL     1     -10.190  20.181  65.013  1.00  0.00     0.021 OA 
HETATM   31  S   UNL     1     -10.053  19.477  66.451  1.00  0.00    -0.494 S  
HETATM   32  O   UNL     1      -9.077  20.217  67.214  1.00  0.00    -0.338 OA 
ENDBRANCH   7  28
BRANCH   8  33
HETATM   33  O   UNL     1      -6.672  18.283  67.019  1.00  0.00    -0.180 OA 
HETATM   34  S   UNL     1      -6.065  18.534  68.505  1.00  0.00    -0.200 S  
HETATM   35  O   UNL     1      -7.124  18.981  69.376  1.00  0.00    -0.269 OA 
HETATM   36  O   UNL     1      -5.180  17.438  68.833  1.00  0.00    -0.145 OA 
HETATM   37  O   UNL     1      -5.179  19.854  68.273  1.00  0.00    -0.184 OA 
ENDBRANCH   8  33
TORSDOF 6
ENDMDL
MODEL       93
REMARK 921   NORMALIZED FREE ENERGY PREDICTED BY IDOCK:   -4.13 KCAL/MOL
REMARK 922        TOTAL FREE ENERGY PREDICTED BY IDOCK:   -7.68 KCAL/MOL
REMARK 923 INTER-LIGAND FREE ENERGY PREDICTED BY IDOCK:   -8.03 KCAL/MOL
REMARK 924 INTRA-LIGAND FREE ENERGY PREDICTED BY IDOCK:    0.35 KCAL/MOL
REMARK 927      BINDING AFFINITY PREDICTED BY RF-SCORE:    0.00 PKD
ROOT
HETATM    1  O   UNL     1      -8.988   7.925  64.756  1.00  0.00    -0.354 OA 
HETATM    2  H   UNL     1      -8.457   7.263  65.183  1.00  0.00     0.000 HD 
HETATM    3  C   UNL     1      -9.313   8.930  65.712  1.00  0.00    -0.219 C  
HETATM    4  C   UNL     1     -10.162   9.988  65.028  1.00  0.00    -0.026 C  
HETATM    5  O   UNL     1     -10.519  11.005  65.939  1.00  0.00    -0.254 OA 
HETATM    6  C   UNL     1      -9.415  11.728  66.448  1.00  0.00    -0.221 C  
HETATM    7  C   UNL     1      -8.392  10.816  67.167  1.00  0.00    -0.126 C  
HETATM    8  C   UNL     1      -8.055   9.547  66.345  1.00  0.00    -0.111 C  
ENDROOT
BRANCH   6   9
HETATM    9  O   UNL     1      -9.905  12.682  67.395  1.00  0.00    -0.201 OA 
BRANCH   9  10
HETATM   10  C   UNL     1     -10.582  13.808  66.821  1.00  0.00    -0.273 C  
HETATM   11  H   UNL     1     -10.697  18.144  64.984  1.00  0.00     0.000 HD 
HETATM   12  C   UNL     1     -10.051  15.106  67.490  1.00  0.00    -0.232 C  
HETATM   13  C   UNL     1     -10.403  13.898  65.298  1.00  0.00    -0.378 C  
HETATM   14  C   UNL     1     -10.619  16.355  66.786  1.00  0.00    -0.238 C  
HETATM   15  O   UNL     1     -11.093  17.349  64.647  1.00  0.00    -1.029 OA 
HETATM   16  O   UNL     1     -11.022  15.066  64.764  1.00  0.00    -0.392 OA 
HETATM   17  C   UNL     1     -10.430  16.253  65.267  1.00  0.00    -0.300 C  
BRANCH  14  18
HETATM   18  O   UNL     1     -10.219  17.599  67.354  1.00  0.00    -0.319 OA 
HETATM   19  S   UNL     1      -8.677  18.088  67.460  1.00  0.00    -0.250 S  
HETATM   20  O   UNL     1      -7.914  17.049  68.111  1.00  0.00    -0.192 OA 
HETATM   21  O   UNL     1      -8.184  18.178  65.935  1.00  0.00    -0.513 OA 
HETATM   22  O   UNL     1      -8.695  19.447  67.951  1.00  0.00    -0.301 OA 
ENDBRANCH  14  18
BRANCH  12  23
HETATM   23  O   UNL     1     -10.249  15.125  68.912  1.00  0.00    -0.219 OA 
HETATM   24  S   UNL     1     -11.727  15.082  69.580  1.00  0.00    -0.344 S  
HETATM   25  O   UNL     1     -12.378  16.344  69.311  1.00  0.00     0.104 OA 
HETATM   26  O   UNL     1     -11.381  15.093  71.152  1.00  0.00    -0.323 OA 
HETATM   27  O   UNL     1     -12.365  13.826  69.279  1.00  0.00    -0.312 OA 
ENDBRANCH  12  23
ENDBRANCH   9  10
ENDBRANCH   6   9
BRANCH   7  28
HETATM   28  O   UNL     1      -7.161  11.526  67.392  1.00  0.00    -0.103 OA 
HETATM   29  O   UNL     1      -7.452  13.344  69.069  1.00  0.00    -0.055 OA 
HETATM   30  O   UNL     1      -5.246  12.368  68.763  1.00  0.00    -0.054 OA 
HETATM   31  S   UNL     1      -6.817  12.057  68.896  1.00  0.00    -0.104 S  
HETATM   32  O   UNL     1      -6.974  10.967  69.827  1.00  0.00    -0.142 OA 
ENDBRANCH   7  28
BRANCH   8  33
HETATM   33  O   UNL     1      -7.446   8.615  67.255  1.00  0.00    -0.087 OA 
HETATM   34  S   UNL     1      -8.362   7.643  68.180  1.00  0.00    -0.124 S  
HETATM   35  O   UNL     1      -8.770   8.364  69.360  1.00  0.00    -0.135 OA 
HETATM   36  O   UNL     1      -9.288   6.932  67.327  1.00  0.00    -0.130 OA 
HETATM   37  O   UNL     1      -7.270   6.599  68.730  1.00  0.00    -0.079 OA 
ENDBRANCH   8  33
TORSDOF 6
ENDMDL
MODEL       94
REMARK 921   NORMALIZED FREE ENERGY PREDICTED BY IDOCK:   -4.10 KCAL/MOL
REMARK 922        TOTAL FREE ENERGY PREDICTED BY IDOCK:   -7.64 KCAL/MOL
REMARK 923 INTER-LIGAND FREE ENERGY PREDICTED BY IDOCK:   -8.14 KCAL/MOL
REMARK 924 INTRA-LIGAND FREE ENERGY PREDICTED BY IDOCK:    0.50 KCAL/MOL
REMARK 927      BINDING AFFINITY PREDICTED BY RF-SCORE:    0.00 PKD
ROOT
HETATM    1  O   UNL     1      -6.419  21.229  67.420  1.00  0.00    -0.399 OA 
HETATM    2  H   UNL     1      -5.885  21.276  68.204  1.00  0.00     0.000 HD 
HETATM    3  C   UNL     1      -6.660  19.857  67.118  1.00  0.00    -0.206 C  
HETATM    4  C   UNL     1      -7.513  19.782  65.865  1.00  0.00    -0.324 C  
HETATM    5  O   UNL     1      -7.772  18.438  65.518  1.00  0.00    -0.484 OA 
HETATM    6  C   UNL     1      -8.524  17.735  66.487  1.00  0.00    -0.260 C  
HETATM    7  C   UNL     1      -7.837  17.720  67.874  1.00  0.00    -0.231 C  
HETATM    8  C   UNL     1      -7.326  19.122  68.292  1.00  0.00    -0.287 C  
ENDROOT
BRANCH   6   9
HETATM    9  O   UNL     1      -8.667  16.382  66.045  1.00  0.00    -0.366 OA 
BRANCH   9  10
HETATM   10  C   UNL     1      -8.443  15.390  67.055  1.00  0.00    -0.231 C  
HETATM   11  H   UNL     1      -7.501  11.004  68.493  1.00  0.00     0.000 HD 
HETATM   12  C   UNL     1      -9.239  14.109  66.685  1.00  0.00    -0.252 C  
HETATM   13  C   UNL     1      -6.956  15.045  67.231  1.00  0.00    -0.052 C  
HETATM   14  C   UNL     1      -8.894  12.954  67.647  1.00  0.00    -0.187 C  
HETATM   15  O   UNL     1      -7.096  11.817  68.771  1.00  0.00    -0.098 OA 
HETATM   16  O   UNL     1      -6.768  14.004  68.186  1.00  0.00    -0.096 OA 
HETATM   17  C   UNL     1      -7.373  12.790  67.770  1.00  0.00    -0.130 C  
BRANCH  14  18
HETATM   18  O   UNL     1      -9.605  11.742  67.412  1.00  0.00    -0.167 OA 
HETATM   19  S   UNL     1     -10.734  11.149  68.413  1.00  0.00    -0.215 S  
HETATM   20  O   UNL     1     -10.170  11.071  69.739  1.00  0.00    -0.014 OA 
HETATM   21  O   UNL     1     -11.878  12.277  68.431  1.00  0.00    -0.317 OA 
HETATM   22  O   UNL     1     -11.320  10.002  67.759  1.00  0.00    -0.209 OA 
ENDBRANCH  14  18
BRANCH  12  23
HETATM   23  O   UNL     1     -10.652  14.340  66.574  1.00  0.00    -0.281 OA 
HETATM   24  S   UNL     1     -11.480  14.011  65.218  1.00  0.00    -0.336 S  
HETATM   25  O   UNL     1     -11.082  14.964  64.208  1.00  0.00    -0.163 OA 
HETATM   26  O   UNL     1     -12.979  14.417  65.637  1.00  0.00    -0.447 OA 
HETATM   27  O   UNL     1     -11.462  12.593  64.965  1.00  0.00    -0.308 OA 
ENDBRANCH  12  23
ENDBRANCH   9  10
ENDBRANCH   6   9
BRANCH   7  28
HETATM   28  O   UNL     1      -8.759  17.275  68.884  1.00  0.00    -0.257 OA 
HETATM   29  O   UNL     1     -10.269  19.115  69.612  1.00  0.00     0.000 OA 
HETATM   30  O   UNL     1     -11.022  16.815  69.845  1.00  0.00    -0.293 OA 
HETATM   31  S   UNL     1     -10.279  17.867  68.884  1.00  0.00    -0.231 S  
HETATM   32  O   UNL     1     -10.839  17.728  67.562  1.00  0.00    -0.344 OA 
ENDBRANCH   7  28
BRANCH   8  33
HETATM   33  O   UNL     1      -6.379  18.916  69.354  1.00  0.00    -0.264 OA 
HETATM   34  S   UNL     1      -6.205  20.020  70.534  1.00  0.00    -0.228 S  
HETATM   35  O   UNL     1      -5.310  21.055  70.080  1.00  0.00    -0.503 OA 
HETATM   36  O   UNL     1      -7.505  20.291  71.107  1.00  0.00     0.389 OA 
HETATM   37  O   UNL     1      -5.333  19.206  71.611  1.00  0.00    -0.345 OA 
ENDBRANCH   8  33
TORSDOF 6
ENDMDL
MODEL       95
REMARK 921   NORMALIZED FREE ENERGY PREDICTED BY IDOCK:   -4.07 KCAL/MOL
REMARK 922        TOTAL FREE ENERGY PREDICTED BY IDOCK:   -7.60 KCAL/MOL
REMARK 923 INTER-LIGAND FREE ENERGY PREDICTED BY IDOCK:   -7.06 KCAL/MOL
REMARK 924 INTRA-LIGAND FREE ENERGY PREDICTED BY IDOCK:   -0.54 KCAL/MOL
REMARK 927      BINDING AFFINITY PREDICTED BY RF-SCORE:    0.00 PKD
ROOT
HETATM    1  O   UNL     1      -8.899  17.600  65.965  1.00  0.00    -0.502 OA 
HETATM    2  H   UNL     1      -8.175  17.901  66.500  1.00  0.00     0.000 HD 
HETATM    3  C   UNL     1      -9.010  16.187  66.106  1.00  0.00    -0.337 C  
HETATM    4  C   UNL     1     -10.168  15.706  65.250  1.00  0.00    -0.324 C  
HETATM    5  O   UNL     1     -10.314  14.306  65.350  1.00  0.00    -0.327 OA 
HETATM    6  C   UNL     1     -10.641  13.859  66.651  1.00  0.00    -0.274 C  
HETATM    7  C   UNL     1      -9.588  14.279  67.704  1.00  0.00    -0.219 C  
HETATM    8  C   UNL     1      -9.192  15.771  67.575  1.00  0.00    -0.204 C  
ENDROOT
BRANCH   6   9
HETATM    9  O   UNL     1     -10.703  12.429  66.628  1.00  0.00    -0.229 OA 
BRANCH   9  10
HETATM   10  C   UNL     1      -9.440  11.768  66.781  1.00  0.00    -0.193 C  
HETATM   11  H   UNL     1      -6.699   7.939  66.921  1.00  0.00     0.000 HD 
HETATM   12  C   UNL     1      -9.630  10.533  67.704  1.00  0.00    -0.157 C  
HETATM   13  C   UNL     1      -8.834  11.326  65.440  1.00  0.00    -0.048 C  
HETATM   14  C   UNL     1      -8.340   9.689  67.759  1.00  0.00    -0.121 C  
HETATM   15  O   UNL     1      -6.562   8.747  66.440  1.00  0.00    -0.061 OA 
HETATM   16  O   UNL     1      -7.618  10.606  65.626  1.00  0.00    -0.151 OA 
HETATM   17  C   UNL     1      -7.823   9.399  66.343  1.00  0.00    -0.100 C  
BRANCH  14  18
HETATM   18  O   UNL     1      -8.402   8.551  68.614  1.00  0.00    -0.121 OA 
HETATM   19  S   UNL     1      -7.504   8.376  69.951  1.00  0.00    -0.065 S  
HETATM   20  O   UNL     1      -6.119   8.579  69.599  1.00  0.00    -0.032 OA 
HETATM   21  O   UNL     1      -7.955   9.597  70.893  1.00  0.00    -0.307 OA 
HETATM   22  O   UNL     1      -7.958   7.176  70.615  1.00  0.00    -0.098 OA 
ENDBRANCH  14  18
BRANCH  12  23
HETATM   23  O   UNL     1     -10.128  10.878  69.006  1.00  0.00    -0.200 OA 
HETATM   24  S   UNL     1     -11.520  10.280  69.587  1.00  0.00    -0.210 S  
HETATM   25  O   UNL     1     -12.607  10.868  68.838  1.00  0.00    -0.338 OA 
HETATM   26  O   UNL     1     -11.583  10.947  71.050  1.00  0.00    -0.211 OA 
HETATM   27  O   UNL     1     -11.408   8.854  69.758  1.00  0.00    -0.090 OA 
ENDBRANCH  12  23
ENDBRANCH   9  10
ENDBRANCH   6   9
BRANCH   7  28
HETATM   28  O   UNL     1     -10.101  14.079  69.033  1.00  0.00    -0.175 OA 
HETATM   29  O   UNL     1     -10.786  16.233  70.077  1.00  0.00    -0.335 OA 
HETATM   30  O   UNL     1     -11.837  14.174  70.831  1.00  0.00    -0.306 OA 
HETATM   31  S   UNL     1     -11.340  15.007  69.550  1.00  0.00    -0.307 S  
HETATM   32  O   UNL     1     -12.395  14.975  68.566  1.00  0.00    -0.086 OA 
ENDBRANCH   7  28
BRANCH   8  33
HETATM   33  O   UNL     1      -7.959  15.935  68.297  1.00  0.00    -0.134 OA 
HETATM   34  S   UNL     1      -6.529  15.740  67.548  1.00  0.00    -0.160 S  
HETATM   35  O   UNL     1      -6.202  14.336  67.517  1.00  0.00    -0.313 OA 
HETATM   36  O   UNL     1      -6.505  16.585  66.375  1.00  0.00    -0.218 OA 
HETATM   37  O   UNL     1      -5.512  16.346  68.634  1.00  0.00    -0.103 OA 
ENDBRANCH   8  33
TORSDOF 6
ENDMDL
MODEL       96
REMARK 921   NORMALIZED FREE ENERGY PREDICTED BY IDOCK:   -4.06 KCAL/MOL
REMARK 922        TOTAL FREE ENERGY PREDICTED BY IDOCK:   -7.58 KCAL/MOL
REMARK 923 INTER-LIGAND FREE ENERGY PREDICTED BY IDOCK:   -6.59 KCAL/MOL
REMARK 924 INTRA-LIGAND FREE ENERGY PREDICTED BY IDOCK:   -1.00 KCAL/MOL
REMARK 927      BINDING AFFINITY PREDICTED BY RF-SCORE:    0.00 PKD
ROOT
HETATM    1  O   UNL     1     -11.069   5.103  65.708  1.00  0.00    -0.779 OA 
HETATM    2  H   UNL     1     -10.466   4.613  65.163  1.00  0.00     0.000 HD 
HETATM    3  C   UNL     1     -10.315   5.856  66.655  1.00  0.00    -0.226 C  
HETATM    4  C   UNL     1     -11.280   6.640  67.525  1.00  0.00    -0.191 C  
HETATM    5  O   UNL     1     -10.580   7.398  68.488  1.00  0.00    -0.199 OA 
HETATM    6  C   UNL     1      -9.739   8.389  67.931  1.00  0.00    -0.158 C  
HETATM    7  C   UNL     1      -8.683   7.796  66.968  1.00  0.00    -0.129 C  
HETATM    8  C   UNL     1      -9.301   6.786  65.969  1.00  0.00     0.016 C  
ENDROOT
BRANCH   6   9
HETATM    9  O   UNL     1      -9.049   9.041  69.002  1.00  0.00    -0.141 OA 
BRANCH   9  10
HETATM   10  C   UNL     1      -9.890   9.768  69.907  1.00  0.00    -0.243 C  
HETATM   11  H   UNL     1     -13.851  12.054  71.037  1.00  0.00     0.000 HD 
HETATM   12  C   UNL     1     -10.493  10.989  69.160  1.00  0.00    -0.210 C  
HETATM   13  C   UNL     1     -11.020   8.907  70.492  1.00  0.00    -0.241 C  
HETATM   14  C   UNL     1     -11.540  11.703  70.038  1.00  0.00    -0.255 C  
HETATM   15  O   UNL     1     -13.405  11.369  71.521  1.00  0.00    -0.291 OA 
HETATM   16  O   UNL     1     -11.883   9.672  71.329  1.00  0.00    -0.322 OA 
HETATM   17  C   UNL     1     -12.548  10.695  70.606  1.00  0.00    -0.365 C  
BRANCH  14  18
HETATM   18  O   UNL     1     -12.125  12.863  69.453  1.00  0.00    -0.275 OA 
HETATM   19  S   UNL     1     -11.924  14.365  70.029  1.00  0.00    -0.353 S  
HETATM   20  O   UNL     1     -12.270  14.365  71.431  1.00  0.00    -0.338 OA 
HETATM   21  O   UNL     1     -10.343  14.624  69.913  1.00  0.00    -0.036 OA 
HETATM   22  O   UNL     1     -12.543  15.268  69.087  1.00  0.00     0.002 OA 
ENDBRANCH  14  18
BRANCH  12  23
HETATM   23  O   UNL     1      -9.493  11.881  68.645  1.00  0.00    -0.171 OA 
HETATM   24  S   UNL     1      -9.546  12.461  67.131  1.00  0.00    -0.211 S  
HETATM   25  O   UNL     1      -9.271  11.371  66.224  1.00  0.00    -0.196 OA 
HETATM   26  O   UNL     1      -8.244  13.405  67.091  1.00  0.00    -0.174 OA 
HETATM   27  O   UNL     1     -10.704  13.302  66.969  1.00  0.00    -0.258 OA 
ENDBRANCH  12  23
ENDBRANCH   9  10
ENDBRANCH   6   9
BRANCH   7  28
HETATM   28  O   UNL     1      -8.064   8.842  66.199  1.00  0.00    -0.110 OA 
HETATM   29  O   UNL     1      -6.420  10.122  67.563  1.00  0.00    -0.065 OA 
HETATM   30  O   UNL     1      -6.143  10.052  65.149  1.00  0.00    -0.089 OA 
HETATM   31  S   UNL     1      -6.491   9.191  66.461  1.00  0.00    -0.067 S  
HETATM   32  O   UNL     1      -5.723   7.971  66.405  1.00  0.00    -0.038 OA 
ENDBRANCH   7  28
BRANCH   8  33
HETATM   33  O   UNL     1      -8.210   6.021  65.427  1.00  0.00    -0.129 OA 
HETATM   34  S   UNL     1      -8.043   5.840  63.820  1.00  0.00    -0.077 S  
HETATM   35  O   UNL     1      -8.884   4.754  63.380  1.00  0.00    -0.141 OA 
HETATM   36  O   UNL     1      -8.054   7.149  63.205  1.00  0.00    -0.098 OA 
HETATM   37  O   UNL     1      -6.557   5.239  63.717  1.00  0.00    -0.029 OA 
ENDBRANCH   8  33
TORSDOF 6
ENDMDL
MODEL       97
REMARK 921   NORMALIZED FREE ENERGY PREDICTED BY IDOCK:   -4.03 KCAL/MOL
REMARK 922        TOTAL FREE ENERGY PREDICTED BY IDOCK:   -7.55 KCAL/MOL
REMARK 923 INTER-LIGAND FREE ENERGY PREDICTED BY IDOCK:   -7.95 KCAL/MOL
REMARK 924 INTRA-LIGAND FREE ENERGY PREDICTED BY IDOCK:    0.40 KCAL/MOL
REMARK 927      BINDING AFFINITY PREDICTED BY RF-SCORE:    0.00 PKD
ROOT
HETATM    1  O   UNL     1     -12.708   9.356  71.331  1.00  0.00    -0.318 OA 
HETATM    2  H   UNL     1     -12.340   8.612  71.792  1.00  0.00     0.000 HD 
HETATM    3  C   UNL     1     -11.638  10.173  70.864  1.00  0.00    -0.372 C  
HETATM    4  C   UNL     1     -12.227  11.363  70.128  1.00  0.00    -0.321 C  
HETATM    5  O   UNL     1     -11.203  12.211  69.652  1.00  0.00    -0.183 OA 
HETATM    6  C   UNL     1     -10.357  11.601  68.697  1.00  0.00    -0.215 C  
HETATM    7  C   UNL     1      -9.671  10.326  69.242  1.00  0.00    -0.225 C  
HETATM    8  C   UNL     1     -10.667   9.387  69.968  1.00  0.00    -0.239 C  
ENDROOT
BRANCH   6   9
HETATM    9  O   UNL     1      -9.337  12.539  68.342  1.00  0.00    -0.202 OA 
BRANCH   9  10
HETATM   10  C   UNL     1      -9.789  13.890  68.180  1.00  0.00    -0.240 C  
HETATM   11  H   UNL     1      -9.455  18.245  66.414  1.00  0.00     0.000 HD 
HETATM   12  C   UNL     1      -8.571  14.846  68.310  1.00  0.00    -0.160 C  
HETATM   13  C   UNL     1     -10.493  14.126  66.835  1.00  0.00    -0.272 C  
HETATM   14  C   UNL     1      -8.976  16.295  67.971  1.00  0.00    -0.187 C  
HETATM   15  O   UNL     1     -10.213  17.672  66.434  1.00  0.00    -0.341 OA 
HETATM   16  O   UNL     1     -10.865  15.492  66.669  1.00  0.00    -0.311 OA 
HETATM   17  C   UNL     1      -9.734  16.347  66.638  1.00  0.00    -0.257 C  
BRANCH  14  18
HETATM   18  O   UNL     1      -7.931  17.256  68.100  1.00  0.00    -0.208 OA 
HETATM   19  S   UNL     1      -6.814  17.533  66.958  1.00  0.00    -0.191 S  
HETATM   20  O   UNL     1      -6.204  16.274  66.603  1.00  0.00    -0.286 OA 
HETATM   21  O   UNL     1      -7.661  18.043  65.692  1.00  0.00    -0.545 OA 
HETATM   22  O   UNL     1      -6.033  18.667  67.395  1.00  0.00    -0.168 OA 
ENDBRANCH  14  18
BRANCH  12  23
HETATM   23  O   UNL     1      -7.904  14.733  69.576  1.00  0.00    -0.140 OA 
HETATM   24  S   UNL     1      -6.399  14.141  69.712  1.00  0.00    -0.133 S  
HETATM   25  O   UNL     1      -6.448  12.724  69.430  1.00  0.00    -0.111 OA 
HETATM   26  O   UNL     1      -6.135  14.264  71.295  1.00  0.00    -0.196 OA 
HETATM   27  O   UNL     1      -5.467  15.011  69.042  1.00  0.00    -0.096 OA 
ENDBRANCH  12  23
ENDBRANCH   9  10
ENDBRANCH   6   9
BRANCH   7  28
HETATM   28  O   UNL     1      -9.077   9.579  68.166  1.00  0.00    -0.127 OA 
HETATM   29  O   UNL     1     -10.681   7.934  67.206  1.00  0.00    -0.301 OA 
HETATM   30  O   UNL     1      -8.875   8.769  65.808  1.00  0.00    -0.172 OA 
HETATM   31  S   UNL     1     -10.000   9.167  66.885  1.00  0.00    -0.261 S  
HETATM   32  O   UNL     1     -10.680  10.343  66.398  1.00  0.00    -0.167 OA 
ENDBRANCH   7  28
BRANCH   8  33
HETATM   33  O   UNL     1      -9.879   8.482  70.760  1.00  0.00    -0.170 OA 
HETATM   34  S   UNL     1     -10.385   6.962  71.031  1.00  0.00    -0.205 S  
HETATM   35  O   UNL     1     -11.305   6.964  72.141  1.00  0.00    -0.248 OA 
HETATM   36  O   UNL     1     -10.680   6.341  69.759  1.00  0.00    -0.235 OA 
HETATM   37  O   UNL     1      -9.060   6.283  71.635  1.00  0.00    -0.145 OA 
ENDBRANCH   8  33
TORSDOF 6
ENDMDL
MODEL       98
REMARK 921   NORMALIZED FREE ENERGY PREDICTED BY IDOCK:   -4.02 KCAL/MOL
REMARK 922        TOTAL FREE ENERGY PREDICTED BY IDOCK:   -7.54 KCAL/MOL
REMARK 923 INTER-LIGAND FREE ENERGY PREDICTED BY IDOCK:   -7.92 KCAL/MOL
REMARK 924 INTRA-LIGAND FREE ENERGY PREDICTED BY IDOCK:    0.38 KCAL/MOL
REMARK 927      BINDING AFFINITY PREDICTED BY RF-SCORE:    0.00 PKD
ROOT
HETATM    1  O   UNL     1      -9.703  14.497  64.612  1.00  0.00    -0.480 OA 
HETATM    2  H   UNL     1      -9.217  15.271  64.867  1.00  0.00     0.000 HD 
HETATM    3  C   UNL     1      -9.921  13.698  65.772  1.00  0.00    -0.261 C  
HETATM    4  C   UNL     1     -10.699  12.459  65.365  1.00  0.00    -0.282 C  
HETATM    5  O   UNL     1     -10.932  11.628  66.482  1.00  0.00    -0.276 OA 
HETATM    6  C   UNL     1     -11.738  12.226  67.478  1.00  0.00    -0.332 C  
HETATM    7  C   UNL     1     -11.134  13.546  68.015  1.00  0.00    -0.258 C  
HETATM    8  C   UNL     1     -10.653  14.479  66.875  1.00  0.00    -0.279 C  
ENDROOT
BRANCH   6   9
HETATM    9  O   UNL     1     -11.850  11.309  68.570  1.00  0.00    -0.438 OA 
BRANCH   9  10
HETATM   10  C   UNL     1     -10.602  10.817  69.075  1.00  0.00    -0.219 C  
HETATM   11  H   UNL     1      -7.647   7.364  70.315  1.00  0.00     0.000 HD 
HETATM   12  C   UNL     1     -10.887   9.684  70.099  1.00  0.00    -0.280 C  
HETATM   13  C   UNL     1      -9.677  10.293  67.966  1.00  0.00    -0.149 C  
HETATM   14  C   UNL     1      -9.576   9.003  70.539  1.00  0.00    -0.219 C  
HETATM   15  O   UNL     1      -7.475   8.121  69.767  1.00  0.00    -0.080 OA 
HETATM   16  O   UNL     1      -8.476   9.741  68.500  1.00  0.00    -0.112 OA 
HETATM   17  C   UNL     1      -8.733   8.611  69.318  1.00  0.00    -0.133 C  
BRANCH  14  18
HETATM   18  O   UNL     1      -9.730   7.972  71.511  1.00  0.00    -0.157 OA 
HETATM   19  S   UNL     1     -10.123   6.442  71.149  1.00  0.00    -0.186 S  
HETATM   20  O   UNL     1     -11.318   6.458  70.339  1.00  0.00    -0.336 OA 
HETATM   21  O   UNL     1      -8.911   5.930  70.227  1.00  0.00    -0.143 OA 
HETATM   22  O   UNL     1     -10.036   5.680  72.374  1.00  0.00    -0.175 OA 
ENDBRANCH  14  18
BRANCH  12  23
HETATM   23  O   UNL     1     -11.691  10.120  71.206  1.00  0.00    -0.366 OA 
HETATM   24  S   UNL     1     -13.184   9.545  71.472  1.00  0.00    -0.393 S  
HETATM   25  O   UNL     1     -14.052  10.055  70.435  1.00  0.00     0.510 OA 
HETATM   26  O   UNL     1     -13.605  10.321  72.817  1.00  0.00     0.198 OA 
HETATM   27  O   UNL     1     -13.122   8.138  71.777  1.00  0.00    -0.332 OA 
ENDBRANCH  12  23
ENDBRANCH   9  10
ENDBRANCH   6   9
BRANCH   7  28
HETATM   28  O   UNL     1     -12.112  14.268  68.784  1.00  0.00    -0.324 OA 
HETATM   29  O   UNL     1     -12.386  13.290  71.057  1.00  0.00    -0.362 OA 
HETATM   30  O   UNL     1     -12.919  15.637  70.715  1.00  0.00    -0.478 OA 
HETATM   31  S   UNL     1     -11.873  14.462  70.386  1.00  0.00    -0.308 S  
HETATM   32  O   UNL     1     -10.545  14.980  70.604  1.00  0.00    -0.126 OA 
ENDBRANCH   7  28
BRANCH   8  33
HETATM   33  O   UNL     1      -9.770  15.442  67.475  1.00  0.00    -0.208 OA 
HETATM   34  S   UNL     1      -9.927  17.026  67.148  1.00  0.00    -0.289 S  
HETATM   35  O   UNL     1      -9.239  17.322  65.915  1.00  0.00    -0.507 OA 
HETATM   36  O   UNL     1     -11.295  17.417  67.405  1.00  0.00     0.124 OA 
HETATM   37  O   UNL     1      -8.988  17.682  68.275  1.00  0.00    -0.261 OA 
ENDBRANCH   8  33
TORSDOF 6
ENDMDL
MODEL       99
REMARK 921   NORMALIZED FREE ENERGY PREDICTED BY IDOCK:   -3.99 KCAL/MOL
REMARK 922        TOTAL FREE ENERGY PREDICTED BY IDOCK:   -7.49 KCAL/MOL
REMARK 923 INTER-LIGAND FREE ENERGY PREDICTED BY IDOCK:   -6.43 KCAL/MOL
REMARK 924 INTRA-LIGAND FREE ENERGY PREDICTED BY IDOCK:   -1.06 KCAL/MOL
REMARK 927      BINDING AFFINITY PREDICTED BY RF-SCORE:    0.00 PKD
ROOT
HETATM    1  O   UNL     1      -6.297   7.433  65.337  1.00  0.00    -0.037 OA 
HETATM    2  H   UNL     1      -6.394   6.681  64.766  1.00  0.00     0.000 HD 
HETATM    3  C   UNL     1      -7.581   8.018  65.538  1.00  0.00    -0.085 C  
HETATM    4  C   UNL     1      -7.426   9.220  66.452  1.00  0.00    -0.093 C  
HETATM    5  O   UNL     1      -8.673   9.842  66.674  1.00  0.00    -0.130 OA 
HETATM    6  C   UNL     1      -9.608   9.020  67.346  1.00  0.00    -0.152 C  
HETATM    7  C   UNL     1      -9.889   7.701  66.587  1.00  0.00    -0.213 C  
HETATM    8  C   UNL     1      -8.587   7.007  66.112  1.00  0.00    -0.143 C  
ENDROOT
BRANCH   6   9
HETATM    9  O   UNL     1     -10.838   9.742  67.456  1.00  0.00    -0.283 OA 
BRANCH   9  10
HETATM   10  C   UNL     1     -10.911  10.644  68.568  1.00  0.00    -0.233 C  
HETATM   11  H   UNL     1     -13.056  13.934  71.169  1.00  0.00     0.000 HD 
HETATM   12  C   UNL     1     -11.435  12.017  68.067  1.00  0.00    -0.328 C  
HETATM   13  C   UNL     1     -11.814  10.124  69.698  1.00  0.00    -0.045 C  
HETATM   14  C   UNL     1     -11.696  12.968  69.252  1.00  0.00    -0.320 C  
HETATM   15  O   UNL     1     -12.643  13.128  71.458  1.00  0.00    -0.296 OA 
HETATM   16  O   UNL     1     -11.928  11.072  70.756  1.00  0.00    -0.333 OA 
HETATM   17  C   UNL     1     -12.546  12.274  70.325  1.00  0.00     0.040 C  
BRANCH  14  18
HETATM   18  O   UNL     1     -12.144  14.271  68.890  1.00  0.00    -0.330 OA 
HETATM   19  S   UNL     1     -11.282  15.622  69.132  1.00  0.00    -0.342 S  
HETATM   20  O   UNL     1     -10.890  15.669  70.521  1.00  0.00    -0.318 OA 
HETATM   21  O   UNL     1      -9.955  15.408  68.254  1.00  0.00    -0.211 OA 
HETATM   22  O   UNL     1     -12.003  16.705  68.503  1.00  0.00     0.176 OA 
ENDBRANCH  14  18
BRANCH  12  23
HETATM   23  O   UNL     1     -10.598  12.600  67.056  1.00  0.00    -0.237 OA 
HETATM   24  S   UNL     1     -11.143  12.929  65.564  1.00  0.00    -0.284 S  
HETATM   25  O   UNL     1     -11.366  11.675  64.882  1.00  0.00    -0.272 OA 
HETATM   26  O   UNL     1      -9.844  13.580  64.872  1.00  0.00    -0.180 OA 
HETATM   27  O   UNL     1     -12.162  13.945  65.627  1.00  0.00    -0.398 OA 
ENDBRANCH  12  23
ENDBRANCH   9  10
ENDBRANCH   6   9
BRANCH   7  28
HETATM   28  O   UNL     1     -10.589   6.775  67.436  1.00  0.00    -0.223 OA 
HETATM   29  O   UNL     1      -9.010   5.301  68.673  1.00  0.00    -0.106 OA 
HETATM   30  O   UNL     1     -11.210   5.723  69.619  1.00  0.00    -0.353 OA 
HETATM   31  S   UNL     1      -9.943   6.384  68.882  1.00  0.00    -0.155 S  
HETATM   32  O   UNL     1      -9.604   7.594  69.589  1.00  0.00    -0.160 OA 
ENDBRANCH   7  28
BRANCH   8  33
HETATM   33  O   UNL     1      -8.971   6.056  65.103  1.00  0.00    -0.022 OA 
HETATM   34  S   UNL     1      -8.114   4.693  64.882  1.00  0.00    -0.107 S  
HETATM   35  O   UNL     1      -6.985   4.980  64.032  1.00  0.00    -0.046 OA 
HETATM   36  O   UNL     1      -7.996   4.012  66.152  1.00  0.00    -0.093 OA 
HETATM   37  O   UNL     1      -9.098   3.845  63.937  1.00  0.00    -0.118 OA 
ENDBRANCH   8  33
TORSDOF 6
ENDMDL
MODEL      100
REMARK 921   NORMALIZED FREE ENERGY PREDICTED BY IDOCK:   -3.98 KCAL/MOL
REMARK 922        TOTAL FREE ENERGY PREDICTED BY IDOCK:   -7.48 KCAL/MOL
REMARK 923 INTER-LIGAND FREE ENERGY PREDICTED BY IDOCK:   -8.88 KCAL/MOL
REMARK 924 INTRA-LIGAND FREE ENERGY PREDICTED BY IDOCK:    1.40 KCAL/MOL
REMARK 927      BINDING AFFINITY PREDICTED BY RF-SCORE:    0.00 PKD
ROOT
HETATM    1  O   UNL     1     -12.551  11.416  71.948  1.00  0.00    -0.231 OA 
HETATM    2  H   UNL     1     -12.104  10.742  72.445  1.00  0.00     0.000 HD 
HETATM    3  C   UNL     1     -11.810  11.664  70.755  1.00  0.00    -0.015 C  
HETATM    4  C   UNL     1     -12.525  12.741  69.960  1.00  0.00     0.001 C  
HETATM    5  O   UNL     1     -11.823  13.030  68.770  1.00  0.00    -0.303 OA 
HETATM    6  C   UNL     1     -11.745  11.938  67.875  1.00  0.00    -0.298 C  
HETATM    7  C   UNL     1     -11.068  10.700  68.510  1.00  0.00    -0.263 C  
HETATM    8  C   UNL     1     -11.622  10.386  69.922  1.00  0.00    -0.284 C  
ENDROOT
BRANCH   6   9
HETATM    9  O   UNL     1     -10.966  12.342  66.745  1.00  0.00    -0.245 OA 
BRANCH   9  10
HETATM   10  C   UNL     1     -10.064  13.429  66.991  1.00  0.00    -0.247 C  
HETATM   11  H   UNL     1      -8.608  17.211  69.392  1.00  0.00     0.000 HD 
HETATM   12  C   UNL     1     -10.891  14.712  67.277  1.00  0.00    -0.305 C  
HETATM   13  C   UNL     1      -9.109  13.154  68.163  1.00  0.00    -0.200 C  
HETATM   14  C   UNL     1      -9.970  15.867  67.720  1.00  0.00    -0.229 C  
HETATM   15  O   UNL     1      -8.103  16.454  69.119  1.00  0.00    -0.242 OA 
HETATM   16  O   UNL     1      -8.275  14.278  68.434  1.00  0.00    -0.133 OA 
HETATM   17  C   UNL     1      -9.028  15.409  68.841  1.00  0.00    -0.208 C  
BRANCH  14  18
HETATM   18  O   UNL     1     -10.634  17.103  67.969  1.00  0.00    -0.348 OA 
HETATM   19  S   UNL     1     -10.189  18.516  67.312  1.00  0.00    -0.392 S  
HETATM   20  O   UNL     1      -8.784  18.718  67.575  1.00  0.00    -0.271 OA 
HETATM   21  O   UNL     1     -10.365  18.290  65.732  1.00  0.00    -0.594 OA 
HETATM   22  O   UNL     1     -11.187  19.492  67.686  1.00  0.00    -0.252 OA 
ENDBRANCH  14  18
BRANCH  12  23
HETATM   23  O   UNL     1     -11.758  15.073  66.192  1.00  0.00    -0.242 OA 
HETATM   24  S   UNL     1     -11.277  15.019  64.643  1.00  0.00    -0.287 S  
HETATM   25  O   UNL     1     -10.314  16.077  64.437  1.00  0.00    -0.062 OA 
HETATM   26  O   UNL     1     -12.608  15.478  63.865  1.00  0.00    -0.677 OA 
HETATM   27  O   UNL     1     -10.993  13.658  64.265  1.00  0.00    -0.382 OA 
ENDBRANCH  12  23
ENDBRANCH   9  10
ENDBRANCH   6   9
BRANCH   7  28
HETATM   28  O   UNL     1     -11.284   9.537  67.691  1.00  0.00    -0.081 OA 
HETATM   29  O   UNL     1      -9.846   9.576  65.658  1.00  0.00    -0.297 OA 
HETATM   30  O   UNL     1     -10.611   7.433  66.517  1.00  0.00    -0.166 OA 
HETATM   31  S   UNL     1     -10.014   8.873  66.910  1.00  0.00    -0.272 S  
HETATM   32  O   UNL     1      -8.940   8.664  67.850  1.00  0.00    -0.139 OA 
ENDBRANCH   7  28
BRANCH   8  33
HETATM   33  O   UNL     1     -10.671   9.513  70.554  1.00  0.00    -0.250 OA 
HETATM   34  S   UNL     1     -11.160   8.148  71.289  1.00  0.00    -0.256 S  
HETATM   35  O   UNL     1     -11.597   8.465  72.626  1.00  0.00    -0.385 OA 
HETATM   36  O   UNL     1     -11.955   7.382  70.356  1.00  0.00    -0.161 OA 
HETATM   37  O   UNL     1      -9.763   7.386  71.515  1.00  0.00    -0.160 OA 
ENDBRANCH   8  33
TORSDOF 6
ENDMDL
MODEL      101
REMARK 921   NORMALIZED FREE ENERGY PREDICTED BY IDOCK:   -3.97 KCAL/MOL
REMARK 922        TOTAL FREE ENERGY PREDICTED BY IDOCK:   -7.46 KCAL/MOL
REMARK 923 INTER-LIGAND FREE ENERGY PREDICTED BY IDOCK:   -8.12 KCAL/MOL
REMARK 924 INTRA-LIGAND FREE ENERGY PREDICTED BY IDOCK:    0.66 KCAL/MOL
REMARK 927      BINDING AFFINITY PREDICTED BY RF-SCORE:    0.00 PKD
ROOT
HETATM    1  O   UNL     1     -11.627   9.594  70.514  1.00  0.00    -0.264 OA 
HETATM    2  H   UNL     1     -11.107   8.801  70.455  1.00  0.00     0.000 HD 
HETATM    3  C   UNL     1     -11.017  10.596  69.704  1.00  0.00    -0.278 C  
HETATM    4  C   UNL     1     -11.848  11.863  69.797  1.00  0.00    -0.340 C  
HETATM    5  O   UNL     1     -11.278  12.891  69.017  1.00  0.00    -0.257 OA 
HETATM    6  C   UNL     1     -11.245  12.605  67.633  1.00  0.00    -0.283 C  
HETATM    7  C   UNL     1     -10.461  11.309  67.315  1.00  0.00    -0.214 C  
HETATM    8  C   UNL     1     -10.862  10.136  68.245  1.00  0.00    -0.252 C  
ENDROOT
BRANCH   6   9
HETATM    9  O   UNL     1     -10.597  13.693  66.967  1.00  0.00    -0.271 OA 
BRANCH   9  10
HETATM   10  C   UNL     1     -10.331  14.834  67.794  1.00  0.00    -0.244 C  
HETATM   11  H   UNL     1      -9.604  19.436  68.485  1.00  0.00     0.000 HD 
HETATM   12  C   UNL     1      -9.245  15.708  67.109  1.00  0.00    -0.212 C  
HETATM   13  C   UNL     1     -11.586  15.679  68.062  1.00  0.00    -0.239 C  
HETATM   14  C   UNL     1      -9.050  17.034  67.871  1.00  0.00    -0.232 C  
HETATM   15  O   UNL     1     -10.193  18.854  68.952  1.00  0.00    -0.360 OA 
HETATM   16  O   UNL     1     -11.280  16.846  68.822  1.00  0.00    -0.228 OA 
HETATM   17  C   UNL     1     -10.402  17.715  68.125  1.00  0.00    -0.386 C  
BRANCH  14  18
HETATM   18  O   UNL     1      -8.043  17.890  67.339  1.00  0.00    -0.208 OA 
HETATM   19  S   UNL     1      -7.029  18.766  68.251  1.00  0.00    -0.253 S  
HETATM   20  O   UNL     1      -7.811  19.542  69.184  1.00  0.00    -0.348 OA 
HETATM   21  O   UNL     1      -6.207  17.671  69.091  1.00  0.00    -0.204 OA 
HETATM   22  O   UNL     1      -6.074  19.378  67.356  1.00  0.00    -0.189 OA 
ENDBRANCH  14  18
BRANCH  12  23
HETATM   23  O   UNL     1      -8.014  15.001  66.890  1.00  0.00    -0.195 OA 
HETATM   24  S   UNL     1      -7.231  14.235  68.087  1.00  0.00    -0.146 S  
HETATM   25  O   UNL     1      -6.686  15.235  68.977  1.00  0.00    -0.109 OA 
HETATM   26  O   UNL     1      -5.971  13.606  67.310  1.00  0.00    -0.332 OA 
HETATM   27  O   UNL     1      -8.033  13.145  68.580  1.00  0.00    -0.139 OA 
ENDBRANCH  12  23
ENDBRANCH   9  10
ENDBRANCH   6   9
BRANCH   7  28
HETATM   28  O   UNL     1     -10.710  10.893  65.961  1.00  0.00    -0.224 OA 
HETATM   29  O   UNL     1      -9.809  12.538  64.323  1.00  0.00    -0.211 OA 
HETATM   30  O   UNL     1     -10.065  10.218  63.640  1.00  0.00    -0.163 OA 
HETATM   31  S   UNL     1      -9.585  11.200  64.819  1.00  0.00    -0.237 S  
HETATM   32  O   UNL     1      -8.302  10.734  65.286  1.00  0.00    -0.160 OA 
ENDBRANCH   7  28
BRANCH   8  33
HETATM   33  O   UNL     1      -9.820   9.151  68.140  1.00  0.00    -0.154 OA 
HETATM   34  S   UNL     1     -10.180   7.568  68.069  1.00  0.00    -0.203 S  
HETATM   35  O   UNL     1     -10.371   7.069  69.409  1.00  0.00    -0.193 OA 
HETATM   36  O   UNL     1     -11.135   7.360  67.004  1.00  0.00    -0.268 OA 
HETATM   37  O   UNL     1      -8.772   6.937  67.623  1.00  0.00    -0.121 OA 
ENDBRANCH   8  33
TORSDOF 6
ENDMDL
MODEL      102
REMARK 921   NORMALIZED FREE ENERGY PREDICTED BY IDOCK:   -3.94 KCAL/MOL
REMARK 922        TOTAL FREE ENERGY PREDICTED BY IDOCK:   -7.42 KCAL/MOL
REMARK 923 INTER-LIGAND FREE ENERGY PREDICTED BY IDOCK:   -9.45 KCAL/MOL
REMARK 924 INTRA-LIGAND FREE ENERGY PREDICTED BY IDOCK:    2.03 KCAL/MOL
REMARK 927      BINDING AFFINITY PREDICTED BY RF-SCORE:    0.00 PKD
ROOT
HETATM    1  O   UNL     1     -10.796  15.818  64.084  1.00  0.00    -0.739 OA 
HETATM    2  H   UNL     1     -10.452  16.612  64.475  1.00  0.00     0.000 HD 
HETATM    3  C   UNL     1     -10.646  14.751  65.017  1.00  0.00    -0.429 C  
HETATM    4  C   UNL     1     -11.196  13.483  64.391  1.00  0.00    -0.379 C  
HETATM    5  O   UNL     1     -11.062  12.391  65.277  1.00  0.00    -0.287 OA 
HETATM    6  C   UNL     1     -11.804  12.533  66.472  1.00  0.00    -0.367 C  
HETATM    7  C   UNL     1     -11.416  13.806  67.262  1.00  0.00    -0.341 C  
HETATM    8  C   UNL     1     -11.339  15.060  66.355  1.00  0.00    -0.275 C  
ENDROOT
BRANCH   6   9
HETATM    9  O   UNL     1     -11.537  11.396  67.299  1.00  0.00    -0.523 OA 
BRANCH   9  10
HETATM   10  C   UNL     1     -10.147  11.094  67.480  1.00  0.00    -0.183 C  
HETATM   11  H   UNL     1      -5.748  10.484  65.910  1.00  0.00     0.000 HD 
HETATM   12  C   UNL     1      -9.697  10.118  66.358  1.00  0.00    -0.205 C  
HETATM   13  C   UNL     1      -9.259  12.347  67.466  1.00  0.00    -0.183 C  
HETATM   14  C   UNL     1      -8.171   9.900  66.404  1.00  0.00    -0.117 C  
HETATM   15  O   UNL     1      -6.045  10.998  66.652  1.00  0.00    -0.096 OA 
HETATM   16  O   UNL     1      -7.877  12.012  67.572  1.00  0.00    -0.136 OA 
HETATM   17  C   UNL     1      -7.434  11.244  66.464  1.00  0.00    -0.105 C  
BRANCH  14  18
HETATM   18  O   UNL     1      -7.665   8.987  65.435  1.00  0.00    -0.092 OA 
HETATM   19  S   UNL     1      -7.697   9.257  63.837  1.00  0.00    -0.125 S  
HETATM   20  O   UNL     1      -9.051   9.586  63.458  1.00  0.00    -0.230 OA 
HETATM   21  O   UNL     1      -6.798  10.574  63.640  1.00  0.00    -0.052 OA 
HETATM   22  O   UNL     1      -6.965   8.181  63.209  1.00  0.00    -0.083 OA 
ENDBRANCH  14  18
BRANCH  12  23
HETATM   23  O   UNL     1     -10.438   8.889  66.354  1.00  0.00    -0.219 OA 
HETATM   24  S   UNL     1     -10.333   7.810  67.561  1.00  0.00    -0.276 S  
HETATM   25  O   UNL     1      -9.022   7.206  67.509  1.00  0.00    -0.122 OA 
HETATM   26  O   UNL     1     -11.362   6.670  67.079  1.00  0.00    -0.348 OA 
HETATM   27  O   UNL     1     -10.851   8.383  68.777  1.00  0.00    -0.102 OA 
ENDBRANCH  12  23
ENDBRANCH   9  10
ENDBRANCH   6   9
BRANCH   7  28
HETATM   28  O   UNL     1     -12.388  14.073  68.288  1.00  0.00    -0.252 OA 
HETATM   29  O   UNL     1     -12.023  12.629  70.284  1.00  0.00    -0.348 OA 
HETATM   30  O   UNL     1     -13.146  14.767  70.569  1.00  0.00    -0.332 OA 
HETATM   31  S   UNL     1     -11.926  14.005  69.852  1.00  0.00    -0.353 S  
HETATM   32  O   UNL     1     -10.740  14.807  70.028  1.00  0.00    -0.184 OA 
ENDBRANCH   7  28
BRANCH   8  33
HETATM   33  O   UNL     1     -10.597  16.052  67.084  1.00  0.00    -0.306 OA 
HETATM   34  S   UNL     1      -9.834  17.256  66.303  1.00  0.00    -0.264 S  
HETATM   35  O   UNL     1      -8.550  16.783  65.849  1.00  0.00    -0.500 OA 
HETATM   36  O   UNL     1     -10.785  17.919  65.439  1.00  0.00    -0.634 OA 
HETATM   37  O   UNL     1      -9.469  18.246  67.516  1.00  0.00    -0.263 OA 
ENDBRANCH   8  33
TORSDOF 6
ENDMDL
MODEL      103
REMARK 921   NORMALIZED FREE ENERGY PREDICTED BY IDOCK:   -3.94 KCAL/MOL
REMARK 922        TOTAL FREE ENERGY PREDICTED BY IDOCK:   -7.42 KCAL/MOL
REMARK 923 INTER-LIGAND FREE ENERGY PREDICTED BY IDOCK:   -6.79 KCAL/MOL
REMARK 924 INTRA-LIGAND FREE ENERGY PREDICTED BY IDOCK:   -0.63 KCAL/MOL
REMARK 927      BINDING AFFINITY PREDICTED BY RF-SCORE:    0.00 PKD
ROOT
HETATM    1  O   UNL     1     -11.096  12.048  64.055  1.00  0.00    -0.325 OA 
HETATM    2  H   UNL     1     -11.203  12.991  64.098  1.00  0.00     0.000 HD 
HETATM    3  C   UNL     1     -10.065  11.667  64.962  1.00  0.00    -0.263 C  
HETATM    4  C   UNL     1      -9.895  10.160  64.893  1.00  0.00    -0.319 C  
HETATM    5  O   UNL     1      -8.874   9.733  65.770  1.00  0.00    -0.141 OA 
HETATM    6  C   UNL     1      -9.154   9.984  67.133  1.00  0.00    -0.138 C  
HETATM    7  C   UNL     1      -9.398  11.485  67.421  1.00  0.00    -0.166 C  
HETATM    8  C   UNL     1     -10.366  12.130  66.397  1.00  0.00    -0.218 C  
ENDROOT
BRANCH   6   9
HETATM    9  O   UNL     1      -8.026   9.560  67.905  1.00  0.00    -0.098 OA 
BRANCH   9  10
HETATM   10  C   UNL     1      -8.285   9.375  69.302  1.00  0.00    -0.111 C  
HETATM   11  H   UNL     1      -7.706   7.161  73.420  1.00  0.00     0.000 HD 
HETATM   12  C   UNL     1      -8.510   7.862  69.575  1.00  0.00    -0.133 C  
HETATM   13  C   UNL     1      -7.149   9.899  70.193  1.00  0.00    -0.145 C  
HETATM   14  C   UNL     1      -8.620   7.590  71.088  1.00  0.00    -0.121 C  
HETATM   15  O   UNL     1      -7.668   8.094  73.240  1.00  0.00    -0.148 OA 
HETATM   16  O   UNL     1      -7.398   9.635  71.572  1.00  0.00    -0.266 OA 
HETATM   17  C   UNL     1      -7.453   8.244  71.841  1.00  0.00    -0.098 C  
BRANCH  14  18
HETATM   18  O   UNL     1      -8.866   6.231  71.438  1.00  0.00    -0.138 OA 
HETATM   19  S   UNL     1     -10.252   5.704  72.095  1.00  0.00    -0.209 S  
HETATM   20  O   UNL     1     -10.540   6.511  73.257  1.00  0.00    -0.240 OA 
HETATM   21  O   UNL     1     -11.364   6.028  70.983  1.00  0.00    -0.295 OA 
HETATM   22  O   UNL     1     -10.169   4.263  72.163  1.00  0.00    -0.184 OA 
ENDBRANCH  14  18
BRANCH  12  23
HETATM   23  O   UNL     1      -9.608   7.316  68.827  1.00  0.00    -0.142 OA 
HETATM   24  S   UNL     1      -9.427   6.060  67.815  1.00  0.00    -0.113 S  
HETATM   25  O   UNL     1      -8.665   6.511  66.673  1.00  0.00    -0.120 OA 
HETATM   26  O   UNL     1     -10.930   5.844  67.282  1.00  0.00    -0.293 OA 
HETATM   27  O   UNL     1      -9.050   4.884  68.556  1.00  0.00    -0.106 OA 
ENDBRANCH  12  23
ENDBRANCH   9  10
ENDBRANCH   6   9
BRANCH   7  28
HETATM   28  O   UNL     1      -9.973  11.656  68.728  1.00  0.00    -0.200 OA 
HETATM   29  O   UNL     1     -12.387  12.252  68.590  1.00  0.00    -0.119 OA 
HETATM   30  O   UNL     1     -11.561  11.146  70.592  1.00  0.00    -0.286 OA 
HETATM   31  S   UNL     1     -11.511  11.173  68.986  1.00  0.00    -0.326 S  
HETATM   32  O   UNL     1     -11.663   9.818  68.516  1.00  0.00     0.204 OA 
ENDBRANCH   7  28
BRANCH   8  33
HETATM   33  O   UNL     1     -10.196  13.553  66.509  1.00  0.00    -0.271 OA 
HETATM   34  S   UNL     1     -11.179  14.570  65.708  1.00  0.00    -0.339 S  
HETATM   35  O   UNL     1     -10.695  14.725  64.358  1.00  0.00    -0.207 OA 
HETATM   36  O   UNL     1     -12.549  14.232  66.024  1.00  0.00    -0.447 OA 
HETATM   37  O   UNL     1     -10.826  15.974  66.403  1.00  0.00    -0.269 OA 
ENDBRANCH   8  33
TORSDOF 6
ENDMDL
MODEL      104
REMARK 921   NORMALIZED FREE ENERGY PREDICTED BY IDOCK:   -3.91 KCAL/MOL
REMARK 922        TOTAL FREE ENERGY PREDICTED BY IDOCK:   -7.38 KCAL/MOL
REMARK 923 INTER-LIGAND FREE ENERGY PREDICTED BY IDOCK:   -9.13 KCAL/MOL
REMARK 924 INTRA-LIGAND FREE ENERGY PREDICTED BY IDOCK:    1.75 KCAL/MOL
REMARK 927      BINDING AFFINITY PREDICTED BY RF-SCORE:    0.00 PKD
ROOT
HETATM    1  O   UNL     1     -10.298  15.403  64.483  1.00  0.00    -0.515 OA 
HETATM    2  H   UNL     1      -9.853  16.198  64.750  1.00  0.00     0.000 HD 
HETATM    3  C   UNL     1     -10.390  14.535  65.610  1.00  0.00    -0.349 C  
HETATM    4  C   UNL     1     -11.102  13.264  65.183  1.00  0.00    -0.297 C  
HETATM    5  O   UNL     1     -11.209  12.366  66.267  1.00  0.00    -0.286 OA 
HETATM    6  C   UNL     1     -11.993  12.855  67.337  1.00  0.00    -0.300 C  
HETATM    7  C   UNL     1     -11.451  14.187  67.907  1.00  0.00    -0.312 C  
HETATM    8  C   UNL     1     -11.107  15.207  66.793  1.00  0.00    -0.307 C  
ENDROOT
BRANCH   6   9
HETATM    9  O   UNL     1     -11.974  11.880  68.385  1.00  0.00    -0.408 OA 
BRANCH   9  10
HETATM   10  C   UNL     1     -10.674  11.588  68.914  1.00  0.00    -0.207 C  
HETATM   11  H   UNL     1      -6.475   9.457  68.787  1.00  0.00     0.000 HD 
HETATM   12  C   UNL     1     -10.420  10.060  68.803  1.00  0.00    -0.208 C  
HETATM   13  C   UNL     1      -9.553  12.354  68.195  1.00  0.00    -0.218 C  
HETATM   14  C   UNL     1      -8.969   9.718  69.197  1.00  0.00    -0.161 C  
HETATM   15  O   UNL     1      -6.668  10.374  68.947  1.00  0.00    -0.055 OA 
HETATM   16  O   UNL     1      -8.267  11.989  68.689  1.00  0.00    -0.132 OA 
HETATM   17  C   UNL     1      -7.979  10.621  68.450  1.00  0.00    -0.120 C  
BRANCH  14  18
HETATM   18  O   UNL     1      -8.649   8.329  69.164  1.00  0.00    -0.135 OA 
HETATM   19  S   UNL     1      -8.633   7.438  67.810  1.00  0.00    -0.119 S  
HETATM   20  O   UNL     1      -9.900   7.607  67.140  1.00  0.00    -0.168 OA 
HETATM   21  O   UNL     1      -7.500   8.122  66.900  1.00  0.00    -0.088 OA 
HETATM   22  O   UNL     1      -8.121   6.135  68.166  1.00  0.00    -0.109 OA 
ENDBRANCH  14  18
BRANCH  12  23
HETATM   23  O   UNL     1     -11.392   9.278  69.514  1.00  0.00    -0.073 OA 
HETATM   24  S   UNL     1     -11.652   9.457  71.105  1.00  0.00    -0.375 S  
HETATM   25  O   UNL     1     -10.495   8.950  71.808  1.00  0.00    -0.314 OA 
HETATM   26  O   UNL     1     -12.828   8.392  71.372  1.00  0.00    -0.303 OA 
HETATM   27  O   UNL     1     -12.179  10.770  71.372  1.00  0.00    -0.338 OA 
ENDBRANCH  12  23
ENDBRANCH   9  10
ENDBRANCH   6   9
BRANCH   7  28
HETATM   28  O   UNL     1     -12.430  14.798  68.767  1.00  0.00    -0.049 OA 
HETATM   29  O   UNL     1     -12.488  13.703  71.002  1.00  0.00    -0.354 OA 
HETATM   30  O   UNL     1     -13.212  16.016  70.807  1.00  0.00    -0.327 OA 
HETATM   31  S   UNL     1     -12.105  14.939  70.360  1.00  0.00    -0.357 S  
HETATM   32  O   UNL     1     -10.807  15.547  70.524  1.00  0.00    -0.316 OA 
ENDBRANCH   7  28
BRANCH   8  33
HETATM   33  O   UNL     1     -10.259  16.202  67.391  1.00  0.00    -0.260 OA 
HETATM   34  S   UNL     1      -9.603  17.383  66.488  1.00  0.00    -0.282 S  
HETATM   35  O   UNL     1      -8.401  16.887  65.865  1.00  0.00    -0.498 OA 
HETATM   36  O   UNL     1     -10.660  18.044  65.755  1.00  0.00    -0.528 OA 
HETATM   37  O   UNL     1      -9.060  18.389  67.618  1.00  0.00    -0.270 OA 
ENDBRANCH   8  33
TORSDOF 6
ENDMDL
MODEL      105
REMARK 921   NORMALIZED FREE ENERGY PREDICTED BY IDOCK:   -3.87 KCAL/MOL
REMARK 922        TOTAL FREE ENERGY PREDICTED BY IDOCK:   -7.33 KCAL/MOL
REMARK 923 INTER-LIGAND FREE ENERGY PREDICTED BY IDOCK:   -6.83 KCAL/MOL
REMARK 924 INTRA-LIGAND FREE ENERGY PREDICTED BY IDOCK:   -0.50 KCAL/MOL
REMARK 927      BINDING AFFINITY PREDICTED BY RF-SCORE:    0.00 PKD
ROOT
HETATM    1  O   UNL     1      -9.511  16.415  69.455  1.00  0.00    -0.168 OA 
HETATM    2  H   UNL     1     -10.325  16.410  69.943  1.00  0.00     0.000 HD 
HETATM    3  C   UNL     1      -9.051  15.072  69.329  1.00  0.00    -0.157 C  
HETATM    4  C   UNL     1      -7.748  15.080  68.548  1.00  0.00    -0.121 C  
HETATM    5  O   UNL     1      -7.246  13.769  68.404  1.00  0.00    -0.090 OA 
HETATM    6  C   UNL     1      -8.089  12.915  67.655  1.00  0.00    -0.167 C  
HETATM    7  C   UNL     1      -9.503  12.792  68.270  1.00  0.00    -0.203 C  
HETATM    8  C   UNL     1     -10.098  14.169  68.657  1.00  0.00    -0.229 C  
ENDROOT
BRANCH   6   9
HETATM    9  O   UNL     1      -7.497  11.613  67.632  1.00  0.00    -0.103 OA 
BRANCH   9  10
HETATM   10  C   UNL     1      -8.135  10.645  68.476  1.00  0.00    -0.125 C  
HETATM   11  H   UNL     1      -8.509   6.370  70.418  1.00  0.00     0.000 HD 
HETATM   12  C   UNL     1      -8.215   9.293  67.717  1.00  0.00    -0.115 C  
HETATM   13  C   UNL     1      -7.403  10.448  69.813  1.00  0.00    -0.154 C  
HETATM   14  C   UNL     1      -8.733   8.176  68.644  1.00  0.00    -0.134 C  
HETATM   15  O   UNL     1      -8.552   7.218  70.844  1.00  0.00    -0.134 OA 
HETATM   16  O   UNL     1      -8.014   9.428  70.600  1.00  0.00    -0.159 OA 
HETATM   17  C   UNL     1      -7.951   8.162  69.964  1.00  0.00    -0.105 C  
BRANCH  14  18
HETATM   18  O   UNL     1      -8.879   6.900  68.026  1.00  0.00    -0.125 OA 
HETATM   19  S   UNL     1     -10.301   6.144  67.839  1.00  0.00    -0.232 S  
HETATM   20  O   UNL     1     -10.955   6.081  69.124  1.00  0.00    -0.328 OA 
HETATM   21  O   UNL     1     -11.153   7.132  66.902  1.00  0.00    -0.327 OA 
HETATM   22  O   UNL     1     -10.052   4.963  67.045  1.00  0.00    -0.195 OA 
ENDBRANCH  14  18
BRANCH  12  23
HETATM   23  O   UNL     1      -8.949   9.384  66.486  1.00  0.00    -0.141 OA 
HETATM   24  S   UNL     1      -8.240   9.198  65.039  1.00  0.00    -0.159 S  
HETATM   25  O   UNL     1      -7.392  10.344  64.804  1.00  0.00    -0.124 OA 
HETATM   26  O   UNL     1      -9.487   9.362  64.035  1.00  0.00     0.015 OA 
HETATM   27  O   UNL     1      -7.743   7.852  64.906  1.00  0.00    -0.097 OA 
ENDBRANCH  12  23
ENDBRANCH   9  10
ENDBRANCH   6   9
BRANCH   7  28
HETATM   28  O   UNL     1     -10.405  12.178  67.332  1.00  0.00    -0.203 OA 
HETATM   29  O   UNL     1     -12.198  13.756  66.627  1.00  0.00    -0.426 OA 
HETATM   30  O   UNL     1     -11.574  11.941  65.134  1.00  0.00    -0.303 OA 
HETATM   31  S   UNL     1     -11.023  13.082  66.122  1.00  0.00    -0.284 S  
HETATM   32  O   UNL     1      -9.947  13.767  65.449  1.00  0.00    -0.294 OA 
ENDBRANCH   7  28
BRANCH   8  33
HETATM   33  O   UNL     1     -11.186  13.910  69.561  1.00  0.00    -0.243 OA 
HETATM   34  S   UNL     1     -11.957  15.133  70.303  1.00  0.00    -0.346 S  
HETATM   35  O   UNL     1     -11.212  15.514  71.477  1.00  0.00    -0.377 OA 
HETATM   36  O   UNL     1     -12.392  16.079  69.300  1.00  0.00    -0.128 OA 
HETATM   37  O   UNL     1     -13.250  14.387  70.896  1.00  0.00    -0.357 OA 
ENDBRANCH   8  33
TORSDOF 6
ENDMDL
MODEL      106
REMARK 921   NORMALIZED FREE ENERGY PREDICTED BY IDOCK:   -3.85 KCAL/MOL
REMARK 922        TOTAL FREE ENERGY PREDICTED BY IDOCK:   -7.30 KCAL/MOL
REMARK 923 INTER-LIGAND FREE ENERGY PREDICTED BY IDOCK:   -8.00 KCAL/MOL
REMARK 924 INTRA-LIGAND FREE ENERGY PREDICTED BY IDOCK:    0.70 KCAL/MOL
REMARK 927      BINDING AFFINITY PREDICTED BY RF-SCORE:    0.00 PKD
ROOT
HETATM    1  O   UNL     1     -11.494   9.163  70.835  1.00  0.00    -0.269 OA 
HETATM    2  H   UNL     1     -10.937   8.548  71.297  1.00  0.00     0.000 HD 
HETATM    3  C   UNL     1     -10.782   9.653  69.701  1.00  0.00    -0.240 C  
HETATM    4  C   UNL     1     -11.673  10.635  68.961  1.00  0.00    -0.234 C  
HETATM    5  O   UNL     1     -11.008  11.158  67.832  1.00  0.00    -0.215 OA 
HETATM    6  C   UNL     1     -10.688  10.183  66.857  1.00  0.00    -0.161 C  
HETATM    7  C   UNL     1      -9.798   9.051  67.422  1.00  0.00    -0.190 C  
HETATM    8  C   UNL     1     -10.320   8.514  68.778  1.00  0.00    -0.213 C  
ENDROOT
BRANCH   6   9
HETATM    9  O   UNL     1      -9.972  10.829  65.800  1.00  0.00    -0.228 OA 
BRANCH   9  10
HETATM   10  C   UNL     1      -9.134  11.916  66.214  1.00  0.00    -0.188 C  
HETATM   11  H   UNL     1      -8.103  15.616  68.942  1.00  0.00     0.000 HD 
HETATM   12  C   UNL     1     -10.017  13.176  66.429  1.00  0.00    -0.282 C  
HETATM   13  C   UNL     1      -8.350  11.606  67.499  1.00  0.00    -0.151 C  
HETATM   14  C   UNL     1      -9.189  14.323  67.042  1.00  0.00    -0.239 C  
HETATM   15  O   UNL     1      -7.551  14.876  68.715  1.00  0.00    -0.119 OA 
HETATM   16  O   UNL     1      -7.583  12.728  67.929  1.00  0.00    -0.111 OA 
HETATM   17  C   UNL     1      -8.408  13.832  68.268  1.00  0.00    -0.161 C  
BRANCH  14  18
HETATM   18  O   UNL     1      -9.905  15.540  67.242  1.00  0.00    -0.222 OA 
HETATM   19  S   UNL     1      -9.705  16.865  66.330  1.00  0.00    -0.270 S  
HETATM   20  O   UNL     1      -8.299  17.188  66.299  1.00  0.00    -0.300 OA 
HETATM   21  O   UNL     1     -10.135  16.397  64.854  1.00  0.00    -0.392 OA 
HETATM   22  O   UNL     1     -10.703  17.822  66.747  1.00  0.00    -0.269 OA 
ENDBRANCH  14  18
BRANCH  12  23
HETATM   23  O   UNL     1     -10.728  13.569  65.245  1.00  0.00    -0.298 OA 
HETATM   24  S   UNL     1     -12.349  13.590  65.176  1.00  0.00    -0.459 S  
HETATM   25  O   UNL     1     -12.816  12.222  65.195  1.00  0.00    -0.522 OA 
HETATM   26  O   UNL     1     -12.610  14.121  63.680  1.00  0.00    -0.831 OA 
HETATM   27  O   UNL     1     -12.867  14.576  66.089  1.00  0.00    -0.144 OA 
ENDBRANCH  12  23
ENDBRANCH   9  10
ENDBRANCH   6   9
BRANCH   7  28
HETATM   28  O   UNL     1      -9.754   7.944  66.505  1.00  0.00    -0.216 OA 
HETATM   29  O   UNL     1      -8.613   8.567  64.381  1.00  0.00    -0.127 OA 
HETATM   30  O   UNL     1      -8.632   6.234  65.066  1.00  0.00    -0.099 OA 
HETATM   31  S   UNL     1      -8.438   7.751  65.561  1.00  0.00    -0.102 S  
HETATM   32  O   UNL     1      -7.256   7.798  66.386  1.00  0.00    -0.072 OA 
ENDBRANCH   7  28
BRANCH   8  33
HETATM   33  O   UNL     1      -9.233   7.791  69.382  1.00  0.00    -0.149 OA 
HETATM   34  S   UNL     1      -7.972   8.584  70.033  1.00  0.00    -0.113 S  
HETATM   35  O   UNL     1      -7.034   8.912  68.988  1.00  0.00    -0.061 OA 
HETATM   36  O   UNL     1      -8.476   9.556  70.978  1.00  0.00    -0.284 OA 
HETATM   37  O   UNL     1      -7.240   7.410  70.849  1.00  0.00    -0.066 OA 
ENDBRANCH   8  33
TORSDOF 6
ENDMDL
MODEL      107
REMARK 921   NORMALIZED FREE ENERGY PREDICTED BY IDOCK:   -3.83 KCAL/MOL
REMARK 922        TOTAL FREE ENERGY PREDICTED BY IDOCK:   -7.28 KCAL/MOL
REMARK 923 INTER-LIGAND FREE ENERGY PREDICTED BY IDOCK:   -7.33 KCAL/MOL
REMARK 924 INTRA-LIGAND FREE ENERGY PREDICTED BY IDOCK:    0.05 KCAL/MOL
REMARK 927      BINDING AFFINITY PREDICTED BY RF-SCORE:    0.00 PKD
ROOT
HETATM    1  O   UNL     1     -12.296  14.349  69.421  1.00  0.00    -0.486 OA 
HETATM    2  H   UNL     1     -12.318  14.796  68.584  1.00  0.00     0.000 HD 
HETATM    3  C   UNL     1     -12.277  12.944  69.185  1.00  0.00    -0.037 C  
HETATM    4  C   UNL     1     -12.240  12.230  70.524  1.00  0.00    -0.300 C  
HETATM    5  O   UNL     1     -12.231  10.830  70.343  1.00  0.00    -0.294 OA 
HETATM    6  C   UNL     1     -11.083  10.352  69.668  1.00  0.00    -0.276 C  
HETATM    7  C   UNL     1     -10.911  10.990  68.269  1.00  0.00    -0.215 C  
HETATM    8  C   UNL     1     -11.092  12.528  68.298  1.00  0.00    -0.257 C  
ENDROOT
BRANCH   6   9
HETATM    9  O   UNL     1     -11.224   8.938  69.500  1.00  0.00    -0.075 OA 
BRANCH   9  10
HETATM   10  C   UNL     1     -10.884   8.156  70.652  1.00  0.00    -0.233 C  
HETATM   11  H   UNL     1      -8.050   6.944  74.215  1.00  0.00     0.000 HD 
HETATM   12  C   UNL     1      -9.400   7.712  70.538  1.00  0.00    -0.163 C  
HETATM   13  C   UNL     1     -11.100   8.915  71.971  1.00  0.00    -0.351 C  
HETATM   14  C   UNL     1      -8.937   7.017  71.834  1.00  0.00    -0.132 C  
HETATM   15  O   UNL     1      -8.982   7.129  74.237  1.00  0.00    -0.196 OA 
HETATM   16  O   UNL     1     -10.685   8.143  73.095  1.00  0.00    -0.265 OA 
HETATM   17  C   UNL     1      -9.293   7.867  73.061  1.00  0.00    -0.265 C  
BRANCH  14  18
HETATM   18  O   UNL     1      -7.595   6.538  71.813  1.00  0.00    -0.092 OA 
HETATM   19  S   UNL     1      -7.179   5.005  72.135  1.00  0.00    -0.091 S  
HETATM   20  O   UNL     1      -7.751   4.636  73.408  1.00  0.00    -0.091 OA 
HETATM   21  O   UNL     1      -7.918   4.146  70.996  1.00  0.00    -0.068 OA 
HETATM   22  O   UNL     1      -5.764   4.883  71.866  1.00  0.00    -0.010 OA 
ENDBRANCH  14  18
BRANCH  12  23
HETATM   23  O   UNL     1      -9.138   6.933  69.361  1.00  0.00    -0.141 OA 
HETATM   24  S   UNL     1     -10.183   5.823  68.806  1.00  0.00    -0.216 S  
HETATM   25  O   UNL     1     -10.192   4.714  69.732  1.00  0.00    -0.234 OA 
HETATM   26  O   UNL     1      -9.430   5.288  67.488  1.00  0.00    -0.117 OA 
HETATM   27  O   UNL     1     -11.402   6.464  68.386  1.00  0.00    -0.280 OA 
ENDBRANCH  12  23
ENDBRANCH   9  10
ENDBRANCH   6   9
BRANCH   7  28
HETATM   28  O   UNL     1      -9.595  10.718  67.755  1.00  0.00    -0.159 OA 
HETATM   29  O   UNL     1      -9.539   8.577  66.486  1.00  0.00    -0.197 OA 
HETATM   30  O   UNL     1      -7.903  10.298  65.961  1.00  0.00    -0.121 OA 
HETATM   31  S   UNL     1      -9.448  10.006  66.294  1.00  0.00    -0.204 S  
HETATM   32  O   UNL     1     -10.250  10.728  65.336  1.00  0.00    -0.265 OA 
ENDBRANCH   7  28
BRANCH   8  33
HETATM   33  O   UNL     1     -11.315  12.943  66.940  1.00  0.00    -0.282 OA 
HETATM   34  S   UNL     1     -10.497  14.199  66.312  1.00  0.00    -0.292 S  
HETATM   35  O   UNL     1     -11.159  15.425  66.684  1.00  0.00    -0.312 OA 
HETATM   36  O   UNL     1      -9.082  13.973  66.510  1.00  0.00    -0.232 OA 
HETATM   37  O   UNL     1     -10.824  14.047  64.747  1.00  0.00    -0.382 OA 
ENDBRANCH   8  33
TORSDOF 6
ENDMDL
MODEL      108
REMARK 921   NORMALIZED FREE ENERGY PREDICTED BY IDOCK:   -3.83 KCAL/MOL
REMARK 922        TOTAL FREE ENERGY PREDICTED BY IDOCK:   -7.27 KCAL/MOL
REMARK 923 INTER-LIGAND FREE ENERGY PREDICTED BY IDOCK:   -7.56 KCAL/MOL
REMARK 924 INTRA-LIGAND FREE ENERGY PREDICTED BY IDOCK:    0.29 KCAL/MOL
REMARK 927      BINDING AFFINITY PREDICTED BY RF-SCORE:    0.00 PKD
ROOT
HETATM    1  O   UNL     1      -9.786   3.661  69.650  1.00  0.00    -0.188 OA 
HETATM    2  H   UNL     1      -9.729   3.448  70.573  1.00  0.00     0.000 HD 
HETATM    3  C   UNL     1      -9.877   5.077  69.516  1.00  0.00    -0.211 C  
HETATM    4  C   UNL     1      -9.966   5.416  68.039  1.00  0.00    -0.154 C  
HETATM    5  O   UNL     1     -10.068   6.812  67.854  1.00  0.00    -0.145 OA 
HETATM    6  C   UNL     1      -8.935   7.530  68.302  1.00  0.00    -0.130 C  
HETATM    7  C   UNL     1      -8.640   7.293  69.802  1.00  0.00    -0.141 C  
HETATM    8  C   UNL     1      -8.690   5.792  70.182  1.00  0.00    -0.139 C  
ENDROOT
BRANCH   6   9
HETATM    9  O   UNL     1      -9.188   8.925  68.111  1.00  0.00    -0.139 OA 
BRANCH   9  10
HETATM   10  C   UNL     1      -9.809   9.261  66.863  1.00  0.00    -0.214 C  
HETATM   11  H   UNL     1     -11.128  12.305  63.519  1.00  0.00     0.000 HD 
HETATM   12  C   UNL     1     -10.686  10.527  67.065  1.00  0.00    -0.250 C  
HETATM   13  C   UNL     1      -8.790   9.508  65.740  1.00  0.00    -0.162 C  
HETATM   14  C   UNL     1     -11.236  11.031  65.715  1.00  0.00     0.155 C  
HETATM   15  O   UNL     1     -10.674  11.476  63.418  1.00  0.00    -0.385 OA 
HETATM   16  O   UNL     1      -9.429   9.913  64.531  1.00  0.00    -0.283 OA 
HETATM   17  C   UNL     1     -10.107  11.150  64.682  1.00  0.00    -0.302 C  
BRANCH  14  18
HETATM   18  O   UNL     1     -12.087  12.170  65.800  1.00  0.00    -0.572 OA 
HETATM   19  S   UNL     1     -11.562  13.666  66.141  1.00  0.00    -0.363 S  
HETATM   20  O   UNL     1     -10.788  13.610  67.358  1.00  0.00    -0.268 OA 
HETATM   21  O   UNL     1     -10.559  14.017  64.937  1.00  0.00    -0.379 OA 
HETATM   22  O   UNL     1     -12.690  14.556  65.989  1.00  0.00    -0.260 OA 
ENDBRANCH  14  18
BRANCH  12  23
HETATM   23  O   UNL     1     -11.710  10.347  68.054  1.00  0.00    -0.383 OA 
HETATM   24  S   UNL     1     -11.564  10.915  69.566  1.00  0.00    -0.341 S  
HETATM   25  O   UNL     1     -10.551  10.136  70.242  1.00  0.00    -0.285 OA 
HETATM   26  O   UNL     1     -12.966  10.477  70.224  1.00  0.00    -0.266 OA 
HETATM   27  O   UNL     1     -11.519  12.355  69.547  1.00  0.00    -0.271 OA 
ENDBRANCH  12  23
ENDBRANCH   9  10
ENDBRANCH   6   9
BRANCH   7  28
HETATM   28  O   UNL     1      -7.329   7.782  70.137  1.00  0.00    -0.068 OA 
HETATM   29  O   UNL     1      -7.324  10.257  70.414  1.00  0.00    -0.258 OA 
HETATM   30  O   UNL     1      -5.639   8.940  71.571  1.00  0.00    -0.040 OA 
HETATM   31  S   UNL     1      -7.193   9.035  71.174  1.00  0.00    -0.070 S  
HETATM   32  O   UNL     1      -7.969   8.753  72.357  1.00  0.00    -0.362 OA 
ENDBRANCH   7  28
BRANCH   8  33
HETATM   33  O   UNL     1      -8.810   5.732  71.613  1.00  0.00    -0.135 OA 
HETATM   34  S   UNL     1     -10.266   5.839  72.327  1.00  0.00    -0.202 S  
HETATM   35  O   UNL     1     -10.623   7.230  72.462  1.00  0.00    -0.218 OA 
HETATM   36  O   UNL     1     -11.142   4.850  71.738  1.00  0.00     0.035 OA 
HETATM   37  O   UNL     1      -9.922   5.386  73.830  1.00  0.00    -0.163 OA 
ENDBRANCH   8  33
TORSDOF 6
ENDMDL
MODEL      109
REMARK 921   NORMALIZED FREE ENERGY PREDICTED BY IDOCK:   -3.81 KCAL/MOL
REMARK 922        TOTAL FREE ENERGY PREDICTED BY IDOCK:   -7.25 KCAL/MOL
REMARK 923 INTER-LIGAND FREE ENERGY PREDICTED BY IDOCK:   -7.00 KCAL/MOL
REMARK 924 INTRA-LIGAND FREE ENERGY PREDICTED BY IDOCK:   -0.24 KCAL/MOL
REMARK 927      BINDING AFFINITY PREDICTED BY RF-SCORE:    0.00 PKD
ROOT
HETATM    1  O   UNL     1     -11.779  14.718  66.917  1.00  0.00    -0.364 OA 
HETATM    2  H   UNL     1     -12.431  15.202  67.409  1.00  0.00     0.000 HD 
HETATM    3  C   UNL     1     -11.077  13.863  67.815  1.00  0.00    -0.262 C  
HETATM    4  C   UNL     1     -10.035  13.089  67.028  1.00  0.00    -0.242 C  
HETATM    5  O   UNL     1      -9.305  12.231  67.879  1.00  0.00    -0.177 OA 
HETATM    6  C   UNL     1     -10.092  11.225  68.485  1.00  0.00    -0.204 C  
HETATM    7  C   UNL     1     -11.255  11.809  69.323  1.00  0.00    -0.256 C  
HETATM    8  C   UNL     1     -12.029  12.915  68.563  1.00  0.00    -0.234 C  
ENDROOT
BRANCH   6   9
HETATM    9  O   UNL     1      -9.250  10.466  69.358  1.00  0.00    -0.201 OA 
BRANCH   9  10
HETATM   10  C   UNL     1      -9.320   9.045  69.180  1.00  0.00    -0.148 C  
HETATM   11  H   UNL     1      -7.411   4.743  68.976  1.00  0.00     0.000 HD 
HETATM   12  C   UNL     1      -8.154   8.598  68.256  1.00  0.00    -0.118 C  
HETATM   13  C   UNL     1      -9.254   8.275  70.508  1.00  0.00    -0.151 C  
HETATM   14  C   UNL     1      -8.081   7.060  68.175  1.00  0.00    -0.119 C  
HETATM   15  O   UNL     1      -8.179   5.027  69.457  1.00  0.00    -0.083 OA 
HETATM   16  O   UNL     1      -9.250   6.865  70.298  1.00  0.00    -0.155 OA 
HETATM   17  C   UNL     1      -8.102   6.442  69.579  1.00  0.00    -0.118 C  
BRANCH  14  18
HETATM   18  O   UNL     1      -7.064   6.551  67.316  1.00  0.00    -0.072 OA 
HETATM   19  S   UNL     1      -7.362   5.733  65.949  1.00  0.00    -0.074 S  
HETATM   20  O   UNL     1      -8.255   4.642  66.257  1.00  0.00    -0.106 OA 
HETATM   21  O   UNL     1      -8.162   6.778  65.029  1.00  0.00    -0.131 OA 
HETATM   22  O   UNL     1      -6.091   5.522  65.295  1.00  0.00    -0.025 OA 
ENDBRANCH  14  18
BRANCH  12  23
HETATM   23  O   UNL     1      -8.191   9.226  66.965  1.00  0.00    -0.114 OA 
HETATM   24  S   UNL     1      -6.905   9.989  66.336  1.00  0.00    -0.098 S  
HETATM   25  O   UNL     1      -6.687  11.198  67.095  1.00  0.00    -0.089 OA 
HETATM   26  O   UNL     1      -7.468  10.464  64.905  1.00  0.00    -0.137 OA 
HETATM   27  O   UNL     1      -5.843   9.046  66.098  1.00  0.00    -0.052 OA 
ENDBRANCH  12  23
ENDBRANCH   9  10
ENDBRANCH   6   9
BRANCH   7  28
HETATM   28  O   UNL     1     -12.196  10.774  69.660  1.00  0.00    -0.318 OA 
HETATM   29  O   UNL     1     -11.572   9.634  71.784  1.00  0.00    -0.378 OA 
HETATM   30  O   UNL     1     -13.904   9.642  71.095  1.00  0.00    -0.251 OA 
HETATM   31  S   UNL     1     -12.567  10.524  71.230  1.00  0.00    -0.452 S  
HETATM   32  O   UNL     1     -12.927  11.782  71.835  1.00  0.00    -0.416 OA 
ENDBRANCH   7  28
BRANCH   8  33
HETATM   33  O   UNL     1     -12.784  13.641  69.549  1.00  0.00    -0.031 OA 
HETATM   34  S   UNL     1     -12.173  14.980  70.239  1.00  0.00    -0.356 S  
HETATM   35  O   UNL     1     -11.317  14.595  71.333  1.00  0.00    -0.192 OA 
HETATM   36  O   UNL     1     -11.763  15.891  69.194  1.00  0.00    -0.376 OA 
HETATM   37  O   UNL     1     -13.471  15.588  70.965  1.00  0.00    -0.503 OA 
ENDBRANCH   8  33
TORSDOF 6
ENDMDL
MODEL      110
REMARK 921   NORMALIZED FREE ENERGY PREDICTED BY IDOCK:   -3.79 KCAL/MOL
REMARK 922        TOTAL FREE ENERGY PREDICTED BY IDOCK:   -7.22 KCAL/MOL
REMARK 923 INTER-LIGAND FREE ENERGY PREDICTED BY IDOCK:   -6.24 KCAL/MOL
REMARK 924 INTRA-LIGAND FREE ENERGY PREDICTED BY IDOCK:   -0.98 KCAL/MOL
REMARK 927      BINDING AFFINITY PREDICTED BY RF-SCORE:    0.00 PKD
ROOT
HETATM    1  O   UNL     1      -9.411   4.977  67.465  1.00  0.00    -0.117 OA 
HETATM    2  H   UNL     1      -9.430   4.552  68.314  1.00  0.00     0.000 HD 
HETATM    3  C   UNL     1      -9.458   6.387  67.663  1.00  0.00    -0.119 C  
HETATM    4  C   UNL     1      -9.427   7.065  66.305  1.00  0.00    -0.072 C  
HETATM    5  O   UNL     1      -9.481   8.469  66.447  1.00  0.00    -0.197 OA 
HETATM    6  C   UNL     1      -8.368   9.015  67.128  1.00  0.00    -0.110 C  
HETATM    7  C   UNL     1      -8.194   8.423  68.548  1.00  0.00    -0.124 C  
HETATM    8  C   UNL     1      -8.308   6.878  68.558  1.00  0.00    -0.121 C  
ENDROOT
BRANCH   6   9
HETATM    9  O   UNL     1      -8.572  10.426  67.255  1.00  0.00    -0.125 OA 
BRANCH   9  10
HETATM   10  C   UNL     1      -9.909  10.869  66.984  1.00  0.00    -0.183 C  
HETATM   11  H   UNL     1     -13.218  14.192  66.539  1.00  0.00     0.000 HD 
HETATM   12  C   UNL     1     -10.321  11.908  68.062  1.00  0.00    -0.196 C  
HETATM   13  C   UNL     1     -10.058  11.485  65.585  1.00  0.00    -0.237 C  
HETATM   14  C   UNL     1     -11.682  12.544  67.716  1.00  0.00    -0.359 C  
HETATM   15  O   UNL     1     -13.005  13.486  65.940  1.00  0.00    -0.302 OA 
HETATM   16  O   UNL     1     -11.376  11.985  65.369  1.00  0.00    -0.332 OA 
HETATM   17  C   UNL     1     -11.693  13.040  66.263  1.00  0.00    -0.387 C  
BRANCH  14  18
HETATM   18  O   UNL     1     -12.165  13.486  68.669  1.00  0.00    -0.323 OA 
HETATM   19  S   UNL     1     -11.396  14.862  69.050  1.00  0.00    -0.312 S  
HETATM   20  O   UNL     1     -10.037  14.537  69.411  1.00  0.00    -0.131 OA 
HETATM   21  O   UNL     1     -11.356  15.686  67.672  1.00  0.00    -0.313 OA 
HETATM   22  O   UNL     1     -12.267  15.605  69.930  1.00  0.00    -0.362 OA 
ENDBRANCH  14  18
BRANCH  12  23
HETATM   23  O   UNL     1     -10.274  11.379  69.396  1.00  0.00    -0.063 OA 
HETATM   24  S   UNL     1     -11.371  10.318  69.946  1.00  0.00    -0.299 S  
HETATM   25  O   UNL     1     -12.630  11.012  70.094  1.00  0.00    -0.283 OA 
HETATM   26  O   UNL     1     -10.845  10.041  71.441  1.00  0.00    -0.140 OA 
HETATM   27  O   UNL     1     -11.273   9.084  69.210  1.00  0.00    -0.019 OA 
ENDBRANCH  12  23
ENDBRANCH   9  10
ENDBRANCH   6   9
BRANCH   7  28
HETATM   28  O   UNL     1      -6.901   8.766  69.077  1.00  0.00    -0.057 OA 
HETATM   29  O   UNL     1      -6.896  11.056  70.054  1.00  0.00    -0.145 OA 
HETATM   30  O   UNL     1      -5.287   9.426  70.870  1.00  0.00    -0.029 OA 
HETATM   31  S   UNL     1      -6.816   9.665  70.436  1.00  0.00    -0.132 S  
HETATM   32  O   UNL     1      -7.659   9.072  71.446  1.00  0.00    -0.237 OA 
ENDBRANCH   7  28
BRANCH   8  33
HETATM   33  O   UNL     1      -8.539   6.490  69.923  1.00  0.00    -0.136 OA 
HETATM   34  S   UNL     1      -7.791   5.192  70.553  1.00  0.00    -0.084 S  
HETATM   35  O   UNL     1      -8.533   4.007  70.203  1.00  0.00    -0.063 OA 
HETATM   36  O   UNL     1      -6.368   5.329  70.335  1.00  0.00    -0.025 OA 
HETATM   37  O   UNL     1      -8.088   5.379  72.121  1.00  0.00    -0.108 OA 
ENDBRANCH   8  33
TORSDOF 6
ENDMDL
MODEL      111
REMARK 921   NORMALIZED FREE ENERGY PREDICTED BY IDOCK:   -3.79 KCAL/MOL
REMARK 922        TOTAL FREE ENERGY PREDICTED BY IDOCK:   -7.21 KCAL/MOL
REMARK 923 INTER-LIGAND FREE ENERGY PREDICTED BY IDOCK:   -8.13 KCAL/MOL
REMARK 924 INTRA-LIGAND FREE ENERGY PREDICTED BY IDOCK:    0.91 KCAL/MOL
REMARK 927      BINDING AFFINITY PREDICTED BY RF-SCORE:    0.00 PKD
ROOT
HETATM    1  O   UNL     1      -9.887  16.182  67.814  1.00  0.00    -0.228 OA 
HETATM    2  H   UNL     1     -10.625  16.497  68.321  1.00  0.00     0.000 HD 
HETATM    3  C   UNL     1      -9.889  14.757  67.850  1.00  0.00    -0.212 C  
HETATM    4  C   UNL     1      -8.709  14.252  67.039  1.00  0.00    -0.212 C  
HETATM    5  O   UNL     1      -8.662  12.842  67.053  1.00  0.00    -0.202 OA 
HETATM    6  C   UNL     1      -9.782  12.229  66.445  1.00  0.00    -0.234 C  
HETATM    7  C   UNL     1     -11.116  12.643  67.110  1.00  0.00    -0.280 C  
HETATM    8  C   UNL     1     -11.213  14.173  67.332  1.00  0.00    -0.318 C  
ENDROOT
BRANCH   6   9
HETATM    9  O   UNL     1      -9.639  10.811  66.575  1.00  0.00    -0.176 OA 
BRANCH   9  10
HETATM   10  C   UNL     1      -8.486  10.258  65.927  1.00  0.00    -0.150 C  
HETATM   11  H   UNL     1      -6.227   6.878  63.547  1.00  0.00     0.000 HD 
HETATM   12  C   UNL     1      -8.331   8.774  66.359  1.00  0.00    -0.116 C  
HETATM   13  C   UNL     1      -8.564  10.348  64.395  1.00  0.00    -0.179 C  
HETATM   14  C   UNL     1      -7.209   8.086  65.556  1.00  0.00    -0.064 C  
HETATM   15  O   UNL     1      -6.262   7.810  63.361  1.00  0.00    -0.061 OA 
HETATM   16  O   UNL     1      -7.442   9.725  63.775  1.00  0.00    -0.118 OA 
HETATM   17  C   UNL     1      -7.390   8.335  64.052  1.00  0.00    -0.103 C  
BRANCH  14  18
HETATM   18  O   UNL     1      -6.964   6.727  65.908  1.00  0.00    -0.061 OA 
HETATM   19  S   UNL     1      -7.833   5.479  65.348  1.00  0.00    -0.106 S  
HETATM   20  O   UNL     1      -9.229   5.747  65.598  1.00  0.00    -0.126 OA 
HETATM   21  O   UNL     1      -7.601   5.517  63.759  1.00  0.00    -0.061 OA 
HETATM   22  O   UNL     1      -7.189   4.272  65.812  1.00  0.00    -0.069 OA 
ENDBRANCH  14  18
BRANCH  12  23
HETATM   23  O   UNL     1      -8.180   8.617  67.778  1.00  0.00    -0.116 OA 
HETATM   24  S   UNL     1      -9.351   7.987  68.709  1.00  0.00    -0.147 S  
HETATM   25  O   UNL     1     -10.437   8.939  68.768  1.00  0.00    -0.217 OA 
HETATM   26  O   UNL     1      -8.666   8.011  70.165  1.00  0.00    -0.132 OA 
HETATM   27  O   UNL     1      -9.574   6.610  68.351  1.00  0.00    -0.125 OA 
ENDBRANCH  12  23
ENDBRANCH   9  10
ENDBRANCH   6   9
BRANCH   7  28
HETATM   28  O   UNL     1     -12.228  12.253  66.285  1.00  0.00    -0.628 OA 
HETATM   29  O   UNL     1     -13.239  14.215  65.133  1.00  0.00    -0.743 OA 
HETATM   30  O   UNL     1     -13.482  12.011  64.134  1.00  0.00    -0.672 OA 
HETATM   31  S   UNL     1     -12.469  13.022  64.866  1.00  0.00    -0.433 S  
HETATM   32  O   UNL     1     -11.235  13.028  64.119  1.00  0.00    -0.362 OA 
ENDBRANCH   7  28
BRANCH   8  33
HETATM   33  O   UNL     1     -12.262  14.386  68.291  1.00  0.00    -0.266 OA 
HETATM   34  S   UNL     1     -11.985  14.187  69.880  1.00  0.00    -0.355 S  
HETATM   35  O   UNL     1     -12.113  12.788  70.208  1.00  0.00    -0.349 OA 
HETATM   36  O   UNL     1     -10.837  14.985  70.251  1.00  0.00    -0.237 OA 
HETATM   37  O   UNL     1     -13.298  14.852  70.523  1.00  0.00    -0.270 OA 
ENDBRANCH   8  33
TORSDOF 6
ENDMDL
MODEL      112
REMARK 921   NORMALIZED FREE ENERGY PREDICTED BY IDOCK:   -3.77 KCAL/MOL
REMARK 922        TOTAL FREE ENERGY PREDICTED BY IDOCK:   -7.19 KCAL/MOL
REMARK 923 INTER-LIGAND FREE ENERGY PREDICTED BY IDOCK:   -8.70 KCAL/MOL
REMARK 924 INTRA-LIGAND FREE ENERGY PREDICTED BY IDOCK:    1.51 KCAL/MOL
REMARK 927      BINDING AFFINITY PREDICTED BY RF-SCORE:    0.00 PKD
ROOT
HETATM    1  O   UNL     1      -8.718  14.604  66.221  1.00  0.00    -0.462 OA 
HETATM    2  H   UNL     1      -9.109  15.078  65.498  1.00  0.00     0.000 HD 
HETATM    3  C   UNL     1      -9.571  13.515  66.564  1.00  0.00    -0.277 C  
HETATM    4  C   UNL     1      -8.945  12.757  67.720  1.00  0.00    -0.190 C  
HETATM    5  O   UNL     1      -9.760  11.670  68.104  1.00  0.00    -0.177 OA 
HETATM    6  C   UNL     1      -9.914  10.690  67.096  1.00  0.00    -0.195 C  
HETATM    7  C   UNL     1     -10.517  11.270  65.794  1.00  0.00    -0.254 C  
HETATM    8  C   UNL     1      -9.827  12.589  65.363  1.00  0.00    -0.163 C  
ENDROOT
BRANCH   6   9
HETATM    9  O   UNL     1     -10.801   9.681  67.587  1.00  0.00    -0.282 OA 
BRANCH   9  10
HETATM   10  C   UNL     1     -10.171   8.442  67.937  1.00  0.00    -0.217 C  
HETATM   11  H   UNL     1      -9.734   4.548  70.553  1.00  0.00     0.000 HD 
HETATM   12  C   UNL     1     -10.002   8.383  69.480  1.00  0.00    -0.190 C  
HETATM   13  C   UNL     1     -10.961   7.216  67.454  1.00  0.00    -0.226 C  
HETATM   14  C   UNL     1      -9.489   6.998  69.921  1.00  0.00    -0.157 C  
HETATM   15  O   UNL     1      -9.745   4.626  69.606  1.00  0.00    -0.177 OA 
HETATM   16  O   UNL     1     -10.352   5.999  67.880  1.00  0.00    -0.162 OA 
HETATM   17  C   UNL     1     -10.336   5.883  69.294  1.00  0.00    -0.246 C  
BRANCH  14  18
HETATM   18  O   UNL     1      -9.265   6.857  71.322  1.00  0.00    -0.156 OA 
HETATM   19  S   UNL     1     -10.408   7.091  72.447  1.00  0.00    -0.210 S  
HETATM   20  O   UNL     1     -11.001   8.389  72.230  1.00  0.00    -0.316 OA 
HETATM   21  O   UNL     1     -11.521   5.980  72.116  1.00  0.00    -0.289 OA 
HETATM   22  O   UNL     1      -9.836   6.711  73.718  1.00  0.00    -0.192 OA 
ENDBRANCH  14  18
BRANCH  12  23
HETATM   23  O   UNL     1      -9.210   9.464  69.998  1.00  0.00    -0.184 OA 
HETATM   24  S   UNL     1      -7.592   9.481  69.891  1.00  0.00    -0.142 S  
HETATM   25  O   UNL     1      -7.073   8.464  70.777  1.00  0.00    -0.044 OA 
HETATM   26  O   UNL     1      -7.228  10.890  70.578  1.00  0.00     0.046 OA 
HETATM   27  O   UNL     1      -7.193   9.550  68.508  1.00  0.00    -0.070 OA 
ENDBRANCH  12  23
ENDBRANCH   9  10
ENDBRANCH   6   9
BRANCH   7  28
HETATM   28  O   UNL     1     -10.370  10.331  64.714  1.00  0.00    -0.277 OA 
HETATM   29  O   UNL     1      -9.179  11.348  62.779  1.00  0.00    -0.358 OA 
HETATM   30  O   UNL     1      -9.091   8.937  63.079  1.00  0.00     0.038 OA 
HETATM   31  S   UNL     1      -9.006  10.361  63.819  1.00  0.00    -0.249 S  
HETATM   32  O   UNL     1      -7.865  10.332  64.701  1.00  0.00    -0.149 OA 
ENDBRANCH   7  28
BRANCH   8  33
HETATM   33  O   UNL     1     -10.706  13.226  64.420  1.00  0.00    -0.382 OA 
HETATM   34  S   UNL     1     -12.257  13.523  64.804  1.00  0.00    -0.410 S  
HETATM   35  O   UNL     1     -13.036  12.333  64.566  1.00  0.00    -0.791 OA 
HETATM   36  O   UNL     1     -12.291  14.255  66.050  1.00  0.00    -0.432 OA 
HETATM   37  O   UNL     1     -12.698  14.512  63.617  1.00  0.00    -0.754 OA 
ENDBRANCH   8  33
TORSDOF 6
ENDMDL
MODEL      113
REMARK 921   NORMALIZED FREE ENERGY PREDICTED BY IDOCK:   -3.77 KCAL/MOL
REMARK 922        TOTAL FREE ENERGY PREDICTED BY IDOCK:   -7.19 KCAL/MOL
REMARK 923 INTER-LIGAND FREE ENERGY PREDICTED BY IDOCK:   -7.04 KCAL/MOL
REMARK 924 INTRA-LIGAND FREE ENERGY PREDICTED BY IDOCK:   -0.16 KCAL/MOL
REMARK 927      BINDING AFFINITY PREDICTED BY RF-SCORE:    0.00 PKD
ROOT
HETATM    1  O   UNL     1      -6.338   7.342  70.230  1.00  0.00    -0.034 OA 
HETATM    2  H   UNL     1      -6.860   6.550  70.267  1.00  0.00     0.000 HD 
HETATM    3  C   UNL     1      -7.101   8.358  69.584  1.00  0.00    -0.052 C  
HETATM    4  C   UNL     1      -6.265   9.624  69.526  1.00  0.00    -0.040 C  
HETATM    5  O   UNL     1      -6.976  10.661  68.884  1.00  0.00    -0.063 OA 
HETATM    6  C   UNL     1      -8.149  11.056  69.568  1.00  0.00     0.195 C  
HETATM    7  C   UNL     1      -9.141   9.884  69.767  1.00  0.00    -0.225 C  
HETATM    8  C   UNL     1      -8.442   8.606  70.294  1.00  0.00    -0.132 C  
ENDROOT
BRANCH   6   9
HETATM    9  O   UNL     1      -8.801  12.064  68.790  1.00  0.00    -0.064 OA 
BRANCH   9  10
HETATM   10  C   UNL     1      -9.447  11.587  67.602  1.00  0.00    -0.168 C  
HETATM   11  H   UNL     1     -10.295  11.662  62.969  1.00  0.00     0.000 HD 
HETATM   12  C   UNL     1      -9.942  12.806  66.776  1.00  0.00    -0.237 C  
HETATM   13  C   UNL     1      -8.527  10.712  66.736  1.00  0.00    -0.134 C  
HETATM   14  C   UNL     1     -10.487  12.352  65.407  1.00  0.00    -0.277 C  
HETATM   15  O   UNL     1     -10.083  10.917  63.519  1.00  0.00    -0.324 OA 
HETATM   16  O   UNL     1      -9.168  10.313  65.527  1.00  0.00    -0.167 OA 
HETATM   17  C   UNL     1      -9.485  11.426  64.705  1.00  0.00    -0.153 C  
BRANCH  14  18
HETATM   18  O   UNL     1     -11.003  13.399  64.589  1.00  0.00    -0.337 OA 
HETATM   19  S   UNL     1     -12.574  13.574  64.230  1.00  0.00    -0.057 S  
HETATM   20  O   UNL     1     -13.059  12.324  63.693  1.00  0.00    -0.780 OA 
HETATM   21  O   UNL     1     -13.281  13.806  65.653  1.00  0.00    -0.574 OA 
HETATM   22  O   UNL     1     -12.709  14.820  63.512  1.00  0.00    -0.593 OA 
ENDBRANCH  14  18
BRANCH  12  23
HETATM   23  O   UNL     1     -10.865  13.634  67.500  1.00  0.00    -0.260 OA 
HETATM   24  S   UNL     1     -10.552  15.190  67.836  1.00  0.00    -0.263 S  
HETATM   25  O   UNL     1      -9.495  15.232  68.821  1.00  0.00    -0.193 OA 
HETATM   26  O   UNL     1     -11.890  15.638  68.610  1.00  0.00    -0.372 OA 
HETATM   27  O   UNL     1     -10.475  15.950  66.615  1.00  0.00    -0.298 OA 
ENDBRANCH  12  23
ENDBRANCH   9  10
ENDBRANCH   6   9
BRANCH   7  28
HETATM   28  O   UNL     1     -10.157  10.246  70.718  1.00  0.00     0.170 OA 
HETATM   29  O   UNL     1     -11.327  12.339  70.049  1.00  0.00    -0.119 OA 
HETATM   30  O   UNL     1     -12.493  10.742  71.463  1.00  0.00    -0.369 OA 
HETATM   31  S   UNL     1     -11.543  10.917  70.178  1.00  0.00    -0.345 S  
HETATM   32  O   UNL     1     -12.080  10.099  69.118  1.00  0.00     0.059 OA 
ENDBRANCH   7  28
BRANCH   8  33
HETATM   33  O   UNL     1      -9.344   7.513  70.052  1.00  0.00    -0.154 OA 
HETATM   34  S   UNL     1      -9.294   6.178  70.977  1.00  0.00    -0.164 S  
HETATM   35  O   UNL     1      -8.265   5.299  70.479  1.00  0.00    -0.103 OA 
HETATM   36  O   UNL     1      -9.394   6.574  72.364  1.00  0.00    -0.138 OA 
HETATM   37  O   UNL     1     -10.660   5.443  70.557  1.00  0.00    -0.271 OA 
ENDBRANCH   8  33
TORSDOF 6
ENDMDL
MODEL      114
REMARK 921   NORMALIZED FREE ENERGY PREDICTED BY IDOCK:   -3.77 KCAL/MOL
REMARK 922        TOTAL FREE ENERGY PREDICTED BY IDOCK:   -7.19 KCAL/MOL
REMARK 923 INTER-LIGAND FREE ENERGY PREDICTED BY IDOCK:   -6.84 KCAL/MOL
REMARK 924 INTRA-LIGAND FREE ENERGY PREDICTED BY IDOCK:   -0.35 KCAL/MOL
REMARK 927      BINDING AFFINITY PREDICTED BY RF-SCORE:    0.00 PKD
ROOT
HETATM    1  O   UNL     1     -10.706  12.691  63.079  1.00  0.00    -0.541 OA 
HETATM    2  H   UNL     1     -10.834  13.564  63.428  1.00  0.00     0.000 HD 
HETATM    3  C   UNL     1     -10.078  11.891  64.078  1.00  0.00    -0.334 C  
HETATM    4  C   UNL     1      -9.874  10.494  63.519  1.00  0.00    -0.278 C  
HETATM    5  O   UNL     1      -9.244   9.664  64.472  1.00  0.00    -0.248 OA 
HETATM    6  C   UNL     1     -10.011   9.457  65.642  1.00  0.00    -0.139 C  
HETATM    7  C   UNL     1     -10.364  10.781  66.360  1.00  0.00    -0.248 C  
HETATM    8  C   UNL     1     -10.894  11.858  65.381  1.00  0.00    -0.294 C  
ENDROOT
BRANCH   6   9
HETATM    9  O   UNL     1      -9.242   8.653  66.542  1.00  0.00    -0.161 OA 
BRANCH   9  10
HETATM   10  C   UNL     1      -9.651   7.282  66.626  1.00  0.00    -0.178 C  
HETATM   11  H   UNL     1      -8.951   2.753  67.718  1.00  0.00     0.000 HD 
HETATM   12  C   UNL     1      -8.494   6.380  66.116  1.00  0.00    -0.140 C  
HETATM   13  C   UNL     1     -10.044   6.865  68.052  1.00  0.00    -0.166 C  
HETATM   14  C   UNL     1      -8.818   4.891  66.350  1.00  0.00    -0.113 C  
HETATM   15  O   UNL     1      -9.693   3.305  67.934  1.00  0.00    -0.150 OA 
HETATM   16  O   UNL     1     -10.375   5.481  68.122  1.00  0.00    -0.185 OA 
HETATM   17  C   UNL     1      -9.267   4.656  67.799  1.00  0.00    -0.126 C  
BRANCH  14  18
HETATM   18  O   UNL     1      -7.830   3.979  65.879  1.00  0.00    -0.089 OA 
HETATM   19  S   UNL     1      -6.555   3.496  66.756  1.00  0.00    -0.042 S  
HETATM   20  O   UNL     1      -5.868   4.668  67.243  1.00  0.00    -0.021 OA 
HETATM   21  O   UNL     1      -7.206   2.747  68.019  1.00  0.00    -0.048 OA 
HETATM   22  O   UNL     1      -5.879   2.471  65.994  1.00  0.00    -0.021 OA 
ENDBRANCH  14  18
BRANCH  12  23
HETATM   23  O   UNL     1      -8.119   6.665  64.760  1.00  0.00    -0.122 OA 
HETATM   24  S   UNL     1      -6.627   7.162  64.360  1.00  0.00    -0.040 S  
HETATM   25  O   UNL     1      -6.455   8.508  64.859  1.00  0.00    -0.063 OA 
HETATM   26  O   UNL     1      -6.740   7.298  62.760  1.00  0.00    -0.052 OA 
HETATM   27  O   UNL     1      -5.670   6.125  64.646  1.00  0.00    -0.021 OA 
ENDBRANCH  12  23
ENDBRANCH   9  10
ENDBRANCH   6   9
BRANCH   7  28
HETATM   28  O   UNL     1     -11.383  10.557  67.350  1.00  0.00    -0.381 OA 
HETATM   29  O   UNL     1     -10.401   9.837  69.522  1.00  0.00    -0.201 OA 
HETATM   30  O   UNL     1     -12.563  10.949  69.520  1.00  0.00    -0.304 OA 
HETATM   31  S   UNL     1     -11.079  10.953  68.903  1.00  0.00    -0.276 S  
HETATM   32  O   UNL     1     -10.584  12.307  68.955  1.00  0.00    -0.175 OA 
ENDBRANCH   7  28
BRANCH   8  33
HETATM   33  O   UNL     1     -10.796  13.121  66.063  1.00  0.00    -0.271 OA 
HETATM   34  S   UNL     1     -11.817  14.334  65.708  1.00  0.00    -0.373 S  
HETATM   35  O   UNL     1     -11.323  15.041  64.552  1.00  0.00    -0.354 OA 
HETATM   36  O   UNL     1     -13.172  13.843  65.816  1.00  0.00    -0.521 OA 
HETATM   37  O   UNL     1     -11.543  15.350  66.923  1.00  0.00    -0.164 OA 
ENDBRANCH   8  33
TORSDOF 6
ENDMDL
MODEL      115
REMARK 921   NORMALIZED FREE ENERGY PREDICTED BY IDOCK:   -3.76 KCAL/MOL
REMARK 922        TOTAL FREE ENERGY PREDICTED BY IDOCK:   -7.17 KCAL/MOL
REMARK 923 INTER-LIGAND FREE ENERGY PREDICTED BY IDOCK:   -6.44 KCAL/MOL
REMARK 924 INTRA-LIGAND FREE ENERGY PREDICTED BY IDOCK:   -0.73 KCAL/MOL
REMARK 927      BINDING AFFINITY PREDICTED BY RF-SCORE:    0.00 PKD
ROOT
HETATM    1  O   UNL     1     -10.378   4.454  70.125  1.00  0.00    -0.081 OA 
HETATM    2  H   UNL     1      -9.965   3.723  69.682  1.00  0.00     0.000 HD 
HETATM    3  C   UNL     1      -9.605   5.626  69.883  1.00  0.00    -0.161 C  
HETATM    4  C   UNL     1     -10.266   6.795  70.592  1.00  0.00    -0.195 C  
HETATM    5  O   UNL     1      -9.530   7.982  70.389  1.00  0.00    -0.165 OA 
HETATM    6  C   UNL     1      -9.470   8.391  69.036  1.00  0.00    -0.151 C  
HETATM    7  C   UNL     1      -8.848   7.311  68.119  1.00  0.00    -0.126 C  
HETATM    8  C   UNL     1      -9.443   5.904  68.380  1.00  0.00    -0.120 C  
ENDROOT
BRANCH   6   9
HETATM    9  O   UNL     1      -8.654   9.564  68.962  1.00  0.00    -0.124 OA 
BRANCH   9  10
HETATM   10  C   UNL     1      -9.364  10.802  69.089  1.00  0.00    -0.125 C  
HETATM   11  H   UNL     1     -12.513  14.000  67.655  1.00  0.00     0.000 HD 
HETATM   12  C   UNL     1      -9.397  11.506  67.704  1.00  0.00    -0.171 C  
HETATM   13  C   UNL     1     -10.797  10.615  69.611  1.00  0.00    -0.268 C  
HETATM   14  C   UNL     1     -10.299  12.756  67.749  1.00  0.00    -0.221 C  
HETATM   15  O   UNL     1     -12.407  13.621  68.521  1.00  0.00    -0.248 OA 
HETATM   16  O   UNL     1     -11.505  11.852  69.656  1.00  0.00    -0.285 OA 
HETATM   17  C   UNL     1     -11.663  12.418  68.365  1.00  0.00    -0.336 C  
BRANCH  14  18
HETATM   18  O   UNL     1     -10.363  13.494  66.531  1.00  0.00    -0.272 OA 
HETATM   19  S   UNL     1     -11.045  12.935  65.171  1.00  0.00    -0.302 S  
HETATM   20  O   UNL     1     -10.466  11.648  64.868  1.00  0.00    -0.262 OA 
HETATM   21  O   UNL     1     -12.584  12.700  65.567  1.00  0.00    -0.634 OA 
HETATM   22  O   UNL     1     -11.043  14.020  64.218  1.00  0.00    -0.325 OA 
ENDBRANCH  14  18
BRANCH  12  23
HETATM   23  O   UNL     1      -8.087  11.779  67.184  1.00  0.00    -0.155 OA 
HETATM   24  S   UNL     1      -7.007  12.683  67.988  1.00  0.00    -0.116 S  
HETATM   25  O   UNL     1      -7.471  14.051  67.977  1.00  0.00    -0.111 OA 
HETATM   26  O   UNL     1      -5.738  12.642  66.999  1.00  0.00    -0.330 OA 
HETATM   27  O   UNL     1      -6.631  12.024  69.213  1.00  0.00    -0.100 OA 
ENDBRANCH  12  23
ENDBRANCH   9  10
ENDBRANCH   6   9
BRANCH   7  28
HETATM   28  O   UNL     1      -9.085   7.632  66.737  1.00  0.00    -0.137 OA 
HETATM   29  O   UNL     1      -7.327   9.150  65.841  1.00  0.00    -0.091 OA 
HETATM   30  O   UNL     1      -8.533   7.708  64.299  1.00  0.00     0.020 OA 
HETATM   31  S   UNL     1      -7.810   7.793  65.732  1.00  0.00    -0.111 S  
HETATM   32  O   UNL     1      -6.957   6.637  65.865  1.00  0.00    -0.058 OA 
ENDBRANCH   7  28
BRANCH   8  33
HETATM   33  O   UNL     1      -8.534   4.957  67.792  1.00  0.00    -0.104 OA 
HETATM   34  S   UNL     1      -9.078   3.806  66.781  1.00  0.00    -0.172 S  
HETATM   35  O   UNL     1      -9.569   2.694  67.557  1.00  0.00    -0.139 OA 
HETATM   36  O   UNL     1      -9.844   4.439  65.731  1.00  0.00    -0.188 OA 
HETATM   37  O   UNL     1      -7.706   3.256  66.152  1.00  0.00    -0.077 OA 
ENDBRANCH   8  33
TORSDOF 6
ENDMDL
MODEL      116
REMARK 921   NORMALIZED FREE ENERGY PREDICTED BY IDOCK:   -3.75 KCAL/MOL
REMARK 922        TOTAL FREE ENERGY PREDICTED BY IDOCK:   -7.17 KCAL/MOL
REMARK 923 INTER-LIGAND FREE ENERGY PREDICTED BY IDOCK:   -6.47 KCAL/MOL
REMARK 924 INTRA-LIGAND FREE ENERGY PREDICTED BY IDOCK:   -0.70 KCAL/MOL
REMARK 927      BINDING AFFINITY PREDICTED BY RF-SCORE:    0.00 PKD
ROOT
HETATM    1  O   UNL     1     -12.304  12.786  69.266  1.00  0.00    -0.117 OA 
HETATM    2  H   UNL     1     -12.659  13.232  68.506  1.00  0.00     0.000 HD 
HETATM    3  C   UNL     1     -11.905  11.475  68.877  1.00  0.00    -0.341 C  
HETATM    4  C   UNL     1     -11.337  10.764  70.092  1.00  0.00    -0.309 C  
HETATM    5  O   UNL     1     -10.935   9.453  69.759  1.00  0.00    -0.237 OA 
HETATM    6  C   UNL     1      -9.886   9.402  68.811  1.00  0.00    -0.163 C  
HETATM    7  C   UNL     1     -10.251  10.113  67.486  1.00  0.00    -0.211 C  
HETATM    8  C   UNL     1     -10.890  11.505  67.722  1.00  0.00    -0.221 C  
ENDROOT
BRANCH   6   9
HETATM    9  O   UNL     1      -9.614   8.028  68.520  1.00  0.00    -0.151 OA 
BRANCH   9  10
HETATM   10  C   UNL     1      -8.380   7.530  69.055  1.00  0.00    -0.129 C  
HETATM   11  H   UNL     1      -5.389   4.070  70.183  1.00  0.00     0.000 HD 
HETATM   12  C   UNL     1      -8.685   6.311  69.967  1.00  0.00    -0.141 C  
HETATM   13  C   UNL     1      -7.379   7.124  67.962  1.00  0.00    -0.097 C  
HETATM   14  C   UNL     1      -7.379   5.633  70.427  1.00  0.00    -0.079 C  
HETATM   15  O   UNL     1      -5.211   4.874  69.708  1.00  0.00     0.000 OA 
HETATM   16  O   UNL     1      -6.193   6.564  68.519  1.00  0.00    -0.027 OA 
HETATM   17  C   UNL     1      -6.458   5.364  69.228  1.00  0.00    -0.038 C  
BRANCH  14  18
HETATM   18  O   UNL     1      -7.553   4.522  71.302  1.00  0.00    -0.070 OA 
HETATM   19  S   UNL     1      -8.320   3.156  70.887  1.00  0.00    -0.065 S  
HETATM   20  O   UNL     1      -9.620   3.505  70.363  1.00  0.00    -0.178 OA 
HETATM   21  O   UNL     1      -7.446   2.565  69.676  1.00  0.00    -0.043 OA 
HETATM   22  O   UNL     1      -8.159   2.228  71.982  1.00  0.00    -0.052 OA 
ENDBRANCH  14  18
BRANCH  12  23
HETATM   23  O   UNL     1      -9.562   6.633  71.058  1.00  0.00    -0.171 OA 
HETATM   24  S   UNL     1      -9.070   7.502  72.337  1.00  0.00    -0.144 S  
HETATM   25  O   UNL     1      -8.153   6.690  73.104  1.00  0.00    -0.105 OA 
HETATM   26  O   UNL     1     -10.416   7.592  73.214  1.00  0.00    -0.329 OA 
HETATM   27  O   UNL     1      -8.727   8.837  71.920  1.00  0.00    -0.284 OA 
ENDBRANCH  12  23
ENDBRANCH   9  10
ENDBRANCH   6   9
BRANCH   7  28
HETATM   28  O   UNL     1      -9.074  10.308  66.682  1.00  0.00    -0.142 OA 
HETATM   29  O   UNL     1      -8.615   8.326  65.246  1.00  0.00    -0.171 OA 
HETATM   30  O   UNL     1      -7.797  10.505  64.541  1.00  0.00    -0.108 OA 
HETATM   31  S   UNL     1      -9.042   9.704  65.167  1.00  0.00    -0.241 S  
HETATM   32  O   UNL     1     -10.232  10.124  64.468  1.00  0.00    -0.256 OA 
ENDBRANCH   7  28
BRANCH   8  33
HETATM   33  O   UNL     1     -11.541  11.874  66.495  1.00  0.00    -0.463 OA 
HETATM   34  S   UNL     1     -11.306  13.343  65.841  1.00  0.00    -0.316 S  
HETATM   35  O   UNL     1     -12.195  14.286  66.472  1.00  0.00    -0.441 OA 
HETATM   36  O   UNL     1      -9.883  13.565  65.706  1.00  0.00    -0.268 OA 
HETATM   37  O   UNL     1     -11.934  13.148  64.375  1.00  0.00    -0.360 OA 
ENDBRANCH   8  33
TORSDOF 6
ENDMDL
MODEL      117
REMARK 921   NORMALIZED FREE ENERGY PREDICTED BY IDOCK:   -3.74 KCAL/MOL
REMARK 922        TOTAL FREE ENERGY PREDICTED BY IDOCK:   -7.16 KCAL/MOL
REMARK 923 INTER-LIGAND FREE ENERGY PREDICTED BY IDOCK:   -8.42 KCAL/MOL
REMARK 924 INTRA-LIGAND FREE ENERGY PREDICTED BY IDOCK:    1.27 KCAL/MOL
REMARK 927      BINDING AFFINITY PREDICTED BY RF-SCORE:    0.00 PKD
ROOT
HETATM    1  O   UNL     1     -10.452  18.598  68.698  1.00  0.00    -0.407 OA 
HETATM    2  H   UNL     1      -9.991  19.268  68.208  1.00  0.00     0.000 HD 
HETATM    3  C   UNL     1     -10.637  17.466  67.851  1.00  0.00    -0.383 C  
HETATM    4  C   UNL     1     -11.374  16.394  68.634  1.00  0.00    -0.289 C  
HETATM    5  O   UNL     1     -11.590  15.252  67.833  1.00  0.00    -0.339 OA 
HETATM    6  C   UNL     1     -10.398  14.614  67.417  1.00  0.00    -0.241 C  
HETATM    7  C   UNL     1      -9.470  15.559  66.616  1.00  0.00    -0.259 C  
HETATM    8  C   UNL     1      -9.302  16.938  67.302  1.00  0.00    -0.236 C  
ENDROOT
BRANCH   6   9
HETATM    9  O   UNL     1     -10.753  13.515  66.573  1.00  0.00    -0.284 OA 
BRANCH   9  10
HETATM   10  C   UNL     1     -11.146  12.324  67.266  1.00  0.00    -0.275 C  
HETATM   11  H   UNL     1     -10.909   9.288  70.860  1.00  0.00     0.000 HD 
HETATM   12  C   UNL     1      -9.872  11.594  67.773  1.00  0.00    -0.179 C  
HETATM   13  C   UNL     1     -12.088  12.606  68.447  1.00  0.00    -0.087 C  
HETATM   14  C   UNL     1     -10.248  10.401  68.674  1.00  0.00    -0.181 C  
HETATM   15  O   UNL     1     -11.681   9.679  70.466  1.00  0.00    -0.263 OA 
HETATM   16  O   UNL     1     -12.403  11.414  69.163  1.00  0.00    -0.356 OA 
HETATM   17  C   UNL     1     -11.251  10.832  69.752  1.00  0.00    -0.297 C  
BRANCH  14  18
HETATM   18  O   UNL     1      -9.143   9.642  69.158  1.00  0.00    -0.139 OA 
HETATM   19  S   UNL     1      -8.984   8.043  68.947  1.00  0.00    -0.140 S  
HETATM   20  O   UNL     1     -10.190   7.400  69.413  1.00  0.00    -0.190 OA 
HETATM   21  O   UNL     1      -8.913   7.860  67.353  1.00  0.00    -0.126 OA 
HETATM   22  O   UNL     1      -7.678   7.677  69.446  1.00  0.00    -0.102 OA 
ENDBRANCH  14  18
BRANCH  12  23
HETATM   23  O   UNL     1      -8.974  11.234  66.712  1.00  0.00    -0.161 OA 
HETATM   24  S   UNL     1      -9.503  10.778  65.247  1.00  0.00    -0.235 S  
HETATM   25  O   UNL     1     -10.123   9.480  65.379  1.00  0.00    -0.218 OA 
HETATM   26  O   UNL     1      -8.122  10.527  64.459  1.00  0.00    -0.143 OA 
HETATM   27  O   UNL     1     -10.181  11.876  64.607  1.00  0.00    -0.260 OA 
ENDBRANCH  12  23
ENDBRANCH   9  10
ENDBRANCH   6   9
BRANCH   7  28
HETATM   28  O   UNL     1      -8.161  14.978  66.483  1.00  0.00    -0.103 OA 
HETATM   29  O   UNL     1      -6.548  15.991  68.087  1.00  0.00    -0.112 OA 
HETATM   30  O   UNL     1      -6.140  13.736  67.274  1.00  0.00    -0.321 OA 
HETATM   31  S   UNL     1      -7.253  14.758  67.821  1.00  0.00    -0.190 S  
HETATM   32  O   UNL     1      -8.038  14.066  68.813  1.00  0.00    -0.133 OA 
ENDBRANCH   7  28
BRANCH   8  33
HETATM   33  O   UNL     1      -8.783  17.834  66.305  1.00  0.00    -0.387 OA 
HETATM   34  S   UNL     1      -8.564  19.409  66.640  1.00  0.00    -0.345 S  
HETATM   35  O   UNL     1      -9.814  20.106  66.463  1.00  0.00    -0.416 OA 
HETATM   36  O   UNL     1      -7.760  19.518  67.836  1.00  0.00    -0.273 OA 
HETATM   37  O   UNL     1      -7.681  19.886  65.385  1.00  0.00    -0.356 OA 
ENDBRANCH   8  33
TORSDOF 6
ENDMDL
MODEL      118
REMARK 921   NORMALIZED FREE ENERGY PREDICTED BY IDOCK:   -3.73 KCAL/MOL
REMARK 922        TOTAL FREE ENERGY PREDICTED BY IDOCK:   -7.14 KCAL/MOL
REMARK 923 INTER-LIGAND FREE ENERGY PREDICTED BY IDOCK:   -8.27 KCAL/MOL
REMARK 924 INTRA-LIGAND FREE ENERGY PREDICTED BY IDOCK:    1.13 KCAL/MOL
REMARK 927      BINDING AFFINITY PREDICTED BY RF-SCORE:    0.00 PKD
ROOT
HETATM    1  O   UNL     1     -11.848   9.777  71.855  1.00  0.00    -0.342 OA 
HETATM    2  H   UNL     1     -11.346   9.192  72.409  1.00  0.00     0.000 HD 
HETATM    3  C   UNL     1     -11.147   9.952  70.627  1.00  0.00    -0.340 C  
HETATM    4  C   UNL     1     -11.951  10.887  69.741  1.00  0.00    -0.351 C  
HETATM    5  O   UNL     1     -11.290  11.100  68.512  1.00  0.00    -0.233 OA 
HETATM    6  C   UNL     1     -11.146   9.929  67.733  1.00  0.00    -0.129 C  
HETATM    7  C   UNL     1     -10.371   8.815  68.475  1.00  0.00    -0.199 C  
HETATM    8  C   UNL     1     -10.879   8.611  69.925  1.00  0.00    -0.208 C  
ENDROOT
BRANCH   6   9
HETATM    9  O   UNL     1     -10.416  10.269  66.550  1.00  0.00    -0.223 OA 
BRANCH   9  10
HETATM   10  C   UNL     1      -9.581  11.428  66.668  1.00  0.00    -0.191 C  
HETATM   11  H   UNL     1      -8.242  15.443  68.736  1.00  0.00     0.000 HD 
HETATM   12  C   UNL     1     -10.477  12.667  66.939  1.00  0.00    -0.233 C  
HETATM   13  C   UNL     1      -8.530  11.292  67.780  1.00  0.00    -0.126 C  
HETATM   14  C   UNL     1      -9.615  13.907  67.247  1.00  0.00    -0.243 C  
HETATM   15  O   UNL     1      -7.703  14.706  68.471  1.00  0.00    -0.113 OA 
HETATM   16  O   UNL     1      -7.763  12.485  67.926  1.00  0.00    -0.114 OA 
HETATM   17  C   UNL     1      -8.567  13.585  68.321  1.00  0.00    -0.168 C  
BRANCH  14  18
HETATM   18  O   UNL     1     -10.348  15.108  67.473  1.00  0.00    -0.238 OA 
HETATM   19  S   UNL     1     -11.444  15.288  68.654  1.00  0.00    -0.351 S  
HETATM   20  O   UNL     1     -12.398  14.209  68.557  1.00  0.00    -0.244 OA 
HETATM   21  O   UNL     1     -10.604  15.083  70.007  1.00  0.00    -0.226 OA 
HETATM   22  O   UNL     1     -11.851  16.674  68.647  1.00  0.00     0.015 OA 
ENDBRANCH  14  18
BRANCH  12  23
HETATM   23  O   UNL     1     -11.441  12.899  65.901  1.00  0.00    -0.317 OA 
HETATM   24  S   UNL     1     -11.020  13.460  64.438  1.00  0.00    -0.378 S  
HETATM   25  O   UNL     1     -10.611  14.838  64.587  1.00  0.00    -0.374 OA 
HETATM   26  O   UNL     1     -12.437  13.502  63.677  1.00  0.00    -0.718 OA 
HETATM   27  O   UNL     1     -10.187  12.497  63.763  1.00  0.00    -0.416 OA 
ENDBRANCH  12  23
ENDBRANCH   9  10
ENDBRANCH   6   9
BRANCH   7  28
HETATM   28  O   UNL     1     -10.513   7.561  67.785  1.00  0.00    -0.210 OA 
HETATM   29  O   UNL     1      -8.978   7.419  65.830  1.00  0.00    -0.153 OA 
HETATM   30  O   UNL     1      -9.726   5.362  66.890  1.00  0.00    -0.131 OA 
HETATM   31  S   UNL     1      -9.189   6.856  67.144  1.00  0.00    -0.144 S  
HETATM   32  O   UNL     1      -8.158   6.789  68.150  1.00  0.00    -0.112 OA 
ENDBRANCH   7  28
BRANCH   8  33
HETATM   33  O   UNL     1      -9.856   7.878  70.621  1.00  0.00    -0.184 OA 
HETATM   34  S   UNL     1     -10.249   6.796  71.768  1.00  0.00    -0.189 S  
HETATM   35  O   UNL     1     -10.455   7.487  73.016  1.00  0.00    -0.274 OA 
HETATM   36  O   UNL     1     -11.204   5.862  71.213  1.00  0.00    -0.273 OA 
HETATM   37  O   UNL     1      -8.852   6.031  71.981  1.00  0.00    -0.136 OA 
ENDBRANCH   8  33
TORSDOF 6
ENDMDL
MODEL      119
REMARK 921   NORMALIZED FREE ENERGY PREDICTED BY IDOCK:   -3.73 KCAL/MOL
REMARK 922        TOTAL FREE ENERGY PREDICTED BY IDOCK:   -7.13 KCAL/MOL
REMARK 923 INTER-LIGAND FREE ENERGY PREDICTED BY IDOCK:   -6.78 KCAL/MOL
REMARK 924 INTRA-LIGAND FREE ENERGY PREDICTED BY IDOCK:   -0.36 KCAL/MOL
REMARK 927      BINDING AFFINITY PREDICTED BY RF-SCORE:    0.00 PKD
ROOT
HETATM    1  O   UNL     1     -10.991   6.645  68.457  1.00  0.00    -0.348 OA 
HETATM    2  H   UNL     1     -10.531   5.912  68.066  1.00  0.00     0.000 HD 
HETATM    3  C   UNL     1     -10.304   7.846  68.115  1.00  0.00    -0.200 C  
HETATM    4  C   UNL     1     -11.039   9.017  68.740  1.00  0.00     0.183 C  
HETATM    5  O   UNL     1     -10.390  10.233  68.436  1.00  0.00    -0.162 OA 
HETATM    6  C   UNL     1     -10.371  10.539  67.055  1.00  0.00    -0.237 C  
HETATM    7  C   UNL     1      -9.683   9.436  66.215  1.00  0.00    -0.264 C  
HETATM    8  C   UNL     1     -10.175   8.016  66.592  1.00  0.00    -0.245 C  
ENDROOT
BRANCH   6   9
HETATM    9  O   UNL     1      -9.640  11.756  66.879  1.00  0.00    -0.187 OA 
BRANCH   9  10
HETATM   10  C   UNL     1     -10.422  12.870  66.429  1.00  0.00    -0.267 C  
HETATM   11  H   UNL     1     -11.158  16.669  63.743  1.00  0.00     0.000 HD 
HETATM   12  C   UNL     1      -9.505  14.120  66.331  1.00  0.00    -0.269 C  
HETATM   13  C   UNL     1     -11.098  12.614  65.073  1.00  0.00    -0.291 C  
HETATM   14  C   UNL     1     -10.259  15.300  65.686  1.00  0.00    -0.372 C  
HETATM   15  O   UNL     1     -11.739  15.933  63.898  1.00  0.00    -0.571 OA 
HETATM   16  O   UNL     1     -11.807  13.762  64.615  1.00  0.00    -0.366 OA 
HETATM   17  C   UNL     1     -10.940  14.860  64.383  1.00  0.00    -0.036 C  
BRANCH  14  18
HETATM   18  O   UNL     1      -9.510  16.509  65.587  1.00  0.00    -0.497 OA 
HETATM   19  S   UNL     1      -9.995  17.925  66.210  1.00  0.00    -0.302 S  
HETATM   20  O   UNL     1     -11.329  18.200  65.730  1.00  0.00     0.541 OA 
HETATM   21  O   UNL     1     -10.088  17.651  67.790  1.00  0.00    -0.307 OA 
HETATM   22  O   UNL     1      -8.909  18.861  66.033  1.00  0.00    -0.464 OA 
ENDBRANCH  14  18
BRANCH  12  23
HETATM   23  O   UNL     1      -8.893  14.464  67.583  1.00  0.00    -0.176 OA 
HETATM   24  S   UNL     1      -7.288  14.640  67.742  1.00  0.00    -0.188 S  
HETATM   25  O   UNL     1      -6.680  13.335  67.621  1.00  0.00    -0.144 OA 
HETATM   26  O   UNL     1      -7.151  15.046  69.294  1.00  0.00    -0.141 OA 
HETATM   27  O   UNL     1      -6.836  15.758  66.954  1.00  0.00    -0.248 OA 
ENDBRANCH  12  23
ENDBRANCH   9  10
ENDBRANCH   6   9
BRANCH   7  28
HETATM   28  O   UNL     1      -9.954   9.632  64.816  1.00  0.00    -0.112 OA 
HETATM   29  O   UNL     1      -8.224  11.067  63.745  1.00  0.00     0.123 OA 
HETATM   30  O   UNL     1      -9.460   9.490  62.368  1.00  0.00    -0.158 OA 
HETATM   31  S   UNL     1      -8.704   9.704  63.770  1.00  0.00    -0.224 S  
HETATM   32  O   UNL     1      -7.844   8.567  63.986  1.00  0.00    -0.132 OA 
ENDBRANCH   7  28
BRANCH   8  33
HETATM   33  O   UNL     1      -9.207   7.091  66.066  1.00  0.00    -0.127 OA 
HETATM   34  S   UNL     1      -9.069   5.596  66.687  1.00  0.00    -0.133 S  
HETATM   35  O   UNL     1      -8.227   5.648  67.856  1.00  0.00    -0.101 OA 
HETATM   36  O   UNL     1     -10.373   4.971  66.678  1.00  0.00    -0.244 OA 
HETATM   37  O   UNL     1      -8.149   4.874  65.585  1.00  0.00    -0.108 OA 
ENDBRANCH   8  33
TORSDOF 6
ENDMDL
MODEL      120
REMARK 921   NORMALIZED FREE ENERGY PREDICTED BY IDOCK:   -3.72 KCAL/MOL
REMARK 922        TOTAL FREE ENERGY PREDICTED BY IDOCK:   -7.12 KCAL/MOL
REMARK 923 INTER-LIGAND FREE ENERGY PREDICTED BY IDOCK:   -8.60 KCAL/MOL
REMARK 924 INTRA-LIGAND FREE ENERGY PREDICTED BY IDOCK:    1.48 KCAL/MOL
REMARK 927      BINDING AFFINITY PREDICTED BY RF-SCORE:    0.00 PKD
ROOT
HETATM    1  O   UNL     1     -13.178  14.053  65.393  1.00  0.00    -0.761 OA 
HETATM    2  H   UNL     1     -13.211  14.988  65.231  1.00  0.00     0.000 HD 
HETATM    3  C   UNL     1     -11.900  13.733  65.937  1.00  0.00    -0.383 C  
HETATM    4  C   UNL     1     -11.848  12.237  66.196  1.00  0.00    -0.329 C  
HETATM    5  O   UNL     1     -10.594  11.868  66.728  1.00  0.00    -0.216 OA 
HETATM    6  C   UNL     1     -10.319  12.444  67.991  1.00  0.00    -0.216 C  
HETATM    7  C   UNL     1     -10.358  13.990  67.957  1.00  0.00    -0.240 C  
HETATM    8  C   UNL     1     -11.607  14.531  67.218  1.00  0.00    -0.385 C  
ENDROOT
BRANCH   6   9
HETATM    9  O   UNL     1      -9.006  12.039  68.389  1.00  0.00    -0.183 OA 
BRANCH   9  10
HETATM   10  C   UNL     1      -8.524  10.846  67.755  1.00  0.00    -0.124 C  
HETATM   11  H   UNL     1      -9.126   6.780  65.455  1.00  0.00     0.000 HD 
HETATM   12  C   UNL     1      -9.392   9.645  68.221  1.00  0.00    -0.133 C  
HETATM   13  C   UNL     1      -8.544  10.938  66.222  1.00  0.00    -0.164 C  
HETATM   14  C   UNL     1      -9.025   8.370  67.435  1.00  0.00    -0.134 C  
HETATM   15  O   UNL     1      -8.534   7.494  65.248  1.00  0.00    -0.132 OA 
HETATM   16  O   UNL     1      -8.131   9.715  65.617  1.00  0.00    -0.112 OA 
HETATM   17  C   UNL     1      -9.015   8.649  65.926  1.00  0.00    -0.200 C  
BRANCH  14  18
HETATM   18  O   UNL     1      -9.743   7.200  67.818  1.00  0.00    -0.134 OA 
HETATM   19  S   UNL     1      -9.060   5.916  68.532  1.00  0.00    -0.111 S  
HETATM   20  O   UNL     1      -7.938   5.492  67.730  1.00  0.00    -0.099 OA 
HETATM   21  O   UNL     1      -8.485   6.492  69.917  1.00  0.00    -0.132 OA 
HETATM   22  O   UNL     1     -10.129   5.013  68.893  1.00  0.00    -0.178 OA 
ENDBRANCH  14  18
BRANCH  12  23
HETATM   23  O   UNL     1      -9.364   9.452  69.643  1.00  0.00    -0.166 OA 
HETATM   24  S   UNL     1     -10.718   9.291  70.522  1.00  0.00    -0.282 S  
HETATM   25  O   UNL     1     -11.391  10.569  70.547  1.00  0.00    -0.312 OA 
HETATM   26  O   UNL     1     -10.129   9.076  72.004  1.00  0.00    -0.327 OA 
HETATM   27  O   UNL     1     -11.407   8.084  70.144  1.00  0.00    -0.204 OA 
ENDBRANCH  12  23
ENDBRANCH   9  10
ENDBRANCH   6   9
BRANCH   7  28
HETATM   28  O   UNL     1     -10.382  14.519  69.294  1.00  0.00    -0.219 OA 
HETATM   29  O   UNL     1     -12.373  15.967  69.665  1.00  0.00    -0.252 OA 
HETATM   30  O   UNL     1     -11.342  14.873  71.576  1.00  0.00    -0.313 OA 
HETATM   31  S   UNL     1     -11.817  14.691  70.051  1.00  0.00    -0.327 S  
HETATM   32  O   UNL     1     -12.547  13.450  69.962  1.00  0.00    -0.180 OA 
ENDBRANCH   7  28
BRANCH   8  33
HETATM   33  O   UNL     1     -11.335  15.906  66.897  1.00  0.00    -0.081 OA 
HETATM   34  S   UNL     1     -10.269  16.289  65.731  1.00  0.00    -0.351 S  
HETATM   35  O   UNL     1      -8.938  16.264  66.284  1.00  0.00    -0.276 OA 
HETATM   36  O   UNL     1     -10.637  15.587  64.522  1.00  0.00    -0.307 OA 
HETATM   37  O   UNL     1     -10.567  17.854  65.524  1.00  0.00    -0.638 OA 
ENDBRANCH   8  33
TORSDOF 6
ENDMDL
MODEL      121
REMARK 921   NORMALIZED FREE ENERGY PREDICTED BY IDOCK:   -3.70 KCAL/MOL
REMARK 922        TOTAL FREE ENERGY PREDICTED BY IDOCK:   -7.10 KCAL/MOL
REMARK 923 INTER-LIGAND FREE ENERGY PREDICTED BY IDOCK:   -6.76 KCAL/MOL
REMARK 924 INTRA-LIGAND FREE ENERGY PREDICTED BY IDOCK:   -0.33 KCAL/MOL
REMARK 927      BINDING AFFINITY PREDICTED BY RF-SCORE:    0.00 PKD
ROOT
HETATM    1  O   UNL     1      -6.558   5.576  66.545  1.00  0.00    -0.052 OA 
HETATM    2  H   UNL     1      -7.014   5.007  65.938  1.00  0.00     0.000 HD 
HETATM    3  C   UNL     1      -7.315   6.773  66.700  1.00  0.00    -0.074 C  
HETATM    4  C   UNL     1      -6.585   7.683  67.672  1.00  0.00    -0.062 C  
HETATM    5  O   UNL     1      -7.294   8.890  67.852  1.00  0.00    -0.083 OA 
HETATM    6  C   UNL     1      -8.570   8.720  68.436  1.00  0.00    -0.134 C  
HETATM    7  C   UNL     1      -9.480   7.782  67.607  1.00  0.00    -0.144 C  
HETATM    8  C   UNL     1      -8.749   6.486  67.175  1.00  0.00    -0.111 C  
ENDROOT
BRANCH   6   9
HETATM    9  O   UNL     1      -9.201  10.002  68.511  1.00  0.00    -0.135 OA 
BRANCH   9  10
HETATM   10  C   UNL     1      -8.323  11.119  68.319  1.00  0.00    -0.143 C  
HETATM   11  H   UNL     1      -6.794  15.468  69.287  1.00  0.00     0.000 HD 
HETATM   12  C   UNL     1      -9.169  12.421  68.284  1.00  0.00    -0.189 C  
HETATM   13  C   UNL     1      -7.250  11.226  69.414  1.00  0.00    -0.063 C  
HETATM   14  C   UNL     1      -8.256  13.664  68.255  1.00  0.00    -0.156 C  
HETATM   15  O   UNL     1      -6.288  14.668  69.208  1.00  0.00    -0.103 OA 
HETATM   16  O   UNL     1      -6.439  12.385  69.242  1.00  0.00    -0.098 OA 
HETATM   17  C   UNL     1      -7.194  13.581  69.359  1.00  0.00     0.182 C  
BRANCH  14  18
HETATM   18  O   UNL     1      -8.941  14.911  68.182  1.00  0.00    -0.167 OA 
HETATM   19  S   UNL     1      -8.924  15.876  66.880  1.00  0.00    -0.253 S  
HETATM   20  O   UNL     1      -7.549  16.114  66.509  1.00  0.00    -0.233 OA 
HETATM   21  O   UNL     1      -9.600  14.992  65.723  1.00  0.00    -0.328 OA 
HETATM   22  O   UNL     1      -9.846  16.958  67.141  1.00  0.00    -0.257 OA 
ENDBRANCH  14  18
BRANCH  12  23
HETATM   23  O   UNL     1     -10.150  12.423  67.235  1.00  0.00    -0.207 OA 
HETATM   24  S   UNL     1     -11.736  12.584  67.534  1.00  0.00    -0.335 S  
HETATM   25  O   UNL     1     -12.195  11.376  68.180  1.00  0.00    -0.602 OA 
HETATM   26  O   UNL     1     -12.358  12.552  66.050  1.00  0.00    -0.615 OA 
HETATM   27  O   UNL     1     -12.000  13.885  68.093  1.00  0.00    -0.355 OA 
ENDBRANCH  12  23
ENDBRANCH   9  10
ENDBRANCH   6   9
BRANCH   7  28
HETATM   28  O   UNL     1     -10.632   7.394  68.377  1.00  0.00    -0.198 OA 
HETATM   29  O   UNL     1     -10.171   5.366  69.745  1.00  0.00    -0.229 OA 
HETATM   30  O   UNL     1     -11.897   6.913  70.480  1.00  0.00    -0.352 OA 
HETATM   31  S   UNL     1     -10.414   6.784  69.874  1.00  0.00    -0.223 S  
HETATM   32  O   UNL     1      -9.554   7.669  70.622  1.00  0.00    -0.164 OA 
ENDBRANCH   7  28
BRANCH   8  33
HETATM   33  O   UNL     1      -9.523   5.912  66.107  1.00  0.00    -0.158 OA 
HETATM   34  S   UNL     1      -9.418   4.327  65.768  1.00  0.00    -0.192 S  
HETATM   35  O   UNL     1      -8.275   4.102  64.918  1.00  0.00    -0.096 OA 
HETATM   36  O   UNL     1      -9.661   3.578  66.981  1.00  0.00    -0.176 OA 
HETATM   37  O   UNL     1     -10.672   4.125  64.783  1.00  0.00    -0.256 OA 
ENDBRANCH   8  33
TORSDOF 6
ENDMDL
MODEL      122
REMARK 921   NORMALIZED FREE ENERGY PREDICTED BY IDOCK:   -3.68 KCAL/MOL
REMARK 922        TOTAL FREE ENERGY PREDICTED BY IDOCK:   -7.07 KCAL/MOL
REMARK 923 INTER-LIGAND FREE ENERGY PREDICTED BY IDOCK:   -7.14 KCAL/MOL
REMARK 924 INTRA-LIGAND FREE ENERGY PREDICTED BY IDOCK:    0.07 KCAL/MOL
REMARK 927      BINDING AFFINITY PREDICTED BY RF-SCORE:    0.00 PKD
ROOT
HETATM    1  O   UNL     1     -10.855  11.027  62.879  1.00  0.00    -0.797 OA 
HETATM    2  H   UNL     1     -11.439  11.773  62.930  1.00  0.00     0.000 HD 
HETATM    3  C   UNL     1     -10.072  10.982  64.069  1.00  0.00    -0.350 C  
HETATM    4  C   UNL     1      -9.138   9.788  63.987  1.00  0.00    -0.237 C  
HETATM    5  O   UNL     1      -8.332   9.706  65.143  1.00  0.00    -0.124 OA 
HETATM    6  C   UNL     1      -9.064   9.487  66.333  1.00  0.00    -0.159 C  
HETATM    7  C   UNL     1     -10.115  10.593  66.593  1.00  0.00    -0.220 C  
HETATM    8  C   UNL     1     -10.950  10.919  65.330  1.00  0.00     0.037 C  
ENDROOT
BRANCH   6   9
HETATM    9  O   UNL     1      -8.142   9.481  67.428  1.00  0.00    -0.109 OA 
BRANCH   9  10
HETATM   10  C   UNL     1      -7.339   8.298  67.535  1.00  0.00    -0.093 C  
HETATM   11  H   UNL     1      -6.337   3.803  66.543  1.00  0.00     0.000 HD 
HETATM   12  C   UNL     1      -8.272   7.077  67.756  1.00  0.00    -0.114 C  
HETATM   13  C   UNL     1      -6.459   8.063  66.297  1.00  0.00    -0.047 C  
HETATM   14  C   UNL     1      -7.471   5.761  67.702  1.00  0.00    -0.078 C  
HETATM   15  O   UNL     1      -5.761   4.559  66.509  1.00  0.00    -0.020 OA 
HETATM   16  O   UNL     1      -5.729   6.843  66.397  1.00  0.00    -0.027 OA 
HETATM   17  C   UNL     1      -6.588   5.716  66.448  1.00  0.00    -0.055 C  
BRANCH  14  18
HETATM   18  O   UNL     1      -8.236   4.581  67.933  1.00  0.00    -0.095 OA 
HETATM   19  S   UNL     1      -9.479   4.115  67.003  1.00  0.00    -0.201 S  
HETATM   20  O   UNL     1     -10.404   5.217  66.894  1.00  0.00    -0.216 OA 
HETATM   21  O   UNL     1      -8.823   3.877  65.556  1.00  0.00    -0.117 OA 
HETATM   22  O   UNL     1      -9.892   2.811  67.469  1.00  0.00     0.089 OA 
ENDBRANCH  14  18
BRANCH  12  23
HETATM   23  O   UNL     1      -9.077   7.194  68.939  1.00  0.00    -0.133 OA 
HETATM   24  S   UNL     1      -8.434   7.179  70.429  1.00  0.00    -0.141 S  
HETATM   25  O   UNL     1      -7.953   5.843  70.695  1.00  0.00    -0.105 OA 
HETATM   26  O   UNL     1      -9.737   7.369  71.354  1.00  0.00    -0.167 OA 
HETATM   27  O   UNL     1      -7.593   8.333  70.612  1.00  0.00    -0.065 OA 
ENDBRANCH  12  23
ENDBRANCH   9  10
ENDBRANCH   6   9
BRANCH   7  28
HETATM   28  O   UNL     1     -11.030  10.180  67.623  1.00  0.00    -0.289 OA 
HETATM   29  O   UNL     1     -10.005  10.378  69.884  1.00  0.00    -0.186 OA 
HETATM   30  O   UNL     1     -12.425  10.492  69.676  1.00  0.00    -0.208 OA 
HETATM   31  S   UNL     1     -11.024  10.972  69.050  1.00  0.00    -0.253 S  
HETATM   32  O   UNL     1     -11.115  12.390  68.802  1.00  0.00    -0.237 OA 
ENDBRANCH   7  28
BRANCH   8  33
HETATM   33  O   UNL     1     -11.577  12.191  65.566  1.00  0.00    -0.359 OA 
HETATM   34  S   UNL     1     -12.522  12.872  64.433  1.00  0.00    -0.347 S  
HETATM   35  O   UNL     1     -11.691  13.576  63.488  1.00  0.00    -0.333 OA 
HETATM   36  O   UNL     1     -13.532  11.914  64.039  1.00  0.00    -0.600 OA 
HETATM   37  O   UNL     1     -13.231  14.047  65.268  1.00  0.00    -0.782 OA 
ENDBRANCH   8  33
TORSDOF 6
ENDMDL
MODEL      123
REMARK 921   NORMALIZED FREE ENERGY PREDICTED BY IDOCK:   -3.67 KCAL/MOL
REMARK 922        TOTAL FREE ENERGY PREDICTED BY IDOCK:   -7.06 KCAL/MOL
REMARK 923 INTER-LIGAND FREE ENERGY PREDICTED BY IDOCK:   -5.35 KCAL/MOL
REMARK 924 INTRA-LIGAND FREE ENERGY PREDICTED BY IDOCK:   -1.71 KCAL/MOL
REMARK 927      BINDING AFFINITY PREDICTED BY RF-SCORE:    0.00 PKD
ROOT
HETATM    1  O   UNL     1      -6.242   6.600  68.403  1.00  0.00    -0.027 OA 
HETATM    2  H   UNL     1      -6.837   5.867  68.499  1.00  0.00     0.000 HD 
HETATM    3  C   UNL     1      -6.995   7.748  68.020  1.00  0.00    -0.080 C  
HETATM    4  C   UNL     1      -6.042   8.920  67.865  1.00  0.00    -0.051 C  
HETATM    5  O   UNL     1      -6.742  10.082  67.477  1.00  0.00    -0.071 OA 
HETATM    6  C   UNL     1      -7.681  10.529  68.435  1.00  0.00    -0.104 C  
HETATM    7  C   UNL     1      -8.743   9.453  68.768  1.00  0.00    -0.131 C  
HETATM    8  C   UNL     1      -8.110   8.064  69.030  1.00  0.00    -0.123 C  
ENDROOT
BRANCH   6   9
HETATM    9  O   UNL     1      -8.356  11.671  67.898  1.00  0.00    -0.130 OA 
BRANCH   9  10
HETATM   10  C   UNL     1      -7.692  12.922  68.117  1.00  0.00    -0.138 C  
HETATM   11  H   UNL     1      -7.474  17.320  69.793  1.00  0.00     0.000 HD 
HETATM   12  C   UNL     1      -8.683  14.077  67.805  1.00  0.00    -0.185 C  
HETATM   13  C   UNL     1      -7.157  13.070  69.550  1.00  0.00     0.274 C  
HETATM   14  C   UNL     1      -8.074  15.439  68.192  1.00  0.00    -0.136 C  
HETATM   15  O   UNL     1      -6.839  16.619  69.887  1.00  0.00    -0.049 OA 
HETATM   16  O   UNL     1      -6.569  14.351  69.761  1.00  0.00    -0.138 OA 
HETATM   17  C   UNL     1      -7.518  15.397  69.621  1.00  0.00    -0.170 C  
BRANCH  14  18
HETATM   18  O   UNL     1      -8.895  16.568  67.907  1.00  0.00    -0.189 OA 
HETATM   19  S   UNL     1      -8.449  17.788  66.937  1.00  0.00    -0.251 S  
HETATM   20  O   UNL     1      -7.171  18.284  67.389  1.00  0.00    -0.198 OA 
HETATM   21  O   UNL     1      -8.229  17.094  65.505  1.00  0.00    -0.240 OA 
HETATM   22  O   UNL     1      -9.597  18.652  66.786  1.00  0.00    -0.294 OA 
ENDBRANCH  14  18
BRANCH  12  23
HETATM   23  O   UNL     1      -9.172  14.046  66.455  1.00  0.00    -0.270 OA 
HETATM   24  S   UNL     1     -10.737  13.798  66.106  1.00  0.00    -0.286 S  
HETATM   25  O   UNL     1     -11.055  12.424  66.423  1.00  0.00    -0.274 OA 
HETATM   26  O   UNL     1     -10.738  13.890  64.500  1.00  0.00    -0.412 OA 
HETATM   27  O   UNL     1     -11.531  14.890  66.609  1.00  0.00    -0.349 OA 
ENDBRANCH  12  23
ENDBRANCH   9  10
ENDBRANCH   6   9
BRANCH   7  28
HETATM   28  O   UNL     1      -9.478   9.825  69.947  1.00  0.00    -0.209 OA 
HETATM   29  O   UNL     1     -10.765  11.927  69.594  1.00  0.00     0.037 OA 
HETATM   30  O   UNL     1     -11.539  10.341  71.267  1.00  0.00    -0.344 OA 
HETATM   31  S   UNL     1     -10.951  10.506  69.780  1.00  0.00    -0.297 S  
HETATM   32  O   UNL     1     -11.749   9.690  68.897  1.00  0.00     0.247 OA 
ENDBRANCH   7  28
BRANCH   8  33
HETATM   33  O   UNL     1      -9.171   7.100  68.921  1.00  0.00    -0.139 OA 
HETATM   34  S   UNL     1      -9.117   5.710  69.761  1.00  0.00    -0.139 S  
HETATM   35  O   UNL     1      -8.316   4.753  69.038  1.00  0.00    -0.081 OA 
HETATM   36  O   UNL     1      -8.906   6.024  71.157  1.00  0.00    -0.137 OA 
HETATM   37  O   UNL     1     -10.618   5.166  69.581  1.00  0.00    -0.261 OA 
ENDBRANCH   8  33
TORSDOF 6
ENDMDL
MODEL      124
REMARK 921   NORMALIZED FREE ENERGY PREDICTED BY IDOCK:   -3.66 KCAL/MOL
REMARK 922        TOTAL FREE ENERGY PREDICTED BY IDOCK:   -7.04 KCAL/MOL
REMARK 923 INTER-LIGAND FREE ENERGY PREDICTED BY IDOCK:   -6.18 KCAL/MOL
REMARK 924 INTRA-LIGAND FREE ENERGY PREDICTED BY IDOCK:   -0.86 KCAL/MOL
REMARK 927      BINDING AFFINITY PREDICTED BY RF-SCORE:    0.00 PKD
ROOT
HETATM    1  O   UNL     1     -10.014   5.571  65.803  1.00  0.00    -0.366 OA 
HETATM    2  H   UNL     1     -10.286   4.807  66.297  1.00  0.00     0.000 HD 
HETATM    3  C   UNL     1     -10.079   6.710  66.657  1.00  0.00    -0.135 C  
HETATM    4  C   UNL     1      -9.644   7.931  65.867  1.00  0.00     0.157 C  
HETATM    5  O   UNL     1      -9.701   9.090  66.670  1.00  0.00    -0.189 OA 
HETATM    6  C   UNL     1      -8.815   9.062  67.773  1.00  0.00    -0.124 C  
HETATM    7  C   UNL     1      -9.069   7.854  68.706  1.00  0.00    -0.140 C  
HETATM    8  C   UNL     1      -9.222   6.527  67.920  1.00  0.00    -0.110 C  
ENDROOT
BRANCH   6   9
HETATM    9  O   UNL     1      -9.011  10.260  68.531  1.00  0.00    -0.124 OA 
BRANCH   9  10
HETATM   10  C   UNL     1      -8.217  11.377  68.111  1.00  0.00    -0.143 C  
HETATM   11  H   UNL     1      -6.992  15.925  68.202  1.00  0.00     0.000 HD 
HETATM   12  C   UNL     1      -9.154  12.589  67.852  1.00  0.00    -0.199 C  
HETATM   13  C   UNL     1      -7.141  11.763  69.138  1.00  0.00    -0.071 C  
HETATM   14  C   UNL     1      -8.333  13.862  67.566  1.00  0.00    -0.196 C  
HETATM   15  O   UNL     1      -6.431  15.160  68.263  1.00  0.00    -0.098 OA 
HETATM   16  O   UNL     1      -6.417  12.921  68.729  1.00  0.00    -0.074 OA 
HETATM   17  C   UNL     1      -7.254  14.062  68.639  1.00  0.00    -0.114 C  
BRANCH  14  18
HETATM   18  O   UNL     1      -9.107  15.024  67.277  1.00  0.00    -0.186 OA 
HETATM   19  S   UNL     1      -9.726  16.001  68.412  1.00  0.00    -0.217 S  
HETATM   20  O   UNL     1     -10.483  15.197  69.342  1.00  0.00    -0.236 OA 
HETATM   21  O   UNL     1      -8.441  16.572  69.188  1.00  0.00    -0.232 OA 
HETATM   22  O   UNL     1     -10.309  17.132  67.727  1.00  0.00    -0.319 OA 
ENDBRANCH  14  18
BRANCH  12  23
HETATM   23  O   UNL     1     -10.145  12.325  66.847  1.00  0.00    -0.208 OA 
HETATM   24  S   UNL     1     -11.725  12.205  67.199  1.00  0.00    -0.232 S  
HETATM   25  O   UNL     1     -11.925  10.984  67.946  1.00  0.00    -0.620 OA 
HETATM   26  O   UNL     1     -12.369  11.943  65.748  1.00  0.00    -0.343 OA 
HETATM   27  O   UNL     1     -12.219  13.470  67.678  1.00  0.00    -0.312 OA 
ENDBRANCH  12  23
ENDBRANCH   9  10
ENDBRANCH   6   9
BRANCH   7  28
HETATM   28  O   UNL     1      -7.974   7.691  69.623  1.00  0.00    -0.118 OA 
HETATM   29  O   UNL     1      -8.154   9.266  71.544  1.00  0.00    -0.330 OA 
HETATM   30  O   UNL     1      -6.925   7.188  71.837  1.00  0.00    -0.059 OA 
HETATM   31  S   UNL     1      -8.249   7.860  71.222  1.00  0.00    -0.107 S  
HETATM   32  O   UNL     1      -9.375   7.038  71.595  1.00  0.00    -0.156 OA 
ENDBRANCH   7  28
BRANCH   8  33
HETATM   33  O   UNL     1      -9.843   5.587  68.814  1.00  0.00    -0.134 OA 
HETATM   34  S   UNL     1      -9.245   4.085  68.982  1.00  0.00    -0.164 S  
HETATM   35  O   UNL     1      -9.759   3.254  67.921  1.00  0.00    -0.150 OA 
HETATM   36  O   UNL     1      -7.839   4.182  69.302  1.00  0.00    -0.057 OA 
HETATM   37  O   UNL     1     -10.031   3.570  70.285  1.00  0.00    -0.069 OA 
ENDBRANCH   8  33
TORSDOF 6
ENDMDL
MODEL      125
REMARK 921   NORMALIZED FREE ENERGY PREDICTED BY IDOCK:   -3.64 KCAL/MOL
REMARK 922        TOTAL FREE ENERGY PREDICTED BY IDOCK:   -7.01 KCAL/MOL
REMARK 923 INTER-LIGAND FREE ENERGY PREDICTED BY IDOCK:   -6.57 KCAL/MOL
REMARK 924 INTRA-LIGAND FREE ENERGY PREDICTED BY IDOCK:   -0.44 KCAL/MOL
REMARK 927      BINDING AFFINITY PREDICTED BY RF-SCORE:    0.00 PKD
ROOT
HETATM    1  O   UNL     1     -11.065  13.357  69.261  1.00  0.00    -0.347 OA 
HETATM    2  H   UNL     1     -10.887  13.957  68.547  1.00  0.00     0.000 HD 
HETATM    3  C   UNL     1     -11.117  12.032  68.737  1.00  0.00    -0.249 C  
HETATM    4  C   UNL     1     -11.403  11.074  69.880  1.00  0.00    -0.287 C  
HETATM    5  O   UNL     1     -11.474   9.745  69.409  1.00  0.00    -0.113 OA 
HETATM    6  C   UNL     1     -10.260   9.270  68.858  1.00  0.00    -0.202 C  
HETATM    7  C   UNL     1      -9.765  10.142  67.679  1.00  0.00    -0.161 C  
HETATM    8  C   UNL     1      -9.820  11.656  68.003  1.00  0.00    -0.190 C  
ENDROOT
BRANCH   6   9
HETATM    9  O   UNL     1     -10.481   7.944  68.371  1.00  0.00    -0.205 OA 
BRANCH   9  10
HETATM   10  C   UNL     1      -9.500   6.980  68.776  1.00  0.00    -0.136 C  
HETATM   11  H   UNL     1      -8.153   2.666  70.105  1.00  0.00     0.000 HD 
HETATM   12  C   UNL     1     -10.057   6.172  69.979  1.00  0.00    -0.179 C  
HETATM   13  C   UNL     1      -9.106   6.020  67.642  1.00  0.00    -0.109 C  
HETATM   14  C   UNL     1      -9.112   5.008  70.340  1.00  0.00    -0.129 C  
HETATM   15  O   UNL     1      -7.773   3.224  69.437  1.00  0.00    -0.050 OA 
HETATM   16  O   UNL     1      -8.187   5.027  68.091  1.00  0.00    -0.096 OA 
HETATM   17  C   UNL     1      -8.755   4.194  69.089  1.00  0.00    -0.086 C  
BRANCH  14  18
HETATM   18  O   UNL     1      -9.519   4.228  71.461  1.00  0.00    -0.136 OA 
HETATM   19  S   UNL     1      -8.717   4.183  72.869  1.00  0.00    -0.100 S  
HETATM   20  O   UNL     1      -7.336   3.863  72.596  1.00  0.00    -0.059 OA 
HETATM   21  O   UNL     1      -8.774   5.696  73.405  1.00  0.00    -0.118 OA 
HETATM   22  O   UNL     1      -9.517   3.408  73.788  1.00  0.00    -0.095 OA 
ENDBRANCH  14  18
BRANCH  12  23
HETATM   23  O   UNL     1     -10.381   6.999  71.107  1.00  0.00    -0.206 OA 
HETATM   24  S   UNL     1     -11.817   6.916  71.858  1.00  0.00    -0.326 S  
HETATM   25  O   UNL     1     -12.819   7.457  70.970  1.00  0.00    -0.282 OA 
HETATM   26  O   UNL     1     -11.640   8.001  73.034  1.00  0.00    -0.346 OA 
HETATM   27  O   UNL     1     -11.974   5.623  72.473  1.00  0.00    -0.258 OA 
ENDBRANCH  12  23
ENDBRANCH   9  10
ENDBRANCH   6   9
BRANCH   7  28
HETATM   28  O   UNL     1      -8.401   9.817  67.357  1.00  0.00    -0.114 OA 
HETATM   29  O   UNL     1      -6.841  11.617  68.080  1.00  0.00    -0.064 OA 
HETATM   30  O   UNL     1      -5.999   9.345  67.871  1.00  0.00    -0.051 OA 
HETATM   31  S   UNL     1      -7.217  10.257  68.390  1.00  0.00    -0.081 S  
HETATM   32  O   UNL     1      -7.564   9.815  69.719  1.00  0.00    -0.102 OA 
ENDBRANCH   7  28
BRANCH   8  33
HETATM   33  O   UNL     1      -9.738  12.350  66.747  1.00  0.00    -0.212 OA 
HETATM   34  S   UNL     1     -10.962  12.279  65.680  1.00  0.00    -0.311 S  
HETATM   35  O   UNL     1     -10.837  11.072  64.901  1.00  0.00    -0.250 OA 
HETATM   36  O   UNL     1     -12.183  12.664  66.353  1.00  0.00    -0.550 OA 
HETATM   37  O   UNL     1     -10.558  13.443  64.649  1.00  0.00    -0.372 OA 
ENDBRANCH   8  33
TORSDOF 6
ENDMDL
MODEL      126
REMARK 921   NORMALIZED FREE ENERGY PREDICTED BY IDOCK:   -3.62 KCAL/MOL
REMARK 922        TOTAL FREE ENERGY PREDICTED BY IDOCK:   -6.99 KCAL/MOL
REMARK 923 INTER-LIGAND FREE ENERGY PREDICTED BY IDOCK:   -5.89 KCAL/MOL
REMARK 924 INTRA-LIGAND FREE ENERGY PREDICTED BY IDOCK:   -1.10 KCAL/MOL
REMARK 927      BINDING AFFINITY PREDICTED BY RF-SCORE:    0.00 PKD
ROOT
HETATM    1  O   UNL     1      -6.775   5.392  64.911  1.00  0.00    -0.045 OA 
HETATM    2  H   UNL     1      -7.487   5.151  64.330  1.00  0.00     0.000 HD 
HETATM    3  C   UNL     1      -7.321   6.075  66.036  1.00  0.00    -0.077 C  
HETATM    4  C   UNL     1      -6.182   6.460  66.964  1.00  0.00    -0.036 C  
HETATM    5  O   UNL     1      -6.672   7.150  68.094  1.00  0.00    -0.056 OA 
HETATM    6  C   UNL     1      -7.530   6.374  68.908  1.00  0.00    -0.088 C  
HETATM    7  C   UNL     1      -8.760   5.843  68.133  1.00  0.00    -0.111 C  
HETATM    8  C   UNL     1      -8.373   5.225  66.767  1.00  0.00    -0.108 C  
ENDROOT
BRANCH   6   9
HETATM    9  O   UNL     1      -7.998   7.201  69.977  1.00  0.00    -0.113 OA 
BRANCH   9  10
HETATM   10  C   UNL     1      -9.188   7.947  69.688  1.00  0.00    -0.153 C  
HETATM   11  H   UNL     1     -12.409  11.247  70.648  1.00  0.00     0.000 HD 
HETATM   12  C   UNL     1     -10.042   8.051  70.981  1.00  0.00    -0.186 C  
HETATM   13  C   UNL     1      -8.890   9.354  69.147  1.00  0.00    -0.143 C  
HETATM   14  C   UNL     1     -11.245   8.991  70.766  1.00  0.00    -0.275 C  
HETATM   15  O   UNL     1     -11.939  11.099  69.836  1.00  0.00    -0.302 OA 
HETATM   16  O   UNL     1     -10.087  10.100  68.938  1.00  0.00    -0.181 OA 
HETATM   17  C   UNL     1     -10.789  10.321  70.151  1.00  0.00    -0.302 C  
BRANCH  14  18
HETATM   18  O   UNL     1     -12.114   9.121  71.888  1.00  0.00    -0.349 OA 
HETATM   19  S   UNL     1     -13.614   8.511  71.944  1.00  0.00    -0.407 S  
HETATM   20  O   UNL     1     -14.336   8.969  70.781  1.00  0.00     0.056 OA 
HETATM   21  O   UNL     1     -13.402   6.925  71.798  1.00  0.00    -0.335 OA 
HETATM   22  O   UNL     1     -14.108   8.721  73.285  1.00  0.00    -0.215 OA 
ENDBRANCH  14  18
BRANCH  12  23
HETATM   23  O   UNL     1     -10.420   6.769  71.506  1.00  0.00    -0.212 OA 
HETATM   24  S   UNL     1      -9.942   6.258  72.970  1.00  0.00    -0.180 S  
HETATM   25  O   UNL     1      -8.522   5.994  72.911  1.00  0.00    -0.118 OA 
HETATM   26  O   UNL     1     -10.653   4.818  73.068  1.00  0.00    -0.190 OA 
HETATM   27  O   UNL     1     -10.509   7.099  73.993  1.00  0.00    -0.353 OA 
ENDBRANCH  12  23
ENDBRANCH   9  10
ENDBRANCH   6   9
BRANCH   7  28
HETATM   28  O   UNL     1      -9.430   4.824  68.897  1.00  0.00    -0.125 OA 
HETATM   29  O   UNL     1      -8.483   2.569  68.431  1.00  0.00    -0.063 OA 
HETATM   30  O   UNL     1      -9.573   2.968  70.567  1.00  0.00    -0.165 OA 
HETATM   31  S   UNL     1      -8.561   3.568  69.472  1.00  0.00    -0.074 S  
HETATM   32  O   UNL     1      -7.405   4.075  70.170  1.00  0.00    -0.044 OA 
ENDBRANCH   7  28
BRANCH   8  33
HETATM   33  O   UNL     1      -9.581   5.151  65.990  1.00  0.00    -0.155 OA 
HETATM   34  S   UNL     1      -9.723   4.075  64.780  1.00  0.00    -0.194 S  
HETATM   35  O   UNL     1      -9.118   4.624  63.591  1.00  0.00    -0.141 OA 
HETATM   36  O   UNL     1      -9.410   2.760  65.293  1.00  0.00    -0.151 OA 
HETATM   37  O   UNL     1     -11.298   4.142  64.473  1.00  0.00    -0.301 OA 
ENDBRANCH   8  33
TORSDOF 6
ENDMDL
MODEL      127
REMARK 921   NORMALIZED FREE ENERGY PREDICTED BY IDOCK:   -3.52 KCAL/MOL
REMARK 922        TOTAL FREE ENERGY PREDICTED BY IDOCK:   -6.85 KCAL/MOL
REMARK 923 INTER-LIGAND FREE ENERGY PREDICTED BY IDOCK:   -7.86 KCAL/MOL
REMARK 924 INTRA-LIGAND FREE ENERGY PREDICTED BY IDOCK:    1.01 KCAL/MOL
REMARK 927      BINDING AFFINITY PREDICTED BY RF-SCORE:    0.00 PKD
ROOT
HETATM    1  O   UNL     1      -6.836  18.272  66.330  1.00  0.00    -0.203 OA 
HETATM    2  H   UNL     1      -7.355  19.060  66.431  1.00  0.00     0.000 HD 
HETATM    3  C   UNL     1      -7.355  17.272  67.203  1.00  0.00    -0.170 C  
HETATM    4  C   UNL     1      -6.524  16.012  67.040  1.00  0.00    -0.012 C  
HETATM    5  O   UNL     1      -6.996  14.991  67.893  1.00  0.00    -0.123 OA 
HETATM    6  C   UNL     1      -8.315  14.571  67.605  1.00  0.00    -0.180 C  
HETATM    7  C   UNL     1      -9.336  15.732  67.683  1.00  0.00    -0.216 C  
HETATM    8  C   UNL     1      -8.844  16.998  66.936  1.00  0.00    -0.230 C  
ENDROOT
BRANCH   6   9
HETATM    9  O   UNL     1      -8.689  13.583  68.570  1.00  0.00    -0.160 OA 
BRANCH   9  10
HETATM   10  C   UNL     1      -7.938  12.363  68.507  1.00  0.00    -0.110 C  
HETATM   11  H   UNL     1      -6.917   8.155  66.651  1.00  0.00     0.000 HD 
HETATM   12  C   UNL     1      -8.923  11.177  68.317  1.00  0.00    -0.166 C  
HETATM   13  C   UNL     1      -6.899  12.362  67.374  1.00  0.00    -0.147 C  
HETATM   14  C   UNL     1      -8.154   9.864  68.069  1.00  0.00    -0.108 C  
HETATM   15  O   UNL     1      -6.324   8.866  66.867  1.00  0.00    -0.058 OA 
HETATM   16  O   UNL     1      -6.220  11.112  67.287  1.00  0.00    -0.060 OA 
HETATM   17  C   UNL     1      -7.105  10.052  66.965  1.00  0.00    -0.089 C  
BRANCH  14  18
HETATM   18  O   UNL     1      -8.973   8.707  67.920  1.00  0.00    -0.139 OA 
HETATM   19  S   UNL     1      -9.742   8.315  66.548  1.00  0.00    -0.241 S  
HETATM   20  O   UNL     1     -10.519   9.454  66.121  1.00  0.00    -0.162 OA 
HETATM   21  O   UNL     1      -8.561   8.097  65.482  1.00  0.00    -0.158 OA 
HETATM   22  O   UNL     1     -10.337   7.014  66.752  1.00  0.00    -0.245 OA 
ENDBRANCH  14  18
BRANCH  12  23
HETATM   23  O   UNL     1      -9.883  11.072  69.380  1.00  0.00    -0.105 OA 
HETATM   24  S   UNL     1     -11.404  11.616  69.230  1.00  0.00    -0.300 S  
HETATM   25  O   UNL     1     -11.361  13.060  69.196  1.00  0.00    -0.261 OA 
HETATM   26  O   UNL     1     -12.037  11.229  70.657  1.00  0.00    -0.355 OA 
HETATM   27  O   UNL     1     -12.099  10.859  68.220  1.00  0.00    -0.562 OA 
ENDBRANCH  12  23
ENDBRANCH   9  10
ENDBRANCH   6   9
BRANCH   7  28
HETATM   28  O   UNL     1     -10.586  15.338  67.092  1.00  0.00    -0.288 OA 
HETATM   29  O   UNL     1     -10.603  15.751  64.636  1.00  0.00    -0.479 OA 
HETATM   30  O   UNL     1     -12.051  14.023  65.548  1.00  0.00    -0.370 OA 
HETATM   31  S   UNL     1     -10.583  14.675  65.601  1.00  0.00    -0.357 S  
HETATM   32  O   UNL     1      -9.622  13.600  65.566  1.00  0.00    -0.112 OA 
ENDBRANCH   7  28
BRANCH   8  33
HETATM   33  O   UNL     1      -9.646  18.093  67.409  1.00  0.00    -0.269 OA 
HETATM   34  S   UNL     1     -10.168  19.241  66.384  1.00  0.00    -0.484 S  
HETATM   35  O   UNL     1      -9.126  20.220  66.204  1.00  0.00    -0.265 OA 
HETATM   36  O   UNL     1     -10.850  18.599  65.282  1.00  0.00    -0.591 OA 
HETATM   37  O   UNL     1     -11.259  20.004  67.283  1.00  0.00    -0.088 OA 
ENDBRANCH   8  33
TORSDOF 6
ENDMDL
MODEL      128
REMARK 921   NORMALIZED FREE ENERGY PREDICTED BY IDOCK:   -3.50 KCAL/MOL
REMARK 922        TOTAL FREE ENERGY PREDICTED BY IDOCK:   -6.83 KCAL/MOL
REMARK 923 INTER-LIGAND FREE ENERGY PREDICTED BY IDOCK:   -6.46 KCAL/MOL
REMARK 924 INTRA-LIGAND FREE ENERGY PREDICTED BY IDOCK:   -0.37 KCAL/MOL
REMARK 927      BINDING AFFINITY PREDICTED BY RF-SCORE:    0.00 PKD
ROOT
HETATM    1  O   UNL     1     -12.058  15.169  67.294  1.00  0.00    -0.299 OA 
HETATM    2  H   UNL     1     -12.661  15.627  67.867  1.00  0.00     0.000 HD 
HETATM    3  C   UNL     1     -11.370  14.182  68.058  1.00  0.00    -0.299 C  
HETATM    4  C   UNL     1     -10.405  13.450  67.142  1.00  0.00    -0.246 C  
HETATM    5  O   UNL     1      -9.691  12.464  67.857  1.00  0.00    -0.191 OA 
HETATM    6  C   UNL     1     -10.509  11.438  68.383  1.00  0.00    -0.200 C  
HETATM    7  C   UNL     1     -11.603  11.981  69.333  1.00  0.00    -0.330 C  
HETATM    8  C   UNL     1     -12.343  13.205  68.739  1.00  0.00     0.131 C  
ENDROOT
BRANCH   6   9
HETATM    9  O   UNL     1      -9.677  10.542  69.126  1.00  0.00    -0.203 OA 
BRANCH   9  10
HETATM   10  C   UNL     1      -8.967   9.580  68.334  1.00  0.00    -0.127 C  
HETATM   11  H   UNL     1      -8.073   5.195  66.864  1.00  0.00     0.000 HD 
HETATM   12  C   UNL     1      -8.601   8.365  69.230  1.00  0.00    -0.130 C  
HETATM   13  C   UNL     1      -9.772   9.103  67.116  1.00  0.00    -0.182 C  
HETATM   14  C   UNL     1      -7.991   7.228  68.386  1.00  0.00    -0.124 C  
HETATM   15  O   UNL     1      -8.208   5.977  66.342  1.00  0.00    -0.108 OA 
HETATM   16  O   UNL     1      -9.075   8.094  66.389  1.00  0.00    -0.162 OA 
HETATM   17  C   UNL     1      -8.874   6.925  67.168  1.00  0.00    -0.120 C  
BRANCH  14  18
HETATM   18  O   UNL     1      -7.585   6.081  69.127  1.00  0.00    -0.087 OA 
HETATM   19  S   UNL     1      -6.051   5.566  69.226  1.00  0.00    -0.026 S  
HETATM   20  O   UNL     1      -5.531   5.424  67.887  1.00  0.00    -0.010 OA 
HETATM   21  O   UNL     1      -5.271   6.781  69.930  1.00  0.00    -0.014 OA 
HETATM   22  O   UNL     1      -6.029   4.478  70.176  1.00  0.00    -0.016 OA 
ENDBRANCH  14  18
BRANCH  12  23
HETATM   23  O   UNL     1      -7.785   8.726  70.356  1.00  0.00    -0.074 OA 
HETATM   24  S   UNL     1      -8.138   8.254  71.867  1.00  0.00    -0.150 S  
HETATM   25  O   UNL     1      -9.322   8.964  72.294  1.00  0.00    -0.360 OA 
HETATM   26  O   UNL     1      -6.919   8.887  72.706  1.00  0.00    -0.325 OA 
HETATM   27  O   UNL     1      -8.042   6.820  71.969  1.00  0.00    -0.101 OA 
ENDBRANCH  12  23
ENDBRANCH   9  10
ENDBRANCH   6   9
BRANCH   7  28
HETATM   28  O   UNL     1     -12.586  10.965  69.596  1.00  0.00    -0.252 OA 
HETATM   29  O   UNL     1     -11.757   9.303  71.254  1.00  0.00    -0.295 OA 
HETATM   30  O   UNL     1     -14.155   9.642  71.027  1.00  0.00    -0.082 OA 
HETATM   31  S   UNL     1     -12.723  10.368  71.109  1.00  0.00    -0.447 S  
HETATM   32  O   UNL     1     -12.837  11.465  72.039  1.00  0.00    -0.359 OA 
ENDBRANCH   7  28
BRANCH   8  33
HETATM   33  O   UNL     1     -13.016  13.852  69.833  1.00  0.00     0.013 OA 
HETATM   34  S   UNL     1     -12.318  15.091  70.618  1.00  0.00    -0.379 S  
HETATM   35  O   UNL     1     -11.420  14.568  71.618  1.00  0.00    -0.120 OA 
HETATM   36  O   UNL     1     -11.926  16.090  69.648  1.00  0.00    -0.299 OA 
HETATM   37  O   UNL     1     -13.550  15.666  71.474  1.00  0.00    -0.490 OA 
ENDBRANCH   8  33
TORSDOF 6
ENDMDL
MODEL      129
REMARK 921   NORMALIZED FREE ENERGY PREDICTED BY IDOCK:   -3.50 KCAL/MOL
REMARK 922        TOTAL FREE ENERGY PREDICTED BY IDOCK:   -6.82 KCAL/MOL
REMARK 923 INTER-LIGAND FREE ENERGY PREDICTED BY IDOCK:   -5.89 KCAL/MOL
REMARK 924 INTRA-LIGAND FREE ENERGY PREDICTED BY IDOCK:   -0.93 KCAL/MOL
REMARK 927      BINDING AFFINITY PREDICTED BY RF-SCORE:    0.00 PKD
ROOT
HETATM    1  O   UNL     1     -11.427  12.532  63.346  1.00  0.00    -0.541 OA 
HETATM    2  H   UNL     1     -11.586  13.442  63.566  1.00  0.00     0.000 HD 
HETATM    3  C   UNL     1     -10.213  12.121  63.969  1.00  0.00    -0.370 C  
HETATM    4  C   UNL     1      -9.959  10.667  63.616  1.00  0.00    -0.301 C  
HETATM    5  O   UNL     1      -8.758  10.214  64.204  1.00  0.00    -0.172 OA 
HETATM    6  C   UNL     1      -8.777  10.226  65.619  1.00  0.00    -0.162 C  
HETATM    7  C   UNL     1      -9.059  11.634  66.195  1.00  0.00    -0.203 C  
HETATM    8  C   UNL     1     -10.252  12.328  65.492  1.00  0.00    -0.269 C  
ENDROOT
BRANCH   6   9
HETATM    9  O   UNL     1      -7.492   9.802  66.085  1.00  0.00    -0.097 OA 
BRANCH   9  10
HETATM   10  C   UNL     1      -7.522   8.840  67.147  1.00  0.00    -0.088 C  
HETATM   11  H   UNL     1      -5.503   5.714  70.035  1.00  0.00     0.000 HD 
HETATM   12  C   UNL     1      -6.690   7.599  66.724  1.00  0.00    -0.066 C  
HETATM   13  C   UNL     1      -6.981   9.401  68.472  1.00  0.00    -0.066 C  
HETATM   14  C   UNL     1      -6.546   6.611  67.899  1.00  0.00    -0.058 C  
HETATM   15  O   UNL     1      -6.092   6.427  70.255  1.00  0.00    -0.032 OA 
HETATM   16  O   UNL     1      -6.952   8.404  69.491  1.00  0.00    -0.044 OA 
HETATM   17  C   UNL     1      -6.072   7.340  69.163  1.00  0.00    -0.030 C  
BRANCH  14  18
HETATM   18  O   UNL     1      -5.829   5.418  67.597  1.00  0.00    -0.016 OA 
HETATM   19  S   UNL     1      -6.499   3.942  67.577  1.00  0.00    -0.038 S  
HETATM   20  O   UNL     1      -7.178   3.733  68.834  1.00  0.00    -0.050 OA 
HETATM   21  O   UNL     1      -7.614   4.029  66.424  1.00  0.00    -0.086 OA 
HETATM   22  O   UNL     1      -5.495   3.026  67.087  1.00  0.00    -0.018 OA 
ENDBRANCH  14  18
BRANCH  12  23
HETATM   23  O   UNL     1      -7.182   6.977  65.527  1.00  0.00    -0.066 OA 
HETATM   24  S   UNL     1      -6.271   6.823  64.193  1.00  0.00    -0.036 S  
HETATM   25  O   UNL     1      -6.084   8.138  63.624  1.00  0.00    -0.069 OA 
HETATM   26  O   UNL     1      -7.271   6.051  63.196  1.00  0.00    -0.048 OA 
HETATM   27  O   UNL     1      -5.156   5.951  64.459  1.00  0.00    -0.012 OA 
ENDBRANCH  12  23
ENDBRANCH   9  10
ENDBRANCH   6   9
BRANCH   7  28
HETATM   28  O   UNL     1      -9.373  11.546  67.596  1.00  0.00    -0.166 OA 
HETATM   29  O   UNL     1     -11.813  11.828  68.002  1.00  0.00    -0.484 OA 
HETATM   30  O   UNL     1     -10.489  10.578  69.615  1.00  0.00    -0.235 OA 
HETATM   31  S   UNL     1     -10.768  10.832  68.052  1.00  0.00    -0.249 S  
HETATM   32  O   UNL     1     -10.870   9.545  67.408  1.00  0.00    -0.269 OA 
ENDBRANCH   7  28
BRANCH   8  33
HETATM   33  O   UNL     1     -10.160  13.728  65.808  1.00  0.00    -0.300 OA 
HETATM   34  S   UNL     1     -11.444  14.706  65.619  1.00  0.00    -0.322 S  
HETATM   35  O   UNL     1     -11.512  15.130  64.242  1.00  0.00    -0.261 OA 
HETATM   36  O   UNL     1     -12.567  14.135  66.328  1.00  0.00    -0.449 OA 
HETATM   37  O   UNL     1     -10.962  16.024  66.401  1.00  0.00    -0.218 OA 
ENDBRANCH   8  33
TORSDOF 6
ENDMDL
MODEL      130
REMARK 921   NORMALIZED FREE ENERGY PREDICTED BY IDOCK:   -3.40 KCAL/MOL
REMARK 922        TOTAL FREE ENERGY PREDICTED BY IDOCK:   -6.69 KCAL/MOL
REMARK 923 INTER-LIGAND FREE ENERGY PREDICTED BY IDOCK:   -7.70 KCAL/MOL
REMARK 924 INTRA-LIGAND FREE ENERGY PREDICTED BY IDOCK:    1.01 KCAL/MOL
REMARK 927      BINDING AFFINITY PREDICTED BY RF-SCORE:    0.00 PKD
ROOT
HETATM    1  O   UNL     1      -9.523   4.675  67.449  1.00  0.00    -0.135 OA 
HETATM    2  H   UNL     1      -8.961   4.374  66.746  1.00  0.00     0.000 HD 
HETATM    3  C   UNL     1      -9.233   6.047  67.704  1.00  0.00    -0.107 C  
HETATM    4  C   UNL     1     -10.132   6.529  68.829  1.00  0.00    -0.161 C  
HETATM    5  O   UNL     1      -9.875   7.885  69.126  1.00  0.00    -0.168 OA 
HETATM    6  C   UNL     1     -10.161   8.766  68.057  1.00  0.00    -0.213 C  
HETATM    7  C   UNL     1      -9.361   8.424  66.778  1.00  0.00    -0.184 C  
HETATM    8  C   UNL     1      -9.403   6.912  66.444  1.00  0.00    -0.141 C  
ENDROOT
BRANCH   6   9
HETATM    9  O   UNL     1      -9.807  10.091  68.465  1.00  0.00    -0.150 OA 
BRANCH   9  10
HETATM   10  C   UNL     1     -10.418  10.531  69.685  1.00  0.00    -0.219 C  
HETATM   11  H   UNL     1     -14.069  12.073  72.231  1.00  0.00     0.000 HD 
HETATM   12  C   UNL     1     -11.282  11.787  69.388  1.00  0.00    -0.234 C  
HETATM   13  C   UNL     1     -11.286   9.446  70.341  1.00  0.00    -0.262 C  
HETATM   14  C   UNL     1     -12.098  12.194  70.632  1.00  0.00    -0.250 C  
HETATM   15  O   UNL     1     -13.464  11.368  72.432  1.00  0.00    -0.236 OA 
HETATM   16  O   UNL     1     -11.940   9.932  71.510  1.00  0.00    -0.379 OA 
HETATM   17  C   UNL     1     -12.844  10.984  71.210  1.00  0.00    -0.425 C  
BRANCH  14  18
HETATM   18  O   UNL     1     -12.896  13.363  70.470  1.00  0.00    -0.164 OA 
HETATM   19  S   UNL     1     -12.751  14.690  71.390  1.00  0.00    -0.359 S  
HETATM   20  O   UNL     1     -12.836  14.295  72.776  1.00  0.00    -0.414 OA 
HETATM   21  O   UNL     1     -11.253  15.200  71.115  1.00  0.00    -0.323 OA 
HETATM   22  O   UNL     1     -13.621  15.696  70.825  1.00  0.00    -0.524 OA 
ENDBRANCH  14  18
BRANCH  12  23
HETATM   23  O   UNL     1     -10.521  12.873  68.838  1.00  0.00    -0.191 OA 
HETATM   24  S   UNL     1     -11.016  13.704  67.536  1.00  0.00    -0.273 S  
HETATM   25  O   UNL     1     -10.912  12.837  66.384  1.00  0.00    -0.267 OA 
HETATM   26  O   UNL     1      -9.843  14.793  67.372  1.00  0.00    -0.220 OA 
HETATM   27  O   UNL     1     -12.233  14.412  67.839  1.00  0.00    -0.299 OA 
ENDBRANCH  12  23
ENDBRANCH   9  10
ENDBRANCH   6   9
BRANCH   7  28
HETATM   28  O   UNL     1      -9.899   9.133  65.647  1.00  0.00    -0.264 OA 
HETATM   29  O   UNL     1      -8.935  11.421  65.465  1.00  0.00    -0.183 OA 
HETATM   30  O   UNL     1      -9.778  10.337  63.458  1.00  0.00    -0.298 OA 
HETATM   31  S   UNL     1      -8.925  10.135  64.806  1.00  0.00    -0.224 S  
HETATM   32  O   UNL     1      -7.713   9.434  64.459  1.00  0.00    -0.110 OA 
ENDBRANCH   7  28
BRANCH   8  33
HETATM   33  O   UNL     1      -8.331   6.663  65.519  1.00  0.00    -0.140 OA 
HETATM   34  S   UNL     1      -6.836   6.320  66.057  1.00  0.00    -0.058 S  
HETATM   35  O   UNL     1      -6.150   7.553  66.356  1.00  0.00    -0.039 OA 
HETATM   36  O   UNL     1      -6.922   5.217  66.987  1.00  0.00    -0.062 OA 
HETATM   37  O   UNL     1      -6.122   5.802  64.714  1.00  0.00    -0.024 OA 
ENDBRANCH   8  33
TORSDOF 6
ENDMDL
MODEL      131
REMARK 921   NORMALIZED FREE ENERGY PREDICTED BY IDOCK:   -3.33 KCAL/MOL
REMARK 922        TOTAL FREE ENERGY PREDICTED BY IDOCK:   -6.60 KCAL/MOL
REMARK 923 INTER-LIGAND FREE ENERGY PREDICTED BY IDOCK:   -7.67 KCAL/MOL
REMARK 924 INTRA-LIGAND FREE ENERGY PREDICTED BY IDOCK:    1.07 KCAL/MOL
REMARK 927      BINDING AFFINITY PREDICTED BY RF-SCORE:    0.00 PKD
ROOT
HETATM    1  O   UNL     1     -12.265  13.929  65.288  1.00  0.00    -0.386 OA 
HETATM    2  H   UNL     1     -11.856  13.947  64.431  1.00  0.00     0.000 HD 
HETATM    3  C   UNL     1     -11.690  12.864  66.042  1.00  0.00    -0.404 C  
HETATM    4  C   UNL     1     -12.344  12.836  67.412  1.00  0.00     0.317 C  
HETATM    5  O   UNL     1     -11.813  11.789  68.195  1.00  0.00    -0.451 OA 
HETATM    6  C   UNL     1     -10.434  11.930  68.476  1.00  0.00    -0.224 C  
HETATM    7  C   UNL     1      -9.574  12.015  67.192  1.00  0.00    -0.192 C  
HETATM    8  C   UNL     1     -10.163  13.002  66.154  1.00  0.00    -0.284 C  
ENDROOT
BRANCH   6   9
HETATM    9  O   UNL     1     -10.012  10.784  69.222  1.00  0.00    -0.214 OA 
BRANCH   9  10
HETATM   10  C   UNL     1     -11.053   9.848  69.531  1.00  0.00    -0.217 C  
HETATM   11  H   UNL     1     -12.895   6.290  72.009  1.00  0.00     0.000 HD 
HETATM   12  C   UNL     1     -10.420   8.445  69.737  1.00  0.00    -0.220 C  
HETATM   13  C   UNL     1     -11.856  10.244  70.780  1.00  0.00    -0.365 C  
HETATM   14  C   UNL     1     -11.474   7.440  70.243  1.00  0.00    -0.181 C  
HETATM   15  O   UNL     1     -13.294   7.124  71.785  1.00  0.00    -0.353 OA 
HETATM   16  O   UNL     1     -12.834   9.260  71.109  1.00  0.00    -0.299 OA 
HETATM   17  C   UNL     1     -12.239   8.016  71.442  1.00  0.00    -0.309 C  
BRANCH  14  18
HETATM   18  O   UNL     1     -10.997   6.109  70.426  1.00  0.00    -0.286 OA 
HETATM   19  S   UNL     1      -9.917   5.685  71.557  1.00  0.00    -0.186 S  
HETATM   20  O   UNL     1      -8.765   6.546  71.432  1.00  0.00    -0.130 OA 
HETATM   21  O   UNL     1     -10.643   6.034  72.947  1.00  0.00    -0.211 OA 
HETATM   22  O   UNL     1      -9.806   4.245  71.520  1.00  0.00    -0.174 OA 
ENDBRANCH  14  18
BRANCH  12  23
HETATM   23  O   UNL     1      -9.710   7.976  68.580  1.00  0.00    -0.154 OA 
HETATM   24  S   UNL     1     -10.431   7.786  67.139  1.00  0.00    -0.331 S  
HETATM   25  O   UNL     1     -11.336   6.664  67.236  1.00  0.00    -0.324 OA 
HETATM   26  O   UNL     1      -9.209   7.286  66.220  1.00  0.00    -0.168 OA 
HETATM   27  O   UNL     1     -10.866   9.064  66.636  1.00  0.00    -0.070 OA 
ENDBRANCH  12  23
ENDBRANCH   9  10
ENDBRANCH   6   9
BRANCH   7  28
HETATM   28  O   UNL     1      -8.244  12.461  67.510  1.00  0.00    -0.152 OA 
HETATM   29  O   UNL     1      -7.921  14.856  66.911  1.00  0.00    -0.180 OA 
HETATM   30  O   UNL     1      -6.547  13.887  68.668  1.00  0.00    -0.082 OA 
HETATM   31  S   UNL     1      -8.031  13.983  68.058  1.00  0.00    -0.169 S  
HETATM   32  O   UNL     1      -8.942  14.223  69.150  1.00  0.00    -0.009 OA 
ENDBRANCH   7  28
BRANCH   8  33
HETATM   33  O   UNL     1      -9.540  12.697  64.894  1.00  0.00    -0.005 OA 
HETATM   34  S   UNL     1     -10.009  11.403  64.031  1.00  0.00    -0.326 S  
HETATM   35  O   UNL     1      -9.329  10.233  64.529  1.00  0.00    -0.227 OA 
HETATM   36  O   UNL     1     -11.442  11.467  63.845  1.00  0.00    -0.379 OA 
HETATM   37  O   UNL     1      -9.298  11.684  62.617  1.00  0.00    -0.330 OA 
ENDBRANCH   8  33
TORSDOF 6
ENDMDL
MODEL      132
REMARK 921   NORMALIZED FREE ENERGY PREDICTED BY IDOCK:   -3.33 KCAL/MOL
REMARK 922        TOTAL FREE ENERGY PREDICTED BY IDOCK:   -6.60 KCAL/MOL
REMARK 923 INTER-LIGAND FREE ENERGY PREDICTED BY IDOCK:   -7.68 KCAL/MOL
REMARK 924 INTRA-LIGAND FREE ENERGY PREDICTED BY IDOCK:    1.08 KCAL/MOL
REMARK 927      BINDING AFFINITY PREDICTED BY RF-SCORE:    0.00 PKD
ROOT
HETATM    1  O   UNL     1      -7.498   8.660  63.918  1.00  0.00    -0.106 OA 
HETATM    2  H   UNL     1      -7.450   7.721  64.050  1.00  0.00     0.000 HD 
HETATM    3  C   UNL     1      -8.782   9.111  64.342  1.00  0.00    -0.153 C  
HETATM    4  C   UNL     1      -8.859  10.613  64.131  1.00  0.00    -0.160 C  
HETATM    5  O   UNL     1     -10.120  11.108  64.528  1.00  0.00    -0.259 OA 
HETATM    6  C   UNL     1     -10.389  10.941  65.907  1.00  0.00    -0.250 C  
HETATM    7  C   UNL     1     -10.326   9.458  66.347  1.00  0.00    -0.167 C  
HETATM    8  C   UNL     1      -9.066   8.738  65.806  1.00  0.00    -0.212 C  
ENDROOT
BRANCH   6   9
HETATM    9  O   UNL     1     -11.709  11.427  66.165  1.00  0.00    -0.266 OA 
BRANCH   9  10
HETATM   10  C   UNL     1     -11.866  12.847  66.036  1.00  0.00    -0.430 C  
HETATM   11  H   UNL     1     -10.243  17.186  65.185  1.00  0.00     0.000 HD 
HETATM   12  C   UNL     1     -10.689  13.550  66.767  1.00  0.00    -0.278 C  
HETATM   13  C   UNL     1     -11.918  13.308  64.571  1.00  0.00    -0.400 C  
HETATM   14  C   UNL     1     -10.716  15.069  66.509  1.00  0.00    -0.312 C  
HETATM   15  O   UNL     1     -11.014  16.762  64.825  1.00  0.00    -0.732 OA 
HETATM   16  O   UNL     1     -11.998  14.728  64.471  1.00  0.00    -0.445 OA 
HETATM   17  C   UNL     1     -10.847  15.361  65.008  1.00  0.00    -0.444 C  
BRANCH  14  18
HETATM   18  O   UNL     1      -9.694  15.810  67.171  1.00  0.00    -0.220 OA 
HETATM   19  S   UNL     1      -9.985  16.964  68.272  1.00  0.00    -0.299 S  
HETATM   20  O   UNL     1     -10.909  17.914  67.701  1.00  0.00    -0.375 OA 
HETATM   21  O   UNL     1     -10.742  16.194  69.461  1.00  0.00    -0.265 OA 
HETATM   22  O   UNL     1      -8.707  17.366  68.812  1.00  0.00    -0.278 OA 
ENDBRANCH  14  18
BRANCH  12  23
HETATM   23  O   UNL     1     -10.620  13.220  68.163  1.00  0.00    -0.235 OA 
HETATM   24  S   UNL     1     -11.936  12.819  69.024  1.00  0.00    -0.175 S  
HETATM   25  O   UNL     1     -12.747  14.005  69.179  1.00  0.00     0.069 OA 
HETATM   26  O   UNL     1     -11.306  12.525  70.475  1.00  0.00     0.328 OA 
HETATM   27  O   UNL     1     -12.491  11.586  68.527  1.00  0.00    -0.328 OA 
ENDBRANCH  12  23
ENDBRANCH   9  10
ENDBRANCH   6   9
BRANCH   7  28
HETATM   28  O   UNL     1     -10.298   9.364  67.782  1.00  0.00    -0.208 OA 
HETATM   29  O   UNL     1      -8.082   8.575  68.598  1.00  0.00    -0.117 OA 
HETATM   30  O   UNL     1      -9.469   9.919  70.075  1.00  0.00    -0.231 OA 
HETATM   31  S   UNL     1      -8.923   9.749  68.573  1.00  0.00    -0.126 S  
HETATM   32  O   UNL     1      -8.466  11.040  68.121  1.00  0.00    -0.124 OA 
ENDBRANCH   7  28
BRANCH   8  33
HETATM   33  O   UNL     1      -9.316   7.326  65.921  1.00  0.00    -0.041 OA 
HETATM   34  S   UNL     1      -8.171   6.246  65.517  1.00  0.00    -0.148 S  
HETATM   35  O   UNL     1      -8.212   6.029  64.092  1.00  0.00    -0.120 OA 
HETATM   36  O   UNL     1      -6.958   6.570  66.234  1.00  0.00    -0.062 OA 
HETATM   37  O   UNL     1      -8.778   4.890  66.127  1.00  0.00    -0.115 OA 
ENDBRANCH   8  33
TORSDOF 6
ENDMDL
MODEL      133
REMARK 921   NORMALIZED FREE ENERGY PREDICTED BY IDOCK:   -3.32 KCAL/MOL
REMARK 922        TOTAL FREE ENERGY PREDICTED BY IDOCK:   -6.58 KCAL/MOL
REMARK 923 INTER-LIGAND FREE ENERGY PREDICTED BY IDOCK:   -7.48 KCAL/MOL
REMARK 924 INTRA-LIGAND FREE ENERGY PREDICTED BY IDOCK:    0.89 KCAL/MOL
REMARK 927      BINDING AFFINITY PREDICTED BY RF-SCORE:    0.00 PKD
ROOT
HETATM    1  O   UNL     1      -9.150   4.471  67.320  1.00  0.00    -0.117 OA 
HETATM    2  H   UNL     1      -9.186   3.867  68.051  1.00  0.00     0.000 HD 
HETATM    3  C   UNL     1      -9.962   5.602  67.627  1.00  0.00    -0.150 C  
HETATM    4  C   UNL     1      -9.904   6.568  66.457  1.00  0.00    -0.111 C  
HETATM    5  O   UNL     1     -10.703   7.704  66.710  1.00  0.00    -0.318 OA 
HETATM    6  C   UNL     1     -10.264   8.474  67.813  1.00  0.00    -0.225 C  
HETATM    7  C   UNL     1     -10.216   7.655  69.125  1.00  0.00    -0.203 C  
HETATM    8  C   UNL     1      -9.525   6.282  68.935  1.00  0.00    -0.127 C  
ENDROOT
BRANCH   6   9
HETATM    9  O   UNL     1     -11.184   9.555  67.995  1.00  0.00    -0.090 OA 
BRANCH   9  10
HETATM   10  C   UNL     1     -10.640  10.859  67.752  1.00  0.00    -0.217 C  
HETATM   11  H   UNL     1     -10.962  15.347  66.358  1.00  0.00     0.000 HD 
HETATM   12  C   UNL     1     -11.138  11.360  66.368  1.00  0.00    -0.240 C  
HETATM   13  C   UNL     1     -11.021  11.875  68.840  1.00  0.00    -0.238 C  
HETATM   14  C   UNL     1     -10.723  12.827  66.138  1.00  0.00    -0.275 C  
HETATM   15  O   UNL     1     -10.578  15.002  67.156  1.00  0.00    -0.283 OA 
HETATM   16  O   UNL     1     -10.530  13.178  68.536  1.00  0.00    -0.249 OA 
HETATM   17  C   UNL     1     -11.104  13.693  67.345  1.00  0.00    -0.282 C  
BRANCH  14  18
HETATM   18  O   UNL     1     -11.101  13.367  64.875  1.00  0.00    -0.310 OA 
HETATM   19  S   UNL     1     -12.620  13.358  64.308  1.00  0.00    -0.085 S  
HETATM   20  O   UNL     1     -13.121  12.006  64.369  1.00  0.00    -0.655 OA 
HETATM   21  O   UNL     1     -13.444  14.236  65.371  1.00  0.00    -0.581 OA 
HETATM   22  O   UNL     1     -12.620  14.121  63.081  1.00  0.00    -0.686 OA 
ENDBRANCH  14  18
BRANCH  12  23
HETATM   23  O   UNL     1     -10.756  10.494  65.289  1.00  0.00    -0.146 OA 
HETATM   24  S   UNL     1      -9.315  10.612  64.552  1.00  0.00    -0.264 S  
HETATM   25  O   UNL     1      -9.304  11.837  63.785  1.00  0.00    -0.085 OA 
HETATM   26  O   UNL     1      -9.395   9.420  63.474  1.00  0.00    -0.042 OA 
HETATM   27  O   UNL     1      -8.261  10.295  65.481  1.00  0.00    -0.146 OA 
ENDBRANCH  12  23
ENDBRANCH   9  10
ENDBRANCH   6   9
BRANCH   7  28
HETATM   28  O   UNL     1      -9.485   8.373  70.135  1.00  0.00    -0.162 OA 
HETATM   29  O   UNL     1      -7.180   7.469  70.405  1.00  0.00    -0.062 OA 
HETATM   30  O   UNL     1      -7.614   9.785  71.008  1.00  0.00    -0.311 OA 
HETATM   31  S   UNL     1      -7.888   8.632  69.921  1.00  0.00    -0.097 S  
HETATM   32  O   UNL     1      -7.674   9.201  68.613  1.00  0.00    -0.090 OA 
ENDBRANCH   7  28
BRANCH   8  33
HETATM   33  O   UNL     1      -9.895   5.474  70.065  1.00  0.00    -0.171 OA 
HETATM   34  S   UNL     1      -9.052   4.135  70.438  1.00  0.00    -0.124 S  
HETATM   35  O   UNL     1      -9.530   3.039  69.632  1.00  0.00    -0.154 OA 
HETATM   36  O   UNL     1      -7.653   4.487  70.547  1.00  0.00    -0.052 OA 
HETATM   37  O   UNL     1      -9.610   3.802  71.907  1.00  0.00    -0.132 OA 
ENDBRANCH   8  33
TORSDOF 6
ENDMDL
MODEL      134
REMARK 921   NORMALIZED FREE ENERGY PREDICTED BY IDOCK:   -3.31 KCAL/MOL
REMARK 922        TOTAL FREE ENERGY PREDICTED BY IDOCK:   -6.58 KCAL/MOL
REMARK 923 INTER-LIGAND FREE ENERGY PREDICTED BY IDOCK:   -7.28 KCAL/MOL
REMARK 924 INTRA-LIGAND FREE ENERGY PREDICTED BY IDOCK:    0.70 KCAL/MOL
REMARK 927      BINDING AFFINITY PREDICTED BY RF-SCORE:    0.00 PKD
ROOT
HETATM    1  O   UNL     1      -8.103   4.614  66.973  1.00  0.00    -0.102 OA 
HETATM    2  H   UNL     1      -8.391   4.032  67.665  1.00  0.00     0.000 HD 
HETATM    3  C   UNL     1      -8.960   5.753  66.952  1.00  0.00    -0.114 C  
HETATM    4  C   UNL     1      -8.498   6.683  65.845  1.00  0.00    -0.144 C  
HETATM    5  O   UNL     1      -9.324   7.826  65.779  1.00  0.00    -0.032 OA 
HETATM    6  C   UNL     1      -9.280   8.629  66.942  1.00  0.00    -0.159 C  
HETATM    7  C   UNL     1      -9.688   7.850  68.215  1.00  0.00    -0.160 C  
HETATM    8  C   UNL     1      -8.988   6.472  68.311  1.00  0.00    -0.121 C  
ENDROOT
BRANCH   6   9
HETATM    9  O   UNL     1     -10.196   9.714  66.769  1.00  0.00    -0.227 OA 
BRANCH   9  10
HETATM   10  C   UNL     1      -9.587  10.979  66.478  1.00  0.00    -0.195 C  
HETATM   11  H   UNL     1      -8.471  15.437  67.515  1.00  0.00     0.000 HD 
HETATM   12  C   UNL     1     -10.579  12.113  66.855  1.00  0.00    -0.229 C  
HETATM   13  C   UNL     1      -8.257  11.184  67.221  1.00  0.00    -0.136 C  
HETATM   14  C   UNL     1      -9.905  13.494  66.725  1.00  0.00    -0.267 C  
HETATM   15  O   UNL     1      -7.904  14.746  67.191  1.00  0.00    -0.200 OA 
HETATM   16  O   UNL     1      -7.711  12.477  66.973  1.00  0.00    -0.135 OA 
HETATM   17  C   UNL     1      -8.556  13.509  67.456  1.00  0.00    -0.193 C  
BRANCH  14  18
HETATM   18  O   UNL     1     -10.750  14.604  67.014  1.00  0.00    -0.281 OA 
HETATM   19  S   UNL     1     -11.390  14.896  68.475  1.00  0.00    -0.313 S  
HETATM   20  O   UNL     1     -12.072  13.705  68.919  1.00  0.00    -0.347 OA 
HETATM   21  O   UNL     1     -10.115  15.117  69.427  1.00  0.00    -0.234 OA 
HETATM   22  O   UNL     1     -12.054  16.177  68.399  1.00  0.00    -0.030 OA 
ENDBRANCH  14  18
BRANCH  12  23
HETATM   23  O   UNL     1     -11.823  12.028  66.144  1.00  0.00    -0.546 OA 
HETATM   24  S   UNL     1     -11.923  12.266  64.542  1.00  0.00    -0.368 S  
HETATM   25  O   UNL     1     -11.686  13.668  64.282  1.00  0.00    -0.386 OA 
HETATM   26  O   UNL     1     -13.490  12.027  64.267  1.00  0.00    -0.654 OA 
HETATM   27  O   UNL     1     -11.193  11.237  63.846  1.00  0.00    -0.356 OA 
ENDBRANCH  12  23
ENDBRANCH   9  10
ENDBRANCH   6   9
BRANCH   7  28
HETATM   28  O   UNL     1      -9.338   8.598  69.393  1.00  0.00    -0.149 OA 
HETATM   29  O   UNL     1      -7.633   7.402  70.756  1.00  0.00    -0.081 OA 
HETATM   30  O   UNL     1      -7.785   9.824  70.923  1.00  0.00    -0.312 OA 
HETATM   31  S   UNL     1      -7.794   8.568  69.918  1.00  0.00    -0.099 S  
HETATM   32  O   UNL     1      -6.916   8.879  68.817  1.00  0.00    -0.061 OA 
ENDBRANCH   7  28
BRANCH   8  33
HETATM   33  O   UNL     1      -9.728   5.698  69.270  1.00  0.00    -0.140 OA 
HETATM   34  S   UNL     1      -9.184   4.248  69.762  1.00  0.00    -0.155 S  
HETATM   35  O   UNL     1      -9.583   3.247  68.805  1.00  0.00    -0.160 OA 
HETATM   36  O   UNL     1      -7.824   4.400  70.228  1.00  0.00    -0.058 OA 
HETATM   37  O   UNL     1     -10.129   3.963  71.030  1.00  0.00    -0.134 OA 
ENDBRANCH   8  33
TORSDOF 6
ENDMDL
MODEL      135
REMARK 921   NORMALIZED FREE ENERGY PREDICTED BY IDOCK:   -3.24 KCAL/MOL
REMARK 922        TOTAL FREE ENERGY PREDICTED BY IDOCK:   -6.48 KCAL/MOL
REMARK 923 INTER-LIGAND FREE ENERGY PREDICTED BY IDOCK:   -8.07 KCAL/MOL
REMARK 924 INTRA-LIGAND FREE ENERGY PREDICTED BY IDOCK:    1.59 KCAL/MOL
REMARK 927      BINDING AFFINITY PREDICTED BY RF-SCORE:    0.00 PKD
ROOT
HETATM    1  O   UNL     1     -12.516  14.295  64.168  1.00  0.00    -0.675 OA 
HETATM    2  H   UNL     1     -12.650  15.159  64.538  1.00  0.00     0.000 HD 
HETATM    3  C   UNL     1     -11.263  13.795  64.626  1.00  0.00    -0.378 C  
HETATM    4  C   UNL     1     -11.050  12.413  64.034  1.00  0.00    -0.396 C  
HETATM    5  O   UNL     1      -9.813  11.877  64.452  1.00  0.00    -0.241 OA 
HETATM    6  C   UNL     1      -9.724  11.670  65.848  1.00  0.00    -0.235 C  
HETATM    7  C   UNL     1      -9.949  12.971  66.656  1.00  0.00    -0.250 C  
HETATM    8  C   UNL     1     -11.185  13.763  66.161  1.00  0.00    -0.300 C  
ENDROOT
BRANCH   6   9
HETATM    9  O   UNL     1      -8.412  11.182  66.144  1.00  0.00    -0.169 OA 
BRANCH   9  10
HETATM   10  C   UNL     1      -8.309   9.757  66.260  1.00  0.00    -0.116 C  
HETATM   11  H   UNL     1     -10.070   5.483  67.169  1.00  0.00     0.000 HD 
HETATM   12  C   UNL     1      -9.007   9.308  67.573  1.00  0.00    -0.118 C  
HETATM   13  C   UNL     1      -8.929   9.017  65.064  1.00  0.00    -0.147 C  
HETATM   14  C   UNL     1      -9.077   7.770  67.657  1.00  0.00    -0.133 C  
HETATM   15  O   UNL     1      -9.558   5.764  66.419  1.00  0.00    -0.154 OA 
HETATM   16  O   UNL     1      -8.880   7.603  65.239  1.00  0.00    -0.023 OA 
HETATM   17  C   UNL     1      -9.645   7.183  66.358  1.00  0.00    -0.098 C  
BRANCH  14  18
HETATM   18  O   UNL     1      -9.668   7.260  68.849  1.00  0.00    -0.146 OA 
HETATM   19  S   UNL     1      -8.864   6.386  69.952  1.00  0.00    -0.143 S  
HETATM   20  O   UNL     1      -8.221   5.283  69.279  1.00  0.00    -0.090 OA 
HETATM   21  O   UNL     1      -7.715   7.377  70.480  1.00  0.00    -0.092 OA 
HETATM   22  O   UNL     1      -9.758   6.187  71.070  1.00  0.00    -0.174 OA 
ENDBRANCH  14  18
BRANCH  12  23
HETATM   23  O   UNL     1      -8.432   9.907  68.745  1.00  0.00    -0.112 OA 
HETATM   24  S   UNL     1      -6.844  10.212  68.871  1.00  0.00    -0.057 S  
HETATM   25  O   UNL     1      -6.152   8.949  68.982  1.00  0.00    -0.042 OA 
HETATM   26  O   UNL     1      -6.751  10.893  70.326  1.00  0.00    -0.230 OA 
HETATM   27  O   UNL     1      -6.455  11.201  67.898  1.00  0.00    -0.057 OA 
ENDBRANCH  12  23
ENDBRANCH   9  10
ENDBRANCH   6   9
BRANCH   7  28
HETATM   28  O   UNL     1     -10.157  12.666  68.046  1.00  0.00    -0.215 OA 
HETATM   29  O   UNL     1     -12.302  13.620  68.876  1.00  0.00    -0.276 OA 
HETATM   30  O   UNL     1     -11.371  11.671  69.993  1.00  0.00    -0.219 OA 
HETATM   31  S   UNL     1     -11.671  12.356  68.570  1.00  0.00    -0.316 S  
HETATM   32  O   UNL     1     -12.270  11.359  67.718  1.00  0.00    -0.537 OA 
ENDBRANCH   7  28
BRANCH   8  33
HETATM   33  O   UNL     1     -11.056  15.097  66.682  1.00  0.00    -0.328 OA 
HETATM   34  S   UNL     1     -10.277  16.245  65.836  1.00  0.00    -0.364 S  
HETATM   35  O   UNL     1      -8.860  16.127  66.078  1.00  0.00    -0.332 OA 
HETATM   36  O   UNL     1     -10.851  16.310  64.511  1.00  0.00    -0.668 OA 
HETATM   37  O   UNL     1     -10.692  17.574  66.638  1.00  0.00    -0.237 OA 
ENDBRANCH   8  33
TORSDOF 6
ENDMDL
MODEL      136
REMARK 921   NORMALIZED FREE ENERGY PREDICTED BY IDOCK:   -3.21 KCAL/MOL
REMARK 922        TOTAL FREE ENERGY PREDICTED BY IDOCK:   -6.43 KCAL/MOL
REMARK 923 INTER-LIGAND FREE ENERGY PREDICTED BY IDOCK:   -7.58 KCAL/MOL
REMARK 924 INTRA-LIGAND FREE ENERGY PREDICTED BY IDOCK:    1.15 KCAL/MOL
REMARK 927      BINDING AFFINITY PREDICTED BY RF-SCORE:    0.00 PKD
ROOT
HETATM    1  O   UNL     1     -10.952  12.950  63.206  1.00  0.00    -0.549 OA 
HETATM    2  H   UNL     1     -11.190  13.752  63.653  1.00  0.00     0.000 HD 
HETATM    3  C   UNL     1     -10.198  12.138  64.102  1.00  0.00    -0.343 C  
HETATM    4  C   UNL     1      -9.818  10.854  63.386  1.00  0.00    -0.362 C  
HETATM    5  O   UNL     1      -9.058  10.018  64.233  1.00  0.00    -0.215 OA 
HETATM    6  C   UNL     1      -9.762   9.577  65.377  1.00  0.00    -0.244 C  
HETATM    7  C   UNL     1     -10.277  10.750  66.245  1.00  0.00    -0.245 C  
HETATM    8  C   UNL     1     -10.971  11.847  65.399  1.00  0.00    -0.301 C  
ENDROOT
BRANCH   6   9
HETATM    9  O   UNL     1      -8.870   8.791  66.173  1.00  0.00    -0.147 OA 
BRANCH   9  10
HETATM   10  C   UNL     1      -8.562   9.344  67.460  1.00  0.00    -0.122 C  
HETATM   11  H   UNL     1      -5.973   9.656  71.383  1.00  0.00     0.000 HD 
HETATM   12  C   UNL     1      -8.229   8.184  68.438  1.00  0.00    -0.129 C  
HETATM   13  C   UNL     1      -7.391  10.338  67.415  1.00  0.00    -0.093 C  
HETATM   14  C   UNL     1      -7.722   8.735  69.786  1.00  0.00    -0.084 C  
HETATM   15  O   UNL     1      -6.273  10.357  70.815  1.00  0.00    -0.227 OA 
HETATM   16  O   UNL     1      -7.058  10.816  68.716  1.00  0.00    -0.068 OA 
HETATM   17  C   UNL     1      -6.610   9.770  69.564  1.00  0.00    -0.051 C  
BRANCH  14  18
HETATM   18  O   UNL     1      -7.426   7.745  70.767  1.00  0.00    -0.068 OA 
HETATM   19  S   UNL     1      -8.281   7.539  72.128  1.00  0.00    -0.107 S  
HETATM   20  O   UNL     1      -8.369   8.810  72.807  1.00  0.00    -0.412 OA 
HETATM   21  O   UNL     1      -9.753   7.153  71.616  1.00  0.00    -0.160 OA 
HETATM   22  O   UNL     1      -7.765   6.356  72.778  1.00  0.00    -0.102 OA 
ENDBRANCH  14  18
BRANCH  12  23
HETATM   23  O   UNL     1      -9.309   7.250  68.586  1.00  0.00    -0.140 OA 
HETATM   24  S   UNL     1      -9.118   5.659  68.333  1.00  0.00    -0.118 S  
HETATM   25  O   UNL     1      -8.919   5.450  66.917  1.00  0.00    -0.111 OA 
HETATM   26  O   UNL     1     -10.588   5.092  68.658  1.00  0.00    -0.042 OA 
HETATM   27  O   UNL     1      -8.210   5.112  69.309  1.00  0.00    -0.083 OA 
ENDBRANCH  12  23
ENDBRANCH   9  10
ENDBRANCH   6   9
BRANCH   7  28
HETATM   28  O   UNL     1     -11.232  10.277  67.210  1.00  0.00    -0.252 OA 
HETATM   29  O   UNL     1     -10.325  10.400  69.525  1.00  0.00    -0.222 OA 
HETATM   30  O   UNL     1     -12.734  10.475  69.201  1.00  0.00    -0.075 OA 
HETATM   31  S   UNL     1     -11.315  11.008  68.666  1.00  0.00    -0.308 S  
HETATM   32  O   UNL     1     -11.424  12.433  68.472  1.00  0.00    -0.257 OA 
ENDBRANCH   7  28
BRANCH   8  33
HETATM   33  O   UNL     1     -11.031  13.025  66.220  1.00  0.00    -0.279 OA 
HETATM   34  S   UNL     1     -11.756  14.376  65.678  1.00  0.00    -0.348 S  
HETATM   35  O   UNL     1     -10.822  15.117  64.868  1.00  0.00    -0.404 OA 
HETATM   36  O   UNL     1     -13.091  14.038  65.239  1.00  0.00    -0.782 OA 
HETATM   37  O   UNL     1     -11.865  15.244  67.026  1.00  0.00    -0.133 OA 
ENDBRANCH   8  33
TORSDOF 6
ENDMDL
MODEL      137
REMARK 921   NORMALIZED FREE ENERGY PREDICTED BY IDOCK:   -3.16 KCAL/MOL
REMARK 922        TOTAL FREE ENERGY PREDICTED BY IDOCK:   -6.37 KCAL/MOL
REMARK 923 INTER-LIGAND FREE ENERGY PREDICTED BY IDOCK:   -6.25 KCAL/MOL
REMARK 924 INTRA-LIGAND FREE ENERGY PREDICTED BY IDOCK:   -0.13 KCAL/MOL
REMARK 927      BINDING AFFINITY PREDICTED BY RF-SCORE:    0.00 PKD
ROOT
HETATM    1  O   UNL     1      -9.602   7.364  66.981  1.00  0.00    -0.152 OA 
HETATM    2  H   UNL     1      -9.263   7.087  66.138  1.00  0.00     0.000 HD 
HETATM    3  C   UNL     1      -9.465   8.779  67.081  1.00  0.00    -0.162 C  
HETATM    4  C   UNL     1     -10.008   9.221  68.428  1.00  0.00    -0.176 C  
HETATM    5  O   UNL     1      -9.885  10.619  68.580  1.00  0.00    -0.164 OA 
HETATM    6  C   UNL     1     -10.643  11.362  67.645  1.00  0.00    -0.202 C  
HETATM    7  C   UNL     1     -10.266  11.031  66.182  1.00  0.00    -0.247 C  
HETATM    8  C   UNL     1     -10.175   9.506  65.928  1.00  0.00    -0.115 C  
ENDROOT
BRANCH   6   9
HETATM    9  O   UNL     1     -10.388  12.752  67.869  1.00  0.00    -0.215 OA 
BRANCH   9  10
HETATM   10  C   UNL     1      -9.017  13.145  67.727  1.00  0.00    -0.194 C  
HETATM   11  H   UNL     1      -5.090  15.285  69.207  1.00  0.00     0.000 HD 
HETATM   12  C   UNL     1      -8.879  14.638  68.131  1.00  0.00    -0.173 C  
HETATM   13  C   UNL     1      -8.062  12.287  68.572  1.00  0.00    -0.101 C  
HETATM   14  C   UNL     1      -7.396  15.060  68.162  1.00  0.00    -0.115 C  
HETATM   15  O   UNL     1      -5.190  14.404  68.865  1.00  0.00    -0.084 OA 
HETATM   16  O   UNL     1      -6.716  12.746  68.470  1.00  0.00    -0.077 OA 
HETATM   17  C   UNL     1      -6.567  14.061  68.981  1.00  0.00    -0.106 C  
BRANCH  14  18
HETATM   18  O   UNL     1      -7.167  16.429  68.486  1.00  0.00    -0.155 OA 
HETATM   19  S   UNL     1      -6.581  17.518  67.439  1.00  0.00    -0.165 S  
HETATM   20  O   UNL     1      -5.359  16.996  66.875  1.00  0.00    -0.145 OA 
HETATM   21  O   UNL     1      -7.680  17.573  66.268  1.00  0.00    -0.270 OA 
HETATM   22  O   UNL     1      -6.635  18.806  68.091  1.00  0.00    -0.215 OA 
ENDBRANCH  14  18
BRANCH  12  23
HETATM   23  O   UNL     1      -9.692  15.511  67.332  1.00  0.00    -0.217 OA 
HETATM   24  S   UNL     1     -10.818  16.481  67.983  1.00  0.00    -0.311 S  
HETATM   25  O   UNL     1     -11.899  15.652  68.465  1.00  0.00    -0.355 OA 
HETATM   26  O   UNL     1     -11.392  17.241  66.686  1.00  0.00     0.461 OA 
HETATM   27  O   UNL     1     -10.190  17.466  68.827  1.00  0.00    -0.327 OA 
ENDBRANCH  12  23
ENDBRANCH   9  10
ENDBRANCH   6   9
BRANCH   7  28
HETATM   28  O   UNL     1     -11.251  11.564  65.279  1.00  0.00    -0.239 OA 
HETATM   29  O   UNL     1     -10.774  13.941  64.712  1.00  0.00    -0.382 OA 
HETATM   30  O   UNL     1     -12.050  12.590  63.142  1.00  0.00    -0.462 OA 
HETATM   31  S   UNL     1     -10.780  12.620  64.127  1.00  0.00    -0.431 S  
HETATM   32  O   UNL     1      -9.655  12.066  63.413  1.00  0.00    -0.279 OA 
ENDBRANCH   7  28
BRANCH   8  33
HETATM   33  O   UNL     1      -9.442   9.334  64.703  1.00  0.00    -0.091 OA 
HETATM   34  S   UNL     1      -7.825   9.176  64.720  1.00  0.00    -0.126 S  
HETATM   35  O   UNL     1      -7.225  10.487  64.771  1.00  0.00    -0.078 OA 
HETATM   36  O   UNL     1      -7.476   8.110  65.633  1.00  0.00    -0.077 OA 
HETATM   37  O   UNL     1      -7.533   8.681  63.220  1.00  0.00    -0.099 OA 
ENDBRANCH   8  33
TORSDOF 6
ENDMDL
MODEL      138
REMARK 921   NORMALIZED FREE ENERGY PREDICTED BY IDOCK:   -3.14 KCAL/MOL
REMARK 922        TOTAL FREE ENERGY PREDICTED BY IDOCK:   -6.35 KCAL/MOL
REMARK 923 INTER-LIGAND FREE ENERGY PREDICTED BY IDOCK:   -7.15 KCAL/MOL
REMARK 924 INTRA-LIGAND FREE ENERGY PREDICTED BY IDOCK:    0.80 KCAL/MOL
REMARK 927      BINDING AFFINITY PREDICTED BY RF-SCORE:    0.00 PKD
ROOT
HETATM    1  O   UNL     1     -10.162  17.615  68.077  1.00  0.00    -0.323 OA 
HETATM    2  H   UNL     1     -11.037  17.871  68.342  1.00  0.00     0.000 HD 
HETATM    3  C   UNL     1      -9.850  16.366  68.689  1.00  0.00    -0.234 C  
HETATM    4  C   UNL     1      -8.451  15.958  68.264  1.00  0.00    -0.170 C  
HETATM    5  O   UNL     1      -8.091  14.727  68.854  1.00  0.00    -0.151 OA 
HETATM    6  C   UNL     1      -8.902  13.642  68.449  1.00  0.00    -0.152 C  
HETATM    7  C   UNL     1     -10.400  13.873  68.764  1.00  0.00    -0.206 C  
HETATM    8  C   UNL     1     -10.880  15.282  68.334  1.00  0.00    -0.257 C  
ENDROOT
BRANCH   6   9
HETATM    9  O   UNL     1      -8.472  12.475  69.156  1.00  0.00     0.348 OA 
BRANCH   9  10
HETATM   10  C   UNL     1      -7.550  11.642  68.442  1.00  0.00    -0.126 C  
HETATM   11  H   UNL     1      -6.458   8.442  65.161  1.00  0.00     0.000 HD 
HETATM   12  C   UNL     1      -8.162  10.221  68.302  1.00  0.00    -0.115 C  
HETATM   13  C   UNL     1      -7.200  12.197  67.052  1.00  0.00    -0.067 C  
HETATM   14  C   UNL     1      -7.287   9.337  67.391  1.00  0.00    -0.087 C  
HETATM   15  O   UNL     1      -6.041   9.279  65.333  1.00  0.00    -0.061 OA 
HETATM   16  O   UNL     1      -6.341  11.313  66.335  1.00  0.00    -0.134 OA 
HETATM   17  C   UNL     1      -6.964  10.065  66.079  1.00  0.00    -0.110 C  
BRANCH  14  18
HETATM   18  O   UNL     1      -7.747   7.998  67.231  1.00  0.00    -0.098 OA 
HETATM   19  S   UNL     1      -8.886   7.556  66.165  1.00  0.00    -0.142 S  
HETATM   20  O   UNL     1     -10.045   8.393  66.365  1.00  0.00    -0.265 OA 
HETATM   21  O   UNL     1      -8.254   7.925  64.735  1.00  0.00    -0.148 OA 
HETATM   22  O   UNL     1      -8.965   6.114  66.202  1.00  0.00    -0.152 OA 
ENDBRANCH  14  18
BRANCH  12  23
HETATM   23  O   UNL     1      -8.450   9.608  69.568  1.00  0.00    -0.130 OA 
HETATM   24  S   UNL     1      -9.964   9.270  70.041  1.00  0.00    -0.226 S  
HETATM   25  O   UNL     1     -10.639  10.518  70.312  1.00  0.00    -0.212 OA 
HETATM   26  O   UNL     1      -9.718   8.584  71.476  1.00  0.00    -0.188 OA 
HETATM   27  O   UNL     1     -10.539   8.275  69.172  1.00  0.00    -0.219 OA 
ENDBRANCH  12  23
ENDBRANCH   9  10
ENDBRANCH   6   9
BRANCH   7  28
HETATM   28  O   UNL     1     -11.211  12.908  68.071  1.00  0.00    -0.240 OA 
HETATM   29  O   UNL     1     -12.589  13.983  66.298  1.00  0.00    -0.451 OA 
HETATM   30  O   UNL     1     -12.008  11.632  66.073  1.00  0.00    -0.341 OA 
HETATM   31  S   UNL     1     -11.465  13.092  66.469  1.00  0.00    -0.355 S  
HETATM   32  O   UNL     1     -10.196  13.284  65.811  1.00  0.00    -0.284 OA 
ENDBRANCH   7  28
BRANCH   8  33
HETATM   33  O   UNL     1     -12.118  15.524  69.024  1.00  0.00    -0.319 OA 
HETATM   34  S   UNL     1     -12.255  15.212  70.613  1.00  0.00    -0.385 S  
HETATM   35  O   UNL     1     -12.551  13.812  70.794  1.00  0.00    -0.336 OA 
HETATM   36  O   UNL     1     -11.186  15.891  71.310  1.00  0.00    -0.353 OA 
HETATM   37  O   UNL     1     -13.641  15.944  70.967  1.00  0.00    -0.455 OA 
ENDBRANCH   8  33
TORSDOF 6
ENDMDL
MODEL      139
REMARK 921   NORMALIZED FREE ENERGY PREDICTED BY IDOCK:   -3.13 KCAL/MOL
REMARK 922        TOTAL FREE ENERGY PREDICTED BY IDOCK:   -6.33 KCAL/MOL
REMARK 923 INTER-LIGAND FREE ENERGY PREDICTED BY IDOCK:   -5.85 KCAL/MOL
REMARK 924 INTRA-LIGAND FREE ENERGY PREDICTED BY IDOCK:   -0.47 KCAL/MOL
REMARK 927      BINDING AFFINITY PREDICTED BY RF-SCORE:    0.00 PKD
ROOT
HETATM    1  O   UNL     1     -11.093  10.853  64.796  1.00  0.00    -0.095 OA 
HETATM    2  H   UNL     1     -11.485  10.065  65.152  1.00  0.00     0.000 HD 
HETATM    3  C   UNL     1     -10.561  11.620  65.874  1.00  0.00    -0.271 C  
HETATM    4  C   UNL     1      -9.935  12.881  65.304  1.00  0.00    -0.176 C  
HETATM    5  O   UNL     1      -9.400  13.681  66.337  1.00  0.00    -0.256 OA 
HETATM    6  C   UNL     1      -8.344  13.064  67.047  1.00  0.00    -0.095 C  
HETATM    7  C   UNL     1      -8.767  11.721  67.689  1.00  0.00    -0.159 C  
HETATM    8  C   UNL     1      -9.545  10.816  66.701  1.00  0.00    -0.178 C  
ENDROOT
BRANCH   6   9
HETATM    9  O   UNL     1      -7.933  13.950  68.093  1.00  0.00    -0.127 OA 
BRANCH   9  10
HETATM   10  C   UNL     1      -7.626  15.284  67.668  1.00  0.00    -0.172 C  
HETATM   11  H   UNL     1      -6.720  19.838  68.467  1.00  0.00     0.000 HD 
HETATM   12  C   UNL     1      -8.527  16.279  68.449  1.00  0.00    -0.195 C  
HETATM   13  C   UNL     1      -6.148  15.649  67.877  1.00  0.00    -0.147 C  
HETATM   14  C   UNL     1      -8.114  17.735  68.157  1.00  0.00    -0.265 C  
HETATM   15  O   UNL     1      -6.241  19.227  67.918  1.00  0.00    -0.204 OA 
HETATM   16  O   UNL     1      -5.886  17.003  67.517  1.00  0.00    -0.121 OA 
HETATM   17  C   UNL     1      -6.601  17.915  68.336  1.00  0.00    -0.205 C  
BRANCH  14  18
HETATM   18  O   UNL     1      -8.910  18.727  68.800  1.00  0.00    -0.327 OA 
HETATM   19  S   UNL     1      -9.883  19.755  68.010  1.00  0.00    -0.437 S  
HETATM   20  O   UNL     1      -9.111  20.417  66.985  1.00  0.00    -0.359 OA 
HETATM   21  O   UNL     1     -10.955  18.806  67.282  1.00  0.00    -0.412 OA 
HETATM   22  O   UNL     1     -10.622  20.492  69.009  1.00  0.00    -0.021 OA 
ENDBRANCH  14  18
BRANCH  12  23
HETATM   23  O   UNL     1      -9.929  16.043  68.245  1.00  0.00    -0.216 OA 
HETATM   24  S   UNL     1     -10.896  15.493  69.426  1.00  0.00    -0.286 S  
HETATM   25  O   UNL     1     -10.540  14.118  69.692  1.00  0.00    -0.053 OA 
HETATM   26  O   UNL     1     -12.325  15.441  68.688  1.00  0.00    -0.067 OA 
HETATM   27  O   UNL     1     -10.982  16.467  70.483  1.00  0.00    -0.272 OA 
ENDBRANCH  12  23
ENDBRANCH   9  10
ENDBRANCH   6   9
BRANCH   7  28
HETATM   28  O   UNL     1      -7.609  10.990  68.128  1.00  0.00    -0.088 OA 
HETATM   29  O   UNL     1      -7.231   8.963  66.733  1.00  0.00    -0.080 OA 
HETATM   30  O   UNL     1      -5.337   9.975  67.875  1.00  0.00    -0.039 OA 
HETATM   31  S   UNL     1      -6.665  10.262  67.014  1.00  0.00    -0.081 S  
HETATM   32  O   UNL     1      -6.327  11.217  65.987  1.00  0.00    -0.106 OA 
ENDBRANCH   7  28
BRANCH   8  33
HETATM   33  O   UNL     1     -10.220   9.824  67.494  1.00  0.00    -0.191 OA 
HETATM   34  S   UNL     1     -11.083  10.256  68.801  1.00  0.00    -0.206 S  
HETATM   35  O   UNL     1     -10.194  10.397  69.927  1.00  0.00    -0.230 OA 
HETATM   36  O   UNL     1     -12.033  11.273  68.410  1.00  0.00    -0.555 OA 
HETATM   37  O   UNL     1     -11.887   8.901  69.117  1.00  0.00     0.836 OA 
ENDBRANCH   8  33
TORSDOF 6
ENDMDL
MODEL      140
REMARK 921   NORMALIZED FREE ENERGY PREDICTED BY IDOCK:   -3.12 KCAL/MOL
REMARK 922        TOTAL FREE ENERGY PREDICTED BY IDOCK:   -6.31 KCAL/MOL
REMARK 923 INTER-LIGAND FREE ENERGY PREDICTED BY IDOCK:   -8.71 KCAL/MOL
REMARK 924 INTRA-LIGAND FREE ENERGY PREDICTED BY IDOCK:    2.40 KCAL/MOL
REMARK 927      BINDING AFFINITY PREDICTED BY RF-SCORE:    0.00 PKD
ROOT
HETATM    1  O   UNL     1      -6.772  16.191  68.433  1.00  0.00    -0.122 OA 
HETATM    2  H   UNL     1      -6.744  17.110  68.671  1.00  0.00     0.000 HD 
HETATM    3  C   UNL     1      -8.102  15.714  68.621  1.00  0.00    -0.158 C  
HETATM    4  C   UNL     1      -8.145  14.245  68.239  1.00  0.00    -0.143 C  
HETATM    5  O   UNL     1      -9.444  13.723  68.417  1.00  0.00    -0.208 OA 
HETATM    6  C   UNL     1     -10.418  14.321  67.585  1.00  0.00    -0.248 C  
HETATM    7  C   UNL     1     -10.514  15.852  67.793  1.00  0.00    -0.287 C  
HETATM    8  C   UNL     1      -9.122  16.531  67.811  1.00  0.00    -0.204 C  
ENDROOT
BRANCH   6   9
HETATM    9  O   UNL     1     -11.689  13.747  67.902  1.00  0.00    -0.319 OA 
BRANCH   9  10
HETATM   10  C   UNL     1     -11.819  12.355  67.584  1.00  0.00    -0.295 C  
HETATM   11  H   UNL     1     -10.069   8.117  66.503  1.00  0.00     0.000 HD 
HETATM   12  C   UNL     1     -10.881  12.023  66.392  1.00  0.00    -0.278 C  
HETATM   13  C   UNL     1     -11.490  11.440  68.774  1.00  0.00    -0.290 C  
HETATM   14  C   UNL     1     -10.853  10.505  66.125  1.00  0.00     0.043 C  
HETATM   15  O   UNL     1     -10.715   8.339  67.164  1.00  0.00    -0.302 OA 
HETATM   16  O   UNL     1     -11.554  10.063  68.411  1.00  0.00    -0.068 OA 
HETATM   17  C   UNL     1     -10.589   9.732  67.425  1.00  0.00    -0.267 C  
BRANCH  14  18
HETATM   18  O   UNL     1     -10.047  10.103  65.021  1.00  0.00    -0.330 OA 
HETATM   19  S   UNL     1      -8.472   9.738  65.138  1.00  0.00    -0.161 S  
HETATM   20  O   UNL     1      -7.798  10.836  65.791  1.00  0.00    -0.156 OA 
HETATM   21  O   UNL     1      -8.430   8.477  66.131  1.00  0.00    -0.118 OA 
HETATM   22  O   UNL     1      -8.054   9.241  63.848  1.00  0.00    -0.133 OA 
ENDBRANCH  14  18
BRANCH  12  23
HETATM   23  O   UNL     1     -11.177  12.792  65.216  1.00  0.00    -0.283 OA 
HETATM   24  S   UNL     1     -12.697  13.057  64.714  1.00  0.00    -0.268 S  
HETATM   25  O   UNL     1     -13.231  11.807  64.226  1.00  0.00    -0.472 OA 
HETATM   26  O   UNL     1     -12.462  13.973  63.412  1.00  0.00    -0.826 OA 
HETATM   27  O   UNL     1     -13.404  13.850  65.687  1.00  0.00    -0.620 OA 
ENDBRANCH  12  23
ENDBRANCH   9  10
ENDBRANCH   6   9
BRANCH   7  28
HETATM   28  O   UNL     1     -11.277  16.453  66.732  1.00  0.00     0.039 OA 
HETATM   29  O   UNL     1      -9.945  18.169  65.514  1.00  0.00    -0.440 OA 
HETATM   30  O   UNL     1     -11.772  17.058  64.356  1.00  0.00    -0.676 OA 
HETATM   31  S   UNL     1     -10.520  16.854  65.343  1.00  0.00    -0.034 S  
HETATM   32  O   UNL     1      -9.767  15.718  64.872  1.00  0.00    -0.170 OA 
ENDBRANCH   7  28
BRANCH   8  33
HETATM   33  O   UNL     1      -9.304  17.829  68.403  1.00  0.00    -0.277 OA 
HETATM   34  S   UNL     1      -8.132  18.951  68.315  1.00  0.00    -0.331 S  
HETATM   35  O   UNL     1      -7.180  18.720  69.373  1.00  0.00    -0.200 OA 
HETATM   36  O   UNL     1      -7.752  19.113  66.930  1.00  0.00    -0.230 OA 
HETATM   37  O   UNL     1      -8.914  20.272  68.788  1.00  0.00     0.125 OA 
ENDBRANCH   8  33
TORSDOF 6
ENDMDL
MODEL      141
REMARK 921   NORMALIZED FREE ENERGY PREDICTED BY IDOCK:   -3.11 KCAL/MOL
REMARK 922        TOTAL FREE ENERGY PREDICTED BY IDOCK:   -6.31 KCAL/MOL
REMARK 923 INTER-LIGAND FREE ENERGY PREDICTED BY IDOCK:   -7.26 KCAL/MOL
REMARK 924 INTRA-LIGAND FREE ENERGY PREDICTED BY IDOCK:    0.96 KCAL/MOL
REMARK 927      BINDING AFFINITY PREDICTED BY RF-SCORE:    0.00 PKD
ROOT
HETATM    1  O   UNL     1     -11.766   6.128  69.092  1.00  0.00    -0.357 OA 
HETATM    2  H   UNL     1     -11.975   6.088  70.017  1.00  0.00     0.000 HD 
HETATM    3  C   UNL     1     -11.028   7.323  68.847  1.00  0.00    -0.018 C  
HETATM    4  C   UNL     1     -10.693   7.387  67.367  1.00  0.00    -0.278 C  
HETATM    5  O   UNL     1      -9.968   8.561  67.071  1.00  0.00    -0.200 OA 
HETATM    6  C   UNL     1      -8.708   8.628  67.711  1.00  0.00    -0.137 C  
HETATM    7  C   UNL     1      -8.821   8.543  69.252  1.00  0.00    -0.142 C  
HETATM    8  C   UNL     1      -9.758   7.398  69.710  1.00  0.00    -0.170 C  
ENDROOT
BRANCH   6   9
HETATM    9  O   UNL     1      -8.105   9.882  67.376  1.00  0.00    -0.112 OA 
BRANCH   9  10
HETATM   10  C   UNL     1      -8.913  11.033  67.653  1.00  0.00    -0.142 C  
HETATM   11  H   UNL     1     -13.006  13.363  67.749  1.00  0.00     0.000 HD 
HETATM   12  C   UNL     1      -9.857  11.286  66.446  1.00  0.00    -0.211 C  
HETATM   13  C   UNL     1      -9.741  10.884  68.938  1.00  0.00    -0.187 C  
HETATM   14  C   UNL     1     -10.866  12.406  66.767  1.00  0.00    -0.248 C  
HETATM   15  O   UNL     1     -12.362  13.270  68.442  1.00  0.00    -0.158 OA 
HETATM   16  O   UNL     1     -10.589  12.009  69.150  1.00  0.00    -0.150 OA 
HETATM   17  C   UNL     1     -11.551  12.147  68.116  1.00  0.00    -0.337 C  
BRANCH  14  18
HETATM   18  O   UNL     1     -11.754  12.738  65.703  1.00  0.00    -0.355 OA 
HETATM   19  S   UNL     1     -11.711  14.143  64.896  1.00  0.00    -0.416 S  
HETATM   20  O   UNL     1     -11.760  15.221  65.855  1.00  0.00    -0.103 OA 
HETATM   21  O   UNL     1     -10.258  14.161  64.211  1.00  0.00    -0.161 OA 
HETATM   22  O   UNL     1     -12.659  14.039  63.810  1.00  0.00    -0.772 OA 
ENDBRANCH  14  18
BRANCH  12  23
HETATM   23  O   UNL     1      -9.148  11.506  65.217  1.00  0.00    -0.146 OA 
HETATM   24  S   UNL     1      -9.441  10.635  63.880  1.00  0.00    -0.307 S  
HETATM   25  O   UNL     1      -8.957   9.293  64.104  1.00  0.00    -0.191 OA 
HETATM   26  O   UNL     1      -8.425  11.297  62.823  1.00  0.00    -0.122 OA 
HETATM   27  O   UNL     1     -10.782  10.884  63.416  1.00  0.00    -0.233 OA 
ENDBRANCH  12  23
ENDBRANCH   9  10
ENDBRANCH   6   9
BRANCH   7  28
HETATM   28  O   UNL     1      -7.528   8.306  69.835  1.00  0.00    -0.063 OA 
HETATM   29  O   UNL     1      -7.317   5.966  70.660  1.00  0.00    -0.080 OA 
HETATM   30  O   UNL     1      -5.303   7.180  70.039  1.00  0.00    -0.022 OA 
HETATM   31  S   UNL     1      -6.822   6.849  69.629  1.00  0.00    -0.052 S  
HETATM   32  O   UNL     1      -6.837   6.514  68.226  1.00  0.00    -0.065 OA 
ENDBRANCH   7  28
BRANCH   8  33
HETATM   33  O   UNL     1     -10.101   7.668  71.080  1.00  0.00    -0.185 OA 
HETATM   34  S   UNL     1     -11.006   6.620  71.930  1.00  0.00    -0.255 S  
HETATM   35  O   UNL     1     -12.399   6.862  71.644  1.00  0.00    -0.339 OA 
HETATM   36  O   UNL     1     -10.397   5.311  71.845  1.00  0.00    -0.203 OA 
HETATM   37  O   UNL     1     -10.821   7.174  73.427  1.00  0.00    -0.351 OA 
ENDBRANCH   8  33
TORSDOF 6
ENDMDL
MODEL      142
REMARK 921   NORMALIZED FREE ENERGY PREDICTED BY IDOCK:   -3.09 KCAL/MOL
REMARK 922        TOTAL FREE ENERGY PREDICTED BY IDOCK:   -6.28 KCAL/MOL
REMARK 923 INTER-LIGAND FREE ENERGY PREDICTED BY IDOCK:   -8.73 KCAL/MOL
REMARK 924 INTRA-LIGAND FREE ENERGY PREDICTED BY IDOCK:    2.46 KCAL/MOL
REMARK 927      BINDING AFFINITY PREDICTED BY RF-SCORE:    0.00 PKD
ROOT
HETATM    1  O   UNL     1      -7.955   8.746  65.106  1.00  0.00    -0.111 OA 
HETATM    2  H   UNL     1      -8.329   7.920  64.825  1.00  0.00     0.000 HD 
HETATM    3  C   UNL     1      -8.892   9.402  65.956  1.00  0.00    -0.156 C  
HETATM    4  C   UNL     1      -8.292  10.722  66.405  1.00  0.00    -0.153 C  
HETATM    5  O   UNL     1      -9.189  11.417  67.245  1.00  0.00    -0.162 OA 
HETATM    6  C   UNL     1      -9.476  10.742  68.454  1.00  0.00    -0.174 C  
HETATM    7  C   UNL     1     -10.075   9.334  68.219  1.00  0.00    -0.185 C  
HETATM    8  C   UNL     1      -9.282   8.528  67.159  1.00  0.00    -0.142 C  
ENDROOT
BRANCH   6   9
HETATM    9  O   UNL     1     -10.433  11.518  69.182  1.00  0.00    -0.192 OA 
BRANCH   9  10
HETATM   10  C   UNL     1     -11.365  12.243  68.369  1.00  0.00    -0.292 C  
HETATM   11  H   UNL     1     -12.471  15.185  64.860  1.00  0.00     0.000 HD 
HETATM   12  C   UNL     1     -10.849  13.697  68.189  1.00  0.00    -0.246 C  
HETATM   13  C   UNL     1     -11.584  11.595  66.993  1.00  0.00    -0.189 C  
HETATM   14  C   UNL     1     -11.726  14.466  67.181  1.00  0.00    -0.400 C  
HETATM   15  O   UNL     1     -12.837  14.329  65.051  1.00  0.00    -0.674 OA 
HETATM   16  O   UNL     1     -12.456  12.375  66.179  1.00  0.00    -0.507 OA 
HETATM   17  C   UNL     1     -11.910  13.653  65.893  1.00  0.00    -0.378 C  
BRANCH  14  18
HETATM   18  O   UNL     1     -11.354  15.827  66.977  1.00  0.00    -0.160 OA 
HETATM   19  S   UNL     1     -10.090  16.292  66.075  1.00  0.00    -0.368 S  
HETATM   20  O   UNL     1      -8.918  15.586  66.536  1.00  0.00    -0.262 OA 
HETATM   21  O   UNL     1     -10.438  15.757  64.601  1.00  0.00    -0.436 OA 
HETATM   22  O   UNL     1     -10.134  17.733  65.993  1.00  0.00    -0.469 OA 
ENDBRANCH  14  18
BRANCH  12  23
HETATM   23  O   UNL     1     -10.688  14.392  69.436  1.00  0.00    -0.232 OA 
HETATM   24  S   UNL     1     -11.927  14.643  70.453  1.00  0.00    -0.333 S  
HETATM   25  O   UNL     1     -12.816  15.607  69.847  1.00  0.00    -0.140 OA 
HETATM   26  O   UNL     1     -11.207  15.414  71.668  1.00  0.00    -0.388 OA 
HETATM   27  O   UNL     1     -12.411  13.383  70.957  1.00  0.00    -0.363 OA 
ENDBRANCH  12  23
ENDBRANCH   9  10
ENDBRANCH   6   9
BRANCH   7  28
HETATM   28  O   UNL     1     -10.062   8.575  69.441  1.00  0.00    -0.193 OA 
HETATM   29  O   UNL     1      -7.895   7.389  69.752  1.00  0.00    -0.110 OA 
HETATM   30  O   UNL     1      -9.223   7.946  71.712  1.00  0.00    -0.138 OA 
HETATM   31  S   UNL     1      -8.676   8.476  70.296  1.00  0.00    -0.150 S  
HETATM   32  O   UNL     1      -8.151   9.805  70.496  1.00  0.00    -0.222 OA 
ENDBRANCH   7  28
BRANCH   8  33
HETATM   33  O   UNL     1     -10.136   7.451  66.738  1.00  0.00    -0.234 OA 
HETATM   34  S   UNL     1      -9.532   5.961  66.497  1.00  0.00    -0.154 S  
HETATM   35  O   UNL     1      -8.968   5.892  65.172  1.00  0.00    -0.054 OA 
HETATM   36  O   UNL     1      -8.815   5.557  67.685  1.00  0.00    -0.108 OA 
HETATM   37  O   UNL     1     -10.874   5.084  66.387  1.00  0.00    -0.257 OA 
ENDBRANCH   8  33
TORSDOF 6
ENDMDL
MODEL      143
REMARK 921   NORMALIZED FREE ENERGY PREDICTED BY IDOCK:   -3.09 KCAL/MOL
REMARK 922        TOTAL FREE ENERGY PREDICTED BY IDOCK:   -6.27 KCAL/MOL
REMARK 923 INTER-LIGAND FREE ENERGY PREDICTED BY IDOCK:   -5.85 KCAL/MOL
REMARK 924 INTRA-LIGAND FREE ENERGY PREDICTED BY IDOCK:   -0.42 KCAL/MOL
REMARK 927      BINDING AFFINITY PREDICTED BY RF-SCORE:    0.00 PKD
ROOT
HETATM    1  O   UNL     1     -10.287   5.685  67.457  1.00  0.00    -0.186 OA 
HETATM    2  H   UNL     1      -9.952   5.071  68.100  1.00  0.00     0.000 HD 
HETATM    3  C   UNL     1     -10.247   6.995  68.019  1.00  0.00    -0.182 C  
HETATM    4  C   UNL     1     -10.783   7.976  66.991  1.00  0.00    -0.193 C  
HETATM    5  O   UNL     1     -10.773   9.290  67.505  1.00  0.00    -0.277 OA 
HETATM    6  C   UNL     1      -9.478   9.776  67.801  1.00  0.00    -0.133 C  
HETATM    7  C   UNL     1      -8.730   8.886  68.822  1.00  0.00    -0.137 C  
HETATM    8  C   UNL     1      -8.830   7.380  68.473  1.00  0.00    -0.126 C  
ENDROOT
BRANCH   6   9
HETATM    9  O   UNL     1      -9.611  11.085  68.363  1.00  0.00    -0.167 OA 
BRANCH   9  10
HETATM   10  C   UNL     1     -10.294  12.033  67.532  1.00  0.00    -0.200 C  
HETATM   11  H   UNL     1     -10.579  16.085  65.147  1.00  0.00     0.000 HD 
HETATM   12  C   UNL     1     -10.072  13.458  68.108  1.00  0.00    -0.244 C  
HETATM   13  C   UNL     1      -9.828  11.985  66.068  1.00  0.00    -0.237 C  
HETATM   14  C   UNL     1     -10.640  14.527  67.154  1.00  0.00    -0.274 C  
HETATM   15  O   UNL     1     -10.799  15.209  64.852  1.00  0.00    -0.404 OA 
HETATM   16  O   UNL     1     -10.469  12.986  65.281  1.00  0.00    -0.291 OA 
HETATM   17  C   UNL     1     -10.141  14.294  65.721  1.00  0.00    -0.335 C  
BRANCH  14  18
HETATM   18  O   UNL     1     -10.517  15.870  67.615  1.00  0.00    -0.275 OA 
HETATM   19  S   UNL     1      -9.112  16.675  67.689  1.00  0.00    -0.207 S  
HETATM   20  O   UNL     1      -8.168  15.873  68.431  1.00  0.00    -0.151 OA 
HETATM   21  O   UNL     1      -8.612  16.739  66.165  1.00  0.00    -0.360 OA 
HETATM   22  O   UNL     1      -9.422  18.036  68.062  1.00  0.00    -0.269 OA 
ENDBRANCH  14  18
BRANCH  12  23
HETATM   23  O   UNL     1     -10.550  13.598  69.455  1.00  0.00    -0.047 OA 
HETATM   24  S   UNL     1     -12.132  13.660  69.810  1.00  0.00    -0.311 S  
HETATM   25  O   UNL     1     -12.650  14.919  69.324  1.00  0.00    -0.056 OA 
HETATM   26  O   UNL     1     -12.107  13.785  71.414  1.00  0.00    -0.250 OA 
HETATM   27  O   UNL     1     -12.759  12.408  69.476  1.00  0.00     0.319 OA 
ENDBRANCH  12  23
ENDBRANCH   9  10
ENDBRANCH   6   9
BRANCH   7  28
HETATM   28  O   UNL     1      -7.334   9.231  68.858  1.00  0.00    -0.072 OA 
HETATM   29  O   UNL     1      -6.953  11.349  70.111  1.00  0.00    -0.042 OA 
HETATM   30  O   UNL     1      -5.148   9.725  69.969  1.00  0.00    -0.032 OA 
HETATM   31  S   UNL     1      -6.726   9.925  70.204  1.00  0.00    -0.128 S  
HETATM   32  O   UNL     1      -7.104   9.137  71.352  1.00  0.00    -0.220 OA 
ENDBRANCH   7  28
BRANCH   8  33
HETATM   33  O   UNL     1      -8.473   6.656  69.662  1.00  0.00    -0.129 OA 
HETATM   34  S   UNL     1      -7.556   5.317  69.573  1.00  0.00    -0.070 S  
HETATM   35  O   UNL     1      -8.401   4.188  69.268  1.00  0.00    -0.068 OA 
HETATM   36  O   UNL     1      -6.354   5.629  68.833  1.00  0.00    -0.034 OA 
HETATM   37  O   UNL     1      -7.162   5.093  71.115  1.00  0.00    -0.064 OA 
ENDBRANCH   8  33
TORSDOF 6
ENDMDL
MODEL      144
REMARK 921   NORMALIZED FREE ENERGY PREDICTED BY IDOCK:   -3.03 KCAL/MOL
REMARK 922        TOTAL FREE ENERGY PREDICTED BY IDOCK:   -6.20 KCAL/MOL
REMARK 923 INTER-LIGAND FREE ENERGY PREDICTED BY IDOCK:   -6.81 KCAL/MOL
REMARK 924 INTRA-LIGAND FREE ENERGY PREDICTED BY IDOCK:    0.61 KCAL/MOL
REMARK 927      BINDING AFFINITY PREDICTED BY RF-SCORE:    0.00 PKD
ROOT
HETATM    1  O   UNL     1     -12.141  11.461  62.707  1.00  0.00    -0.791 OA 
HETATM    2  H   UNL     1     -12.867  12.037  62.915  1.00  0.00     0.000 HD 
HETATM    3  C   UNL     1     -11.139  11.615  63.709  1.00  0.00    -0.420 C  
HETATM    4  C   UNL     1      -9.979  10.695  63.375  1.00  0.00    -0.268 C  
HETATM    5  O   UNL     1      -8.953  10.818  64.337  1.00  0.00    -0.191 OA 
HETATM    6  C   UNL     1      -9.341  10.422  65.638  1.00  0.00    -0.198 C  
HETATM    7  C   UNL     1     -10.554  11.227  66.164  1.00  0.00    -0.258 C  
HETATM    8  C   UNL     1     -11.689  11.332  65.116  1.00  0.00     0.454 C  
ENDROOT
BRANCH   6   9
HETATM    9  O   UNL     1      -8.238  10.648  66.520  1.00  0.00    -0.128 OA 
BRANCH   9  10
HETATM   10  C   UNL     1      -7.532   9.466  66.919  1.00  0.00    -0.091 C  
HETATM   11  H   UNL     1      -7.259   5.228  68.957  1.00  0.00     0.000 HD 
HETATM   12  C   UNL     1      -7.915   9.123  68.384  1.00  0.00    -0.103 C  
HETATM   13  C   UNL     1      -7.825   8.263  66.009  1.00  0.00    -0.095 C  
HETATM   14  C   UNL     1      -7.318   7.764  68.801  1.00  0.00    -0.087 C  
HETATM   15  O   UNL     1      -6.947   5.492  68.099  1.00  0.00    -0.062 OA 
HETATM   16  O   UNL     1      -7.170   7.084  66.471  1.00  0.00    -0.078 OA 
HETATM   17  C   UNL     1      -7.635   6.689  67.752  1.00  0.00    -0.106 C  
BRANCH  14  18
HETATM   18  O   UNL     1      -7.583   7.378  70.146  1.00  0.00    -0.085 OA 
HETATM   19  S   UNL     1      -9.072   7.130  70.738  1.00  0.00    -0.153 S  
HETATM   20  O   UNL     1      -9.874   8.297  70.455  1.00  0.00    -0.184 OA 
HETATM   21  O   UNL     1      -9.649   5.914  69.862  1.00  0.00    -0.152 OA 
HETATM   22  O   UNL     1      -8.917   6.614  72.078  1.00  0.00    -0.139 OA 
ENDBRANCH  14  18
BRANCH  12  23
HETATM   23  O   UNL     1      -7.603  10.178  69.306  1.00  0.00    -0.093 OA 
HETATM   24  S   UNL     1      -6.091  10.731  69.510  1.00  0.00    -0.067 S  
HETATM   25  O   UNL     1      -5.324   9.704  70.177  1.00  0.00    -0.031 OA 
HETATM   26  O   UNL     1      -6.307  11.895  70.600  1.00  0.00    -0.199 OA 
HETATM   27  O   UNL     1      -5.627  11.348  68.294  1.00  0.00    -0.046 OA 
ENDBRANCH  12  23
ENDBRANCH   9  10
ENDBRANCH   6   9
BRANCH   7  28
HETATM   28  O   UNL     1     -11.101  10.597  67.336  1.00  0.00    -0.302 OA 
HETATM   29  O   UNL     1     -10.038  11.461  69.415  1.00  0.00    -0.021 OA 
HETATM   30  O   UNL     1     -12.287  10.543  69.537  1.00  0.00    -0.191 OA 
HETATM   31  S   UNL     1     -11.290  11.481  68.694  1.00  0.00    -0.300 S  
HETATM   32  O   UNL     1     -11.997  12.696  68.370  1.00  0.00    -0.317 OA 
ENDBRANCH   7  28
BRANCH   8  33
HETATM   33  O   UNL     1     -12.546  12.406  65.542  1.00  0.00    -0.616 OA 
HETATM   34  S   UNL     1     -12.324  13.915  64.982  1.00  0.00    -0.425 S  
HETATM   35  O   UNL     1     -11.301  14.562  65.767  1.00  0.00    -0.328 OA 
HETATM   36  O   UNL     1     -12.304  13.873  63.537  1.00  0.00    -0.739 OA 
HETATM   37  O   UNL     1     -13.680  14.637  65.454  1.00  0.00     0.002 OA 
ENDBRANCH   8  33
TORSDOF 6
ENDMDL
MODEL      145
REMARK 921   NORMALIZED FREE ENERGY PREDICTED BY IDOCK:   -3.01 KCAL/MOL
REMARK 922        TOTAL FREE ENERGY PREDICTED BY IDOCK:   -6.17 KCAL/MOL
REMARK 923 INTER-LIGAND FREE ENERGY PREDICTED BY IDOCK:   -7.35 KCAL/MOL
REMARK 924 INTRA-LIGAND FREE ENERGY PREDICTED BY IDOCK:    1.18 KCAL/MOL
REMARK 927      BINDING AFFINITY PREDICTED BY RF-SCORE:    0.00 PKD
ROOT
HETATM    1  O   UNL     1     -12.380  14.939  68.884  1.00  0.00    -0.570 OA 
HETATM    2  H   UNL     1     -12.206  15.525  68.158  1.00  0.00     0.000 HD 
HETATM    3  C   UNL     1     -12.033  13.614  68.489  1.00  0.00    -0.361 C  
HETATM    4  C   UNL     1     -12.311  12.676  69.651  1.00  0.00     0.015 C  
HETATM    5  O   UNL     1     -11.991  11.346  69.305  1.00  0.00    -0.316 OA 
HETATM    6  C   UNL     1     -10.620  11.145  69.023  1.00  0.00    -0.218 C  
HETATM    7  C   UNL     1     -10.114  12.046  67.870  1.00  0.00    -0.195 C  
HETATM    8  C   UNL     1     -10.568  13.518  68.033  1.00  0.00    -0.239 C  
ENDROOT
BRANCH   6   9
HETATM    9  O   UNL     1     -10.440   9.780  68.634  1.00  0.00    -0.194 OA 
BRANCH   9  10
HETATM   10  C   UNL     1     -10.712   8.818  69.662  1.00  0.00    -0.208 C  
HETATM   11  H   UNL     1     -10.118   6.997  73.966  1.00  0.00     0.000 HD 
HETATM   12  C   UNL     1      -9.366   8.365  70.293  1.00  0.00    -0.164 C  
HETATM   13  C   UNL     1     -11.641   9.365  70.757  1.00  0.00    -0.298 C  
HETATM   14  C   UNL     1      -9.614   7.465  71.519  1.00  0.00    -0.151 C  
HETATM   15  O   UNL     1     -10.931   7.197  73.515  1.00  0.00    -0.328 OA 
HETATM   16  O   UNL     1     -11.834   8.416  71.803  1.00  0.00    -0.280 OA 
HETATM   17  C   UNL     1     -10.620   8.118  72.476  1.00  0.00    -0.340 C  
BRANCH  14  18
HETATM   18  O   UNL     1      -8.436   6.965  72.146  1.00  0.00    -0.113 OA 
HETATM   19  S   UNL     1      -7.374   7.895  72.942  1.00  0.00    -0.112 S  
HETATM   20  O   UNL     1      -6.977   8.978  72.075  1.00  0.00    -0.292 OA 
HETATM   21  O   UNL     1      -8.224   8.520  74.153  1.00  0.00    -0.334 OA 
HETATM   22  O   UNL     1      -6.409   7.010  73.553  1.00  0.00    -0.065 OA 
ENDBRANCH  14  18
BRANCH  12  23
HETATM   23  O   UNL     1      -8.470   7.776  69.338  1.00  0.00    -0.131 OA 
HETATM   24  S   UNL     1      -8.870   6.466  68.469  1.00  0.00    -0.118 S  
HETATM   25  O   UNL     1      -8.917   5.332  69.364  1.00  0.00    -0.098 OA 
HETATM   26  O   UNL     1      -7.558   6.256  67.562  1.00  0.00    -0.093 OA 
HETATM   27  O   UNL     1      -9.967   6.777  67.589  1.00  0.00    -0.126 OA 
ENDBRANCH  12  23
ENDBRANCH   9  10
ENDBRANCH   6   9
BRANCH   7  28
HETATM   28  O   UNL     1      -8.676  12.037  67.824  1.00  0.00    -0.147 OA 
HETATM   29  O   UNL     1      -7.801   9.815  67.121  1.00  0.00    -0.098 OA 
HETATM   30  O   UNL     1      -6.444  11.792  66.722  1.00  0.00    -0.137 OA 
HETATM   31  S   UNL     1      -7.928  11.177  66.657  1.00  0.00    -0.157 S  
HETATM   32  O   UNL     1      -8.495  11.527  65.377  1.00  0.00     0.108 OA 
ENDBRANCH   7  28
BRANCH   8  33
HETATM   33  O   UNL     1     -10.403  14.145  66.749  1.00  0.00    -0.269 OA 
HETATM   34  S   UNL     1     -11.491  13.907  65.565  1.00  0.00    -0.325 S  
HETATM   35  O   UNL     1     -11.183  12.674  64.885  1.00  0.00    -0.283 OA 
HETATM   36  O   UNL     1     -12.806  14.221  66.078  1.00  0.00    -0.379 OA 
HETATM   37  O   UNL     1     -11.070  15.042  64.509  1.00  0.00    -0.328 OA 
ENDBRANCH   8  33
TORSDOF 6
ENDMDL
MODEL      146
REMARK 921   NORMALIZED FREE ENERGY PREDICTED BY IDOCK:   -2.98 KCAL/MOL
REMARK 922        TOTAL FREE ENERGY PREDICTED BY IDOCK:   -6.12 KCAL/MOL
REMARK 923 INTER-LIGAND FREE ENERGY PREDICTED BY IDOCK:   -5.68 KCAL/MOL
REMARK 924 INTRA-LIGAND FREE ENERGY PREDICTED BY IDOCK:   -0.44 KCAL/MOL
REMARK 927      BINDING AFFINITY PREDICTED BY RF-SCORE:    0.00 PKD
ROOT
HETATM    1  O   UNL     1      -9.174   5.160  63.996  1.00  0.00    -0.355 OA 
HETATM    2  H   UNL     1      -8.715   5.621  63.304  1.00  0.00     0.000 HD 
HETATM    3  C   UNL     1      -8.480   5.378  65.222  1.00  0.00    -0.149 C  
HETATM    4  C   UNL     1      -9.213   4.640  66.328  1.00  0.00    -0.135 C  
HETATM    5  O   UNL     1      -8.558   4.819  67.565  1.00  0.00    -0.104 OA 
HETATM    6  C   UNL     1      -8.532   6.162  68.007  1.00  0.00    -0.116 C  
HETATM    7  C   UNL     1      -7.845   7.106  66.992  1.00  0.00    -0.108 C  
HETATM    8  C   UNL     1      -8.344   6.875  65.543  1.00  0.00    -0.137 C  
ENDROOT
BRANCH   6   9
HETATM    9  O   UNL     1      -7.795   6.213  69.233  1.00  0.00    -0.100 OA 
BRANCH   9  10
HETATM   10  C   UNL     1      -8.584   6.048  70.419  1.00  0.00    -0.133 C  
HETATM   11  H   UNL     1     -12.502   6.637  72.967  1.00  0.00     0.000 HD 
HETATM   12  C   UNL     1      -9.267   7.401  70.758  1.00  0.00    -0.159 C  
HETATM   13  C   UNL     1      -9.649   4.950  70.277  1.00  0.00    -0.195 C  
HETATM   14  C   UNL     1     -10.263   7.233  71.923  1.00  0.00    -0.187 C  
HETATM   15  O   UNL     1     -12.008   5.839  72.818  1.00  0.00    -0.199 OA 
HETATM   16  O   UNL     1     -10.467   4.859  71.441  1.00  0.00    -0.182 OA 
HETATM   17  C   UNL     1     -11.205   6.050  71.662  1.00  0.00    -0.268 C  
BRANCH  14  18
HETATM   18  O   UNL     1     -10.914   8.432  72.335  1.00  0.00    -0.339 OA 
HETATM   19  S   UNL     1     -11.950   9.262  71.405  1.00  0.00    -0.376 S  
HETATM   20  O   UNL     1     -11.310   9.529  70.138  1.00  0.00    -0.239 OA 
HETATM   21  O   UNL     1     -13.155   8.235  71.140  1.00  0.00    -0.179 OA 
HETATM   22  O   UNL     1     -12.502  10.318  72.222  1.00  0.00    -0.128 OA 
ENDBRANCH  14  18
BRANCH  12  23
HETATM   23  O   UNL     1      -8.326   8.464  70.976  1.00  0.00    -0.112 OA 
HETATM   24  S   UNL     1      -7.258   8.439  72.197  1.00  0.00    -0.074 S  
HETATM   25  O   UNL     1      -7.986   8.615  73.432  1.00  0.00    -0.405 OA 
HETATM   26  O   UNL     1      -6.452   9.812  71.962  1.00  0.00    -0.235 OA 
HETATM   27  O   UNL     1      -6.332   7.350  72.016  1.00  0.00    -0.043 OA 
ENDBRANCH  12  23
ENDBRANCH   9  10
ENDBRANCH   6   9
BRANCH   7  28
HETATM   28  O   UNL     1      -8.110   8.479  67.328  1.00  0.00    -0.104 OA 
HETATM   29  O   UNL     1      -6.389   9.384  68.883  1.00  0.00    -0.043 OA 
HETATM   30  O   UNL     1      -7.599  10.925  67.444  1.00  0.00    -0.095 OA 
HETATM   31  S   UNL     1      -6.854   9.503  67.521  1.00  0.00    -0.083 S  
HETATM   32  O   UNL     1      -5.982   9.400  66.376  1.00  0.00    -0.057 OA 
ENDBRANCH   7  28
BRANCH   8  33
HETATM   33  O   UNL     1      -7.379   7.487  64.671  1.00  0.00    -0.068 OA 
HETATM   34  S   UNL     1      -7.835   8.613  63.591  1.00  0.00    -0.155 S  
HETATM   35  O   UNL     1      -8.329   7.954  62.407  1.00  0.00    -0.162 OA 
HETATM   36  O   UNL     1      -8.567   9.648  64.286  1.00  0.00    -0.164 OA 
HETATM   37  O   UNL     1      -6.416   9.211  63.131  1.00  0.00    -0.090 OA 
ENDBRANCH   8  33
TORSDOF 6
ENDMDL
MODEL      147
REMARK 921   NORMALIZED FREE ENERGY PREDICTED BY IDOCK:   -2.97 KCAL/MOL
REMARK 922        TOTAL FREE ENERGY PREDICTED BY IDOCK:   -6.11 KCAL/MOL
REMARK 923 INTER-LIGAND FREE ENERGY PREDICTED BY IDOCK:   -8.30 KCAL/MOL
REMARK 924 INTRA-LIGAND FREE ENERGY PREDICTED BY IDOCK:    2.19 KCAL/MOL
REMARK 927      BINDING AFFINITY PREDICTED BY RF-SCORE:    0.00 PKD
ROOT
HETATM    1  O   UNL     1      -7.354  14.726  67.929  1.00  0.00    -0.120 OA 
HETATM    2  H   UNL     1      -7.729  15.592  68.036  1.00  0.00     0.000 HD 
HETATM    3  C   UNL     1      -8.414  13.794  67.733  1.00  0.00    -0.181 C  
HETATM    4  C   UNL     1      -7.814  12.410  67.561  1.00  0.00    -0.169 C  
HETATM    5  O   UNL     1      -8.828  11.447  67.372  1.00  0.00    -0.146 OA 
HETATM    6  C   UNL     1      -9.584  11.640  66.193  1.00  0.00    -0.232 C  
HETATM    7  C   UNL     1     -10.266  13.029  66.148  1.00  0.00    -0.284 C  
HETATM    8  C   UNL     1      -9.294  14.173  66.530  1.00  0.00    -0.265 C  
ENDROOT
BRANCH   6   9
HETATM    9  O   UNL     1     -10.606  10.640  66.150  1.00  0.00    -0.219 OA 
BRANCH   9  10
HETATM   10  C   UNL     1     -10.949  10.072  67.422  1.00  0.00    -0.191 C  
HETATM   11  H   UNL     1     -10.072   9.057  71.937  1.00  0.00     0.000 HD 
HETATM   12  C   UNL     1      -9.724   9.289  67.968  1.00  0.00    -0.150 C  
HETATM   13  C   UNL     1     -11.389  11.130  68.446  1.00  0.00    -0.288 C  
HETATM   14  C   UNL     1      -9.983   8.808  69.410  1.00  0.00    -0.196 C  
HETATM   15  O   UNL     1     -10.851   9.449  71.560  1.00  0.00    -0.348 OA 
HETATM   16  O   UNL     1     -11.651  10.549  69.721  1.00  0.00    -0.260 OA 
HETATM   17  C   UNL     1     -10.488   9.963  70.284  1.00  0.00    -0.291 C  
BRANCH  14  18
HETATM   18  O   UNL     1      -8.927   8.044  69.987  1.00  0.00    -0.142 OA 
HETATM   19  S   UNL     1      -7.409   8.584  70.155  1.00  0.00    -0.054 S  
HETATM   20  O   UNL     1      -6.949   9.058  68.871  1.00  0.00    -0.063 OA 
HETATM   21  O   UNL     1      -7.547   9.855  71.127  1.00  0.00    -0.197 OA 
HETATM   22  O   UNL     1      -6.684   7.587  70.908  1.00  0.00    -0.043 OA 
ENDBRANCH  14  18
BRANCH  12  23
HETATM   23  O   UNL     1      -9.299   8.233  67.093  1.00  0.00    -0.141 OA 
HETATM   24  S   UNL     1     -10.003   6.772  67.094  1.00  0.00    -0.185 S  
HETATM   25  O   UNL     1      -9.653   6.107  68.328  1.00  0.00    -0.120 OA 
HETATM   26  O   UNL     1      -9.185   6.009  65.937  1.00  0.00    -0.146 OA 
HETATM   27  O   UNL     1     -11.372   6.886  66.662  1.00  0.00    -0.033 OA 
ENDBRANCH  12  23
ENDBRANCH   9  10
ENDBRANCH   6   9
BRANCH   7  28
HETATM   28  O   UNL     1     -10.759  13.301  64.825  1.00  0.00    -0.333 OA 
HETATM   29  O   UNL     1     -12.881  12.080  64.374  1.00  0.00    -0.506 OA 
HETATM   30  O   UNL     1     -12.421  14.130  63.149  1.00  0.00    -0.678 OA 
HETATM   31  S   UNL     1     -12.369  13.414  64.588  1.00  0.00    -0.363 S  
HETATM   32  O   UNL     1     -12.924  14.329  65.555  1.00  0.00    -0.607 OA 
ENDBRANCH   7  28
BRANCH   8  33
HETATM   33  O   UNL     1     -10.107  15.316  66.847  1.00  0.00    -0.249 OA 
HETATM   34  S   UNL     1     -10.673  15.538  68.355  1.00  0.00    -0.275 S  
HETATM   35  O   UNL     1     -11.880  14.766  68.521  1.00  0.00    -0.329 OA 
HETATM   36  O   UNL     1      -9.562  15.478  69.278  1.00  0.00    -0.231 OA 
HETATM   37  O   UNL     1     -11.197  17.055  68.283  1.00  0.00    -0.267 OA 
ENDBRANCH   8  33
TORSDOF 6
ENDMDL
MODEL      148
REMARK 921   NORMALIZED FREE ENERGY PREDICTED BY IDOCK:   -2.89 KCAL/MOL
REMARK 922        TOTAL FREE ENERGY PREDICTED BY IDOCK:   -6.01 KCAL/MOL
REMARK 923 INTER-LIGAND FREE ENERGY PREDICTED BY IDOCK:   -7.89 KCAL/MOL
REMARK 924 INTRA-LIGAND FREE ENERGY PREDICTED BY IDOCK:    1.88 KCAL/MOL
REMARK 927      BINDING AFFINITY PREDICTED BY RF-SCORE:    0.00 PKD
ROOT
HETATM    1  O   UNL     1     -10.817  16.949  65.163  1.00  0.00    -0.602 OA 
HETATM    2  H   UNL     1     -10.113  17.566  65.317  1.00  0.00     0.000 HD 
HETATM    3  C   UNL     1     -10.512  15.734  65.843  1.00  0.00    -0.352 C  
HETATM    4  C   UNL     1     -11.640  14.748  65.596  1.00  0.00    -0.290 C  
HETATM    5  O   UNL     1     -11.379  13.521  66.243  1.00  0.00    -0.299 OA 
HETATM    6  C   UNL     1     -11.315  13.623  67.652  1.00  0.00    -0.300 C  
HETATM    7  C   UNL     1     -10.232  14.622  68.125  1.00  0.00    -0.231 C  
HETATM    8  C   UNL     1     -10.288  15.961  67.346  1.00  0.00    -0.288 C  
ENDROOT
BRANCH   6   9
HETATM    9  O   UNL     1     -10.991  12.332  68.178  1.00  0.00    -0.208 OA 
BRANCH   9  10
HETATM   10  C   UNL     1      -9.756  11.780  67.704  1.00  0.00    -0.182 C  
HETATM   11  H   UNL     1      -7.177   8.406  65.665  1.00  0.00     0.000 HD 
HETATM   12  C   UNL     1      -9.669  10.294  68.146  1.00  0.00    -0.143 C  
HETATM   13  C   UNL     1      -9.608  11.877  66.178  1.00  0.00    -0.234 C  
HETATM   14  C   UNL     1      -8.442   9.607  67.513  1.00  0.00    -0.125 C  
HETATM   15  O   UNL     1      -7.183   9.339  65.481  1.00  0.00    -0.084 OA 
HETATM   16  O   UNL     1      -8.408  11.255  65.726  1.00  0.00    -0.106 OA 
HETATM   17  C   UNL     1      -8.399   9.863  66.001  1.00  0.00    -0.122 C  
BRANCH  14  18
HETATM   18  O   UNL     1      -8.254   8.246  67.891  1.00  0.00    -0.125 OA 
HETATM   19  S   UNL     1      -9.048   7.003  67.217  1.00  0.00    -0.128 S  
HETATM   20  O   UNL     1     -10.463   7.279  67.281  1.00  0.00    -0.245 OA 
HETATM   21  O   UNL     1      -8.608   7.044  65.673  1.00  0.00    -0.151 OA 
HETATM   22  O   UNL     1      -8.478   5.791  67.759  1.00  0.00    -0.104 OA 
ENDBRANCH  14  18
BRANCH  12  23
HETATM   23  O   UNL     1      -9.729  10.129  69.572  1.00  0.00    -0.216 OA 
HETATM   24  S   UNL     1     -10.949   9.350  70.303  1.00  0.00    -0.276 S  
HETATM   25  O   UNL     1     -12.136  10.167  70.187  1.00  0.00    -0.230 OA 
HETATM   26  O   UNL     1     -10.513   9.428  71.850  1.00  0.00    -0.217 OA 
HETATM   27  O   UNL     1     -10.949   7.963  69.915  1.00  0.00    -0.243 OA 
ENDBRANCH  12  23
ENDBRANCH   9  10
ENDBRANCH   6   9
BRANCH   7  28
HETATM   28  O   UNL     1     -10.406  14.925  69.521  1.00  0.00    -0.211 OA 
HETATM   29  O   UNL     1     -12.331  16.462  69.886  1.00  0.00     0.119 OA 
HETATM   30  O   UNL     1     -11.648  14.983  71.691  1.00  0.00    -0.359 OA 
HETATM   31  S   UNL     1     -11.918  15.095  70.110  1.00  0.00    -0.360 S  
HETATM   32  O   UNL     1     -12.709  13.955  69.716  1.00  0.00    -0.178 OA 
ENDBRANCH   7  28
BRANCH   8  33
HETATM   33  O   UNL     1      -9.030  16.620  67.570  1.00  0.00    -0.199 OA 
HETATM   34  S   UNL     1      -8.976  18.209  67.908  1.00  0.00    -0.274 S  
HETATM   35  O   UNL     1      -9.027  18.954  66.674  1.00  0.00    -0.302 OA 
HETATM   36  O   UNL     1      -9.852  18.472  69.028  1.00  0.00    -0.358 OA 
HETATM   37  O   UNL     1      -7.455  18.383  68.396  1.00  0.00    -0.266 OA 
ENDBRANCH   8  33
TORSDOF 6
ENDMDL
MODEL      149
REMARK 921   NORMALIZED FREE ENERGY PREDICTED BY IDOCK:   -2.87 KCAL/MOL
REMARK 922        TOTAL FREE ENERGY PREDICTED BY IDOCK:   -5.98 KCAL/MOL
REMARK 923 INTER-LIGAND FREE ENERGY PREDICTED BY IDOCK:   -7.50 KCAL/MOL
REMARK 924 INTRA-LIGAND FREE ENERGY PREDICTED BY IDOCK:    1.51 KCAL/MOL
REMARK 927      BINDING AFFINITY PREDICTED BY RF-SCORE:    0.00 PKD
ROOT
HETATM    1  O   UNL     1      -7.782  13.862  67.753  1.00  0.00    -0.139 OA 
HETATM    2  H   UNL     1      -8.100  14.708  68.043  1.00  0.00     0.000 HD 
HETATM    3  C   UNL     1      -8.756  12.875  68.083  1.00  0.00    -0.190 C  
HETATM    4  C   UNL     1      -8.247  11.522  67.619  1.00  0.00    -0.131 C  
HETATM    5  O   UNL     1      -9.176  10.506  67.932  1.00  0.00    -0.138 OA 
HETATM    6  C   UNL     1     -10.419  10.649  67.274  1.00  0.00    -0.246 C  
HETATM    7  C   UNL     1     -11.104  12.000  67.589  1.00  0.00    -0.264 C  
HETATM    8  C   UNL     1     -10.127  13.197  67.467  1.00  0.00    -0.222 C  
ENDROOT
BRANCH   6   9
HETATM    9  O   UNL     1     -11.282   9.597  67.719  1.00  0.00    -0.142 OA 
BRANCH   9  10
HETATM   10  C   UNL     1     -11.049   9.153  69.062  1.00  0.00     0.093 C  
HETATM   11  H   UNL     1      -8.267   8.169  72.734  1.00  0.00     0.000 HD 
HETATM   12  C   UNL     1      -9.840   8.178  69.066  1.00  0.00    -0.176 C  
HETATM   13  C   UNL     1     -10.784  10.313  70.034  1.00  0.00    -0.292 C  
HETATM   14  C   UNL     1      -9.441   7.809  70.509  1.00  0.00    -0.163 C  
HETATM   15  O   UNL     1      -9.066   8.684  72.719  1.00  0.00    -0.327 OA 
HETATM   16  O   UNL     1     -10.483   9.841  71.345  1.00  0.00    -0.188 OA 
HETATM   17  C   UNL     1      -9.291   9.072  71.368  1.00  0.00    -0.240 C  
BRANCH  14  18
HETATM   18  O   UNL     1      -8.362   6.885  70.617  1.00  0.00    -0.125 OA 
HETATM   19  S   UNL     1      -8.353   5.621  71.632  1.00  0.00    -0.124 S  
HETATM   20  O   UNL     1      -8.646   6.103  72.961  1.00  0.00    -0.119 OA 
HETATM   21  O   UNL     1      -9.593   4.720  71.152  1.00  0.00    -0.151 OA 
HETATM   22  O   UNL     1      -7.167   4.850  71.340  1.00  0.00    -0.057 OA 
ENDBRANCH  14  18
BRANCH  12  23
HETATM   23  O   UNL     1     -10.046   7.028  68.231  1.00  0.00    -0.155 OA 
HETATM   24  S   UNL     1      -9.122   6.723  66.933  1.00  0.00    -0.142 S  
HETATM   25  O   UNL     1      -9.428   7.710  65.923  1.00  0.00    -0.035 OA 
HETATM   26  O   UNL     1      -9.746   5.340  66.398  1.00  0.00    -0.148 OA 
HETATM   27  O   UNL     1      -7.766   6.463  67.346  1.00  0.00    -0.101 OA 
ENDBRANCH  12  23
ENDBRANCH   9  10
ENDBRANCH   6   9
BRANCH   7  28
HETATM   28  O   UNL     1     -12.192  12.234  66.677  1.00  0.00    -0.574 OA 
HETATM   29  O   UNL     1     -11.540  13.815  64.868  1.00  0.00    -0.327 OA 
HETATM   30  O   UNL     1     -13.325  12.219  64.448  1.00  0.00    -0.786 OA 
HETATM   31  S   UNL     1     -11.866  12.425  65.090  1.00  0.00    -0.373 S  
HETATM   32  O   UNL     1     -11.031  11.336  64.646  1.00  0.00    -0.294 OA 
ENDBRANCH   7  28
BRANCH   8  33
HETATM   33  O   UNL     1     -10.738  14.300  68.158  1.00  0.00    -0.236 OA 
HETATM   34  S   UNL     1     -10.105  15.793  68.058  1.00  0.00    -0.231 S  
HETATM   35  O   UNL     1      -9.039  15.918  69.021  1.00  0.00    -0.210 OA 
HETATM   36  O   UNL     1      -9.954  16.137  66.661  1.00  0.00    -0.241 OA 
HETATM   37  O   UNL     1     -11.287  16.687  68.678  1.00  0.00    -0.304 OA 
ENDBRANCH   8  33
TORSDOF 6
ENDMDL
MODEL      150
REMARK 921   NORMALIZED FREE ENERGY PREDICTED BY IDOCK:   -2.87 KCAL/MOL
REMARK 922        TOTAL FREE ENERGY PREDICTED BY IDOCK:   -5.98 KCAL/MOL
REMARK 923 INTER-LIGAND FREE ENERGY PREDICTED BY IDOCK:   -5.13 KCAL/MOL
REMARK 924 INTRA-LIGAND FREE ENERGY PREDICTED BY IDOCK:   -0.85 KCAL/MOL
REMARK 927      BINDING AFFINITY PREDICTED BY RF-SCORE:    0.00 PKD
ROOT
HETATM    1  O   UNL     1      -8.438   4.309  63.346  1.00  0.00    -0.094 OA 
HETATM    2  H   UNL     1      -7.734   4.847  63.004  1.00  0.00     0.000 HD 
HETATM    3  C   UNL     1      -8.607   4.611  64.729  1.00  0.00    -0.142 C  
HETATM    4  C   UNL     1      -9.732   3.750  65.275  1.00  0.00    -0.167 C  
HETATM    5  O   UNL     1      -9.933   4.006  66.649  1.00  0.00    -0.199 OA 
HETATM    6  C   UNL     1     -10.347   5.330  66.927  1.00  0.00    -0.255 C  
HETATM    7  C   UNL     1      -9.340   6.386  66.413  1.00  0.00    -0.147 C  
HETATM    8  C   UNL     1      -8.884   6.105  64.959  1.00  0.00     0.157 C  
ENDROOT
BRANCH   6   9
HETATM    9  O   UNL     1     -10.459   5.473  68.346  1.00  0.00    -0.189 OA 
BRANCH   9  10
HETATM   10  C   UNL     1      -9.211   5.597  69.040  1.00  0.00    -0.122 C  
HETATM   11  H   UNL     1      -6.410   4.990  72.779  1.00  0.00     0.000 HD 
HETATM   12  C   UNL     1      -9.488   6.087  70.488  1.00  0.00    -0.168 C  
HETATM   13  C   UNL     1      -8.418   4.281  69.080  1.00  0.00    -0.082 C  
HETATM   14  C   UNL     1      -8.195   6.069  71.328  1.00  0.00    -0.123 C  
HETATM   15  O   UNL     1      -6.231   4.788  71.868  1.00  0.00    -0.020 OA 
HETATM   16  O   UNL     1      -7.219   4.413  69.839  1.00  0.00    -0.048 OA 
HETATM   17  C   UNL     1      -7.485   4.714  71.199  1.00  0.00    -0.068 C  
BRANCH  14  18
HETATM   18  O   UNL     1      -8.340   6.539  72.665  1.00  0.00    -0.117 OA 
HETATM   19  S   UNL     1      -7.650   7.895  73.225  1.00  0.00    -0.141 S  
HETATM   20  O   UNL     1      -6.236   7.838  72.936  1.00  0.00    -0.057 OA 
HETATM   21  O   UNL     1      -8.289   9.064  72.328  1.00  0.00    -0.354 OA 
HETATM   22  O   UNL     1      -8.151   8.104  74.564  1.00  0.00    -0.243 OA 
ENDBRANCH  14  18
BRANCH  12  23
HETATM   23  O   UNL     1     -10.166   7.352  70.531  1.00  0.00    -0.192 OA 
HETATM   24  S   UNL     1     -11.549   7.566  71.350  1.00  0.00    -0.286 S  
HETATM   25  O   UNL     1     -12.595   6.848  70.659  1.00  0.00    -0.278 OA 
HETATM   26  O   UNL     1     -11.847   9.127  71.097  1.00  0.00    -0.281 OA 
HETATM   27  O   UNL     1     -11.317   7.386  72.760  1.00  0.00    -0.321 OA 
ENDBRANCH  12  23
ENDBRANCH   9  10
ENDBRANCH   6   9
BRANCH   7  28
HETATM   28  O   UNL     1      -9.933   7.696  66.437  1.00  0.00    -0.182 OA 
HETATM   29  O   UNL     1      -9.300   8.944  68.496  1.00  0.00    -0.140 OA 
HETATM   30  O   UNL     1      -9.908  10.196  66.502  1.00  0.00    -0.193 OA 
HETATM   31  S   UNL     1      -9.083   8.938  67.067  1.00  0.00    -0.138 S  
HETATM   32  O   UNL     1      -7.772   8.964  66.467  1.00  0.00    -0.097 OA 
ENDBRANCH   7  28
BRANCH   8  33
HETATM   33  O   UNL     1      -7.688   6.874  64.745  1.00  0.00    -0.100 OA 
HETATM   34  S   UNL     1      -7.287   7.384  63.256  1.00  0.00    -0.093 S  
HETATM   35  O   UNL     1      -6.600   6.322  62.564  1.00  0.00    -0.033 OA 
HETATM   36  O   UNL     1      -8.412   8.098  62.694  1.00  0.00    -0.143 OA 
HETATM   37  O   UNL     1      -6.122   8.442  63.581  1.00  0.00    -0.071 OA 
ENDBRANCH   8  33
TORSDOF 6
ENDMDL
MODEL      151
REMARK 921   NORMALIZED FREE ENERGY PREDICTED BY IDOCK:   -2.85 KCAL/MOL
REMARK 922        TOTAL FREE ENERGY PREDICTED BY IDOCK:   -5.95 KCAL/MOL
REMARK 923 INTER-LIGAND FREE ENERGY PREDICTED BY IDOCK:   -6.65 KCAL/MOL
REMARK 924 INTRA-LIGAND FREE ENERGY PREDICTED BY IDOCK:    0.71 KCAL/MOL
REMARK 927      BINDING AFFINITY PREDICTED BY RF-SCORE:    0.00 PKD
ROOT
HETATM    1  O   UNL     1     -10.823   5.845  68.620  1.00  0.00    -0.273 OA 
HETATM    2  H   UNL     1     -10.494   5.213  67.993  1.00  0.00     0.000 HD 
HETATM    3  C   UNL     1     -10.127   7.074  68.433  1.00  0.00    -0.164 C  
HETATM    4  C   UNL     1     -10.654   8.084  69.437  1.00  0.00    -0.205 C  
HETATM    5  O   UNL     1      -9.986   9.320  69.298  1.00  0.00    -0.169 OA 
HETATM    6  C   UNL     1     -10.195   9.942  68.045  1.00  0.00    -0.182 C  
HETATM    7  C   UNL     1      -9.748   9.051  66.861  1.00  0.00    -0.200 C  
HETATM    8  C   UNL     1     -10.262   7.596  66.993  1.00  0.00    -0.300 C  
ENDROOT
BRANCH   6   9
HETATM    9  O   UNL     1      -9.424  11.147  68.012  1.00  0.00    -0.163 OA 
BRANCH   9  10
HETATM   10  C   UNL     1      -9.978  12.238  68.760  1.00  0.00    -0.034 C  
HETATM   11  H   UNL     1     -12.766  16.003  69.249  1.00  0.00     0.000 HD 
HETATM   12  C   UNL     1      -9.970  13.511  67.870  1.00  0.00    -0.245 C  
HETATM   13  C   UNL     1     -11.406  11.957  69.253  1.00  0.00    -0.277 C  
HETATM   14  C   UNL     1     -10.715  14.668  68.566  1.00  0.00    -0.247 C  
HETATM   15  O   UNL     1     -12.679  15.253  69.826  1.00  0.00    -0.170 OA 
HETATM   16  O   UNL     1     -11.959  13.084  69.928  1.00  0.00    -0.320 OA 
HETATM   17  C   UNL     1     -12.089  14.204  69.067  1.00  0.00    -0.313 C  
BRANCH  14  18
HETATM   18  O   UNL     1     -10.729  15.895  67.843  1.00  0.00    -0.294 OA 
HETATM   19  S   UNL     1     -10.035  17.262  68.369  1.00  0.00    -0.342 S  
HETATM   20  O   UNL     1     -10.524  17.537  69.699  1.00  0.00    -0.129 OA 
HETATM   21  O   UNL     1      -8.476  16.895  68.484  1.00  0.00    -0.238 OA 
HETATM   22  O   UNL     1     -10.136  18.229  67.300  1.00  0.00    -0.323 OA 
ENDBRANCH  14  18
BRANCH  12  23
HETATM   23  O   UNL     1      -8.654  13.877  67.428  1.00  0.00    -0.178 OA 
HETATM   24  S   UNL     1      -7.328  13.569  68.310  1.00  0.00    -0.130 S  
HETATM   25  O   UNL     1      -7.351  14.429  69.471  1.00  0.00    -0.107 OA 
HETATM   26  O   UNL     1      -6.159  14.142  67.363  1.00  0.00    -0.343 OA 
HETATM   27  O   UNL     1      -7.138  12.146  68.430  1.00  0.00    -0.076 OA 
ENDBRANCH  12  23
ENDBRANCH   9  10
ENDBRANCH   6   9
BRANCH   7  28
HETATM   28  O   UNL     1     -10.253   9.578  65.621  1.00  0.00    -0.228 OA 
HETATM   29  O   UNL     1      -9.062  11.665  64.967  1.00  0.00    -0.040 OA 
HETATM   30  O   UNL     1     -10.092  10.306  63.233  1.00  0.00    -0.083 OA 
HETATM   31  S   UNL     1      -9.213  10.281  64.579  1.00  0.00    -0.275 S  
HETATM   32  O   UNL     1      -8.096   9.395  64.359  1.00  0.00    -0.123 OA 
ENDBRANCH   7  28
BRANCH   8  33
HETATM   33  O   UNL     1      -9.473   6.796  66.097  1.00  0.00    -0.121 OA 
HETATM   34  S   UNL     1      -7.985   6.299  66.521  1.00  0.00    -0.111 S  
HETATM   35  O   UNL     1      -7.041   7.353  66.243  1.00  0.00    -0.067 OA 
HETATM   36  O   UNL     1      -8.070   5.629  67.800  1.00  0.00    -0.101 OA 
HETATM   37  O   UNL     1      -7.676   5.201  65.389  1.00  0.00    -0.084 OA 
ENDBRANCH   8  33
TORSDOF 6
ENDMDL
MODEL      152
REMARK 921   NORMALIZED FREE ENERGY PREDICTED BY IDOCK:   -2.82 KCAL/MOL
REMARK 922        TOTAL FREE ENERGY PREDICTED BY IDOCK:   -5.91 KCAL/MOL
REMARK 923 INTER-LIGAND FREE ENERGY PREDICTED BY IDOCK:   -6.36 KCAL/MOL
REMARK 924 INTRA-LIGAND FREE ENERGY PREDICTED BY IDOCK:    0.45 KCAL/MOL
REMARK 927      BINDING AFFINITY PREDICTED BY RF-SCORE:    0.00 PKD
ROOT
HETATM    1  O   UNL     1     -10.013   5.545  67.402  1.00  0.00    -0.138 OA 
HETATM    2  H   UNL     1     -10.208   4.876  68.047  1.00  0.00     0.000 HD 
HETATM    3  C   UNL     1      -9.822   6.784  68.079  1.00  0.00    -0.136 C  
HETATM    4  C   UNL     1      -9.510   7.853  67.047  1.00  0.00    -0.174 C  
HETATM    5  O   UNL     1      -9.321   9.106  67.670  1.00  0.00    -0.134 OA 
HETATM    6  C   UNL     1      -8.214   9.144  68.548  1.00  0.00    -0.115 C  
HETATM    7  C   UNL     1      -8.317   8.090  69.677  1.00  0.00    -0.126 C  
HETATM    8  C   UNL     1      -8.714   6.692  69.140  1.00  0.00    -0.130 C  
ENDROOT
BRANCH   6   9
HETATM    9  O   UNL     1      -8.168  10.441  69.152  1.00  0.00    -0.135 OA 
BRANCH   9  10
HETATM   10  C   UNL     1      -8.070  11.533  68.229  1.00  0.00    -0.148 C  
HETATM   11  H   UNL     1      -8.227  16.106  67.107  1.00  0.00     0.000 HD 
HETATM   12  C   UNL     1      -9.263  12.499  68.466  1.00  0.00    -0.070 C  
HETATM   13  C   UNL     1      -6.746  12.302  68.356  1.00  0.00    -0.064 C  
HETATM   14  C   UNL     1      -9.108  13.777  67.618  1.00  0.00    -0.196 C  
HETATM   15  O   UNL     1      -7.556  15.468  66.894  1.00  0.00    -0.209 OA 
HETATM   16  O   UNL     1      -6.706  13.427  67.481  1.00  0.00    -0.163 OA 
HETATM   17  C   UNL     1      -7.708  14.379  67.798  1.00  0.00    -0.161 C  
BRANCH  14  18
HETATM   18  O   UNL     1     -10.177  14.712  67.738  1.00  0.00    -0.227 OA 
HETATM   19  S   UNL     1     -10.323  15.764  68.962  1.00  0.00    -0.240 S  
HETATM   20  O   UNL     1     -10.246  15.032  70.203  1.00  0.00    -0.128 OA 
HETATM   21  O   UNL     1      -9.011  16.684  68.851  1.00  0.00    -0.250 OA 
HETATM   22  O   UNL     1     -11.438  16.627  68.649  1.00  0.00    -0.255 OA 
ENDBRANCH  14  18
BRANCH  12  23
HETATM   23  O   UNL     1     -10.540  11.865  68.293  1.00  0.00    -0.198 OA 
HETATM   24  S   UNL     1     -11.501  11.496  69.547  1.00  0.00    -0.318 S  
HETATM   25  O   UNL     1     -10.883  10.415  70.282  1.00  0.00    -0.292 OA 
HETATM   26  O   UNL     1     -12.777  10.852  68.809  1.00  0.00    -0.122 OA 
HETATM   27  O   UNL     1     -11.934  12.702  70.204  1.00  0.00    -0.346 OA 
ENDBRANCH  12  23
ENDBRANCH   9  10
ENDBRANCH   6   9
BRANCH   7  28
HETATM   28  O   UNL     1      -7.053   7.954  70.350  1.00  0.00    -0.045 OA 
HETATM   29  O   UNL     1      -6.211  10.153  71.160  1.00  0.00    -0.289 OA 
HETATM   30  O   UNL     1      -5.489   8.127  72.294  1.00  0.00    -0.035 OA 
HETATM   31  S   UNL     1      -6.740   8.898  71.644  1.00  0.00    -0.023 S  
HETATM   32  O   UNL     1      -7.843   8.809  72.569  1.00  0.00    -0.363 OA 
ENDBRANCH   7  28
BRANCH   8  33
HETATM   33  O   UNL     1      -9.168   5.929  70.272  1.00  0.00    -0.150 OA 
HETATM   34  S   UNL     1     -10.618   6.227  70.942  1.00  0.00    -0.253 S  
HETATM   35  O   UNL     1     -10.491   7.325  71.868  1.00  0.00    -0.199 OA 
HETATM   36  O   UNL     1     -11.624   6.177  69.906  1.00  0.00    -0.404 OA 
HETATM   37  O   UNL     1     -10.801   4.945  71.894  1.00  0.00    -0.121 OA 
ENDBRANCH   8  33
TORSDOF 6
ENDMDL
MODEL      153
REMARK 921   NORMALIZED FREE ENERGY PREDICTED BY IDOCK:   -2.82 KCAL/MOL
REMARK 922        TOTAL FREE ENERGY PREDICTED BY IDOCK:   -5.91 KCAL/MOL
REMARK 923 INTER-LIGAND FREE ENERGY PREDICTED BY IDOCK:   -4.89 KCAL/MOL
REMARK 924 INTRA-LIGAND FREE ENERGY PREDICTED BY IDOCK:   -1.02 KCAL/MOL
REMARK 927      BINDING AFFINITY PREDICTED BY RF-SCORE:    0.00 PKD
ROOT
HETATM    1  O   UNL     1      -7.894  13.906  67.827  1.00  0.00    -0.137 OA 
HETATM    2  H   UNL     1      -8.784  14.008  67.512  1.00  0.00     0.000 HD 
HETATM    3  C   UNL     1      -7.766  12.612  68.411  1.00  0.00    -0.133 C  
HETATM    4  C   UNL     1      -6.342  12.450  68.913  1.00  0.00    -0.085 C  
HETATM    5  O   UNL     1      -6.167  11.183  69.510  1.00  0.00    -0.067 OA 
HETATM    6  C   UNL     1      -6.340  10.102  68.615  1.00  0.00    -0.052 C  
HETATM    7  C   UNL     1      -7.739  10.100  67.953  1.00  0.00    -0.089 C  
HETATM    8  C   UNL     1      -8.139  11.498  67.420  1.00  0.00    -0.146 C  
ENDROOT
BRANCH   6   9
HETATM    9  O   UNL     1      -6.193   8.885  69.353  1.00  0.00    -0.040 OA 
BRANCH   9  10
HETATM   10  C   UNL     1      -6.902   8.844  70.598  1.00  0.00    -0.057 C  
HETATM   11  H   UNL     1      -8.213   6.760  74.614  1.00  0.00     0.000 HD 
HETATM   12  C   UNL     1      -7.597   7.461  70.734  1.00  0.00    -0.083 C  
HETATM   13  C   UNL     1      -5.991   9.089  71.810  1.00  0.00    -0.077 C  
HETATM   14  C   UNL     1      -8.228   7.303  72.131  1.00  0.00    -0.101 C  
HETATM   15  O   UNL     1      -7.873   7.638  74.487  1.00  0.00    -0.159 OA 
HETATM   16  O   UNL     1      -6.706   8.968  73.037  1.00  0.00    -0.324 OA 
HETATM   17  C   UNL     1      -7.213   7.657  73.226  1.00  0.00    -0.089 C  
BRANCH  14  18
HETATM   18  O   UNL     1      -8.925   6.077  72.341  1.00  0.00    -0.137 OA 
HETATM   19  S   UNL     1     -10.529   5.976  72.555  1.00  0.00    -0.212 S  
HETATM   20  O   UNL     1     -10.903   6.875  73.620  1.00  0.00    -0.315 OA 
HETATM   21  O   UNL     1     -11.147   6.548  71.188  1.00  0.00    -0.256 OA 
HETATM   22  O   UNL     1     -10.865   4.571  72.584  1.00  0.00    -0.187 OA 
ENDBRANCH  14  18
BRANCH  12  23
HETATM   23  O   UNL     1      -8.522   7.192  69.668  1.00  0.00    -0.131 OA 
HETATM   24  S   UNL     1      -8.307   5.971  68.623  1.00  0.00    -0.113 S  
HETATM   25  O   UNL     1      -7.181   6.296  67.778  1.00  0.00    -0.078 OA 
HETATM   26  O   UNL     1      -9.610   6.101  67.687  1.00  0.00    -0.112 OA 
HETATM   27  O   UNL     1      -8.389   4.711  69.317  1.00  0.00    -0.078 OA 
ENDBRANCH  12  23
ENDBRANCH   9  10
ENDBRANCH   6   9
BRANCH   7  28
HETATM   28  O   UNL     1      -7.764   9.187  66.842  1.00  0.00    -0.096 OA 
HETATM   29  O   UNL     1      -7.585  10.392  64.671  1.00  0.00    -0.131 OA 
HETATM   30  O   UNL     1      -6.847   8.079  64.796  1.00  0.00    -0.060 OA 
HETATM   31  S   UNL     1      -6.840   9.506  65.535  1.00  0.00    -0.088 S  
HETATM   32  O   UNL     1      -5.490   9.772  65.967  1.00  0.00    -0.045 OA 
ENDBRANCH   7  28
BRANCH   8  33
HETATM   33  O   UNL     1      -9.562  11.469  67.213  1.00  0.00    -0.171 OA 
HETATM   34  S   UNL     1     -10.274  12.528  66.208  1.00  0.00    -0.253 S  
HETATM   35  O   UNL     1     -10.508  13.763  66.915  1.00  0.00    -0.269 OA 
HETATM   36  O   UNL     1      -9.610  12.464  64.925  1.00  0.00    -0.060 OA 
HETATM   37  O   UNL     1     -11.741  11.891  66.055  1.00  0.00    -0.455 OA 
ENDBRANCH   8  33
TORSDOF 6
ENDMDL
MODEL      154
REMARK 921   NORMALIZED FREE ENERGY PREDICTED BY IDOCK:   -2.82 KCAL/MOL
REMARK 922        TOTAL FREE ENERGY PREDICTED BY IDOCK:   -5.90 KCAL/MOL
REMARK 923 INTER-LIGAND FREE ENERGY PREDICTED BY IDOCK:   -5.95 KCAL/MOL
REMARK 924 INTRA-LIGAND FREE ENERGY PREDICTED BY IDOCK:    0.04 KCAL/MOL
REMARK 927      BINDING AFFINITY PREDICTED BY RF-SCORE:    0.00 PKD
ROOT
HETATM    1  O   UNL     1     -10.496  10.732  63.385  1.00  0.00    -0.535 OA 
HETATM    2  H   UNL     1     -11.087  11.468  63.284  1.00  0.00     0.000 HD 
HETATM    3  C   UNL     1      -9.914  10.793  64.684  1.00  0.00    -0.324 C  
HETATM    4  C   UNL     1      -8.970   9.614  64.845  1.00  0.00    -0.217 C  
HETATM    5  O   UNL     1      -8.359   9.636  66.117  1.00  0.00    -0.117 OA 
HETATM    6  C   UNL     1      -9.270   9.494  67.190  1.00  0.00    -0.134 C  
HETATM    7  C   UNL     1     -10.357  10.595  67.192  1.00  0.00    -0.228 C  
HETATM    8  C   UNL     1     -10.982  10.808  65.790  1.00  0.00     0.091 C  
ENDROOT
BRANCH   6   9
HETATM    9  O   UNL     1      -8.536   9.589  68.414  1.00  0.00    -0.117 OA 
BRANCH   9  10
HETATM   10  C   UNL     1      -9.008   8.741  69.469  1.00  0.00    -0.145 C  
HETATM   11  H   UNL     1      -8.397   5.557  72.886  1.00  0.00     0.000 HD 
HETATM   12  C   UNL     1      -8.358   7.339  69.315  1.00  0.00    -0.132 C  
HETATM   13  C   UNL     1      -8.705   9.305  70.866  1.00  0.00    -0.173 C  
HETATM   14  C   UNL     1      -8.698   6.444  70.524  1.00  0.00    -0.144 C  
HETATM   15  O   UNL     1      -8.871   6.380  72.923  1.00  0.00    -0.125 OA 
HETATM   16  O   UNL     1      -9.118   8.408  71.894  1.00  0.00    -0.177 OA 
HETATM   17  C   UNL     1      -8.410   7.180  71.840  1.00  0.00    -0.105 C  
BRANCH  14  18
HETATM   18  O   UNL     1      -8.177   5.120  70.457  1.00  0.00    -0.098 OA 
HETATM   19  S   UNL     1      -9.099   3.790  70.367  1.00  0.00    -0.141 S  
HETATM   20  O   UNL     1     -10.055   3.825  71.448  1.00  0.00    -0.145 OA 
HETATM   21  O   UNL     1      -9.907   3.961  68.990  1.00  0.00    -0.124 OA 
HETATM   22  O   UNL     1      -8.209   2.669  70.167  1.00  0.00    -0.041 OA 
ENDBRANCH  14  18
BRANCH  12  23
HETATM   23  O   UNL     1      -8.659   6.717  68.057  1.00  0.00    -0.122 OA 
HETATM   24  S   UNL     1      -7.506   6.090  67.103  1.00  0.00    -0.085 S  
HETATM   25  O   UNL     1      -6.730   7.181  66.560  1.00  0.00    -0.054 OA 
HETATM   26  O   UNL     1      -8.370   5.512  65.874  1.00  0.00    -0.116 OA 
HETATM   27  O   UNL     1      -6.878   4.974  67.762  1.00  0.00    -0.057 OA 
ENDBRANCH  12  23
ENDBRANCH   9  10
ENDBRANCH   6   9
BRANCH   7  28
HETATM   28  O   UNL     1     -11.422  10.244  68.093  1.00  0.00    -0.270 OA 
HETATM   29  O   UNL     1     -11.025  11.160  70.373  1.00  0.00     0.015 OA 
HETATM   30  O   UNL     1     -13.308  10.713  69.667  1.00  0.00     0.158 OA 
HETATM   31  S   UNL     1     -11.888  11.322  69.226  1.00  0.00    -0.364 S  
HETATM   32  O   UNL     1     -12.131  12.595  68.593  1.00  0.00    -0.269 OA 
ENDBRANCH   7  28
BRANCH   8  33
HETATM   33  O   UNL     1     -11.647  12.082  65.824  1.00  0.00    -0.352 OA 
HETATM   34  S   UNL     1     -10.838  13.449  65.480  1.00  0.00    -0.296 S  
HETATM   35  O   UNL     1     -10.148  13.897  66.665  1.00  0.00    -0.261 OA 
HETATM   36  O   UNL     1     -10.189  13.290  64.198  1.00  0.00    -0.371 OA 
HETATM   37  O   UNL     1     -12.040  14.502  65.317  1.00  0.00    -0.372 OA 
ENDBRANCH   8  33
TORSDOF 6
ENDMDL
MODEL      155
REMARK 921   NORMALIZED FREE ENERGY PREDICTED BY IDOCK:   -2.77 KCAL/MOL
REMARK 922        TOTAL FREE ENERGY PREDICTED BY IDOCK:   -5.84 KCAL/MOL
REMARK 923 INTER-LIGAND FREE ENERGY PREDICTED BY IDOCK:   -7.09 KCAL/MOL
REMARK 924 INTRA-LIGAND FREE ENERGY PREDICTED BY IDOCK:    1.26 KCAL/MOL
REMARK 927      BINDING AFFINITY PREDICTED BY RF-SCORE:    0.00 PKD
ROOT
HETATM    1  O   UNL     1     -11.253  13.728  63.623  1.00  0.00    -0.488 OA 
HETATM    2  H   UNL     1     -11.009  14.636  63.495  1.00  0.00     0.000 HD 
HETATM    3  C   UNL     1     -10.319  13.131  64.519  1.00  0.00    -0.368 C  
HETATM    4  C   UNL     1     -10.709  11.678  64.724  1.00  0.00    -0.309 C  
HETATM    5  O   UNL     1      -9.805  11.038  65.600  1.00  0.00    -0.215 OA 
HETATM    6  C   UNL     1      -9.799  11.579  66.907  1.00  0.00    -0.197 C  
HETATM    7  C   UNL     1      -9.452  13.087  66.921  1.00  0.00    -0.242 C  
HETATM    8  C   UNL     1     -10.248  13.884  65.858  1.00  0.00    -0.315 C  
ENDROOT
BRANCH   6   9
HETATM    9  O   UNL     1      -8.808  10.885  67.671  1.00  0.00    -0.132 OA 
BRANCH   9  10
HETATM   10  C   UNL     1      -7.898  10.090  66.900  1.00  0.00    -0.106 C  
HETATM   11  H   UNL     1      -6.828   7.222  63.319  1.00  0.00     0.000 HD 
HETATM   12  C   UNL     1      -8.571   8.727  66.579  1.00  0.00    -0.118 C  
HETATM   13  C   UNL     1      -7.467  10.777  65.595  1.00  0.00    -0.034 C  
HETATM   14  C   UNL     1      -7.702   7.906  65.605  1.00  0.00    -0.096 C  
HETATM   15  O   UNL     1      -6.379   8.012  63.598  1.00  0.00    -0.066 OA 
HETATM   16  O   UNL     1      -6.623   9.935  64.813  1.00  0.00    -0.107 OA 
HETATM   17  C   UNL     1      -7.293   8.757  64.395  1.00  0.00    -0.103 C  
BRANCH  14  18
HETATM   18  O   UNL     1      -8.219   6.618  65.279  1.00  0.00    -0.133 OA 
HETATM   19  S   UNL     1      -7.499   5.226  65.693  1.00  0.00    -0.082 S  
HETATM   20  O   UNL     1      -6.128   5.271  65.241  1.00  0.00    -0.028 OA 
HETATM   21  O   UNL     1      -7.489   5.247  67.298  1.00  0.00    -0.082 OA 
HETATM   22  O   UNL     1      -8.395   4.157  65.317  1.00  0.00    -0.107 OA 
ENDBRANCH  14  18
BRANCH  12  23
HETATM   23  O   UNL     1      -8.938   7.993  67.757  1.00  0.00    -0.132 OA 
HETATM   24  S   UNL     1     -10.486   7.720  68.160  1.00  0.00    -0.139 S  
HETATM   25  O   UNL     1     -11.071   8.977  68.566  1.00  0.00     0.016 OA 
HETATM   26  O   UNL     1     -10.330   6.853  69.506  1.00  0.00    -0.193 OA 
HETATM   27  O   UNL     1     -11.111   6.883  67.168  1.00  0.00    -0.370 OA 
ENDBRANCH  12  23
ENDBRANCH   9  10
ENDBRANCH   6   9
BRANCH   7  28
HETATM   28  O   UNL     1      -9.755  13.657  68.207  1.00  0.00    -0.223 OA 
HETATM   29  O   UNL     1     -12.142  14.349  68.355  1.00  0.00    -0.322 OA 
HETATM   30  O   UNL     1     -10.949  13.798  70.401  1.00  0.00     0.335 OA 
HETATM   31  S   UNL     1     -11.216  13.369  68.875  1.00  0.00    -0.285 S  
HETATM   32  O   UNL     1     -11.472  11.950  68.854  1.00  0.00    -0.249 OA 
ENDBRANCH   7  28
BRANCH   8  33
HETATM   33  O   UNL     1      -9.568  15.139  65.689  1.00  0.00    -0.334 OA 
HETATM   34  S   UNL     1     -10.390  16.540  65.742  1.00  0.00    -0.294 S  
HETATM   35  O   UNL     1     -10.965  16.798  64.445  1.00  0.00    -0.974 OA 
HETATM   36  O   UNL     1     -11.155  16.579  66.968  1.00  0.00    -0.090 OA 
HETATM   37  O   UNL     1      -9.197  17.610  65.850  1.00  0.00    -0.517 OA 
ENDBRANCH   8  33
TORSDOF 6
ENDMDL
MODEL      156
REMARK 921   NORMALIZED FREE ENERGY PREDICTED BY IDOCK:   -2.71 KCAL/MOL
REMARK 922        TOTAL FREE ENERGY PREDICTED BY IDOCK:   -5.77 KCAL/MOL
REMARK 923 INTER-LIGAND FREE ENERGY PREDICTED BY IDOCK:   -7.49 KCAL/MOL
REMARK 924 INTRA-LIGAND FREE ENERGY PREDICTED BY IDOCK:    1.72 KCAL/MOL
REMARK 927      BINDING AFFINITY PREDICTED BY RF-SCORE:    0.00 PKD
ROOT
HETATM    1  O   UNL     1      -6.980  10.107  66.851  1.00  0.00    -0.086 OA 
HETATM    2  H   UNL     1      -6.708   9.899  65.966  1.00  0.00     0.000 HD 
HETATM    3  C   UNL     1      -7.852  11.233  66.804  1.00  0.00    -0.155 C  
HETATM    4  C   UNL     1      -8.287  11.565  68.220  1.00  0.00    -0.154 C  
HETATM    5  O   UNL     1      -9.148  12.683  68.228  1.00  0.00    -0.199 OA 
HETATM    6  C   UNL     1     -10.364  12.470  67.537  1.00  0.00    -0.220 C  
HETATM    7  C   UNL     1     -10.143  12.080  66.056  1.00  0.00    -0.230 C  
HETATM    8  C   UNL     1      -9.064  10.980  65.893  1.00  0.00    -0.197 C  
ENDROOT
BRANCH   6   9
HETATM    9  O   UNL     1     -11.114  13.688  67.571  1.00  0.00    -0.266 OA 
BRANCH   9  10
HETATM   10  C   UNL     1     -10.367  14.867  67.244  1.00  0.00    -0.251 C  
HETATM   11  H   UNL     1      -6.359  17.300  66.782  1.00  0.00     0.000 HD 
HETATM   12  C   UNL     1      -9.303  15.108  68.350  1.00  0.00    -0.197 C  
HETATM   13  C   UNL     1      -9.679  14.775  65.873  1.00  0.00    -0.323 C  
HETATM   14  C   UNL     1      -8.359  16.263  67.958  1.00  0.00    -0.165 C  
HETATM   15  O   UNL     1      -7.072  17.211  66.160  1.00  0.00    -0.265 OA 
HETATM   16  O   UNL     1      -8.883  15.927  65.607  1.00  0.00    -0.218 OA 
HETATM   17  C   UNL     1      -7.819  16.060  66.536  1.00  0.00    -0.191 C  
BRANCH  14  18
HETATM   18  O   UNL     1      -7.369  16.587  68.930  1.00  0.00    -0.193 OA 
HETATM   19  S   UNL     1      -6.330  15.510  69.554  1.00  0.00    -0.165 S  
HETATM   20  O   UNL     1      -7.086  14.390  70.061  1.00  0.00    -0.048 OA 
HETATM   21  O   UNL     1      -5.483  14.999  68.289  1.00  0.00    -0.102 OA 
HETATM   22  O   UNL     1      -5.402  16.246  70.381  1.00  0.00    -0.170 OA 
ENDBRANCH  14  18
BRANCH  12  23
HETATM   23  O   UNL     1      -9.880  15.276  69.655  1.00  0.00    -0.252 OA 
HETATM   24  S   UNL     1     -11.088  16.321  69.939  1.00  0.00    -0.305 S  
HETATM   25  O   UNL     1     -10.558  17.660  69.826  1.00  0.00     0.088 OA 
HETATM   26  O   UNL     1     -11.365  16.089  71.508  1.00  0.00    -0.374 OA 
HETATM   27  O   UNL     1     -12.268  15.914  69.220  1.00  0.00    -0.273 OA 
ENDBRANCH  12  23
ENDBRANCH   9  10
ENDBRANCH   6   9
BRANCH   7  28
HETATM   28  O   UNL     1     -11.363  11.579  65.483  1.00  0.00    -0.214 OA 
HETATM   29  O   UNL     1     -13.082  13.371  65.295  1.00  0.00    -0.687 OA 
HETATM   30  O   UNL     1     -13.193  11.471  63.781  1.00  0.00    -0.188 OA 
HETATM   31  S   UNL     1     -12.221  12.542  64.483  1.00  0.00    -0.452 S  
HETATM   32  O   UNL     1     -11.342  13.071  63.470  1.00  0.00    -0.406 OA 
ENDBRANCH   7  28
BRANCH   8  33
HETATM   33  O   UNL     1      -8.663  10.997  64.512  1.00  0.00    -0.083 OA 
HETATM   34  S   UNL     1      -7.688   9.840  63.919  1.00  0.00    -0.142 S  
HETATM   35  O   UNL     1      -6.318  10.184  64.211  1.00  0.00    -0.127 OA 
HETATM   36  O   UNL     1      -8.264   8.550  64.226  1.00  0.00    -0.160 OA 
HETATM   37  O   UNL     1      -7.816  10.092  62.337  1.00  0.00    -0.116 OA 
ENDBRANCH   8  33
TORSDOF 6
ENDMDL
MODEL      157
REMARK 921   NORMALIZED FREE ENERGY PREDICTED BY IDOCK:   -2.68 KCAL/MOL
REMARK 922        TOTAL FREE ENERGY PREDICTED BY IDOCK:   -5.72 KCAL/MOL
REMARK 923 INTER-LIGAND FREE ENERGY PREDICTED BY IDOCK:   -6.76 KCAL/MOL
REMARK 924 INTRA-LIGAND FREE ENERGY PREDICTED BY IDOCK:    1.04 KCAL/MOL
REMARK 927      BINDING AFFINITY PREDICTED BY RF-SCORE:    0.00 PKD
ROOT
HETATM    1  O   UNL     1      -6.858  18.456  66.098  1.00  0.00    -0.212 OA 
HETATM    2  H   UNL     1      -7.491  19.162  66.140  1.00  0.00     0.000 HD 
HETATM    3  C   UNL     1      -7.339  17.369  66.885  1.00  0.00    -0.202 C  
HETATM    4  C   UNL     1      -6.326  16.241  66.818  1.00  0.00     0.124 C  
HETATM    5  O   UNL     1      -6.754  15.140  67.591  1.00  0.00    -0.153 OA 
HETATM    6  C   UNL     1      -7.953  14.551  67.129  1.00  0.00    -0.138 C  
HETATM    7  C   UNL     1      -9.128  15.558  67.085  1.00  0.00    -0.217 C  
HETATM    8  C   UNL     1      -8.728  16.900  66.423  1.00  0.00    -0.286 C  
ENDROOT
BRANCH   6   9
HETATM    9  O   UNL     1      -8.305  13.493  68.026  1.00  0.00    -0.146 OA 
BRANCH   9  10
HETATM   10  C   UNL     1      -7.702  12.227  67.731  1.00  0.00    -0.139 C  
HETATM   11  H   UNL     1      -5.994   8.978  64.777  1.00  0.00     0.000 HD 
HETATM   12  C   UNL     1      -8.458  11.576  66.541  1.00  0.00    -0.160 C  
HETATM   13  C   UNL     1      -6.207  12.343  67.395  1.00  0.00    -0.158 C  
HETATM   14  C   UNL     1      -7.740  10.294  66.073  1.00  0.00    -0.130 C  
HETATM   15  O   UNL     1      -5.596   9.328  65.566  1.00  0.00    -0.047 OA 
HETATM   16  O   UNL     1      -5.650  11.082  67.033  1.00  0.00    -0.050 OA 
HETATM   17  C   UNL     1      -6.245  10.561  65.855  1.00  0.00    -0.128 C  
BRANCH  14  18
HETATM   18  O   UNL     1      -8.382   9.601  65.005  1.00  0.00    -0.126 OA 
HETATM   19  S   UNL     1      -8.505  10.182  63.497  1.00  0.00    -0.200 S  
HETATM   20  O   UNL     1      -9.082  11.504  63.565  1.00  0.00    -0.083 OA 
HETATM   21  O   UNL     1      -6.984  10.334  63.005  1.00  0.00    -0.137 OA 
HETATM   22  O   UNL     1      -9.081   9.136  62.685  1.00  0.00    -0.176 OA 
ENDBRANCH  14  18
BRANCH  12  23
HETATM   23  O   UNL     1      -9.853  11.369  66.810  1.00  0.00    -0.200 OA 
HETATM   24  S   UNL     1     -10.372  10.333  67.945  1.00  0.00    -0.212 S  
HETATM   25  O   UNL     1     -10.098   8.990  67.485  1.00  0.00    -0.196 OA 
HETATM   26  O   UNL     1     -11.969  10.511  67.853  1.00  0.00    -0.297 OA 
HETATM   27  O   UNL     1      -9.954  10.783  69.248  1.00  0.00    -0.214 OA 
ENDBRANCH  12  23
ENDBRANCH   9  10
ENDBRANCH   6   9
BRANCH   7  28
HETATM   28  O   UNL     1     -10.226  15.012  66.332  1.00  0.00    -0.260 OA 
HETATM   29  O   UNL     1     -11.543  13.391  67.687  1.00  0.00    -0.300 OA 
HETATM   30  O   UNL     1     -12.635  14.548  65.848  1.00  0.00    -0.300 OA 
HETATM   31  S   UNL     1     -11.635  14.707  67.096  1.00  0.00    -0.360 S  
HETATM   32  O   UNL     1     -12.034  15.879  67.835  1.00  0.00     0.006 OA 
ENDBRANCH   7  28
BRANCH   8  33
HETATM   33  O   UNL     1      -9.730  17.860  66.800  1.00  0.00    -0.288 OA 
HETATM   34  S   UNL     1      -9.703  18.552  68.270  1.00  0.00    -0.375 S  
HETATM   35  O   UNL     1     -10.344  17.672  69.216  1.00  0.00    -0.319 OA 
HETATM   36  O   UNL     1      -8.394  19.127  68.485  1.00  0.00    -0.340 OA 
HETATM   37  O   UNL     1     -10.761  19.747  68.084  1.00  0.00    -0.342 OA 
ENDBRANCH   8  33
TORSDOF 6
ENDMDL
MODEL      158
REMARK 921   NORMALIZED FREE ENERGY PREDICTED BY IDOCK:   -2.66 KCAL/MOL
REMARK 922        TOTAL FREE ENERGY PREDICTED BY IDOCK:   -5.70 KCAL/MOL
REMARK 923 INTER-LIGAND FREE ENERGY PREDICTED BY IDOCK:   -7.12 KCAL/MOL
REMARK 924 INTRA-LIGAND FREE ENERGY PREDICTED BY IDOCK:    1.42 KCAL/MOL
REMARK 927      BINDING AFFINITY PREDICTED BY RF-SCORE:    0.00 PKD
ROOT
HETATM    1  O   UNL     1      -6.634  19.593  67.744  1.00  0.00    -0.221 OA 
HETATM    2  H   UNL     1      -6.247  19.610  68.611  1.00  0.00     0.000 HD 
HETATM    3  C   UNL     1      -6.909  18.238  67.399  1.00  0.00    -0.197 C  
HETATM    4  C   UNL     1      -7.529  18.210  66.013  1.00  0.00    -0.228 C  
HETATM    5  O   UNL     1      -7.812  16.884  65.620  1.00  0.00    -0.187 OA 
HETATM    6  C   UNL     1      -8.770  16.240  66.437  1.00  0.00    -0.319 C  
HETATM    7  C   UNL     1      -8.342  16.190  67.924  1.00  0.00    -0.161 C  
HETATM    8  C   UNL     1      -7.821  17.557  68.432  1.00  0.00    -0.263 C  
ENDROOT
BRANCH   6   9
HETATM    9  O   UNL     1      -8.922  14.896  65.971  1.00  0.00    -0.182 OA 
BRANCH   9  10
HETATM   10  C   UNL     1      -8.675  13.884  66.955  1.00  0.00    -0.200 C  
HETATM   11  H   UNL     1      -7.402   9.548  68.287  1.00  0.00     0.000 HD 
HETATM   12  C   UNL     1      -9.306  12.549  66.472  1.00  0.00    -0.233 C  
HETATM   13  C   UNL     1      -7.178  13.679  67.235  1.00  0.00     0.026 C  
HETATM   14  C   UNL     1      -8.918  11.390  67.411  1.00  0.00    -0.154 C  
HETATM   15  O   UNL     1      -7.103  10.383  68.629  1.00  0.00    -0.071 OA 
HETATM   16  O   UNL     1      -6.957  12.617  68.160  1.00  0.00    -0.078 OA 
HETATM   17  C   UNL     1      -7.402  11.371  67.649  1.00  0.00    -0.102 C  
BRANCH  14  18
HETATM   18  O   UNL     1      -9.482  10.126  67.072  1.00  0.00    -0.161 OA 
HETATM   19  S   UNL     1     -10.576   9.352  67.983  1.00  0.00    -0.198 S  
HETATM   20  O   UNL     1     -10.057   9.248  69.327  1.00  0.00    -0.186 OA 
HETATM   21  O   UNL     1     -11.837  10.346  68.019  1.00  0.00    -0.328 OA 
HETATM   22  O   UNL     1     -11.007   8.192  67.236  1.00  0.00    -0.154 OA 
ENDBRANCH  14  18
BRANCH  12  23
HETATM   23  O   UNL     1     -10.723  12.646  66.258  1.00  0.00    -0.251 OA 
HETATM   24  S   UNL     1     -11.369  12.749  64.773  1.00  0.00    -0.325 S  
HETATM   25  O   UNL     1     -11.037  14.046  64.229  1.00  0.00    -0.325 OA 
HETATM   26  O   UNL     1     -12.944  12.800  65.099  1.00  0.00    -0.768 OA 
HETATM   27  O   UNL     1     -11.111  11.536  64.040  1.00  0.00    -0.365 OA 
ENDBRANCH  12  23
ENDBRANCH   9  10
ENDBRANCH   6   9
BRANCH   7  28
HETATM   28  O   UNL     1      -9.457  15.815  68.752  1.00  0.00    -0.198 OA 
HETATM   29  O   UNL     1     -10.500  17.803  69.829  1.00  0.00     0.093 OA 
HETATM   30  O   UNL     1     -11.854  15.816  69.466  1.00  0.00    -0.354 OA 
HETATM   31  S   UNL     1     -10.757  16.799  68.822  1.00  0.00    -0.327 S  
HETATM   32  O   UNL     1     -11.181  17.115  67.480  1.00  0.00    -0.081 OA 
ENDBRANCH   7  28
BRANCH   8  33
HETATM   33  O   UNL     1      -7.094  17.297  69.645  1.00  0.00    -0.064 OA 
HETATM   34  S   UNL     1      -6.117  16.004  69.763  1.00  0.00    -0.164 S  
HETATM   35  O   UNL     1      -6.906  14.849  70.114  1.00  0.00    -0.178 OA 
HETATM   36  O   UNL     1      -5.191  16.023  68.653  1.00  0.00    -0.095 OA 
HETATM   37  O   UNL     1      -5.306  16.335  71.110  1.00  0.00    -0.116 OA 
ENDBRANCH   8  33
TORSDOF 6
ENDMDL
MODEL      159
REMARK 921   NORMALIZED FREE ENERGY PREDICTED BY IDOCK:   -2.66 KCAL/MOL
REMARK 922        TOTAL FREE ENERGY PREDICTED BY IDOCK:   -5.69 KCAL/MOL
REMARK 923 INTER-LIGAND FREE ENERGY PREDICTED BY IDOCK:   -6.86 KCAL/MOL
REMARK 924 INTRA-LIGAND FREE ENERGY PREDICTED BY IDOCK:    1.17 KCAL/MOL
REMARK 927      BINDING AFFINITY PREDICTED BY RF-SCORE:    0.00 PKD
ROOT
HETATM    1  O   UNL     1      -9.505   6.458  67.049  1.00  0.00    -0.130 OA 
HETATM    2  H   UNL     1      -9.910   6.274  67.889  1.00  0.00     0.000 HD 
HETATM    3  C   UNL     1      -9.580   7.860  66.808  1.00  0.00    -0.215 C  
HETATM    4  C   UNL     1      -8.933   8.153  65.466  1.00  0.00    -0.032 C  
HETATM    5  O   UNL     1      -8.991   9.533  65.176  1.00  0.00    -0.182 OA 
HETATM    6  C   UNL     1      -8.268  10.338  66.087  1.00  0.00    -0.138 C  
HETATM    7  C   UNL     1      -8.755  10.162  67.546  1.00  0.00    -0.125 C  
HETATM    8  C   UNL     1      -8.920   8.672  67.935  1.00  0.00    -0.140 C  
ENDROOT
BRANCH   6   9
HETATM    9  O   UNL     1      -8.454  11.707  65.717  1.00  0.00     0.016 OA 
BRANCH   9  10
HETATM   10  C   UNL     1      -9.792  12.198  65.870  1.00  0.00    -0.247 C  
HETATM   11  H   UNL     1     -13.231  15.321  65.089  1.00  0.00     0.000 HD 
HETATM   12  C   UNL     1      -9.736  13.722  66.165  1.00  0.00    -0.264 C  
HETATM   13  C   UNL     1     -10.666  11.940  64.633  1.00  0.00    -0.307 C  
HETATM   14  C   UNL     1     -11.153  14.330  66.165  1.00  0.00    -0.324 C  
HETATM   15  O   UNL     1     -13.263  14.375  65.008  1.00  0.00    -0.562 OA 
HETATM   16  O   UNL     1     -11.967  12.503  64.782  1.00  0.00    -0.368 OA 
HETATM   17  C   UNL     1     -11.920  13.916  64.902  1.00  0.00    -0.395 C  
BRANCH  14  18
HETATM   18  O   UNL     1     -11.210  15.722  66.465  1.00  0.00    -0.156 OA 
HETATM   19  S   UNL     1     -10.462  16.865  65.593  1.00  0.00    -0.141 S  
HETATM   20  O   UNL     1      -9.070  16.505  65.468  1.00  0.00    -0.404 OA 
HETATM   21  O   UNL     1     -11.132  16.753  64.137  1.00  0.00    -1.061 OA 
HETATM   22  O   UNL     1     -10.879  18.144  66.122  1.00  0.00    -0.208 OA 
ENDBRANCH  14  18
BRANCH  12  23
HETATM   23  O   UNL     1      -8.993  14.036  67.353  1.00  0.00    -0.186 OA 
HETATM   24  S   UNL     1      -9.697  14.153  68.810  1.00  0.00    -0.088 S  
HETATM   25  O   UNL     1     -10.517  15.342  68.817  1.00  0.00    -0.225 OA 
HETATM   26  O   UNL     1      -8.440  14.480  69.760  1.00  0.00     0.273 OA 
HETATM   27  O   UNL     1     -10.224  12.871  69.204  1.00  0.00     0.044 OA 
ENDBRANCH  12  23
ENDBRANCH   9  10
ENDBRANCH   6   9
BRANCH   7  28
HETATM   28  O   UNL     1      -7.812  10.747  68.461  1.00  0.00    -0.107 OA 
HETATM   29  O   UNL     1      -6.485   9.001  69.641  1.00  0.00    -0.041 OA 
HETATM   30  O   UNL     1      -5.532  11.222  69.373  1.00  0.00    -0.044 OA 
HETATM   31  S   UNL     1      -6.352  10.044  68.649  1.00  0.00    -0.048 S  
HETATM   32  O   UNL     1      -5.762   9.829  67.351  1.00  0.00    -0.043 OA 
ENDBRANCH   7  28
BRANCH   8  33
HETATM   33  O   UNL     1      -9.739   8.642  69.116  1.00  0.00    -0.168 OA 
HETATM   34  S   UNL     1     -10.077   7.234  69.855  1.00  0.00    -0.197 S  
HETATM   35  O   UNL     1     -11.197   6.613  69.192  1.00  0.00    -0.278 OA 
HETATM   36  O   UNL     1      -8.835   6.545  70.124  1.00  0.00    -0.142 OA 
HETATM   37  O   UNL     1     -10.693   7.742  71.249  1.00  0.00    -0.225 OA 
ENDBRANCH   8  33
TORSDOF 6
ENDMDL
MODEL      160
REMARK 921   NORMALIZED FREE ENERGY PREDICTED BY IDOCK:   -2.65 KCAL/MOL
REMARK 922        TOTAL FREE ENERGY PREDICTED BY IDOCK:   -5.69 KCAL/MOL
REMARK 923 INTER-LIGAND FREE ENERGY PREDICTED BY IDOCK:   -5.84 KCAL/MOL
REMARK 924 INTRA-LIGAND FREE ENERGY PREDICTED BY IDOCK:    0.16 KCAL/MOL
REMARK 927      BINDING AFFINITY PREDICTED BY RF-SCORE:    0.00 PKD
ROOT
HETATM    1  O   UNL     1      -8.842   2.880  64.941  1.00  0.00    -0.108 OA 
HETATM    2  H   UNL     1      -8.392   3.079  64.129  1.00  0.00     0.000 HD 
HETATM    3  C   UNL     1      -8.475   3.855  65.913  1.00  0.00    -0.110 C  
HETATM    4  C   UNL     1      -9.195   3.536  67.211  1.00  0.00    -0.193 C  
HETATM    5  O   UNL     1      -8.856   4.471  68.212  1.00  0.00    -0.101 OA 
HETATM    6  C   UNL     1      -9.258   5.794  67.914  1.00  0.00    -0.108 C  
HETATM    7  C   UNL     1      -8.652   6.312  66.587  1.00  0.00    -0.119 C  
HETATM    8  C   UNL     1      -8.788   5.283  65.438  1.00  0.00    -0.152 C  
ENDROOT
BRANCH   6   9
HETATM    9  O   UNL     1      -8.808   6.645  68.972  1.00  0.00    -0.129 OA 
BRANCH   9  10
HETATM   10  C   UNL     1      -9.745   6.825  70.043  1.00  0.00    -0.163 C  
HETATM   11  H   UNL     1     -13.533   8.815  72.013  1.00  0.00     0.000 HD 
HETATM   12  C   UNL     1      -9.982   8.346  70.251  1.00  0.00    -0.186 C  
HETATM   13  C   UNL     1     -11.085   6.120  69.784  1.00  0.00    -0.416 C  
HETATM   14  C   UNL     1     -11.113   8.587  71.272  1.00  0.00    -0.262 C  
HETATM   15  O   UNL     1     -13.313   7.892  71.954  1.00  0.00    -0.322 OA 
HETATM   16  O   UNL     1     -12.023   6.377  70.827  1.00  0.00    -0.338 OA 
HETATM   17  C   UNL     1     -12.351   7.754  70.915  1.00  0.00    -0.102 C  
BRANCH  14  18
HETATM   18  O   UNL     1     -11.380   9.956  71.560  1.00  0.00    -0.343 OA 
HETATM   19  S   UNL     1     -11.862  11.035  70.450  1.00  0.00    -0.374 S  
HETATM   20  O   UNL     1     -10.932  10.998  69.346  1.00  0.00    -0.227 OA 
HETATM   21  O   UNL     1     -13.269  10.464  69.928  1.00  0.00     0.001 OA 
HETATM   22  O   UNL     1     -12.168  12.260  71.153  1.00  0.00    -0.243 OA 
ENDBRANCH  14  18
BRANCH  12  23
HETATM   23  O   UNL     1      -8.779   9.062  70.568  1.00  0.00    -0.166 OA 
HETATM   24  S   UNL     1      -7.799   8.614  71.781  1.00  0.00    -0.047 S  
HETATM   25  O   UNL     1      -8.478   8.882  73.028  1.00  0.00    -0.334 OA 
HETATM   26  O   UNL     1      -6.622   9.707  71.678  1.00  0.00    -0.307 OA 
HETATM   27  O   UNL     1      -7.226   7.323  71.497  1.00  0.00    -0.070 OA 
ENDBRANCH  12  23
ENDBRANCH   9  10
ENDBRANCH   6   9
BRANCH   7  28
HETATM   28  O   UNL     1      -9.316   7.518  66.172  1.00  0.00    -0.155 OA 
HETATM   29  O   UNL     1      -8.435   9.507  67.384  1.00  0.00    -0.124 OA 
HETATM   30  O   UNL     1      -9.442   9.816  65.192  1.00  0.00    -0.243 OA 
HETATM   31  S   UNL     1      -8.456   8.901  66.072  1.00  0.00    -0.136 S  
HETATM   32  O   UNL     1      -7.266   8.660  65.294  1.00  0.00    -0.081 OA 
ENDBRANCH   7  28
BRANCH   8  33
HETATM   33  O   UNL     1      -7.861   5.683  64.414  1.00  0.00    -0.100 OA 
HETATM   34  S   UNL     1      -6.302   5.230  64.485  1.00  0.00    -0.034 S  
HETATM   35  O   UNL     1      -5.586   6.143  65.341  1.00  0.00    -0.016 OA 
HETATM   36  O   UNL     1      -6.246   3.793  64.638  1.00  0.00    -0.022 OA 
HETATM   37  O   UNL     1      -5.789   5.607  63.010  1.00  0.00    -0.014 OA 
ENDBRANCH   8  33
TORSDOF 6
ENDMDL
MODEL      161
REMARK 921   NORMALIZED FREE ENERGY PREDICTED BY IDOCK:   -2.62 KCAL/MOL
REMARK 922        TOTAL FREE ENERGY PREDICTED BY IDOCK:   -5.64 KCAL/MOL
REMARK 923 INTER-LIGAND FREE ENERGY PREDICTED BY IDOCK:   -5.10 KCAL/MOL
REMARK 924 INTRA-LIGAND FREE ENERGY PREDICTED BY IDOCK:   -0.53 KCAL/MOL
REMARK 927      BINDING AFFINITY PREDICTED BY RF-SCORE:    0.00 PKD
ROOT
HETATM    1  O   UNL     1      -7.111   2.299  66.016  1.00  0.00    -0.053 OA 
HETATM    2  H   UNL     1      -7.888   2.097  65.509  1.00  0.00     0.000 HD 
HETATM    3  C   UNL     1      -7.318   3.539  66.687  1.00  0.00    -0.075 C  
HETATM    4  C   UNL     1      -6.075   3.861  67.497  1.00  0.00    -0.028 C  
HETATM    5  O   UNL     1      -6.227   5.090  68.176  1.00  0.00    -0.032 OA 
HETATM    6  C   UNL     1      -7.268   5.087  69.133  1.00  0.00    -0.057 C  
HETATM    7  C   UNL     1      -8.643   4.741  68.511  1.00  0.00    -0.093 C  
HETATM    8  C   UNL     1      -8.571   3.507  67.577  1.00  0.00    -0.101 C  
ENDROOT
BRANCH   6   9
HETATM    9  O   UNL     1      -7.353   6.396  69.703  1.00  0.00    -0.076 OA 
BRANCH   9  10
HETATM   10  C   UNL     1      -8.148   7.329  68.957  1.00  0.00    -0.124 C  
HETATM   11  H   UNL     1      -9.710  11.662  67.972  1.00  0.00     0.000 HD 
HETATM   12  C   UNL     1      -8.835   8.307  69.949  1.00  0.00    -0.138 C  
HETATM   13  C   UNL     1      -7.325   8.122  67.930  1.00  0.00    -0.096 C  
HETATM   14  C   UNL     1      -9.559   9.435  69.188  1.00  0.00    -0.163 C  
HETATM   15  O   UNL     1      -9.373  11.005  67.374  1.00  0.00    -0.155 OA 
HETATM   16  O   UNL     1      -8.123   9.093  67.256  1.00  0.00    -0.105 OA 
HETATM   17  C   UNL     1      -8.627  10.073  68.149  1.00  0.00    -0.118 C  
BRANCH  14  18
HETATM   18  O   UNL     1     -10.255  10.366  70.013  1.00  0.00    -0.219 OA 
HETATM   19  S   UNL     1     -11.868  10.530  70.026  1.00  0.00    -0.308 S  
HETATM   20  O   UNL     1     -12.316  10.734  68.669  1.00  0.00    -0.430 OA 
HETATM   21  O   UNL     1     -12.408   9.098  70.513  1.00  0.00    -0.042 OA 
HETATM   22  O   UNL     1     -12.191  11.456  71.088  1.00  0.00    -0.319 OA 
ENDBRANCH  14  18
BRANCH  12  23
HETATM   23  O   UNL     1      -9.680   7.640  70.898  1.00  0.00    -0.172 OA 
HETATM   24  S   UNL     1      -9.284   7.505  72.466  1.00  0.00    -0.158 S  
HETATM   25  O   UNL     1      -8.172   6.588  72.569  1.00  0.00    -0.105 OA 
HETATM   26  O   UNL     1     -10.556   6.722  73.064  1.00  0.00    -0.229 OA 
HETATM   27  O   UNL     1      -9.243   8.809  73.076  1.00  0.00    -0.238 OA 
ENDBRANCH  12  23
ENDBRANCH   9  10
ENDBRANCH   6   9
BRANCH   7  28
HETATM   28  O   UNL     1      -9.599   4.448  69.544  1.00  0.00    -0.169 OA 
HETATM   29  O   UNL     1      -9.772   1.999  69.957  1.00  0.00    -0.037 OA 
HETATM   30  O   UNL     1     -10.348   3.537  71.750  1.00  0.00    -0.053 OA 
HETATM   31  S   UNL     1      -9.301   3.217  70.573  1.00  0.00    -0.163 S  
HETATM   32  O   UNL     1      -7.971   3.367  71.113  1.00  0.00    -0.057 OA 
ENDBRANCH   7  28
BRANCH   8  33
HETATM   33  O   UNL     1      -9.759   3.533  66.767  1.00  0.00    -0.164 OA 
HETATM   34  S   UNL     1     -10.011   4.737  65.705  1.00  0.00    -0.194 S  
HETATM   35  O   UNL     1     -10.587   5.862  66.399  1.00  0.00    -0.201 OA 
HETATM   36  O   UNL     1      -8.853   4.845  64.847  1.00  0.00    -0.150 OA 
HETATM   37  O   UNL     1     -11.234   4.154  64.841  1.00  0.00    -0.281 OA 
ENDBRANCH   8  33
TORSDOF 6
ENDMDL
MODEL      162
REMARK 921   NORMALIZED FREE ENERGY PREDICTED BY IDOCK:   -2.62 KCAL/MOL
REMARK 922        TOTAL FREE ENERGY PREDICTED BY IDOCK:   -5.63 KCAL/MOL
REMARK 923 INTER-LIGAND FREE ENERGY PREDICTED BY IDOCK:   -4.52 KCAL/MOL
REMARK 924 INTRA-LIGAND FREE ENERGY PREDICTED BY IDOCK:   -1.12 KCAL/MOL
REMARK 927      BINDING AFFINITY PREDICTED BY RF-SCORE:    0.00 PKD
ROOT
HETATM    1  O   UNL     1     -11.749   8.821  71.901  1.00  0.00    -0.312 OA 
HETATM    2  H   UNL     1     -11.408   8.892  72.784  1.00  0.00     0.000 HD 
HETATM    3  C   UNL     1     -10.857   8.015  71.134  1.00  0.00    -0.238 C  
HETATM    4  C   UNL     1     -11.404   7.902  69.722  1.00  0.00     0.112 C  
HETATM    5  O   UNL     1     -10.548   7.119  68.918  1.00  0.00    -0.206 OA 
HETATM    6  C   UNL     1     -10.432   5.777  69.349  1.00  0.00    -0.290 C  
HETATM    7  C   UNL     1      -9.914   5.665  70.803  1.00  0.00    -0.195 C  
HETATM    8  C   UNL     1     -10.651   6.629  71.766  1.00  0.00    -0.215 C  
ENDROOT
BRANCH   6   9
HETATM    9  O   UNL     1      -9.500   5.112  68.491  1.00  0.00    -0.120 OA 
BRANCH   9  10
HETATM   10  C   UNL     1      -9.642   5.413  67.097  1.00  0.00    -0.137 C  
HETATM   11  H   UNL     1      -8.084   5.552  62.653  1.00  0.00     0.000 HD 
HETATM   12  C   UNL     1      -8.344   6.104  66.597  1.00  0.00    -0.111 C  
HETATM   13  C   UNL     1      -9.928   4.166  66.245  1.00  0.00    -0.166 C  
HETATM   14  C   UNL     1      -8.378   6.290  65.067  1.00  0.00    -0.099 C  
HETATM   15  O   UNL     1      -8.914   5.222  62.979  1.00  0.00    -0.021 OA 
HETATM   16  O   UNL     1      -9.990   4.482  64.857  1.00  0.00    -0.144 OA 
HETATM   17  C   UNL     1      -8.752   4.975  64.371  1.00  0.00    -0.119 C  
BRANCH  14  18
HETATM   18  O   UNL     1      -7.243   6.953  64.517  1.00  0.00    -0.064 OA 
HETATM   19  S   UNL     1      -7.300   8.418  63.826  1.00  0.00    -0.112 S  
HETATM   20  O   UNL     1      -8.328   8.403  62.812  1.00  0.00    -0.183 OA 
HETATM   21  O   UNL     1      -7.787   9.393  65.005  1.00  0.00    -0.108 OA 
HETATM   22  O   UNL     1      -5.939   8.802  63.532  1.00  0.00    -0.076 OA 
ENDBRANCH  14  18
BRANCH  12  23
HETATM   23  O   UNL     1      -8.050   7.320  67.303  1.00  0.00    -0.109 OA 
HETATM   24  S   UNL     1      -6.668   7.532  68.124  1.00  0.00    -0.060 S  
HETATM   25  O   UNL     1      -6.702   6.677  69.288  1.00  0.00    -0.052 OA 
HETATM   26  O   UNL     1      -6.837   9.034  68.677  1.00  0.00    -0.061 OA 
HETATM   27  O   UNL     1      -5.550   7.522  67.215  1.00  0.00    -0.028 OA 
ENDBRANCH  12  23
ENDBRANCH   9  10
ENDBRANCH   6   9
BRANCH   7  28
HETATM   28  O   UNL     1     -10.102   4.328  71.300  1.00  0.00    -0.177 OA 
HETATM   29  O   UNL     1      -8.511   2.732  70.241  1.00  0.00    -0.047 OA 
HETATM   30  O   UNL     1      -9.407   2.214  72.442  1.00  0.00    -0.078 OA 
HETATM   31  S   UNL     1      -8.797   3.370  71.505  1.00  0.00    -0.096 S  
HETATM   32  O   UNL     1      -7.806   4.082  72.274  1.00  0.00    -0.076 OA 
ENDBRANCH   7  28
BRANCH   8  33
HETATM   33  O   UNL     1      -9.838   6.735  72.947  1.00  0.00    -0.160 OA 
HETATM   34  S   UNL     1      -8.549   7.724  72.980  1.00  0.00    -0.187 S  
HETATM   35  O   UNL     1      -7.421   7.044  72.393  1.00  0.00    -0.084 OA 
HETATM   36  O   UNL     1      -8.972   9.047  72.578  1.00  0.00    -0.286 OA 
HETATM   37  O   UNL     1      -8.204   7.752  74.549  1.00  0.00    -0.208 OA 
ENDBRANCH   8  33
TORSDOF 6
ENDMDL
MODEL      163
REMARK 921   NORMALIZED FREE ENERGY PREDICTED BY IDOCK:   -2.61 KCAL/MOL
REMARK 922        TOTAL FREE ENERGY PREDICTED BY IDOCK:   -5.62 KCAL/MOL
REMARK 923 INTER-LIGAND FREE ENERGY PREDICTED BY IDOCK:   -5.41 KCAL/MOL
REMARK 924 INTRA-LIGAND FREE ENERGY PREDICTED BY IDOCK:   -0.21 KCAL/MOL
REMARK 927      BINDING AFFINITY PREDICTED BY RF-SCORE:    0.00 PKD
ROOT
HETATM    1  O   UNL     1      -9.326   3.799  67.566  1.00  0.00    -0.168 OA 
HETATM    2  H   UNL     1      -8.911   3.283  66.885  1.00  0.00     0.000 HD 
HETATM    3  C   UNL     1      -8.726   5.091  67.585  1.00  0.00    -0.103 C  
HETATM    4  C   UNL     1      -9.390   5.915  68.674  1.00  0.00    -0.117 C  
HETATM    5  O   UNL     1      -8.822   7.205  68.739  1.00  0.00    -0.130 OA 
HETATM    6  C   UNL     1      -9.012   7.971  67.565  1.00  0.00    -0.138 C  
HETATM    7  C   UNL     1      -8.427   7.283  66.308  1.00  0.00    -0.134 C  
HETATM    8  C   UNL     1      -8.824   5.788  66.219  1.00  0.00    -0.140 C  
ENDROOT
BRANCH   6   9
HETATM    9  O   UNL     1      -8.344   9.225  67.739  1.00  0.00    -0.115 OA 
BRANCH   9  10
HETATM   10  C   UNL     1      -9.019  10.154  68.597  1.00  0.00    -0.136 C  
HETATM   11  H   UNL     1     -12.062  13.654  69.423  1.00  0.00     0.000 HD 
HETATM   12  C   UNL     1      -9.022  11.552  67.919  1.00  0.00    -0.159 C  
HETATM   13  C   UNL     1     -10.461   9.730  68.917  1.00  0.00    -0.214 C  
HETATM   14  C   UNL     1      -9.886  12.546  68.720  1.00  0.00     0.021 C  
HETATM   15  O   UNL     1     -11.974  12.826  69.883  1.00  0.00    -0.321 OA 
HETATM   16  O   UNL     1     -11.132  10.707  69.709  1.00  0.00    -0.257 OA 
HETATM   17  C   UNL     1     -11.264  11.942  69.023  1.00  0.00    -0.258 C  
BRANCH  14  18
HETATM   18  O   UNL     1      -9.920  13.871  68.196  1.00  0.00    -0.226 OA 
HETATM   19  S   UNL     1     -10.625  14.269  66.792  1.00  0.00    -0.280 S  
HETATM   20  O   UNL     1     -10.101  13.407  65.759  1.00  0.00    -0.289 OA 
HETATM   21  O   UNL     1     -12.172  13.894  67.006  1.00  0.00    -0.421 OA 
HETATM   22  O   UNL     1     -10.578  15.709  66.687  1.00  0.00    -0.301 OA 
ENDBRANCH  14  18
BRANCH  12  23
HETATM   23  O   UNL     1      -7.700  12.047  67.653  1.00  0.00    -0.125 OA 
HETATM   24  S   UNL     1      -6.783  12.728  68.805  1.00  0.00    -0.097 S  
HETATM   25  O   UNL     1      -7.366  14.006  69.145  1.00  0.00    -0.110 OA 
HETATM   26  O   UNL     1      -5.432  13.065  67.997  1.00  0.00    -0.085 OA 
HETATM   27  O   UNL     1      -6.460  11.754  69.815  1.00  0.00    -0.130 OA 
ENDBRANCH  12  23
ENDBRANCH   9  10
ENDBRANCH   6   9
BRANCH   7  28
HETATM   28  O   UNL     1      -8.905   7.931  65.116  1.00  0.00    -0.027 OA 
HETATM   29  O   UNL     1      -7.822  10.150  64.791  1.00  0.00    -0.142 OA 
HETATM   30  O   UNL     1      -8.676   8.962  62.849  1.00  0.00    -0.186 OA 
HETATM   31  S   UNL     1      -7.863   8.820  64.228  1.00  0.00    -0.141 S  
HETATM   32  O   UNL     1      -6.682   8.036  63.965  1.00  0.00    -0.064 OA 
ENDBRANCH   7  28
BRANCH   8  33
HETATM   33  O   UNL     1      -7.922   5.177  65.280  1.00  0.00    -0.100 OA 
HETATM   34  S   UNL     1      -8.447   4.034  64.251  1.00  0.00    -0.101 S  
HETATM   35  O   UNL     1      -8.442   2.759  64.924  1.00  0.00    -0.090 OA 
HETATM   36  O   UNL     1      -9.593   4.549  63.536  1.00  0.00    -0.078 OA 
HETATM   37  O   UNL     1      -7.212   3.931  63.228  1.00  0.00    -0.048 OA 
ENDBRANCH   8  33
TORSDOF 6
ENDMDL
MODEL      164
REMARK 921   NORMALIZED FREE ENERGY PREDICTED BY IDOCK:   -2.60 KCAL/MOL
REMARK 922        TOTAL FREE ENERGY PREDICTED BY IDOCK:   -5.62 KCAL/MOL
REMARK 923 INTER-LIGAND FREE ENERGY PREDICTED BY IDOCK:   -4.36 KCAL/MOL
REMARK 924 INTRA-LIGAND FREE ENERGY PREDICTED BY IDOCK:   -1.25 KCAL/MOL
REMARK 927      BINDING AFFINITY PREDICTED BY RF-SCORE:    0.00 PKD
ROOT
HETATM    1  O   UNL     1      -7.895  13.360  68.738  1.00  0.00    -0.262 OA 
HETATM    2  H   UNL     1      -8.833  13.489  68.815  1.00  0.00     0.000 HD 
HETATM    3  C   UNL     1      -7.623  11.964  68.816  1.00  0.00    -0.090 C  
HETATM    4  C   UNL     1      -6.124  11.758  68.692  1.00  0.00    -0.051 C  
HETATM    5  O   UNL     1      -5.801  10.386  68.773  1.00  0.00    -0.041 OA 
HETATM    6  C   UNL     1      -6.341   9.610  67.721  1.00  0.00    -0.053 C  
HETATM    7  C   UNL     1      -7.884   9.708  67.646  1.00  0.00    -0.095 C  
HETATM    8  C   UNL     1      -8.386  11.171  67.742  1.00  0.00    -0.123 C  
ENDROOT
BRANCH   6   9
HETATM    9  O   UNL     1      -5.991   8.242  67.951  1.00  0.00    -0.044 OA 
BRANCH   9  10
HETATM   10  C   UNL     1      -6.440   7.706  69.203  1.00  0.00    -0.040 C  
HETATM   11  H   UNL     1      -6.783   4.283  72.420  1.00  0.00     0.000 HD 
HETATM   12  C   UNL     1      -6.988   6.272  68.967  1.00  0.00    -0.068 C  
HETATM   13  C   UNL     1      -5.332   7.670  70.266  1.00  0.00    -0.023 C  
HETATM   14  C   UNL     1      -7.322   5.588  70.307  1.00  0.00    -0.068 C  
HETATM   15  O   UNL     1      -6.542   5.193  72.549  1.00  0.00    -0.048 OA 
HETATM   16  O   UNL     1      -5.784   7.065  71.475  1.00  0.00    -0.035 OA 
HETATM   17  C   UNL     1      -6.143   5.706  71.283  1.00  0.00    -0.033 C  
BRANCH  14  18
HETATM   18  O   UNL     1      -7.869   4.277  70.193  1.00  0.00    -0.052 OA 
HETATM   19  S   UNL     1      -9.386   3.892  70.617  1.00  0.00    -0.169 S  
HETATM   20  O   UNL     1      -9.607   4.338  71.972  1.00  0.00    -0.135 OA 
HETATM   21  O   UNL     1     -10.306   4.785  69.649  1.00  0.00    -0.217 OA 
HETATM   22  O   UNL     1      -9.604   2.521  70.216  1.00  0.00    -0.121 OA 
ENDBRANCH  14  18
BRANCH  12  23
HETATM   23  O   UNL     1      -8.079   6.236  68.033  1.00  0.00    -0.113 OA 
HETATM   24  S   UNL     1      -8.042   5.324  66.693  1.00  0.00    -0.104 S  
HETATM   25  O   UNL     1      -7.075   5.899  65.786  1.00  0.00    -0.066 OA 
HETATM   26  O   UNL     1      -9.484   5.625  66.046  1.00  0.00    -0.159 OA 
HETATM   27  O   UNL     1      -8.004   3.929  67.050  1.00  0.00    -0.094 OA 
ENDBRANCH  12  23
ENDBRANCH   9  10
ENDBRANCH   6   9
BRANCH   7  28
HETATM   28  O   UNL     1      -8.359   9.167  66.401  1.00  0.00    -0.119 OA 
HETATM   29  O   UNL     1      -8.558  10.935  64.658  1.00  0.00    -0.112 OA 
HETATM   30  O   UNL     1      -8.221   8.629  63.962  1.00  0.00    -0.159 OA 
HETATM   31  S   UNL     1      -7.774   9.771  65.002  1.00  0.00    -0.132 S  
HETATM   32  O   UNL     1      -6.333   9.777  65.058  1.00  0.00    -0.083 OA 
ENDBRANCH   7  28
BRANCH   8  33
HETATM   33  O   UNL     1      -9.785  11.106  68.069  1.00  0.00    -0.167 OA 
HETATM   34  S   UNL     1     -10.791  12.309  67.643  1.00  0.00    -0.236 S  
HETATM   35  O   UNL     1     -10.717  13.357  68.631  1.00  0.00    -0.248 OA 
HETATM   36  O   UNL     1     -10.649  12.547  66.224  1.00  0.00    -0.243 OA 
HETATM   37  O   UNL     1     -12.226  11.636  67.906  1.00  0.00    -0.560 OA 
ENDBRANCH   8  33
TORSDOF 6
ENDMDL
MODEL      165
REMARK 921   NORMALIZED FREE ENERGY PREDICTED BY IDOCK:   -2.58 KCAL/MOL
REMARK 922        TOTAL FREE ENERGY PREDICTED BY IDOCK:   -5.58 KCAL/MOL
REMARK 923 INTER-LIGAND FREE ENERGY PREDICTED BY IDOCK:   -6.87 KCAL/MOL
REMARK 924 INTRA-LIGAND FREE ENERGY PREDICTED BY IDOCK:    1.29 KCAL/MOL
REMARK 927      BINDING AFFINITY PREDICTED BY RF-SCORE:    0.00 PKD
ROOT
HETATM    1  O   UNL     1     -10.469   7.751  73.712  1.00  0.00    -0.272 OA 
HETATM    2  H   UNL     1      -9.725   8.057  74.217  1.00  0.00     0.000 HD 
HETATM    3  C   UNL     1     -10.420   8.355  72.422  1.00  0.00    -0.332 C  
HETATM    4  C   UNL     1     -11.609   7.866  71.616  1.00  0.00    -0.272 C  
HETATM    5  O   UNL     1     -11.610   8.445  70.329  1.00  0.00    -0.148 OA 
HETATM    6  C   UNL     1     -10.491   8.087  69.541  1.00  0.00    -0.226 C  
HETATM    7  C   UNL     1      -9.150   8.472  70.209  1.00  0.00    -0.154 C  
HETATM    8  C   UNL     1      -9.095   8.058  71.701  1.00  0.00    -0.150 C  
ENDROOT
BRANCH   6   9
HETATM    9  O   UNL     1     -10.584   8.780  68.293  1.00  0.00    -0.210 OA 
BRANCH   9  10
HETATM   10  C   UNL     1     -10.622  10.209  68.398  1.00  0.00    -0.217 C  
HETATM   11  H   UNL     1     -12.139  14.473  67.092  1.00  0.00     0.000 HD 
HETATM   12  C   UNL     1     -10.539  10.819  66.972  1.00  0.00    -0.260 C  
HETATM   13  C   UNL     1     -11.885  10.720  69.109  1.00  0.00    -0.275 C  
HETATM   14  C   UNL     1     -10.752  12.345  67.018  1.00  0.00    -0.239 C  
HETATM   15  O   UNL     1     -12.089  14.106  67.967  1.00  0.00    -0.351 OA 
HETATM   16  O   UNL     1     -11.933  12.145  69.133  1.00  0.00    -0.299 OA 
HETATM   17  C   UNL     1     -12.009  12.693  67.827  1.00  0.00    -0.243 C  
BRANCH  14  18
HETATM   18  O   UNL     1     -10.655  13.004  65.757  1.00  0.00    -0.269 OA 
HETATM   19  S   UNL     1     -11.670  12.741  64.521  1.00  0.00    -0.393 S  
HETATM   20  O   UNL     1     -11.718  11.320  64.266  1.00  0.00    -0.061 OA 
HETATM   21  O   UNL     1     -13.106  13.188  65.086  1.00  0.00    -0.703 OA 
HETATM   22  O   UNL     1     -11.337  13.694  63.488  1.00  0.00     0.008 OA 
ENDBRANCH  14  18
BRANCH  12  23
HETATM   23  O   UNL     1      -9.345  10.441  66.270  1.00  0.00    -0.159 OA 
HETATM   24  S   UNL     1      -7.867  10.877  66.778  1.00  0.00    -0.146 S  
HETATM   25  O   UNL     1      -7.726  12.301  66.577  1.00  0.00     0.096 OA 
HETATM   26  O   UNL     1      -6.919  10.183  65.678  1.00  0.00    -0.111 OA 
HETATM   27  O   UNL     1      -7.585  10.264  68.051  1.00  0.00    -0.087 OA 
ENDBRANCH  12  23
ENDBRANCH   9  10
ENDBRANCH   6   9
BRANCH   7  28
HETATM   28  O   UNL     1      -8.053   7.826  69.539  1.00  0.00    -0.121 OA 
HETATM   29  O   UNL     1      -7.704   5.512  70.389  1.00  0.00    -0.081 OA 
HETATM   30  O   UNL     1      -6.980   6.058  68.132  1.00  0.00    -0.071 OA 
HETATM   31  S   UNL     1      -8.153   6.229  69.218  1.00  0.00    -0.111 S  
HETATM   32  O   UNL     1      -9.407   5.960  68.558  1.00  0.00    -0.120 OA 
ENDBRANCH   7  28
BRANCH   8  33
HETATM   33  O   UNL     1      -8.022   8.806  72.298  1.00  0.00    -0.350 OA 
HETATM   34  S   UNL     1      -6.910   8.065  73.223  1.00  0.00    -0.105 S  
HETATM   35  O   UNL     1      -7.425   7.935  74.564  1.00  0.00    -0.147 OA 
HETATM   36  O   UNL     1      -6.355   6.957  72.478  1.00  0.00    -0.052 OA 
HETATM   37  O   UNL     1      -5.787   9.206  73.354  1.00  0.00    -0.241 OA 
ENDBRANCH   8  33
TORSDOF 6
ENDMDL
MODEL      166
REMARK 921   NORMALIZED FREE ENERGY PREDICTED BY IDOCK:   -2.57 KCAL/MOL
REMARK 922        TOTAL FREE ENERGY PREDICTED BY IDOCK:   -5.57 KCAL/MOL
REMARK 923 INTER-LIGAND FREE ENERGY PREDICTED BY IDOCK:   -5.04 KCAL/MOL
REMARK 924 INTRA-LIGAND FREE ENERGY PREDICTED BY IDOCK:   -0.53 KCAL/MOL
REMARK 927      BINDING AFFINITY PREDICTED BY RF-SCORE:    0.00 PKD
ROOT
HETATM    1  O   UNL     1     -10.216  15.195  68.780  1.00  0.00    -0.220 OA 
HETATM    2  H   UNL     1      -9.611  15.925  68.732  1.00  0.00     0.000 HD 
HETATM    3  C   UNL     1      -9.834  14.225  67.808  1.00  0.00    -0.223 C  
HETATM    4  C   UNL     1     -10.801  13.057  67.886  1.00  0.00    -0.242 C  
HETATM    5  O   UNL     1     -10.469  12.071  66.932  1.00  0.00    -0.217 OA 
HETATM    6  C   UNL     1      -9.201  11.480  67.142  1.00  0.00    -0.169 C  
HETATM    7  C   UNL     1      -8.055  12.521  67.134  1.00  0.00    -0.156 C  
HETATM    8  C   UNL     1      -8.381  13.761  68.003  1.00  0.00    -0.171 C  
ENDROOT
BRANCH   6   9
HETATM    9  O   UNL     1      -8.964  10.547  66.084  1.00  0.00    -0.152 OA 
BRANCH   9  10
HETATM   10  C   UNL     1      -9.636   9.289  66.226  1.00  0.00    -0.248 C  
HETATM   11  H   UNL     1      -9.879   4.797  67.625  1.00  0.00     0.000 HD 
HETATM   12  C   UNL     1      -8.654   8.149  65.839  1.00  0.00    -0.151 C  
HETATM   13  C   UNL     1     -10.166   9.056  67.650  1.00  0.00    -0.242 C  
HETATM   14  C   UNL     1      -9.272   6.770  66.142  1.00  0.00    -0.084 C  
HETATM   15  O   UNL     1     -10.509   5.495  67.765  1.00  0.00    -0.205 OA 
HETATM   16  O   UNL     1     -10.762   7.768  67.783  1.00  0.00    -0.206 OA 
HETATM   17  C   UNL     1      -9.822   6.727  67.574  1.00  0.00    -0.132 C  
BRANCH  14  18
HETATM   18  O   UNL     1      -8.459   5.655  65.784  1.00  0.00    -0.128 OA 
HETATM   19  S   UNL     1      -8.817   4.626  64.583  1.00  0.00    -0.150 S  
HETATM   20  O   UNL     1     -10.159   4.136  64.789  1.00  0.00    -0.199 OA 
HETATM   21  O   UNL     1      -8.825   5.543  63.265  1.00  0.00     0.039 OA 
HETATM   22  O   UNL     1      -7.689   3.735  64.438  1.00  0.00    -0.078 OA 
ENDBRANCH  14  18
BRANCH  12  23
HETATM   23  O   UNL     1      -8.170   8.262  64.491  1.00  0.00    -0.161 OA 
HETATM   24  S   UNL     1      -6.605   8.521  64.152  1.00  0.00    -0.071 S  
HETATM   25  O   UNL     1      -6.278   9.870  64.552  1.00  0.00    -0.102 OA 
HETATM   26  O   UNL     1      -6.611   8.530  62.543  1.00  0.00    -0.091 OA 
HETATM   27  O   UNL     1      -5.816   7.395  64.583  1.00  0.00    -0.036 OA 
ENDBRANCH  12  23
ENDBRANCH   9  10
ENDBRANCH   6   9
BRANCH   7  28
HETATM   28  O   UNL     1      -6.846  11.936  67.649  1.00  0.00    -0.091 OA 
HETATM   29  O   UNL     1      -6.493  12.533  70.040  1.00  0.00    -0.053 OA 
HETATM   30  O   UNL     1      -5.501  10.486  69.181  1.00  0.00    -0.038 OA 
HETATM   31  S   UNL     1      -6.818  11.409  69.193  1.00  0.00    -0.116 S  
HETATM   32  O   UNL     1      -7.955  10.551  69.419  1.00  0.00    -0.153 OA 
ENDBRANCH   7  28
BRANCH   8  33
HETATM   33  O   UNL     1      -7.468  14.797  67.602  1.00  0.00    -0.150 OA 
HETATM   34  S   UNL     1      -7.418  16.211  68.402  1.00  0.00    -0.160 S  
HETATM   35  O   UNL     1      -8.454  17.075  67.894  1.00  0.00    -0.202 OA 
HETATM   36  O   UNL     1      -7.233  15.938  69.810  1.00  0.00    -0.154 OA 
HETATM   37  O   UNL     1      -6.065  16.859  67.826  1.00  0.00    -0.126 OA 
ENDBRANCH   8  33
TORSDOF 6
ENDMDL
MODEL      167
REMARK 921   NORMALIZED FREE ENERGY PREDICTED BY IDOCK:   -2.51 KCAL/MOL
REMARK 922        TOTAL FREE ENERGY PREDICTED BY IDOCK:   -5.50 KCAL/MOL
REMARK 923 INTER-LIGAND FREE ENERGY PREDICTED BY IDOCK:   -6.23 KCAL/MOL
REMARK 924 INTRA-LIGAND FREE ENERGY PREDICTED BY IDOCK:    0.74 KCAL/MOL
REMARK 927      BINDING AFFINITY PREDICTED BY RF-SCORE:    0.00 PKD
ROOT
HETATM    1  O   UNL     1      -9.796   2.264  65.006  1.00  0.00    -0.353 OA 
HETATM    2  H   UNL     1      -9.693   2.583  64.118  1.00  0.00     0.000 HD 
HETATM    3  C   UNL     1      -9.086   3.134  65.884  1.00  0.00    -0.150 C  
HETATM    4  C   UNL     1      -9.252   2.624  67.305  1.00  0.00    -0.146 C  
HETATM    5  O   UNL     1      -8.557   3.450  68.214  1.00  0.00    -0.085 OA 
HETATM    6  C   UNL     1      -9.046   4.776  68.267  1.00  0.00    -0.117 C  
HETATM    7  C   UNL     1      -8.998   5.480  66.890  1.00  0.00    -0.111 C  
HETATM    8  C   UNL     1      -9.563   4.590  65.755  1.00  0.00    -0.188 C  
ENDROOT
BRANCH   6   9
HETATM    9  O   UNL     1      -8.226   5.517  69.176  1.00  0.00    -0.094 OA 
BRANCH   9  10
HETATM   10  C   UNL     1      -8.646   5.466  70.546  1.00  0.00    -0.122 C  
HETATM   11  H   UNL     1     -11.878   5.775  73.960  1.00  0.00     0.000 HD 
HETATM   12  C   UNL     1      -9.567   6.683  70.835  1.00  0.00    -0.175 C  
HETATM   13  C   UNL     1      -9.382   4.163  70.895  1.00  0.00    -0.147 C  
HETATM   14  C   UNL     1     -10.184   6.579  72.244  1.00  0.00    -0.184 C  
HETATM   15  O   UNL     1     -11.237   5.089  73.813  1.00  0.00    -0.287 OA 
HETATM   16  O   UNL     1      -9.852   4.170  72.240  1.00  0.00    -0.150 OA 
HETATM   17  C   UNL     1     -10.810   5.194  72.459  1.00  0.00    -0.223 C  
BRANCH  14  18
HETATM   18  O   UNL     1     -11.018   7.673  72.617  1.00  0.00    -0.290 OA 
HETATM   19  S   UNL     1     -12.262   8.205  71.725  1.00  0.00    -0.335 S  
HETATM   20  O   UNL     1     -11.785   8.461  70.386  1.00  0.00    -0.151 OA 
HETATM   21  O   UNL     1     -13.266   6.954  71.659  1.00  0.00    -0.354 OA 
HETATM   22  O   UNL     1     -12.940   9.216  72.502  1.00  0.00    -0.407 OA 
ENDBRANCH  14  18
BRANCH  12  23
HETATM   23  O   UNL     1      -8.921   7.943  70.598  1.00  0.00    -0.145 OA 
HETATM   24  S   UNL     1      -7.667   8.455  71.493  1.00  0.00    -0.111 S  
HETATM   25  O   UNL     1      -8.160   8.773  72.813  1.00  0.00    -0.398 OA 
HETATM   26  O   UNL     1      -7.320   9.866  70.802  1.00  0.00    -0.312 OA 
HETATM   27  O   UNL     1      -6.538   7.581  71.300  1.00  0.00    -0.042 OA 
ENDBRANCH  12  23
ENDBRANCH   9  10
ENDBRANCH   6   9
BRANCH   7  28
HETATM   28  O   UNL     1      -9.775   6.690  66.920  1.00  0.00    -0.151 OA 
HETATM   29  O   UNL     1      -8.450   8.600  67.813  1.00  0.00    -0.124 OA 
HETATM   30  O   UNL     1     -10.310   9.058  66.314  1.00  0.00    -0.247 OA 
HETATM   31  S   UNL     1      -9.041   8.110  66.589  1.00  0.00    -0.175 S  
HETATM   32  O   UNL     1      -8.308   7.984  65.353  1.00  0.00    -0.143 OA 
ENDBRANCH   7  28
BRANCH   8  33
HETATM   33  O   UNL     1      -9.101   5.158  64.517  1.00  0.00    -0.076 OA 
HETATM   34  S   UNL     1      -7.668   4.720  63.888  1.00  0.00    -0.079 S  
HETATM   35  O   UNL     1      -6.625   5.496  64.510  1.00  0.00    -0.040 OA 
HETATM   36  O   UNL     1      -7.630   3.278  63.788  1.00  0.00    -0.065 OA 
HETATM   37  O   UNL     1      -7.767   5.331  62.405  1.00  0.00    -0.057 OA 
ENDBRANCH   8  33
TORSDOF 6
ENDMDL
MODEL      168
REMARK 921   NORMALIZED FREE ENERGY PREDICTED BY IDOCK:   -2.51 KCAL/MOL
REMARK 922        TOTAL FREE ENERGY PREDICTED BY IDOCK:   -5.49 KCAL/MOL
REMARK 923 INTER-LIGAND FREE ENERGY PREDICTED BY IDOCK:   -5.60 KCAL/MOL
REMARK 924 INTRA-LIGAND FREE ENERGY PREDICTED BY IDOCK:    0.10 KCAL/MOL
REMARK 927      BINDING AFFINITY PREDICTED BY RF-SCORE:    0.00 PKD
ROOT
HETATM    1  O   UNL     1     -10.439  10.240  65.831  1.00  0.00    -0.195 OA 
HETATM    2  H   UNL     1     -10.681   9.419  66.243  1.00  0.00     0.000 HD 
HETATM    3  C   UNL     1      -9.943  11.121  66.835  1.00  0.00    -0.198 C  
HETATM    4  C   UNL     1      -9.556  12.433  66.177  1.00  0.00    -0.233 C  
HETATM    5  O   UNL     1      -9.066  13.346  67.135  1.00  0.00    -0.217 OA 
HETATM    6  C   UNL     1      -7.877  12.919  67.772  1.00  0.00    -0.158 C  
HETATM    7  C   UNL     1      -8.046  11.558  68.489  1.00  0.00    -0.146 C  
HETATM    8  C   UNL     1      -8.757  10.509  67.599  1.00  0.00    -0.121 C  
ENDROOT
BRANCH   6   9
HETATM    9  O   UNL     1      -7.521  13.899  68.752  1.00  0.00    -0.121 OA 
BRANCH   9  10
HETATM   10  C   UNL     1      -8.591  14.760  69.162  1.00  0.00    -0.089 C  
HETATM   11  H   UNL     1     -12.292  17.549  68.316  1.00  0.00     0.000 HD 
HETATM   12  C   UNL     1      -8.610  16.011  68.241  1.00  0.00    -0.179 C  
HETATM   13  C   UNL     1      -9.961  14.065  69.123  1.00  0.00     0.078 C  
HETATM   14  C   UNL     1      -9.849  16.882  68.529  1.00  0.00    -0.267 C  
HETATM   15  O   UNL     1     -12.219  16.836  68.941  1.00  0.00     0.527 OA 
HETATM   16  O   UNL     1     -11.015  14.963  69.463  1.00  0.00    -0.256 OA 
HETATM   17  C   UNL     1     -11.123  16.027  68.531  1.00  0.00    -0.347 C  
BRANCH  14  18
HETATM   18  O   UNL     1      -9.936  18.077  67.758  1.00  0.00    -0.299 OA 
HETATM   19  S   UNL     1      -9.746  19.564  68.374  1.00  0.00    -0.431 S  
HETATM   20  O   UNL     1     -10.638  19.709  69.500  1.00  0.00     0.211 OA 
HETATM   21  O   UNL     1      -8.241  19.571  68.935  1.00  0.00    -0.359 OA 
HETATM   22  O   UNL     1      -9.757  20.488  67.263  1.00  0.00    -0.443 OA 
ENDBRANCH  14  18
BRANCH  12  23
HETATM   23  O   UNL     1      -7.382  16.753  68.281  1.00  0.00    -0.170 OA 
HETATM   24  S   UNL     1      -6.367  16.817  67.017  1.00  0.00    -0.193 S  
HETATM   25  O   UNL     1      -5.761  15.514  66.863  1.00  0.00    -0.133 OA 
HETATM   26  O   UNL     1      -5.204  17.780  67.572  1.00  0.00    -0.127 OA 
HETATM   27  O   UNL     1      -7.002  17.487  65.911  1.00  0.00    -0.277 OA 
ENDBRANCH  12  23
ENDBRANCH   9  10
ENDBRANCH   6   9
BRANCH   7  28
HETATM   28  O   UNL     1      -6.762  11.022  68.851  1.00  0.00    -0.062 OA 
HETATM   29  O   UNL     1      -6.020  11.859  71.075  1.00  0.00    -0.354 OA 
HETATM   30  O   UNL     1      -5.164   9.728  70.276  1.00  0.00    -0.034 OA 
HETATM   31  S   UNL     1      -6.469  10.656  70.414  1.00  0.00    -0.030 S  
HETATM   32  O   UNL     1      -7.544   9.834  70.914  1.00  0.00    -0.319 OA 
ENDBRANCH   7  28
BRANCH   8  33
HETATM   33  O   UNL     1      -9.213   9.465  68.476  1.00  0.00    -0.131 OA 
HETATM   34  S   UNL     1      -8.897   7.906  68.142  1.00  0.00    -0.124 S  
HETATM   35  O   UNL     1      -9.886   7.413  67.215  1.00  0.00    -0.150 OA 
HETATM   36  O   UNL     1      -7.474   7.759  67.934  1.00  0.00    -0.099 OA 
HETATM   37  O   UNL     1      -9.286   7.194  69.529  1.00  0.00    -0.149 OA 
ENDBRANCH   8  33
TORSDOF 6
ENDMDL
MODEL      169
REMARK 921   NORMALIZED FREE ENERGY PREDICTED BY IDOCK:   -2.51 KCAL/MOL
REMARK 922        TOTAL FREE ENERGY PREDICTED BY IDOCK:   -5.49 KCAL/MOL
REMARK 923 INTER-LIGAND FREE ENERGY PREDICTED BY IDOCK:   -6.28 KCAL/MOL
REMARK 924 INTRA-LIGAND FREE ENERGY PREDICTED BY IDOCK:    0.80 KCAL/MOL
REMARK 927      BINDING AFFINITY PREDICTED BY RF-SCORE:    0.00 PKD
ROOT
HETATM    1  O   UNL     1     -12.407  15.538  68.718  1.00  0.00    -0.587 OA 
HETATM    2  H   UNL     1     -12.055  16.142  68.076  1.00  0.00     0.000 HD 
HETATM    3  C   UNL     1     -11.891  14.237  68.446  1.00  0.00    -0.338 C  
HETATM    4  C   UNL     1     -12.453  13.271  69.473  1.00  0.00     0.081 C  
HETATM    5  O   UNL     1     -11.977  11.963  69.239  1.00  0.00    -0.305 OA 
HETATM    6  C   UNL     1     -10.576  11.834  69.380  1.00  0.00     0.081 C  
HETATM    7  C   UNL     1      -9.797  12.774  68.429  1.00  0.00    -0.196 C  
HETATM    8  C   UNL     1     -10.353  14.220  68.447  1.00  0.00    -0.247 C  
ENDROOT
BRANCH   6   9
HETATM    9  O   UNL     1     -10.219  10.484  69.063  1.00  0.00    -0.194 OA 
BRANCH   9  10
HETATM   10  C   UNL     1     -10.959   9.482  69.773  1.00  0.00    -0.223 C  
HETATM   11  H   UNL     1     -11.289   5.605  72.429  1.00  0.00     0.000 HD 
HETATM   12  C   UNL     1     -10.355   8.089  69.447  1.00  0.00    -0.217 C  
HETATM   13  C   UNL     1     -10.956   9.707  71.293  1.00  0.00    -0.329 C  
HETATM   14  C   UNL     1     -11.003   6.995  70.321  1.00  0.00    -0.271 C  
HETATM   15  O   UNL     1     -11.721   6.443  72.550  1.00  0.00    -0.261 OA 
HETATM   16  O   UNL     1     -11.634   8.657  71.980  1.00  0.00    -0.323 OA 
HETATM   17  C   UNL     1     -10.989   7.406  71.799  1.00  0.00    -0.234 C  
BRANCH  14  18
HETATM   18  O   UNL     1     -10.541   5.671  70.068  1.00  0.00    -0.275 OA 
HETATM   19  S   UNL     1      -9.112   5.100  70.578  1.00  0.00    -0.144 S  
HETATM   20  O   UNL     1      -8.078   6.011  70.147  1.00  0.00    -0.110 OA 
HETATM   21  O   UNL     1      -9.204   5.182  72.180  1.00  0.00    -0.135 OA 
HETATM   22  O   UNL     1      -9.078   3.693  70.255  1.00  0.00    -0.102 OA 
ENDBRANCH  14  18
BRANCH  12  23
HETATM   23  O   UNL     1     -10.389   7.778  68.046  1.00  0.00    -0.200 OA 
HETATM   24  S   UNL     1      -9.279   8.342  67.007  1.00  0.00    -0.159 S  
HETATM   25  O   UNL     1      -9.484   9.765  66.860  1.00  0.00    -0.151 OA 
HETATM   26  O   UNL     1      -9.758   7.684  65.619  1.00  0.00     0.328 OA 
HETATM   27  O   UNL     1      -7.984   7.797  67.328  1.00  0.00    -0.114 OA 
ENDBRANCH  12  23
ENDBRANCH   9  10
ENDBRANCH   6   9
BRANCH   7  28
HETATM   28  O   UNL     1      -8.412  12.837  68.813  1.00  0.00    -0.005 OA 
HETATM   29  O   UNL     1      -7.330  10.599  68.688  1.00  0.00    -0.083 OA 
HETATM   30  O   UNL     1      -5.948  12.587  68.464  1.00  0.00    -0.053 OA 
HETATM   31  S   UNL     1      -7.333  11.890  68.039  1.00  0.00    -0.110 S  
HETATM   32  O   UNL     1      -7.493  12.059  66.615  1.00  0.00    -0.034 OA 
ENDBRANCH   7  28
BRANCH   8  33
HETATM   33  O   UNL     1      -9.846  14.872  67.270  1.00  0.00    -0.226 OA 
HETATM   34  S   UNL     1      -9.271  16.390  67.347  1.00  0.00    -0.209 S  
HETATM   35  O   UNL     1     -10.373  17.315  67.255  1.00  0.00    -0.319 OA 
HETATM   36  O   UNL     1      -8.270  16.452  68.389  1.00  0.00    -0.174 OA 
HETATM   37  O   UNL     1      -8.537  16.529  65.925  1.00  0.00    -0.441 OA 
ENDBRANCH   8  33
TORSDOF 6
ENDMDL
MODEL      170
REMARK 921   NORMALIZED FREE ENERGY PREDICTED BY IDOCK:   -2.30 KCAL/MOL
REMARK 922        TOTAL FREE ENERGY PREDICTED BY IDOCK:   -5.21 KCAL/MOL
REMARK 923 INTER-LIGAND FREE ENERGY PREDICTED BY IDOCK:   -4.32 KCAL/MOL
REMARK 924 INTRA-LIGAND FREE ENERGY PREDICTED BY IDOCK:   -0.89 KCAL/MOL
REMARK 927      BINDING AFFINITY PREDICTED BY RF-SCORE:    0.00 PKD
ROOT
HETATM    1  O   UNL     1     -11.667   8.169  72.502  1.00  0.00    -0.378 OA 
HETATM    2  H   UNL     1     -11.253   8.624  73.225  1.00  0.00     0.000 HD 
HETATM    3  C   UNL     1     -10.694   7.340  71.872  1.00  0.00    -0.215 C  
HETATM    4  C   UNL     1     -11.357   6.613  70.716  1.00  0.00    -0.336 C  
HETATM    5  O   UNL     1     -10.429   5.783  70.052  1.00  0.00    -0.231 OA 
HETATM    6  C   UNL     1      -9.914   4.743  70.861  1.00  0.00    -0.213 C  
HETATM    7  C   UNL     1      -9.214   5.275  72.134  1.00  0.00    -0.139 C  
HETATM    8  C   UNL     1     -10.058   6.351  72.862  1.00  0.00    -0.183 C  
ENDROOT
BRANCH   6   9
HETATM    9  O   UNL     1      -8.950   4.017  70.092  1.00  0.00    -0.081 OA 
BRANCH   9  10
HETATM   10  C   UNL     1      -9.403   3.594  68.799  1.00  0.00    -0.165 C  
HETATM   11  H   UNL     1      -8.717   1.865  64.471  1.00  0.00     0.000 HD 
HETATM   12  C   UNL     1      -8.445   4.167  67.720  1.00  0.00    -0.098 C  
HETATM   13  C   UNL     1      -9.480   2.065  68.666  1.00  0.00    -0.143 C  
HETATM   14  C   UNL     1      -8.787   3.598  66.328  1.00  0.00    -0.128 C  
HETATM   15  O   UNL     1      -9.359   1.598  65.120  1.00  0.00    -0.109 OA 
HETATM   16  O   UNL     1      -9.860   1.671  67.350  1.00  0.00     0.186 OA 
HETATM   17  C   UNL     1      -8.903   2.069  66.382  1.00  0.00    -0.121 C  
BRANCH  14  18
HETATM   18  O   UNL     1      -7.984   4.097  65.261  1.00  0.00    -0.095 OA 
HETATM   19  S   UNL     1      -8.503   5.177  64.170  1.00  0.00    -0.098 S  
HETATM   20  O   UNL     1      -9.734   4.688  63.595  1.00  0.00     0.020 OA 
HETATM   21  O   UNL     1      -8.850   6.482  65.039  1.00  0.00     0.070 OA 
HETATM   22  O   UNL     1      -7.366   5.536  63.354  1.00  0.00    -0.047 OA 
ENDBRANCH  14  18
BRANCH  12  23
HETATM   23  O   UNL     1      -8.377   5.602  67.737  1.00  0.00    -0.101 OA 
HETATM   24  S   UNL     1      -7.000   6.400  68.052  1.00  0.00    -0.079 S  
HETATM   25  O   UNL     1      -6.680   6.208  69.448  1.00  0.00    -0.055 OA 
HETATM   26  O   UNL     1      -7.466   7.934  67.914  1.00  0.00    -0.099 OA 
HETATM   27  O   UNL     1      -6.034   6.139  67.015  1.00  0.00    -0.016 OA 
ENDBRANCH  12  23
ENDBRANCH   9  10
ENDBRANCH   6   9
BRANCH   7  28
HETATM   28  O   UNL     1      -8.984   4.202  73.064  1.00  0.00    -0.107 OA 
HETATM   29  O   UNL     1      -7.402   2.518  72.136  1.00  0.00    -0.040 OA 
HETATM   30  O   UNL     1      -7.594   2.747  74.549  1.00  0.00    -0.049 OA 
HETATM   31  S   UNL     1      -7.496   3.539  73.154  1.00  0.00    -0.058 S  
HETATM   32  O   UNL     1      -6.521   4.590  73.312  1.00  0.00    -0.046 OA 
ENDBRANCH   7  28
BRANCH   8  33
HETATM   33  O   UNL     1      -9.165   7.042  73.753  1.00  0.00    -0.167 OA 
HETATM   34  S   UNL     1      -8.064   8.088  73.176  1.00  0.00    -0.186 S  
HETATM   35  O   UNL     1      -6.898   7.355  72.748  1.00  0.00    -0.063 OA 
HETATM   36  O   UNL     1      -8.741   9.056  72.342  1.00  0.00    -0.347 OA 
HETATM   37  O   UNL     1      -7.580   8.822  74.521  1.00  0.00    -0.407 OA 
ENDBRANCH   8  33
TORSDOF 6
ENDMDL
MODEL      171
REMARK 921   NORMALIZED FREE ENERGY PREDICTED BY IDOCK:   -2.29 KCAL/MOL
REMARK 922        TOTAL FREE ENERGY PREDICTED BY IDOCK:   -5.20 KCAL/MOL
REMARK 923 INTER-LIGAND FREE ENERGY PREDICTED BY IDOCK:   -5.86 KCAL/MOL
REMARK 924 INTRA-LIGAND FREE ENERGY PREDICTED BY IDOCK:    0.66 KCAL/MOL
REMARK 927      BINDING AFFINITY PREDICTED BY RF-SCORE:    0.00 PKD
ROOT
HETATM    1  O   UNL     1      -5.411   5.102  69.304  1.00  0.00    -0.003 OA 
HETATM    2  H   UNL     1      -5.815   4.275  69.072  1.00  0.00     0.000 HD 
HETATM    3  C   UNL     1      -6.202   6.159  68.768  1.00  0.00    -0.036 C  
HETATM    4  C   UNL     1      -5.555   7.481  69.140  1.00  0.00    -0.019 C  
HETATM    5  O   UNL     1      -6.300   8.563  68.622  1.00  0.00    -0.051 OA 
HETATM    6  C   UNL     1      -7.608   8.660  69.152  1.00  0.00    -0.089 C  
HETATM    7  C   UNL     1      -8.442   7.379  68.908  1.00  0.00    -0.129 C  
HETATM    8  C   UNL     1      -7.657   6.091  69.260  1.00  0.00    -0.094 C  
ENDROOT
BRANCH   6   9
HETATM    9  O   UNL     1      -8.269   9.753  68.508  1.00  0.00    -0.103 OA 
BRANCH   9  10
HETATM   10  C   UNL     1      -8.630   9.519  67.140  1.00  0.00    -0.132 C  
HETATM   11  H   UNL     1      -9.865  10.944  62.823  1.00  0.00     0.000 HD 
HETATM   12  C   UNL     1      -9.842  10.421  66.780  1.00  0.00    -0.195 C  
HETATM   13  C   UNL     1      -7.474   9.788  66.165  1.00  0.00    -0.101 C  
HETATM   14  C   UNL     1     -10.158  10.335  65.273  1.00  0.00    -0.289 C  
HETATM   15  O   UNL     1      -9.191  10.321  63.070  1.00  0.00    -0.240 OA 
HETATM   16  O   UNL     1      -7.881   9.620  64.809  1.00  0.00    -0.117 OA 
HETATM   17  C   UNL     1      -8.887  10.551  64.441  1.00  0.00    -0.197 C  
BRANCH  14  18
HETATM   18  O   UNL     1     -11.282  11.101  64.850  1.00  0.00    -0.127 OA 
HETATM   19  S   UNL     1     -11.233  12.697  64.568  1.00  0.00    -0.357 S  
HETATM   20  O   UNL     1     -10.678  13.347  65.731  1.00  0.00    -0.269 OA 
HETATM   21  O   UNL     1     -10.180  12.854  63.366  1.00  0.00    -0.215 OA 
HETATM   22  O   UNL     1     -12.517  13.071  64.020  1.00  0.00    -0.582 OA 
ENDBRANCH  14  18
BRANCH  12  23
HETATM   23  O   UNL     1     -10.990  10.174  67.607  1.00  0.00    -0.289 OA 
HETATM   24  S   UNL     1     -11.621  11.313  68.575  1.00  0.00    -0.313 S  
HETATM   25  O   UNL     1     -10.692  11.546  69.657  1.00  0.00    -0.089 OA 
HETATM   26  O   UNL     1     -12.870  10.537  69.229  1.00  0.00    -0.030 OA 
HETATM   27  O   UNL     1     -12.142  12.397  67.783  1.00  0.00    -0.447 OA 
ENDBRANCH  12  23
ENDBRANCH   9  10
ENDBRANCH   6   9
BRANCH   7  28
HETATM   28  O   UNL     1      -9.632   7.397  69.715  1.00  0.00    -0.163 OA 
HETATM   29  O   UNL     1      -9.255   6.297  71.917  1.00  0.00    -0.147 OA 
HETATM   30  O   UNL     1     -11.000   7.980  71.726  1.00  0.00    -0.233 OA 
HETATM   31  S   UNL     1      -9.491   7.595  71.329  1.00  0.00    -0.152 S  
HETATM   32  O   UNL     1      -8.659   8.745  71.590  1.00  0.00    -0.193 OA 
ENDBRANCH   7  28
BRANCH   8  33
HETATM   33  O   UNL     1      -8.348   5.000  68.627  1.00  0.00    -0.088 OA 
HETATM   34  S   UNL     1      -8.325   3.513  69.282  1.00  0.00    -0.061 S  
HETATM   35  O   UNL     1      -7.115   2.841  68.879  1.00  0.00    -0.044 OA 
HETATM   36  O   UNL     1      -8.757   3.609  70.658  1.00  0.00    -0.069 OA 
HETATM   37  O   UNL     1      -9.473   2.772  68.437  1.00  0.00    -0.197 OA 
ENDBRANCH   8  33
TORSDOF 6
ENDMDL
MODEL      172
REMARK 921   NORMALIZED FREE ENERGY PREDICTED BY IDOCK:   -2.12 KCAL/MOL
REMARK 922        TOTAL FREE ENERGY PREDICTED BY IDOCK:   -4.97 KCAL/MOL
REMARK 923 INTER-LIGAND FREE ENERGY PREDICTED BY IDOCK:   -7.11 KCAL/MOL
REMARK 924 INTRA-LIGAND FREE ENERGY PREDICTED BY IDOCK:    2.15 KCAL/MOL
REMARK 927      BINDING AFFINITY PREDICTED BY RF-SCORE:    0.00 PKD
ROOT
HETATM    1  O   UNL     1      -9.754  18.598  65.661  1.00  0.00    -0.379 OA 
HETATM    2  H   UNL     1      -9.073  19.170  65.994  1.00  0.00     0.000 HD 
HETATM    3  C   UNL     1      -9.779  17.414  66.455  1.00  0.00    -0.290 C  
HETATM    4  C   UNL     1     -10.868  16.500  65.922  1.00  0.00    -0.095 C  
HETATM    5  O   UNL     1     -10.927  15.306  66.673  1.00  0.00    -0.313 OA 
HETATM    6  C   UNL     1     -11.277  15.502  68.029  1.00  0.00    -0.332 C  
HETATM    7  C   UNL     1     -10.296  16.448  68.762  1.00  0.00    -0.275 C  
HETATM    8  C   UNL     1      -9.993  17.729  67.944  1.00  0.00    -0.322 C  
ENDROOT
BRANCH   6   9
HETATM    9  O   UNL     1     -11.245  14.231  68.685  1.00  0.00    -0.240 OA 
BRANCH   9  10
HETATM   10  C   UNL     1     -10.957  13.117  67.830  1.00  0.00    -0.251 C  
HETATM   11  H   UNL     1      -9.093   8.884  66.938  1.00  0.00     0.000 HD 
HETATM   12  C   UNL     1      -9.473  12.705  68.026  1.00  0.00    -0.209 C  
HETATM   13  C   UNL     1     -11.871  11.911  68.096  1.00  0.00    -0.270 C  
HETATM   14  C   UNL     1      -9.161  11.404  67.259  1.00  0.00    -0.165 C  
HETATM   15  O   UNL     1      -9.969   9.197  66.744  1.00  0.00    -0.210 OA 
HETATM   16  O   UNL     1     -11.515  10.793  67.286  1.00  0.00    -0.436 OA 
HETATM   17  C   UNL     1     -10.207  10.326  67.576  1.00  0.00    -0.210 C  
BRANCH  14  18
HETATM   18  O   UNL     1      -7.809  10.963  67.346  1.00  0.00    -0.108 OA 
HETATM   19  S   UNL     1      -7.233  10.049  68.554  1.00  0.00    -0.077 S  
HETATM   20  O   UNL     1      -7.563  10.688  69.806  1.00  0.00    -0.139 OA 
HETATM   21  O   UNL     1      -8.081   8.688  68.459  1.00  0.00    -0.114 OA 
HETATM   22  O   UNL     1      -5.876   9.694  68.209  1.00  0.00    -0.043 OA 
ENDBRANCH  14  18
BRANCH  12  23
HETATM   23  O   UNL     1      -8.553  13.765  67.724  1.00  0.00    -0.160 OA 
HETATM   24  S   UNL     1      -7.316  14.144  68.704  1.00  0.00    -0.131 S  
HETATM   25  O   UNL     1      -7.860  14.740  69.902  1.00  0.00    -0.010 OA 
HETATM   26  O   UNL     1      -6.609  15.344  67.898  1.00  0.00    -0.124 OA 
HETATM   27  O   UNL     1      -6.385  13.047  68.764  1.00  0.00    -0.073 OA 
ENDBRANCH  12  23
ENDBRANCH   9  10
ENDBRANCH   6   9
BRANCH   7  28
HETATM   28  O   UNL     1     -10.850  16.860  70.024  1.00  0.00    -0.219 OA 
HETATM   29  O   UNL     1     -13.077  15.822  70.425  1.00  0.00    -0.399 OA 
HETATM   30  O   UNL     1     -11.737  16.506  72.336  1.00  0.00    -0.507 OA 
HETATM   31  S   UNL     1     -11.712  15.786  70.899  1.00  0.00    -0.438 S  
HETATM   32  O   UNL     1     -10.952  14.567  71.029  1.00  0.00     0.108 OA 
ENDBRANCH   7  28
BRANCH   8  33
HETATM   33  O   UNL     1      -8.803  18.307  68.509  1.00  0.00    -0.305 OA 
HETATM   34  S   UNL     1      -8.696  19.910  68.751  1.00  0.00     0.071 S  
HETATM   35  O   UNL     1      -8.293  20.545  67.520  1.00  0.00    -0.317 OA 
HETATM   36  O   UNL     1      -9.840  20.337  69.524  1.00  0.00     0.024 OA 
HETATM   37  O   UNL     1      -7.387  20.009  69.677  1.00  0.00    -0.155 OA 
ENDBRANCH   8  33
TORSDOF 6
ENDMDL
MODEL      173
REMARK 921   NORMALIZED FREE ENERGY PREDICTED BY IDOCK:   -2.12 KCAL/MOL
REMARK 922        TOTAL FREE ENERGY PREDICTED BY IDOCK:   -4.96 KCAL/MOL
REMARK 923 INTER-LIGAND FREE ENERGY PREDICTED BY IDOCK:   -6.37 KCAL/MOL
REMARK 924 INTRA-LIGAND FREE ENERGY PREDICTED BY IDOCK:    1.42 KCAL/MOL
REMARK 927      BINDING AFFINITY PREDICTED BY RF-SCORE:    0.00 PKD
ROOT
HETATM    1  O   UNL     1     -11.975  11.784  63.082  1.00  0.00    -0.813 OA 
HETATM    2  H   UNL     1     -12.348  12.631  62.872  1.00  0.00     0.000 HD 
HETATM    3  C   UNL     1     -11.190  11.916  64.265  1.00  0.00    -0.357 C  
HETATM    4  C   UNL     1     -10.595  10.560  64.601  1.00  0.00     0.029 C  
HETATM    5  O   UNL     1      -9.799  10.641  65.764  1.00  0.00    -0.216 OA 
HETATM    6  C   UNL     1     -10.522  10.995  66.926  1.00  0.00    -0.246 C  
HETATM    7  C   UNL     1     -11.247  12.355  66.780  1.00  0.00    -0.310 C  
HETATM    8  C   UNL     1     -12.013  12.471  65.438  1.00  0.00    -0.437 C  
ENDROOT
BRANCH   6   9
HETATM    9  O   UNL     1      -9.596  11.098  68.012  1.00  0.00    -0.166 OA 
BRANCH   9  10
HETATM   10  C   UNL     1      -9.211   9.847  68.597  1.00  0.00    -0.139 C  
HETATM   11  H   UNL     1      -8.912   6.807  72.183  1.00  0.00     0.000 HD 
HETATM   12  C   UNL     1      -8.566  10.119  69.984  1.00  0.00     0.016 C  
HETATM   13  C   UNL     1     -10.392   8.876  68.755  1.00  0.00    -0.211 C  
HETATM   14  C   UNL     1      -8.294   8.796  70.728  1.00  0.00    -0.160 C  
HETATM   15  O   UNL     1      -9.214   6.647  71.296  1.00  0.00    -0.154 OA 
HETATM   16  O   UNL     1      -9.996   7.671  69.407  1.00  0.00    -0.173 OA 
HETATM   17  C   UNL     1      -9.546   7.909  70.731  1.00  0.00    -0.165 C  
BRANCH  14  18
HETATM   18  O   UNL     1      -7.665   8.940  71.999  1.00  0.00    -0.332 OA 
HETATM   19  S   UNL     1      -6.218   8.309  72.366  1.00  0.00    -0.069 S  
HETATM   20  O   UNL     1      -6.242   6.901  72.051  1.00  0.00    -0.041 OA 
HETATM   21  O   UNL     1      -5.204   9.024  71.346  1.00  0.00    -0.033 OA 
HETATM   22  O   UNL     1      -5.864   8.795  73.680  1.00  0.00    -0.109 OA 
ENDBRANCH  14  18
BRANCH  12  23
HETATM   23  O   UNL     1      -7.409  10.965  69.906  1.00  0.00    -0.090 OA 
HETATM   24  S   UNL     1      -6.420  10.965  68.619  1.00  0.00    -0.057 S  
HETATM   25  O   UNL     1      -5.702   9.711  68.607  1.00  0.00    -0.040 OA 
HETATM   26  O   UNL     1      -5.341  12.085  69.029  1.00  0.00    -0.051 OA 
HETATM   27  O   UNL     1      -7.127  11.440  67.457  1.00  0.00    -0.093 OA 
ENDBRANCH  12  23
ENDBRANCH   9  10
ENDBRANCH   6   9
BRANCH   7  28
HETATM   28  O   UNL     1     -12.202  12.528  67.842  1.00  0.00    -0.352 OA 
HETATM   29  O   UNL     1     -11.223  11.935  70.053  1.00  0.00    -0.098 OA 
HETATM   30  O   UNL     1     -13.073  13.511  69.970  1.00  0.00     0.218 OA 
HETATM   31  S   UNL     1     -11.684  13.073  69.290  1.00  0.00    -0.318 S  
HETATM   32  O   UNL     1     -10.896  14.264  69.091  1.00  0.00    -0.249 OA 
ENDBRANCH   7  28
BRANCH   8  33
HETATM   33  O   UNL     1     -12.286  13.869  65.239  1.00  0.00    -0.413 OA 
HETATM   34  S   UNL     1     -11.074  14.951  65.189  1.00  0.00    -0.414 S  
HETATM   35  O   UNL     1     -10.718  15.321  66.536  1.00  0.00    -0.303 OA 
HETATM   36  O   UNL     1     -10.108  14.514  64.206  1.00  0.00     0.136 OA 
HETATM   37  O   UNL     1     -11.827  16.252  64.621  1.00  0.00    -0.164 OA 
ENDBRANCH   8  33
TORSDOF 6
ENDMDL
MODEL      174
REMARK 921   NORMALIZED FREE ENERGY PREDICTED BY IDOCK:   -2.10 KCAL/MOL
REMARK 922        TOTAL FREE ENERGY PREDICTED BY IDOCK:   -4.94 KCAL/MOL
REMARK 923 INTER-LIGAND FREE ENERGY PREDICTED BY IDOCK:   -6.15 KCAL/MOL
REMARK 924 INTRA-LIGAND FREE ENERGY PREDICTED BY IDOCK:    1.22 KCAL/MOL
REMARK 927      BINDING AFFINITY PREDICTED BY RF-SCORE:    0.00 PKD
ROOT
HETATM    1  O   UNL     1      -9.649   5.825  66.589  1.00  0.00    -0.142 OA 
HETATM    2  H   UNL     1     -10.090   5.252  67.204  1.00  0.00     0.000 HD 
HETATM    3  C   UNL     1      -9.370   7.061  67.242  1.00  0.00    -0.133 C  
HETATM    4  C   UNL     1      -8.666   7.978  66.257  1.00  0.00    -0.153 C  
HETATM    5  O   UNL     1      -8.376   9.222  66.856  1.00  0.00    -0.121 OA 
HETATM    6  C   UNL     1      -7.477   9.135  67.945  1.00  0.00    -0.084 C  
HETATM    7  C   UNL     1      -7.997   8.204  69.067  1.00  0.00    -0.113 C  
HETATM    8  C   UNL     1      -8.532   6.859  68.514  1.00  0.00    -0.123 C  
ENDROOT
BRANCH   6   9
HETATM    9  O   UNL     1      -7.313  10.446  68.494  1.00  0.00    -0.081 OA 
BRANCH   9  10
HETATM   10  C   UNL     1      -8.534  11.159  68.729  1.00  0.00    -0.134 C  
HETATM   11  H   UNL     1     -12.777  12.753  67.445  1.00  0.00     0.000 HD 
HETATM   12  C   UNL     1      -8.851  12.035  67.486  1.00  0.00    -0.172 C  
HETATM   13  C   UNL     1      -9.720  10.228  69.025  1.00  0.00    -0.205 C  
HETATM   14  C   UNL     1     -10.242  12.686  67.618  1.00  0.00    -0.217 C  
HETATM   15  O   UNL     1     -12.533  12.298  68.243  1.00  0.00    -0.032 OA 
HETATM   16  O   UNL     1     -10.934  10.957  69.181  1.00  0.00    -0.206 OA 
HETATM   17  C   UNL     1     -11.298  11.637  67.990  1.00  0.00    -0.296 C  
BRANCH  14  18
HETATM   18  O   UNL     1     -10.610  13.543  66.540  1.00  0.00    -0.277 OA 
HETATM   19  S   UNL     1     -11.149  13.011  65.107  1.00  0.00    -0.302 S  
HETATM   20  O   UNL     1     -10.203  12.048  64.594  1.00  0.00    -0.267 OA 
HETATM   21  O   UNL     1     -12.505  12.226  65.462  1.00  0.00    -0.597 OA 
HETATM   22  O   UNL     1     -11.551  14.171  64.347  1.00  0.00    -0.389 OA 
ENDBRANCH  14  18
BRANCH  12  23
HETATM   23  O   UNL     1      -7.815  12.983  67.190  1.00  0.00    -0.151 OA 
HETATM   24  S   UNL     1      -7.223  13.997  68.310  1.00  0.00    -0.131 S  
HETATM   25  O   UNL     1      -8.246  14.970  68.618  1.00  0.00    -0.139 OA 
HETATM   26  O   UNL     1      -6.098  14.792  67.478  1.00  0.00    -0.317 OA 
HETATM   27  O   UNL     1      -6.558  13.250  69.346  1.00  0.00    -0.109 OA 
ENDBRANCH  12  23
ENDBRANCH   9  10
ENDBRANCH   6   9
BRANCH   7  28
HETATM   28  O   UNL     1      -6.940   7.902  69.995  1.00  0.00    -0.048 OA 
HETATM   29  O   UNL     1      -6.393   9.867  71.422  1.00  0.00    -0.296 OA 
HETATM   30  O   UNL     1      -5.921   7.635  72.264  1.00  0.00    -0.039 OA 
HETATM   31  S   UNL     1      -6.990   8.553  71.490  1.00  0.00    -0.087 S  
HETATM   32  O   UNL     1      -8.287   8.303  72.069  1.00  0.00    -0.137 OA 
ENDBRANCH   7  28
BRANCH   8  33
HETATM   33  O   UNL     1      -9.335   6.275  69.554  1.00  0.00    -0.141 OA 
HETATM   34  S   UNL     1      -9.030   4.773  70.093  1.00  0.00    -0.104 S  
HETATM   35  O   UNL     1      -9.665   3.821  69.215  1.00  0.00    -0.176 OA 
HETATM   36  O   UNL     1      -7.637   4.693  70.472  1.00  0.00    -0.052 OA 
HETATM   37  O   UNL     1      -9.926   4.720  71.425  1.00  0.00    -0.181 OA 
ENDBRANCH   8  33
TORSDOF 6
ENDMDL
MODEL      175
REMARK 921   NORMALIZED FREE ENERGY PREDICTED BY IDOCK:   -2.08 KCAL/MOL
REMARK 922        TOTAL FREE ENERGY PREDICTED BY IDOCK:   -4.91 KCAL/MOL
REMARK 923 INTER-LIGAND FREE ENERGY PREDICTED BY IDOCK:   -5.39 KCAL/MOL
REMARK 924 INTRA-LIGAND FREE ENERGY PREDICTED BY IDOCK:    0.48 KCAL/MOL
REMARK 927      BINDING AFFINITY PREDICTED BY RF-SCORE:    0.00 PKD
ROOT
HETATM    1  O   UNL     1     -12.524  16.756  68.603  1.00  0.00     0.466 OA 
HETATM    2  H   UNL     1     -12.482  17.583  68.138  1.00  0.00     0.000 HD 
HETATM    3  C   UNL     1     -11.445  15.934  68.166  1.00  0.00    -0.281 C  
HETATM    4  C   UNL     1     -11.514  14.613  68.910  1.00  0.00    -0.298 C  
HETATM    5  O   UNL     1     -10.468  13.757  68.503  1.00  0.00    -0.235 OA 
HETATM    6  C   UNL     1      -9.177  14.253  68.803  1.00  0.00    -0.112 C  
HETATM    7  C   UNL     1      -8.909  15.633  68.158  1.00  0.00    -0.174 C  
HETATM    8  C   UNL     1     -10.084  16.620  68.370  1.00  0.00    -0.268 C  
ENDROOT
BRANCH   6   9
HETATM    9  O   UNL     1      -8.215  13.326  68.291  1.00  0.00    -0.148 OA 
BRANCH   9  10
HETATM   10  C   UNL     1      -8.533  12.770  67.009  1.00  0.00    -0.153 C  
HETATM   11  H   UNL     1     -10.635   9.621  64.206  1.00  0.00     0.000 HD 
HETATM   12  C   UNL     1      -8.377  11.226  67.078  1.00  0.00    -0.153 C  
HETATM   13  C   UNL     1      -9.953  13.128  66.542  1.00  0.00    -0.268 C  
HETATM   14  C   UNL     1      -8.876  10.568  65.777  1.00  0.00    -0.175 C  
HETATM   15  O   UNL     1     -10.634  10.569  64.134  1.00  0.00    -0.177 OA 
HETATM   16  O   UNL     1     -10.271  12.502  65.301  1.00  0.00    -0.279 OA 
HETATM   17  C   UNL     1     -10.272  11.087  65.409  1.00  0.00    -0.274 C  
BRANCH  14  18
HETATM   18  O   UNL     1      -8.737   9.150  65.729  1.00  0.00    -0.145 OA 
HETATM   19  S   UNL     1      -7.807   8.370  64.654  1.00  0.00    -0.133 S  
HETATM   20  O   UNL     1      -8.171   8.816  63.330  1.00  0.00    -0.170 OA 
HETATM   21  O   UNL     1      -6.322   8.898  64.960  1.00  0.00    -0.064 OA 
HETATM   22  O   UNL     1      -7.815   6.973  65.022  1.00  0.00    -0.111 OA 
ENDBRANCH  14  18
BRANCH  12  23
HETATM   23  O   UNL     1      -7.050  10.814  67.441  1.00  0.00    -0.086 OA 
HETATM   24  S   UNL     1      -6.725  10.084  68.853  1.00  0.00    -0.054 S  
HETATM   25  O   UNL     1      -6.883  11.058  69.908  1.00  0.00    -0.147 OA 
HETATM   26  O   UNL     1      -5.142   9.819  68.734  1.00  0.00    -0.037 OA 
HETATM   27  O   UNL     1      -7.382   8.803  68.905  1.00  0.00    -0.076 OA 
ENDBRANCH  12  23
ENDBRANCH   9  10
ENDBRANCH   6   9
BRANCH   7  28
HETATM   28  O   UNL     1      -7.732  16.231  68.729  1.00  0.00    -0.176 OA 
HETATM   29  O   UNL     1      -5.655  15.250  67.769  1.00  0.00    -0.172 OA 
HETATM   30  O   UNL     1      -5.581  17.506  68.673  1.00  0.00    -0.153 OA 
HETATM   31  S   UNL     1      -6.427  16.472  67.780  1.00  0.00    -0.156 S  
HETATM   32  O   UNL     1      -6.837  17.158  66.580  1.00  0.00    -0.215 OA 
ENDBRANCH   7  28
BRANCH   8  33
HETATM   33  O   UNL     1      -9.911  17.680  67.414  1.00  0.00    -0.299 OA 
HETATM   34  S   UNL     1     -10.344  19.203  67.779  1.00  0.00    -0.429 S  
HETATM   35  O   UNL     1     -11.757  19.361  67.538  1.00  0.00     0.547 OA 
HETATM   36  O   UNL     1      -9.706  19.579  69.021  1.00  0.00    -0.412 OA 
HETATM   37  O   UNL     1      -9.659  20.028  66.582  1.00  0.00    -0.375 OA 
ENDBRANCH   8  33
TORSDOF 6
ENDMDL
MODEL      176
REMARK 921   NORMALIZED FREE ENERGY PREDICTED BY IDOCK:   -2.05 KCAL/MOL
REMARK 922        TOTAL FREE ENERGY PREDICTED BY IDOCK:   -4.87 KCAL/MOL
REMARK 923 INTER-LIGAND FREE ENERGY PREDICTED BY IDOCK:   -5.95 KCAL/MOL
REMARK 924 INTRA-LIGAND FREE ENERGY PREDICTED BY IDOCK:    1.07 KCAL/MOL
REMARK 927      BINDING AFFINITY PREDICTED BY RF-SCORE:    0.00 PKD
ROOT
HETATM    1  O   UNL     1     -11.436   6.708  71.551  1.00  0.00    -0.268 OA 
HETATM    2  H   UNL     1     -11.075   6.286  72.322  1.00  0.00     0.000 HD 
HETATM    3  C   UNL     1     -10.366   7.294  70.815  1.00  0.00    -0.202 C  
HETATM    4  C   UNL     1     -10.942   7.969  69.583  1.00  0.00    -0.101 C  
HETATM    5  O   UNL     1      -9.919   8.575  68.822  1.00  0.00    -0.176 OA 
HETATM    6  C   UNL     1      -8.977   7.658  68.301  1.00  0.00    -0.127 C  
HETATM    7  C   UNL     1      -8.285   6.827  69.409  1.00  0.00    -0.128 C  
HETATM    8  C   UNL     1      -9.297   6.257  70.434  1.00  0.00    -0.161 C  
ENDROOT
BRANCH   6   9
HETATM    9  O   UNL     1      -7.971   8.400  67.605  1.00  0.00    -0.108 OA 
BRANCH   9  10
HETATM   10  C   UNL     1      -8.291   9.777  67.370  1.00  0.00    -0.114 C  
HETATM   11  H   UNL     1     -11.296  13.389  67.037  1.00  0.00     0.000 HD 
HETATM   12  C   UNL     1      -9.542   9.852  66.453  1.00  0.00    -0.200 C  
HETATM   13  C   UNL     1      -8.550  10.558  68.668  1.00  0.00    -0.139 C  
HETATM   14  C   UNL     1     -10.030  11.308  66.313  1.00  0.00    -0.221 C  
HETATM   15  O   UNL     1     -10.475  13.346  67.513  1.00  0.00    -0.234 OA 
HETATM   16  O   UNL     1      -8.939  11.903  68.403  1.00  0.00    -0.183 OA 
HETATM   17  C   UNL     1     -10.165  11.968  67.692  1.00  0.00    -0.199 C  
BRANCH  14  18
HETATM   18  O   UNL     1     -11.155  11.485  65.457  1.00  0.00    -0.271 OA 
HETATM   19  S   UNL     1     -11.123  12.362  64.093  1.00  0.00    -0.410 S  
HETATM   20  O   UNL     1     -10.606  13.673  64.407  1.00  0.00    -0.423 OA 
HETATM   21  O   UNL     1     -10.042  11.615  63.169  1.00  0.00    -0.397 OA 
HETATM   22  O   UNL     1     -12.398  12.177  63.439  1.00  0.00    -0.552 OA 
ENDBRANCH  14  18
BRANCH  12  23
HETATM   23  O   UNL     1      -9.348   9.203  65.187  1.00  0.00    -0.218 OA 
HETATM   24  S   UNL     1      -7.886   9.073  64.496  1.00  0.00    -0.131 S  
HETATM   25  O   UNL     1      -7.475  10.389  64.064  1.00  0.00    -0.108 OA 
HETATM   26  O   UNL     1      -8.226   8.256  63.152  1.00  0.00    -0.161 OA 
HETATM   27  O   UNL     1      -7.031   8.245  65.308  1.00  0.00    -0.065 OA 
ENDBRANCH  12  23
ENDBRANCH   9  10
ENDBRANCH   6   9
BRANCH   7  28
HETATM   28  O   UNL     1      -7.579   5.715  68.831  1.00  0.00    -0.085 OA 
HETATM   29  O   UNL     1      -5.445   6.441  67.774  1.00  0.00    -0.004 OA 
HETATM   30  O   UNL     1      -5.648   4.149  68.560  1.00  0.00    -0.012 OA 
HETATM   31  S   UNL     1      -5.949   5.690  68.901  1.00  0.00    -0.025 S  
HETATM   32  O   UNL     1      -5.533   5.930  70.261  1.00  0.00    -0.012 OA 
ENDBRANCH   7  28
BRANCH   8  33
HETATM   33  O   UNL     1      -8.537   5.875  71.594  1.00  0.00    -0.130 OA 
HETATM   34  S   UNL     1      -8.671   4.379  72.215  1.00  0.00    -0.114 S  
HETATM   35  O   UNL     1      -9.821   4.332  73.084  1.00  0.00    -0.129 OA 
HETATM   36  O   UNL     1      -8.436   3.419  71.160  1.00  0.00    -0.065 OA 
HETATM   37  O   UNL     1      -7.425   4.339  73.229  1.00  0.00    -0.073 OA 
ENDBRANCH   8  33
TORSDOF 6
ENDMDL
MODEL      177
REMARK 921   NORMALIZED FREE ENERGY PREDICTED BY IDOCK:   -2.00 KCAL/MOL
REMARK 922        TOTAL FREE ENERGY PREDICTED BY IDOCK:   -4.80 KCAL/MOL
REMARK 923 INTER-LIGAND FREE ENERGY PREDICTED BY IDOCK:   -6.60 KCAL/MOL
REMARK 924 INTRA-LIGAND FREE ENERGY PREDICTED BY IDOCK:    1.80 KCAL/MOL
REMARK 927      BINDING AFFINITY PREDICTED BY RF-SCORE:    0.00 PKD
ROOT
HETATM    1  O   UNL     1     -10.563   5.209  72.345  1.00  0.00    -0.209 OA 
HETATM    2  H   UNL     1      -9.989   5.356  73.087  1.00  0.00     0.000 HD 
HETATM    3  C   UNL     1     -10.294   6.204  71.361  1.00  0.00    -0.214 C  
HETATM    4  C   UNL     1     -11.212   5.969  70.174  1.00  0.00    -0.342 C  
HETATM    5  O   UNL     1     -10.989   6.938  69.173  1.00  0.00    -0.233 OA 
HETATM    6  C   UNL     1      -9.690   6.892  68.615  1.00  0.00    -0.136 C  
HETATM    7  C   UNL     1      -8.583   7.080  69.679  1.00  0.00    -0.134 C  
HETATM    8  C   UNL     1      -8.817   6.201  70.933  1.00  0.00    -0.136 C  
ENDROOT
BRANCH   6   9
HETATM    9  O   UNL     1      -9.578   7.953  67.661  1.00  0.00    -0.144 OA 
BRANCH   9  10
HETATM   10  C   UNL     1      -9.602   9.273  68.221  1.00  0.00    -0.147 C  
HETATM   11  H   UNL     1     -11.080  13.744  68.364  1.00  0.00     0.000 HD 
HETATM   12  C   UNL     1      -9.515  10.309  67.067  1.00  0.00    -0.163 C  
HETATM   13  C   UNL     1     -10.858   9.539  69.065  1.00  0.00    -0.160 C  
HETATM   14  C   UNL     1      -9.713  11.741  67.602  1.00  0.00    -0.182 C  
HETATM   15  O   UNL     1     -11.032  13.114  69.074  1.00  0.00    -0.243 OA 
HETATM   16  O   UNL     1     -10.893  10.880  69.546  1.00  0.00    -0.239 OA 
HETATM   17  C   UNL     1     -10.965  11.820  68.486  1.00  0.00    -0.227 C  
BRANCH  14  18
HETATM   18  O   UNL     1      -9.613  12.769  66.621  1.00  0.00    -0.242 OA 
HETATM   19  S   UNL     1     -10.770  13.097  65.535  1.00  0.00    -0.289 S  
HETATM   20  O   UNL     1     -11.110  11.874  64.848  1.00  0.00    -0.303 OA 
HETATM   21  O   UNL     1     -12.036  13.529  66.424  1.00  0.00    -0.399 OA 
HETATM   22  O   UNL     1     -10.361  14.287  64.825  1.00  0.00    -0.433 OA 
ENDBRANCH  14  18
BRANCH  12  23
HETATM   23  O   UNL     1      -8.326  10.167  66.275  1.00  0.00    -0.125 OA 
HETATM   24  S   UNL     1      -8.327   9.412  64.839  1.00  0.00    -0.161 S  
HETATM   25  O   UNL     1      -8.531   8.001  65.074  1.00  0.00    -0.143 OA 
HETATM   26  O   UNL     1      -6.790   9.564  64.384  1.00  0.00    -0.092 OA 
HETATM   27  O   UNL     1      -9.137  10.145  63.900  1.00  0.00    -0.217 OA 
ENDBRANCH  12  23
ENDBRANCH   9  10
ENDBRANCH   6   9
BRANCH   7  28
HETATM   28  O   UNL     1      -7.300   6.725  69.134  1.00  0.00    -0.088 OA 
HETATM   29  O   UNL     1      -6.533   4.513  69.981  1.00  0.00    -0.030 OA 
HETATM   30  O   UNL     1      -5.702   5.303  67.836  1.00  0.00    -0.015 OA 
HETATM   31  S   UNL     1      -6.999   5.161  68.777  1.00  0.00    -0.053 S  
HETATM   32  O   UNL     1      -8.076   4.647  67.967  1.00  0.00    -0.088 OA 
ENDBRANCH   7  28
BRANCH   8  33
HETATM   33  O   UNL     1      -7.994   6.746  71.979  1.00  0.00    -0.097 OA 
HETATM   34  S   UNL     1      -8.296   8.223  72.586  1.00  0.00    -0.150 S  
HETATM   35  O   UNL     1      -7.686   9.215  71.735  1.00  0.00    -0.344 OA 
HETATM   36  O   UNL     1      -9.680   8.278  72.999  1.00  0.00    -0.269 OA 
HETATM   37  O   UNL     1      -7.370   8.226  73.899  1.00  0.00    -0.151 OA 
ENDBRANCH   8  33
TORSDOF 6
ENDMDL
MODEL      178
REMARK 921   NORMALIZED FREE ENERGY PREDICTED BY IDOCK:   -1.98 KCAL/MOL
REMARK 922        TOTAL FREE ENERGY PREDICTED BY IDOCK:   -4.78 KCAL/MOL
REMARK 923 INTER-LIGAND FREE ENERGY PREDICTED BY IDOCK:   -6.50 KCAL/MOL
REMARK 924 INTRA-LIGAND FREE ENERGY PREDICTED BY IDOCK:    1.73 KCAL/MOL
REMARK 927      BINDING AFFINITY PREDICTED BY RF-SCORE:    0.00 PKD
ROOT
HETATM    1  O   UNL     1     -10.824   4.358  65.706  1.00  0.00    -0.566 OA 
HETATM    2  H   UNL     1     -10.256   3.656  65.413  1.00  0.00     0.000 HD 
HETATM    3  C   UNL     1     -10.198   5.018  66.804  1.00  0.00    -0.248 C  
HETATM    4  C   UNL     1     -11.106   6.141  67.271  1.00  0.00    -0.236 C  
HETATM    5  O   UNL     1     -10.532   6.821  68.367  1.00  0.00    -0.178 OA 
HETATM    6  C   UNL     1      -9.314   7.470  68.061  1.00  0.00    -0.139 C  
HETATM    7  C   UNL     1      -8.241   6.492  67.525  1.00  0.00    -0.121 C  
HETATM    8  C   UNL     1      -8.802   5.545  66.435  1.00  0.00    -0.126 C  
ENDROOT
BRANCH   6   9
HETATM    9  O   UNL     1      -8.813   8.068  69.261  1.00  0.00    -0.140 OA 
BRANCH   9  10
HETATM   10  C   UNL     1      -9.593   9.162  69.761  1.00  0.00    -0.181 C  
HETATM   11  H   UNL     1     -13.493  11.798  69.942  1.00  0.00     0.000 HD 
HETATM   12  C   UNL     1     -10.275   9.880  68.565  1.00  0.00    -0.177 C  
HETATM   13  C   UNL     1     -10.658   8.718  70.776  1.00  0.00    -0.220 C  
HETATM   14  C   UNL     1     -11.262  10.954  69.064  1.00  0.00    -0.266 C  
HETATM   15  O   UNL     1     -12.998  11.424  70.662  1.00  0.00    -0.154 OA 
HETATM   16  O   UNL     1     -11.467   9.812  71.201  1.00  0.00    -0.343 OA 
HETATM   17  C   UNL     1     -12.204  10.372  70.126  1.00  0.00    -0.229 C  
BRANCH  14  18
HETATM   18  O   UNL     1     -11.912  11.698  68.036  1.00  0.00    -0.577 OA 
HETATM   19  S   UNL     1     -11.857  13.313  67.919  1.00  0.00    -0.325 S  
HETATM   20  O   UNL     1     -12.264  13.876  69.184  1.00  0.00    -0.356 OA 
HETATM   21  O   UNL     1     -10.299  13.643  67.713  1.00  0.00    -0.235 OA 
HETATM   22  O   UNL     1     -12.504  13.671  66.677  1.00  0.00    -0.361 OA 
ENDBRANCH  14  18
BRANCH  12  23
HETATM   23  O   UNL     1      -9.334  10.387  67.606  1.00  0.00    -0.147 OA 
HETATM   24  S   UNL     1      -7.914  11.038  68.047  1.00  0.00    -0.120 S  
HETATM   25  O   UNL     1      -8.182  12.303  68.692  1.00  0.00    -0.115 OA 
HETATM   26  O   UNL     1      -7.259  11.401  66.622  1.00  0.00    -0.140 OA 
HETATM   27  O   UNL     1      -7.087  10.036  68.668  1.00  0.00    -0.075 OA 
ENDBRANCH  12  23
ENDBRANCH   9  10
ENDBRANCH   6   9
BRANCH   7  28
HETATM   28  O   UNL     1      -7.146   7.221  66.944  1.00  0.00    -0.081 OA 
HETATM   29  O   UNL     1      -6.893   6.708  64.521  1.00  0.00    -0.044 OA 
HETATM   30  O   UNL     1      -6.086   8.842  65.360  1.00  0.00    -0.054 OA 
HETATM   31  S   UNL     1      -7.285   7.773  65.414  1.00  0.00    -0.070 S  
HETATM   32  O   UNL     1      -8.527   8.497  65.286  1.00  0.00    -0.160 OA 
ENDBRANCH   7  28
BRANCH   8  33
HETATM   33  O   UNL     1      -7.872   4.454  66.317  1.00  0.00    -0.093 OA 
HETATM   34  S   UNL     1      -7.507   3.535  67.606  1.00  0.00    -0.066 S  
HETATM   35  O   UNL     1      -6.478   4.190  68.376  1.00  0.00    -0.036 OA 
HETATM   36  O   UNL     1      -8.738   3.044  68.186  1.00  0.00    -0.090 OA 
HETATM   37  O   UNL     1      -6.741   2.302  66.916  1.00  0.00    -0.038 OA 
ENDBRANCH   8  33
TORSDOF 6
ENDMDL
MODEL      179
REMARK 921   NORMALIZED FREE ENERGY PREDICTED BY IDOCK:   -1.94 KCAL/MOL
REMARK 922        TOTAL FREE ENERGY PREDICTED BY IDOCK:   -4.72 KCAL/MOL
REMARK 923 INTER-LIGAND FREE ENERGY PREDICTED BY IDOCK:   -4.62 KCAL/MOL
REMARK 924 INTRA-LIGAND FREE ENERGY PREDICTED BY IDOCK:   -0.09 KCAL/MOL
REMARK 927      BINDING AFFINITY PREDICTED BY RF-SCORE:    0.00 PKD
ROOT
HETATM    1  O   UNL     1      -9.558   9.112  64.756  1.00  0.00    -0.407 OA 
HETATM    2  H   UNL     1     -10.276   8.557  65.035  1.00  0.00     0.000 HD 
HETATM    3  C   UNL     1      -9.109   9.870  65.876  1.00  0.00    -0.162 C  
HETATM    4  C   UNL     1      -7.961  10.757  65.429  1.00  0.00    -0.027 C  
HETATM    5  O   UNL     1      -7.486  11.538  66.505  1.00  0.00    -0.115 OA 
HETATM    6  C   UNL     1      -6.939  10.776  67.563  1.00  0.00    -0.084 C  
HETATM    7  C   UNL     1      -7.953   9.765  68.151  1.00  0.00    -0.100 C  
HETATM    8  C   UNL     1      -8.694   8.968  67.049  1.00  0.00    -0.116 C  
ENDROOT
BRANCH   6   9
HETATM    9  O   UNL     1      -6.550  11.676  68.605  1.00  0.00    -0.057 OA 
BRANCH   9  10
HETATM   10  C   UNL     1      -6.735  13.065  68.303  1.00  0.00    -0.096 C  
HETATM   11  H   UNL     1      -8.042  17.458  69.392  1.00  0.00     0.000 HD 
HETATM   12  C   UNL     1      -8.131  13.509  68.820  1.00  0.00     0.024 C  
HETATM   13  C   UNL     1      -5.646  13.958  68.918  1.00  0.00    -0.082 C  
HETATM   14  C   UNL     1      -8.307  15.034  68.676  1.00  0.00    -0.166 C  
HETATM   15  O   UNL     1      -7.233  17.165  68.988  1.00  0.00    -0.236 OA 
HETATM   16  O   UNL     1      -5.894  15.338  68.665  1.00  0.00    -0.084 OA 
HETATM   17  C   UNL     1      -7.101  15.776  69.269  1.00  0.00    -0.199 C  
BRANCH  14  18
HETATM   18  O   UNL     1      -9.575  15.535  69.089  1.00  0.00    -0.217 OA 
HETATM   19  S   UNL     1     -10.415  16.654  68.270  1.00  0.00    -0.339 S  
HETATM   20  O   UNL     1      -9.554  17.789  68.038  1.00  0.00    -0.273 OA 
HETATM   21  O   UNL     1     -10.711  15.964  66.850  1.00  0.00    -0.321 OA 
HETATM   22  O   UNL     1     -11.698  16.784  68.922  1.00  0.00     0.040 OA 
ENDBRANCH  14  18
BRANCH  12  23
HETATM   23  O   UNL     1      -9.209  12.764  68.233  1.00  0.00    -0.204 OA 
HETATM   24  S   UNL     1     -10.548  12.378  69.063  1.00  0.00     0.033 S  
HETATM   25  O   UNL     1     -10.191  11.388  70.054  1.00  0.00     0.589 OA 
HETATM   26  O   UNL     1     -11.412  11.596  67.953  1.00  0.00    -0.279 OA 
HETATM   27  O   UNL     1     -11.267  13.574  69.417  1.00  0.00    -0.248 OA 
ENDBRANCH  12  23
ENDBRANCH   9  10
ENDBRANCH   6   9
BRANCH   7  28
HETATM   28  O   UNL     1      -7.279   8.816  68.996  1.00  0.00    -0.070 OA 
HETATM   29  O   UNL     1      -6.947   9.716  71.293  1.00  0.00    -0.322 OA 
HETATM   30  O   UNL     1      -7.048   7.307  70.978  1.00  0.00    -0.062 OA 
HETATM   31  S   UNL     1      -7.701   8.719  70.569  1.00  0.00    -0.102 S  
HETATM   32  O   UNL     1      -9.134   8.586  70.666  1.00  0.00    -0.144 OA 
ENDBRANCH   7  28
BRANCH   8  33
HETATM   33  O   UNL     1      -9.855   8.388  67.668  1.00  0.00    -0.155 OA 
HETATM   34  S   UNL     1     -10.105   6.783  67.621  1.00  0.00    -0.178 S  
HETATM   35  O   UNL     1     -10.734   6.442  66.369  1.00  0.00    -0.109 OA 
HETATM   36  O   UNL     1      -8.922   6.117  68.120  1.00  0.00    -0.116 OA 
HETATM   37  O   UNL     1     -11.282   6.609  68.700  1.00  0.00    -0.239 OA 
ENDBRANCH   8  33
TORSDOF 6
ENDMDL
MODEL      180
REMARK 921   NORMALIZED FREE ENERGY PREDICTED BY IDOCK:   -1.93 KCAL/MOL
REMARK 922        TOTAL FREE ENERGY PREDICTED BY IDOCK:   -4.71 KCAL/MOL
REMARK 923 INTER-LIGAND FREE ENERGY PREDICTED BY IDOCK:   -7.04 KCAL/MOL
REMARK 924 INTRA-LIGAND FREE ENERGY PREDICTED BY IDOCK:    2.33 KCAL/MOL
REMARK 927      BINDING AFFINITY PREDICTED BY RF-SCORE:    0.00 PKD
ROOT
HETATM    1  O   UNL     1      -9.660   5.306  68.939  1.00  0.00    -0.121 OA 
HETATM    2  H   UNL     1     -10.094   4.845  69.647  1.00  0.00     0.000 HD 
HETATM    3  C   UNL     1      -9.999   6.688  69.024  1.00  0.00    -0.153 C  
HETATM    4  C   UNL     1      -9.304   7.425  67.893  1.00  0.00    -0.134 C  
HETATM    5  O   UNL     1      -9.618   8.801  67.928  1.00  0.00    -0.140 OA 
HETATM    6  C   UNL     1      -9.165   9.459  69.095  1.00  0.00    -0.155 C  
HETATM    7  C   UNL     1      -9.738   8.831  70.388  1.00  0.00    -0.180 C  
HETATM    8  C   UNL     1      -9.629   7.286  70.391  1.00  0.00    -0.165 C  
ENDROOT
BRANCH   6   9
HETATM    9  O   UNL     1      -9.593  10.822  69.032  1.00  0.00    -0.197 OA 
BRANCH   9  10
HETATM   10  C   UNL     1      -8.787  11.671  68.205  1.00  0.00    -0.164 C  
HETATM   11  H   UNL     1      -6.805  15.800  67.101  1.00  0.00     0.000 HD 
HETATM   12  C   UNL     1      -9.526  13.022  68.001  1.00  0.00    -0.217 C  
HETATM   13  C   UNL     1      -7.391  11.926  68.796  1.00  0.00    -0.105 C  
HETATM   14  C   UNL     1      -8.623  14.032  67.264  1.00  0.00    -0.216 C  
HETATM   15  O   UNL     1      -6.399  14.942  67.142  1.00  0.00    -0.258 OA 
HETATM   16  O   UNL     1      -6.639  12.832  67.993  1.00  0.00    -0.077 OA 
HETATM   17  C   UNL     1      -7.244  14.113  67.932  1.00  0.00    -0.158 C  
BRANCH  14  18
HETATM   18  O   UNL     1      -9.229  15.294  66.995  1.00  0.00    -0.199 OA 
HETATM   19  S   UNL     1      -9.820  16.274  68.142  1.00  0.00    -0.233 S  
HETATM   20  O   UNL     1     -10.740  15.517  68.958  1.00  0.00    -0.223 OA 
HETATM   21  O   UNL     1      -8.545  16.639  69.048  1.00  0.00    -0.247 OA 
HETATM   22  O   UNL     1     -10.207  17.505  67.491  1.00  0.00    -0.314 OA 
ENDBRANCH  14  18
BRANCH  12  23
HETATM   23  O   UNL     1     -10.813  12.868  67.384  1.00  0.00    -0.244 OA 
HETATM   24  S   UNL     1     -10.988  12.299  65.875  1.00  0.00    -0.315 S  
HETATM   25  O   UNL     1     -10.491  13.300  64.959  1.00  0.00    -0.320 OA 
HETATM   26  O   UNL     1     -12.588  12.302  65.702  1.00  0.00    -0.504 OA 
HETATM   27  O   UNL     1     -10.541  10.931  65.811  1.00  0.00    -0.232 OA 
ENDBRANCH  12  23
ENDBRANCH   9  10
ENDBRANCH   6   9
BRANCH   7  28
HETATM   28  O   UNL     1      -9.025   9.319  71.538  1.00  0.00    -0.316 OA 
HETATM   29  O   UNL     1      -9.326   7.815  73.500  1.00  0.00    -0.258 OA 
HETATM   30  O   UNL     1      -7.331   9.200  73.375  1.00  0.00    -0.150 OA 
HETATM   31  S   UNL     1      -8.326   8.245  72.549  1.00  0.00    -0.157 S  
HETATM   32  O   UNL     1      -7.521   7.329  71.780  1.00  0.00    -0.082 OA 
ENDBRANCH   7  28
BRANCH   8  33
HETATM   33  O   UNL     1     -10.530   6.810  71.405  1.00  0.00    -0.213 OA 
HETATM   34  S   UNL     1     -12.110   7.187  71.352  1.00  0.00    -0.363 S  
HETATM   35  O   UNL     1     -12.302   8.489  71.942  1.00  0.00    -0.310 OA 
HETATM   36  O   UNL     1     -12.627   6.822  70.052  1.00  0.00     0.174 OA 
HETATM   37  O   UNL     1     -12.718   6.179  72.445  1.00  0.00    -0.090 OA 
ENDBRANCH   8  33
TORSDOF 6
ENDMDL
MODEL      181
REMARK 921   NORMALIZED FREE ENERGY PREDICTED BY IDOCK:   -1.92 KCAL/MOL
REMARK 922        TOTAL FREE ENERGY PREDICTED BY IDOCK:   -4.70 KCAL/MOL
REMARK 923 INTER-LIGAND FREE ENERGY PREDICTED BY IDOCK:   -5.19 KCAL/MOL
REMARK 924 INTRA-LIGAND FREE ENERGY PREDICTED BY IDOCK:    0.49 KCAL/MOL
REMARK 927      BINDING AFFINITY PREDICTED BY RF-SCORE:    0.00 PKD
ROOT
HETATM    1  O   UNL     1     -11.886  13.129  70.225  1.00  0.00    -0.471 OA 
HETATM    2  H   UNL     1     -11.866  13.858  69.617  1.00  0.00     0.000 HD 
HETATM    3  C   UNL     1     -11.557  11.938  69.515  1.00  0.00    -0.327 C  
HETATM    4  C   UNL     1     -11.588  10.773  70.488  1.00  0.00    -0.330 C  
HETATM    5  O   UNL     1     -11.278   9.565  69.829  1.00  0.00    -0.223 OA 
HETATM    6  C   UNL     1      -9.969   9.528  69.293  1.00  0.00    -0.187 C  
HETATM    7  C   UNL     1      -9.711  10.673  68.284  1.00  0.00    -0.161 C  
HETATM    8  C   UNL     1     -10.192  12.046  68.817  1.00  0.00    -0.129 C  
ENDROOT
BRANCH   6   9
HETATM    9  O   UNL     1      -9.803   8.283  68.608  1.00  0.00    -0.167 OA 
BRANCH   9  10
HETATM   10  C   UNL     1      -9.007   7.314  69.302  1.00  0.00    -0.135 C  
HETATM   11  H   UNL     1      -4.937   5.153  70.281  1.00  0.00     0.000 HD 
HETATM   12  C   UNL     1      -8.067   6.614  68.282  1.00  0.00    -0.111 C  
HETATM   13  C   UNL     1      -8.175   7.930  70.437  1.00  0.00    -0.119 C  
HETATM   14  C   UNL     1      -7.069   5.688  69.006  1.00  0.00    -0.068 C  
HETATM   15  O   UNL     1      -5.579   5.507  70.886  1.00  0.00    -0.008 OA 
HETATM   16  O   UNL     1      -7.337   6.960  71.061  1.00  0.00    -0.075 OA 
HETATM   17  C   UNL     1      -6.379   6.431  70.158  1.00  0.00    -0.039 C  
BRANCH  14  18
HETATM   18  O   UNL     1      -6.186   4.970  68.149  1.00  0.00    -0.032 OA 
HETATM   19  S   UNL     1      -6.079   3.353  68.113  1.00  0.00    -0.032 S  
HETATM   20  O   UNL     1      -5.856   2.882  69.459  1.00  0.00    -0.021 OA 
HETATM   21  O   UNL     1      -7.542   2.870  67.659  1.00  0.00    -0.057 OA 
HETATM   22  O   UNL     1      -5.194   3.009  67.024  1.00  0.00    -0.008 OA 
ENDBRANCH  14  18
BRANCH  12  23
HETATM   23  O   UNL     1      -8.780   5.953  67.226  1.00  0.00    -0.110 OA 
HETATM   24  S   UNL     1     -10.215   5.235  67.467  1.00  0.00    -0.157 S  
HETATM   25  O   UNL     1      -9.996   4.057  68.275  1.00  0.00    -0.047 OA 
HETATM   26  O   UNL     1     -10.569   4.697  65.993  1.00  0.00    -0.302 OA 
HETATM   27  O   UNL     1     -11.203   6.221  67.824  1.00  0.00    -0.325 OA 
ENDBRANCH  12  23
ENDBRANCH   9  10
ENDBRANCH   6   9
BRANCH   7  28
HETATM   28  O   UNL     1      -8.305  10.785  68.004  1.00  0.00    -0.115 OA 
HETATM   29  O   UNL     1      -7.586   9.135  66.283  1.00  0.00    -0.091 OA 
HETATM   30  O   UNL     1      -6.305  11.184  66.555  1.00  0.00    -0.118 OA 
HETATM   31  S   UNL     1      -7.782  10.554  66.475  1.00  0.00    -0.137 S  
HETATM   32  O   UNL     1      -8.564  11.372  65.582  1.00  0.00    -0.097 OA 
ENDBRANCH   7  28
BRANCH   8  33
HETATM   33  O   UNL     1     -10.280  12.922  67.680  1.00  0.00    -0.214 OA 
HETATM   34  S   UNL     1     -11.663  13.047  66.836  1.00  0.00    -0.385 S  
HETATM   35  O   UNL     1     -11.728  11.971  65.878  1.00  0.00    -0.432 OA 
HETATM   36  O   UNL     1     -12.737  13.356  67.754  1.00  0.00     0.364 OA 
HETATM   37  O   UNL     1     -11.374  14.345  65.934  1.00  0.00    -0.322 OA 
ENDBRANCH   8  33
TORSDOF 6
ENDMDL
MODEL      182
REMARK 921   NORMALIZED FREE ENERGY PREDICTED BY IDOCK:   -1.92 KCAL/MOL
REMARK 922        TOTAL FREE ENERGY PREDICTED BY IDOCK:   -4.70 KCAL/MOL
REMARK 923 INTER-LIGAND FREE ENERGY PREDICTED BY IDOCK:   -6.80 KCAL/MOL
REMARK 924 INTRA-LIGAND FREE ENERGY PREDICTED BY IDOCK:    2.10 KCAL/MOL
REMARK 927      BINDING AFFINITY PREDICTED BY RF-SCORE:    0.00 PKD
ROOT
HETATM    1  O   UNL     1     -12.281  15.707  68.923  1.00  0.00    -0.587 OA 
HETATM    2  H   UNL     1     -12.629  16.393  68.367  1.00  0.00     0.000 HD 
HETATM    3  C   UNL     1     -11.375  14.918  68.155  1.00  0.00    -0.312 C  
HETATM    4  C   UNL     1     -10.819  13.821  69.045  1.00  0.00    -0.217 C  
HETATM    5  O   UNL     1      -9.920  13.004  68.325  1.00  0.00    -0.228 OA 
HETATM    6  C   UNL     1      -8.770  13.689  67.868  1.00  0.00    -0.184 C  
HETATM    7  C   UNL     1      -9.120  14.889  66.955  1.00  0.00    -0.237 C  
HETATM    8  C   UNL     1     -10.247  15.770  67.549  1.00  0.00    -0.265 C  
ENDROOT
BRANCH   6   9
HETATM    9  O   UNL     1      -7.976  12.770  67.112  1.00  0.00    -0.167 OA 
BRANCH   9  10
HETATM   10  C   UNL     1      -8.062  11.404  67.539  1.00  0.00    -0.127 C  
HETATM   11  H   UNL     1      -6.188   7.214  68.598  1.00  0.00     0.000 HD 
HETATM   12  C   UNL     1      -7.174  10.531  66.611  1.00  0.00    -0.119 C  
HETATM   13  C   UNL     1      -7.631  11.211  69.002  1.00  0.00    -0.119 C  
HETATM   14  C   UNL     1      -7.094   9.084  67.135  1.00  0.00    -0.079 C  
HETATM   15  O   UNL     1      -6.808   7.729  69.103  1.00  0.00    -0.047 OA 
HETATM   16  O   UNL     1      -7.654   9.836  69.378  1.00  0.00    -0.085 OA 
HETATM   17  C   UNL     1      -6.729   9.067  68.625  1.00  0.00    -0.058 C  
BRANCH  14  18
HETATM   18  O   UNL     1      -6.330   8.193  66.326  1.00  0.00    -0.045 OA 
HETATM   19  S   UNL     1      -6.916   6.820  65.694  1.00  0.00    -0.065 S  
HETATM   20  O   UNL     1      -7.504   6.043  66.759  1.00  0.00    -0.084 OA 
HETATM   21  O   UNL     1      -8.102   7.305  64.726  1.00  0.00    -0.129 OA 
HETATM   22  O   UNL     1      -5.893   6.282  64.826  1.00  0.00    -0.021 OA 
ENDBRANCH  14  18
BRANCH  12  23
HETATM   23  O   UNL     1      -7.564  10.606  65.231  1.00  0.00    -0.111 OA 
HETATM   24  S   UNL     1      -9.120  10.646  64.772  1.00  0.00    -0.214 S  
HETATM   25  O   UNL     1      -9.696   9.346  65.030  1.00  0.00    -0.184 OA 
HETATM   26  O   UNL     1      -8.991  10.759  63.172  1.00  0.00    -0.200 OA 
HETATM   27  O   UNL     1      -9.742  11.854  65.249  1.00  0.00    -0.240 OA 
ENDBRANCH  12  23
ENDBRANCH   9  10
ENDBRANCH   6   9
BRANCH   7  28
HETATM   28  O   UNL     1      -7.967  15.728  66.768  1.00  0.00    -0.232 OA 
HETATM   29  O   UNL     1      -7.545  17.154  68.765  1.00  0.00    -0.243 OA 
HETATM   30  O   UNL     1      -5.683  16.596  67.303  1.00  0.00    -0.134 OA 
HETATM   31  S   UNL     1      -6.994  16.030  68.042  1.00  0.00    -0.136 S  
HETATM   32  O   UNL     1      -6.641  14.782  68.672  1.00  0.00    -0.079 OA 
ENDBRANCH   7  28
BRANCH   8  33
HETATM   33  O   UNL     1     -10.754  16.575  66.471  1.00  0.00    -0.260 OA 
HETATM   34  S   UNL     1     -10.304  18.128  66.314  1.00  0.00    -0.353 S  
HETATM   35  O   UNL     1     -11.129  18.945  67.170  1.00  0.00    -0.321 OA 
HETATM   36  O   UNL     1      -8.859  18.192  66.311  1.00  0.00    -0.405 OA 
HETATM   37  O   UNL     1     -10.833  18.469  64.836  1.00  0.00    -0.508 OA 
ENDBRANCH   8  33
TORSDOF 6
ENDMDL
MODEL      183
REMARK 921   NORMALIZED FREE ENERGY PREDICTED BY IDOCK:   -1.85 KCAL/MOL
REMARK 922        TOTAL FREE ENERGY PREDICTED BY IDOCK:   -4.60 KCAL/MOL
REMARK 923 INTER-LIGAND FREE ENERGY PREDICTED BY IDOCK:   -4.71 KCAL/MOL
REMARK 924 INTRA-LIGAND FREE ENERGY PREDICTED BY IDOCK:    0.11 KCAL/MOL
REMARK 927      BINDING AFFINITY PREDICTED BY RF-SCORE:    0.00 PKD
ROOT
HETATM    1  O   UNL     1     -12.260   6.707  72.252  1.00  0.00    -0.477 OA 
HETATM    2  H   UNL     1     -11.873   6.852  73.107  1.00  0.00     0.000 HD 
HETATM    3  C   UNL     1     -11.245   6.863  71.264  1.00  0.00    -0.268 C  
HETATM    4  C   UNL     1     -11.865   6.631  69.897  1.00  0.00    -0.175 C  
HETATM    5  O   UNL     1     -10.898   6.783  68.880  1.00  0.00    -0.237 OA 
HETATM    6  C   UNL     1      -9.848   5.838  68.945  1.00  0.00    -0.147 C  
HETATM    7  C   UNL     1      -9.094   5.884  70.295  1.00  0.00    -0.147 C  
HETATM    8  C   UNL     1     -10.059   5.915  71.507  1.00  0.00    -0.192 C  
ENDROOT
BRANCH   6   9
HETATM    9  O   UNL     1      -8.915   6.136  67.902  1.00  0.00    -0.115 OA 
BRANCH   9  10
HETATM   10  C   UNL     1      -9.366   5.816  66.579  1.00  0.00    -0.152 C  
HETATM   11  H   UNL     1      -9.232   3.312  62.591  1.00  0.00     0.000 HD 
HETATM   12  C   UNL     1      -8.128   5.607  65.665  1.00  0.00    -0.120 C  
HETATM   13  C   UNL     1     -10.258   4.566  66.540  1.00  0.00    -0.191 C  
HETATM   14  C   UNL     1      -8.556   5.090  64.276  1.00  0.00    -0.130 C  
HETATM   15  O   UNL     1      -9.987   3.538  63.123  1.00  0.00    -0.125 OA 
HETATM   16  O   UNL     1     -10.630   4.228  65.207  1.00  0.00    -0.248 OA 
HETATM   17  C   UNL     1      -9.503   3.891  64.414  1.00  0.00    -0.163 C  
BRANCH  14  18
HETATM   18  O   UNL     1      -7.490   4.903  63.350  1.00  0.00    -0.052 OA 
HETATM   19  S   UNL     1      -6.291   3.831  63.557  1.00  0.00    -0.026 S  
HETATM   20  O   UNL     1      -5.703   4.053  64.857  1.00  0.00    -0.013 OA 
HETATM   21  O   UNL     1      -7.035   2.408  63.590  1.00  0.00    -0.034 OA 
HETATM   22  O   UNL     1      -5.502   3.837  62.347  1.00  0.00    -0.005 OA 
ENDBRANCH  14  18
BRANCH  12  23
HETATM   23  O   UNL     1      -7.281   6.764  65.595  1.00  0.00    -0.069 OA 
HETATM   24  S   UNL     1      -7.827   8.208  65.095  1.00  0.00    -0.126 S  
HETATM   25  O   UNL     1      -8.094   8.119  63.677  1.00  0.00    -0.158 OA 
HETATM   26  O   UNL     1      -6.514   9.127  65.238  1.00  0.00    -0.066 OA 
HETATM   27  O   UNL     1      -8.814   8.705  66.018  1.00  0.00    -0.156 OA 
ENDBRANCH  12  23
ENDBRANCH   9  10
ENDBRANCH   6   9
BRANCH   7  28
HETATM   28  O   UNL     1      -8.255   4.724  70.439  1.00  0.00    -0.080 OA 
HETATM   29  O   UNL     1      -6.335   4.787  68.855  1.00  0.00    -0.030 OA 
HETATM   30  O   UNL     1      -6.118   3.515  70.916  1.00  0.00    -0.017 OA 
HETATM   31  S   UNL     1      -6.641   4.888  70.263  1.00  0.00    -0.037 S  
HETATM   32  O   UNL     1      -6.185   5.973  71.096  1.00  0.00    -0.036 OA 
ENDBRANCH   7  28
BRANCH   8  33
HETATM   33  O   UNL     1      -9.288   6.360  72.636  1.00  0.00    -0.143 OA 
HETATM   34  S   UNL     1      -8.976   7.940  72.856  1.00  0.00    -0.240 S  
HETATM   35  O   UNL     1      -7.829   8.307  72.063  1.00  0.00    -0.112 OA 
HETATM   36  O   UNL     1     -10.226   8.666  72.822  1.00  0.00    -0.191 OA 
HETATM   37  O   UNL     1      -8.419   7.952  74.363  1.00  0.00    -0.233 OA 
ENDBRANCH   8  33
TORSDOF 6
ENDMDL
MODEL      184
REMARK 921   NORMALIZED FREE ENERGY PREDICTED BY IDOCK:   -1.83 KCAL/MOL
REMARK 922        TOTAL FREE ENERGY PREDICTED BY IDOCK:   -4.57 KCAL/MOL
REMARK 923 INTER-LIGAND FREE ENERGY PREDICTED BY IDOCK:   -6.88 KCAL/MOL
REMARK 924 INTRA-LIGAND FREE ENERGY PREDICTED BY IDOCK:    2.30 KCAL/MOL
REMARK 927      BINDING AFFINITY PREDICTED BY RF-SCORE:    0.00 PKD
ROOT
HETATM    1  O   UNL     1      -7.068   9.323  66.352  1.00  0.00    -0.086 OA 
HETATM    2  H   UNL     1      -7.050   9.290  65.403  1.00  0.00     0.000 HD 
HETATM    3  C   UNL     1      -7.344  10.663  66.753  1.00  0.00    -0.120 C  
HETATM    4  C   UNL     1      -7.374  10.714  68.270  1.00  0.00    -0.089 C  
HETATM    5  O   UNL     1      -7.635  12.027  68.719  1.00  0.00    -0.117 OA 
HETATM    6  C   UNL     1      -8.904  12.518  68.334  1.00  0.00    -0.123 C  
HETATM    7  C   UNL     1      -9.098  12.518  66.799  1.00  0.00    -0.214 C  
HETATM    8  C   UNL     1      -8.660  11.181  66.151  1.00  0.00    -0.172 C  
ENDROOT
BRANCH   6   9
HETATM    9  O   UNL     1      -9.020  13.867  68.798  1.00  0.00    -0.121 OA 
BRANCH   9  10
HETATM   10  C   UNL     1      -7.872  14.690  68.552  1.00  0.00    -0.133 C  
HETATM   11  H   UNL     1      -5.572  18.801  68.587  1.00  0.00     0.000 HD 
HETATM   12  C   UNL     1      -8.338  16.012  67.881  1.00  0.00    -0.153 C  
HETATM   13  C   UNL     1      -7.082  15.007  69.831  1.00  0.00    -0.121 C  
HETATM   14  C   UNL     1      -7.164  17.003  67.755  1.00  0.00    -0.152 C  
HETATM   15  O   UNL     1      -5.276  17.956  68.903  1.00  0.00    -0.164 OA 
HETATM   16  O   UNL     1      -5.991  15.887  69.569  1.00  0.00    -0.129 OA 
HETATM   17  C   UNL     1      -6.433  17.150  69.096  1.00  0.00    -0.223 C  
BRANCH  14  18
HETATM   18  O   UNL     1      -7.484  18.235  67.115  1.00  0.00    -0.208 OA 
HETATM   19  S   UNL     1      -8.083  19.527  67.889  1.00  0.00    -0.311 S  
HETATM   20  O   UNL     1      -9.247  19.110  68.635  1.00  0.00    -0.355 OA 
HETATM   21  O   UNL     1      -6.939  19.921  68.945  1.00  0.00    -0.330 OA 
HETATM   22  O   UNL     1      -8.132  20.610  66.935  1.00  0.00    -0.265 OA 
ENDBRANCH  14  18
BRANCH  12  23
HETATM   23  O   UNL     1      -9.025  15.797  66.639  1.00  0.00    -0.229 OA 
HETATM   24  S   UNL     1     -10.441  16.511  66.297  1.00  0.00    -0.242 S  
HETATM   25  O   UNL     1     -11.454  15.925  67.143  1.00  0.00    -0.054 OA 
HETATM   26  O   UNL     1     -10.739  15.966  64.813  1.00  0.00    -0.559 OA 
HETATM   27  O   UNL     1     -10.263  17.938  66.213  1.00  0.00    -0.349 OA 
ENDBRANCH  12  23
ENDBRANCH   9  10
ENDBRANCH   6   9
BRANCH   7  28
HETATM   28  O   UNL     1     -10.483  12.726  66.470  1.00  0.00    -0.257 OA 
HETATM   29  O   UNL     1     -11.934  10.984  67.498  1.00  0.00    -0.529 OA 
HETATM   30  O   UNL     1     -12.895  13.156  66.976  1.00  0.00     0.230 OA 
HETATM   31  S   UNL     1     -11.621  12.392  67.590  1.00  0.00    -0.354 S  
HETATM   32  O   UNL     1     -11.270  13.044  68.828  1.00  0.00    -0.252 OA 
ENDBRANCH   7  28
BRANCH   8  33
HETATM   33  O   UNL     1      -8.498  11.437  64.745  1.00  0.00     0.263 OA 
HETATM   34  S   UNL     1      -9.625  10.951  63.680  1.00  0.00    -0.333 S  
HETATM   35  O   UNL     1      -9.391   9.567  63.347  1.00  0.00    -0.131 OA 
HETATM   36  O   UNL     1     -10.911  11.456  64.107  1.00  0.00    -0.357 OA 
HETATM   37  O   UNL     1      -9.180  11.743  62.355  1.00  0.00    -0.137 OA 
ENDBRANCH   8  33
TORSDOF 6
ENDMDL
MODEL      185
REMARK 921   NORMALIZED FREE ENERGY PREDICTED BY IDOCK:   -1.78 KCAL/MOL
REMARK 922        TOTAL FREE ENERGY PREDICTED BY IDOCK:   -4.51 KCAL/MOL
REMARK 923 INTER-LIGAND FREE ENERGY PREDICTED BY IDOCK:   -5.73 KCAL/MOL
REMARK 924 INTRA-LIGAND FREE ENERGY PREDICTED BY IDOCK:    1.22 KCAL/MOL
REMARK 927      BINDING AFFINITY PREDICTED BY RF-SCORE:    0.00 PKD
ROOT
HETATM    1  O   UNL     1     -11.220   4.111  64.338  1.00  0.00    -0.708 OA 
HETATM    2  H   UNL     1     -10.913   3.514  63.666  1.00  0.00     0.000 HD 
HETATM    3  C   UNL     1     -10.159   4.338  65.262  1.00  0.00    -0.218 C  
HETATM    4  C   UNL     1     -10.650   5.292  66.335  1.00  0.00    -0.276 C  
HETATM    5  O   UNL     1      -9.634   5.541  67.283  1.00  0.00    -0.117 OA 
HETATM    6  C   UNL     1      -8.499   6.189  66.743  1.00  0.00    -0.111 C  
HETATM    7  C   UNL     1      -7.853   5.386  65.589  1.00  0.00    -0.100 C  
HETATM    8  C   UNL     1      -8.900   4.881  64.565  1.00  0.00    -0.129 C  
ENDROOT
BRANCH   6   9
HETATM    9  O   UNL     1      -7.529   6.331  67.786  1.00  0.00    -0.089 OA 
BRANCH   9  10
HETATM   10  C   UNL     1      -7.940   5.829  69.065  1.00  0.00    -0.098 C  
HETATM   11  H   UNL     1     -11.190   4.456  72.187  1.00  0.00     0.000 HD 
HETATM   12  C   UNL     1      -9.144   6.670  69.570  1.00  0.00    -0.144 C  
HETATM   13  C   UNL     1      -8.325   4.342  69.024  1.00  0.00    -0.078 C  
HETATM   14  C   UNL     1      -9.734   6.060  70.858  1.00  0.00    -0.174 C  
HETATM   15  O   UNL     1     -10.394   4.008  71.926  1.00  0.00    -0.133 OA 
HETATM   16  O   UNL     1      -8.800   3.888  70.289  1.00  0.00    -0.075 OA 
HETATM   17  C   UNL     1      -9.989   4.558  70.678  1.00  0.00    -0.203 C  
BRANCH  14  18
HETATM   18  O   UNL     1     -10.823   6.785  71.422  1.00  0.00    -0.229 OA 
HETATM   19  S   UNL     1     -10.736   7.603  72.819  1.00  0.00    -0.375 S  
HETATM   20  O   UNL     1     -10.234   6.711  73.838  1.00  0.00    -0.288 OA 
HETATM   21  O   UNL     1      -9.618   8.724  72.552  1.00  0.00    -0.248 OA 
HETATM   22  O   UNL     1     -11.983   8.316  72.972  1.00  0.00    -0.265 OA 
ENDBRANCH  14  18
BRANCH  12  23
HETATM   23  O   UNL     1      -8.836   8.066  69.702  1.00  0.00    -0.139 OA 
HETATM   24  S   UNL     1      -9.742   9.221  69.012  1.00  0.00    -0.167 S  
HETATM   25  O   UNL     1      -9.548   9.149  67.582  1.00  0.00    -0.144 OA 
HETATM   26  O   UNL     1      -8.991  10.562  69.490  1.00  0.00    -0.145 OA 
HETATM   27  O   UNL     1     -11.060   9.225  69.595  1.00  0.00    -0.212 OA 
ENDBRANCH  12  23
ENDBRANCH   9  10
ENDBRANCH   6   9
BRANCH   7  28
HETATM   28  O   UNL     1      -6.910   6.206  64.876  1.00  0.00    -0.045 OA 
HETATM   29  O   UNL     1      -7.784   6.863  62.639  1.00  0.00    -0.092 OA 
HETATM   30  O   UNL     1      -6.129   8.282  63.719  1.00  0.00    -0.069 OA 
HETATM   31  S   UNL     1      -7.467   7.417  63.936  1.00  0.00    -0.106 S  
HETATM   32  O   UNL     1      -8.391   8.219  64.700  1.00  0.00    -0.159 OA 
ENDBRANCH   7  28
BRANCH   8  33
HETATM   33  O   UNL     1      -8.264   3.842  63.802  1.00  0.00    -0.088 OA 
HETATM   34  S   UNL     1      -8.067   2.356  64.429  1.00  0.00    -0.082 S  
HETATM   35  O   UNL     1      -6.876   2.342  65.241  1.00  0.00    -0.041 OA 
HETATM   36  O   UNL     1      -9.350   1.879  64.896  1.00  0.00    -0.134 OA 
HETATM   37  O   UNL     1      -7.652   1.510  63.127  1.00  0.00    -0.047 OA 
ENDBRANCH   8  33
TORSDOF 6
ENDMDL
MODEL      186
REMARK 921   NORMALIZED FREE ENERGY PREDICTED BY IDOCK:   -1.66 KCAL/MOL
REMARK 922        TOTAL FREE ENERGY PREDICTED BY IDOCK:   -4.34 KCAL/MOL
REMARK 923 INTER-LIGAND FREE ENERGY PREDICTED BY IDOCK:   -5.97 KCAL/MOL
REMARK 924 INTRA-LIGAND FREE ENERGY PREDICTED BY IDOCK:    1.62 KCAL/MOL
REMARK 927      BINDING AFFINITY PREDICTED BY RF-SCORE:    0.00 PKD
ROOT
HETATM    1  O   UNL     1      -7.855  16.848  65.637  1.00  0.00    -0.187 OA 
HETATM    2  H   UNL     1      -7.172  17.103  66.245  1.00  0.00     0.000 HD 
HETATM    3  C   UNL     1      -8.677  15.868  66.265  1.00  0.00    -0.337 C  
HETATM    4  C   UNL     1      -9.769  15.460  65.292  1.00  0.00    -0.110 C  
HETATM    5  O   UNL     1     -10.607  14.480  65.866  1.00  0.00    -0.289 OA 
HETATM    6  C   UNL     1     -11.314  14.932  67.005  1.00  0.00    -0.342 C  
HETATM    7  C   UNL     1     -10.372  15.434  68.125  1.00  0.00    -0.239 C  
HETATM    8  C   UNL     1      -9.270  16.380  67.587  1.00  0.00    -0.199 C  
ENDROOT
BRANCH   6   9
HETATM    9  O   UNL     1     -12.076  13.836  67.520  1.00  0.00    -0.384 OA 
BRANCH   9  10
HETATM   10  C   UNL     1     -11.335  12.623  67.711  1.00  0.00    -0.297 C  
HETATM   11  H   UNL     1      -7.872   9.610  66.651  1.00  0.00     0.000 HD 
HETATM   12  C   UNL     1     -11.073  11.972  66.325  1.00  0.00    -0.317 C  
HETATM   13  C   UNL     1     -10.002  12.848  68.440  1.00  0.00    -0.211 C  
HETATM   14  C   UNL     1     -10.131  10.759  66.461  1.00  0.00    -0.228 C  
HETATM   15  O   UNL     1      -8.118   9.952  67.503  1.00  0.00    -0.109 OA 
HETATM   16  O   UNL     1      -9.253  11.640  68.550  1.00  0.00    -0.193 OA 
HETATM   17  C   UNL     1      -8.886  11.129  67.278  1.00  0.00    -0.144 C  
BRANCH  14  18
HETATM   18  O   UNL     1      -9.860  10.069  65.244  1.00  0.00    -0.291 OA 
HETATM   19  S   UNL     1      -8.754  10.550  64.161  1.00  0.00    -0.146 S  
HETATM   20  O   UNL     1      -9.013  11.931  63.828  1.00  0.00     0.293 OA 
HETATM   21  O   UNL     1      -7.363  10.490  64.962  1.00  0.00    -0.106 OA 
HETATM   22  O   UNL     1      -8.673   9.520  63.150  1.00  0.00    -0.205 OA 
ENDBRANCH  14  18
BRANCH  12  23
HETATM   23  O   UNL     1     -12.281  11.666  65.612  1.00  0.00    -0.134 OA 
HETATM   24  S   UNL     1     -12.655  12.369  64.199  1.00  0.00    -0.338 S  
HETATM   25  O   UNL     1     -12.969  13.756  64.457  1.00  0.00    -0.602 OA 
HETATM   26  O   UNL     1     -14.054  11.662  63.835  1.00  0.00     0.633 OA 
HETATM   27  O   UNL     1     -11.696  11.989  63.193  1.00  0.00    -0.336 OA 
ENDBRANCH  12  23
ENDBRANCH   9  10
ENDBRANCH   6   9
BRANCH   7  28
HETATM   28  O   UNL     1     -11.118  16.157  69.119  1.00  0.00    -0.288 OA 
HETATM   29  O   UNL     1     -12.558  14.635  70.464  1.00  0.00    -0.327 OA 
HETATM   30  O   UNL     1     -11.829  16.736  71.446  1.00  0.00     0.014 OA 
HETATM   31  S   UNL     1     -11.380  15.464  70.573  1.00  0.00    -0.357 S  
HETATM   32  O   UNL     1     -10.124  14.988  71.100  1.00  0.00     0.588 OA 
ENDBRANCH   7  28
BRANCH   8  33
HETATM   33  O   UNL     1      -8.251  16.445  68.599  1.00  0.00    -0.199 OA 
HETATM   34  S   UNL     1      -7.220  17.700  68.657  1.00  0.00    -0.261 S  
HETATM   35  O   UNL     1      -6.138  17.463  67.734  1.00  0.00    -0.136 OA 
HETATM   36  O   UNL     1      -7.986  18.926  68.680  1.00  0.00    -0.331 OA 
HETATM   37  O   UNL     1      -6.543  17.494  70.100  1.00  0.00     0.150 OA 
ENDBRANCH   8  33
TORSDOF 6
ENDMDL
MODEL      187
REMARK 921   NORMALIZED FREE ENERGY PREDICTED BY IDOCK:   -1.60 KCAL/MOL
REMARK 922        TOTAL FREE ENERGY PREDICTED BY IDOCK:   -4.26 KCAL/MOL
REMARK 923 INTER-LIGAND FREE ENERGY PREDICTED BY IDOCK:   -7.89 KCAL/MOL
REMARK 924 INTRA-LIGAND FREE ENERGY PREDICTED BY IDOCK:    3.63 KCAL/MOL
REMARK 927      BINDING AFFINITY PREDICTED BY RF-SCORE:    0.00 PKD
ROOT
HETATM    1  O   UNL     1      -6.350  18.970  70.260  1.00  0.00    -0.120 OA 
HETATM    2  H   UNL     1      -6.721  19.843  70.263  1.00  0.00     0.000 HD 
HETATM    3  C   UNL     1      -7.150  18.139  69.423  1.00  0.00    -0.022 C  
HETATM    4  C   UNL     1      -6.555  16.743  69.420  1.00  0.00    -0.228 C  
HETATM    5  O   UNL     1      -7.320  15.877  68.609  1.00  0.00    -0.128 OA 
HETATM    6  C   UNL     1      -7.340  16.245  67.243  1.00  0.00    -0.182 C  
HETATM    7  C   UNL     1      -7.889  17.675  67.023  1.00  0.00    -0.215 C  
HETATM    8  C   UNL     1      -7.261  18.702  67.997  1.00  0.00    -0.246 C  
ENDROOT
BRANCH   6   9
HETATM    9  O   UNL     1      -8.189  15.328  66.547  1.00  0.00    -0.192 OA 
BRANCH   9  10
HETATM   10  C   UNL     1      -9.512  15.203  67.085  1.00  0.00    -0.216 C  
HETATM   11  H   UNL     1     -12.758  13.144  69.808  1.00  0.00     0.000 HD 
HETATM   12  C   UNL     1      -9.929  13.707  67.050  1.00  0.00    -0.248 C  
HETATM   13  C   UNL     1      -9.624  15.740  68.520  1.00  0.00    -0.204 C  
HETATM   14  C   UNL     1     -11.272  13.497  67.777  1.00  0.00    -0.282 C  
HETATM   15  O   UNL     1     -12.545  14.067  69.738  1.00  0.00    -0.276 OA 
HETATM   16  O   UNL     1     -10.929  15.536  69.057  1.00  0.00    -0.230 OA 
HETATM   17  C   UNL     1     -11.246  14.157  69.162  1.00  0.00    -0.272 C  
BRANCH  14  18
HETATM   18  O   UNL     1     -11.759  12.158  67.765  1.00  0.00    -0.356 OA 
HETATM   19  S   UNL     1     -10.988  10.911  68.456  1.00  0.00    -0.253 S  
HETATM   20  O   UNL     1      -9.632  10.884  67.960  1.00  0.00    -0.156 OA 
HETATM   21  O   UNL     1     -10.934  11.293  70.015  1.00  0.00    -0.137 OA 
HETATM   22  O   UNL     1     -11.863   9.765  68.359  1.00  0.00     0.291 OA 
ENDBRANCH  14  18
BRANCH  12  23
HETATM   23  O   UNL     1      -9.917  13.154  65.725  1.00  0.00    -0.281 OA 
HETATM   24  S   UNL     1     -11.208  13.226  64.745  1.00  0.00    -0.348 S  
HETATM   25  O   UNL     1     -12.224  12.347  65.276  1.00  0.00    -0.495 OA 
HETATM   26  O   UNL     1     -10.656  12.507  63.415  1.00  0.00    -0.415 OA 
HETATM   27  O   UNL     1     -11.497  14.598  64.414  1.00  0.00    -0.342 OA 
ENDBRANCH  12  23
ENDBRANCH   9  10
ENDBRANCH   6   9
BRANCH   7  28
HETATM   28  O   UNL     1      -7.608  18.117  65.684  1.00  0.00    -0.538 OA 
HETATM   29  O   UNL     1      -6.089  20.090  65.678  1.00  0.00    -0.177 OA 
HETATM   30  O   UNL     1      -6.136  18.637  63.729  1.00  0.00    -0.030 OA 
HETATM   31  S   UNL     1      -6.119  18.687  65.336  1.00  0.00    -0.276 S  
HETATM   32  O   UNL     1      -5.133  17.740  65.795  1.00  0.00    -0.177 OA 
ENDBRANCH   7  28
BRANCH   8  33
HETATM   33  O   UNL     1      -8.114  19.860  67.982  1.00  0.00    -0.300 OA 
HETATM   34  S   UNL     1      -9.731  19.697  67.962  1.00  0.00    -0.419 S  
HETATM   35  O   UNL     1     -10.166  19.490  66.603  1.00  0.00    -0.375 OA 
HETATM   36  O   UNL     1     -10.121  18.837  69.058  1.00  0.00    -0.393 OA 
HETATM   37  O   UNL     1     -10.210  21.194  68.293  1.00  0.00     0.342 OA 
ENDBRANCH   8  33
TORSDOF 6
ENDMDL
MODEL      188
REMARK 921   NORMALIZED FREE ENERGY PREDICTED BY IDOCK:   -1.54 KCAL/MOL
REMARK 922        TOTAL FREE ENERGY PREDICTED BY IDOCK:   -4.18 KCAL/MOL
REMARK 923 INTER-LIGAND FREE ENERGY PREDICTED BY IDOCK:   -4.96 KCAL/MOL
REMARK 924 INTRA-LIGAND FREE ENERGY PREDICTED BY IDOCK:    0.77 KCAL/MOL
REMARK 927      BINDING AFFINITY PREDICTED BY RF-SCORE:    0.00 PKD
ROOT
HETATM    1  O   UNL     1      -6.654  11.411  70.689  1.00  0.00    -0.496 OA 
HETATM    2  H   UNL     1      -7.483  11.589  71.117  1.00  0.00     0.000 HD 
HETATM    3  C   UNL     1      -6.775  10.195  69.956  1.00  0.00    -0.127 C  
HETATM    4  C   UNL     1      -5.449   9.911  69.273  1.00  0.00    -0.035 C  
HETATM    5  O   UNL     1      -5.515   8.707  68.539  1.00  0.00    -0.036 OA 
HETATM    6  C   UNL     1      -6.448   8.738  67.476  1.00  0.00    -0.057 C  
HETATM    7  C   UNL     1      -7.884   9.052  67.960  1.00  0.00    -0.101 C  
HETATM    8  C   UNL     1      -7.926  10.251  68.939  1.00  0.00    -0.113 C  
ENDROOT
BRANCH   6   9
HETATM    9  O   UNL     1      -6.458   7.450  66.854  1.00  0.00    -0.052 OA 
BRANCH   9  10
HETATM   10  C   UNL     1      -7.579   6.624  67.194  1.00  0.00    -0.096 C  
HETATM   11  H   UNL     1     -10.005   2.587  67.081  1.00  0.00     0.000 HD 
HETATM   12  C   UNL     1      -8.048   5.867  65.921  1.00  0.00    -0.118 C  
HETATM   13  C   UNL     1      -7.261   5.617  68.310  1.00  0.00    -0.075 C  
HETATM   14  C   UNL     1      -9.139   4.835  66.271  1.00  0.00    -0.122 C  
HETATM   15  O   UNL     1      -9.784   3.123  67.834  1.00  0.00    -0.143 OA 
HETATM   16  O   UNL     1      -8.368   4.760  68.575  1.00  0.00    -0.084 OA 
HETATM   17  C   UNL     1      -8.698   3.959  67.451  1.00  0.00    -0.107 C  
BRANCH  14  18
HETATM   18  O   UNL     1      -9.663   4.114  65.159  1.00  0.00    -0.174 OA 
HETATM   19  S   UNL     1      -8.942   2.818  64.503  1.00  0.00    -0.125 S  
HETATM   20  O   UNL     1      -7.577   3.167  64.190  1.00  0.00    -0.072 OA 
HETATM   21  O   UNL     1      -8.914   1.737  65.691  1.00  0.00    -0.123 OA 
HETATM   22  O   UNL     1      -9.846   2.288  63.508  1.00  0.00    -0.116 OA 
ENDBRANCH  14  18
BRANCH  12  23
HETATM   23  O   UNL     1      -8.432   6.748  64.855  1.00  0.00    -0.074 OA 
HETATM   24  S   UNL     1      -7.506   6.975  63.543  1.00  0.00    -0.105 S  
HETATM   25  O   UNL     1      -6.332   7.715  63.946  1.00  0.00    -0.052 OA 
HETATM   26  O   UNL     1      -8.397   8.002  62.681  1.00  0.00    -0.157 OA 
HETATM   27  O   UNL     1      -7.404   5.748  62.796  1.00  0.00    -0.048 OA 
ENDBRANCH  12  23
ENDBRANCH   9  10
ENDBRANCH   6   9
BRANCH   7  28
HETATM   28  O   UNL     1      -8.728   9.376  66.841  1.00  0.00    -0.126 OA 
HETATM   29  O   UNL     1      -9.012  11.837  66.597  1.00  0.00    -0.186 OA 
HETATM   30  O   UNL     1      -9.267  10.424  64.635  1.00  0.00    -0.199 OA 
HETATM   31  S   UNL     1      -8.391  10.703  65.953  1.00  0.00    -0.161 S  
HETATM   32  O   UNL     1      -7.000  10.673  65.573  1.00  0.00    -0.128 OA 
ENDBRANCH   7  28
BRANCH   8  33
HETATM   33  O   UNL     1      -9.193  10.188  69.616  1.00  0.00    -0.214 OA 
HETATM   34  S   UNL     1      -9.485   9.032  70.720  1.00  0.00    -0.272 S  
HETATM   35  O   UNL     1      -9.906   7.830  70.044  1.00  0.00    -0.179 OA 
HETATM   36  O   UNL     1      -8.426   9.057  71.704  1.00  0.00    -0.339 OA 
HETATM   37  O   UNL     1     -10.832   9.576  71.407  1.00  0.00    -0.347 OA 
ENDBRANCH   8  33
TORSDOF 6
ENDMDL
MODEL      189
REMARK 921   NORMALIZED FREE ENERGY PREDICTED BY IDOCK:   -1.50 KCAL/MOL
REMARK 922        TOTAL FREE ENERGY PREDICTED BY IDOCK:   -4.13 KCAL/MOL
REMARK 923 INTER-LIGAND FREE ENERGY PREDICTED BY IDOCK:   -4.70 KCAL/MOL
REMARK 924 INTRA-LIGAND FREE ENERGY PREDICTED BY IDOCK:    0.57 KCAL/MOL
REMARK 927      BINDING AFFINITY PREDICTED BY RF-SCORE:    0.00 PKD
ROOT
HETATM    1  O   UNL     1      -5.511   4.587  66.441  1.00  0.00    -0.012 OA 
HETATM    2  H   UNL     1      -5.498   3.901  67.098  1.00  0.00     0.000 HD 
HETATM    3  C   UNL     1      -6.811   5.171  66.421  1.00  0.00    -0.062 C  
HETATM    4  C   UNL     1      -6.830   6.268  65.371  1.00  0.00    -0.048 C  
HETATM    5  O   UNL     1      -8.103   6.872  65.305  1.00  0.00    -0.124 OA 
HETATM    6  C   UNL     1      -8.482   7.533  66.497  1.00  0.00    -0.131 C  
HETATM    7  C   UNL     1      -8.494   6.585  67.721  1.00  0.00    -0.118 C  
HETATM    8  C   UNL     1      -7.217   5.713  67.801  1.00  0.00    -0.072 C  
ENDROOT
BRANCH   6   9
HETATM    9  O   UNL     1      -9.805   8.049  66.320  1.00  0.00    -0.195 OA 
BRANCH   9  10
HETATM   10  C   UNL     1     -10.049   9.314  66.949  1.00  0.00    -0.256 C  
HETATM   11  H   UNL     1     -12.169  13.509  67.254  1.00  0.00     0.000 HD 
HETATM   12  C   UNL     1     -10.058  10.422  65.861  1.00  0.00    -0.261 C  
HETATM   13  C   UNL     1     -11.371   9.343  67.732  1.00  0.00     0.572 C  
HETATM   14  C   UNL     1     -10.489  11.775  66.463  1.00  0.00    -0.230 C  
HETATM   15  O   UNL     1     -12.065  12.849  67.929  1.00  0.00    -0.312 OA 
HETATM   16  O   UNL     1     -11.625  10.633  68.284  1.00  0.00    -0.393 OA 
HETATM   17  C   UNL     1     -11.781  11.618  67.275  1.00  0.00    -0.175 C  
BRANCH  14  18
HETATM   18  O   UNL     1     -10.491  12.867  65.547  1.00  0.00    -0.280 OA 
HETATM   19  S   UNL     1     -10.063  14.379  65.944  1.00  0.00    -0.337 S  
HETATM   20  O   UNL     1     -10.829  14.780  67.100  1.00  0.00    -0.296 OA 
HETATM   21  O   UNL     1      -8.526  14.249  66.394  1.00  0.00     0.107 OA 
HETATM   22  O   UNL     1     -10.054  15.152  64.724  1.00  0.00    -0.229 OA 
ENDBRANCH  14  18
BRANCH  12  23
HETATM   23  O   UNL     1      -8.823  10.502  65.133  1.00  0.00    -0.177 OA 
HETATM   24  S   UNL     1      -8.760  10.371  63.517  1.00  0.00    -0.209 S  
HETATM   25  O   UNL     1      -9.064   9.003  63.166  1.00  0.00    -0.021 OA 
HETATM   26  O   UNL     1      -7.188  10.559  63.230  1.00  0.00    -0.088 OA 
HETATM   27  O   UNL     1      -9.453  11.477  62.908  1.00  0.00    -0.381 OA 
ENDBRANCH  12  23
ENDBRANCH   9  10
ENDBRANCH   6   9
BRANCH   7  28
HETATM   28  O   UNL     1      -8.579   7.344  68.940  1.00  0.00    -0.129 OA 
HETATM   29  O   UNL     1     -10.921   7.461  69.778  1.00  0.00    -0.247 OA 
HETATM   30  O   UNL     1      -9.092   7.693  71.363  1.00  0.00    -0.132 OA 
HETATM   31  S   UNL     1      -9.637   6.876  70.091  1.00  0.00    -0.160 S  
HETATM   32  O   UNL     1      -9.453   5.470  70.357  1.00  0.00    -0.154 OA 
ENDBRANCH   7  28
BRANCH   8  33
HETATM   33  O   UNL     1      -7.514   4.627  68.696  1.00  0.00    -0.063 OA 
HETATM   34  S   UNL     1      -6.318   3.741  69.350  1.00  0.00    -0.029 S  
HETATM   35  O   UNL     1      -5.923   2.720  68.412  1.00  0.00    -0.023 OA 
HETATM   36  O   UNL     1      -5.379   4.636  69.989  1.00  0.00    -0.006 OA 
HETATM   37  O   UNL     1      -7.106   2.928  70.490  1.00  0.00    -0.033 OA 
ENDBRANCH   8  33
TORSDOF 6
ENDMDL
MODEL      190
REMARK 921   NORMALIZED FREE ENERGY PREDICTED BY IDOCK:   -1.45 KCAL/MOL
REMARK 922        TOTAL FREE ENERGY PREDICTED BY IDOCK:   -4.07 KCAL/MOL
REMARK 923 INTER-LIGAND FREE ENERGY PREDICTED BY IDOCK:   -5.94 KCAL/MOL
REMARK 924 INTRA-LIGAND FREE ENERGY PREDICTED BY IDOCK:    1.88 KCAL/MOL
REMARK 927      BINDING AFFINITY PREDICTED BY RF-SCORE:    0.00 PKD
ROOT
HETATM    1  O   UNL     1      -5.173   8.893  67.850  1.00  0.00    -0.034 OA 
HETATM    2  H   UNL     1      -5.596   8.264  67.279  1.00  0.00     0.000 HD 
HETATM    3  C   UNL     1      -5.884  10.126  67.771  1.00  0.00    -0.042 C  
HETATM    4  C   UNL     1      -5.208  11.132  68.686  1.00  0.00    -0.040 C  
HETATM    5  O   UNL     1      -5.871  12.376  68.634  1.00  0.00    -0.053 OA 
HETATM    6  C   UNL     1      -7.205  12.330  69.102  1.00  0.00     0.041 C  
HETATM    7  C   UNL     1      -8.074  11.322  68.313  1.00  0.00    -0.137 C  
HETATM    8  C   UNL     1      -7.369   9.955  68.130  1.00  0.00    -0.080 C  
ENDROOT
BRANCH   6   9
HETATM    9  O   UNL     1      -7.778  13.632  68.945  1.00  0.00    -0.096 OA 
BRANCH   9  10
HETATM   10  C   UNL     1      -7.247  14.397  67.854  1.00  0.00    -0.160 C  
HETATM   11  H   UNL     1      -5.675  18.384  65.899  1.00  0.00     0.000 HD 
HETATM   12  C   UNL     1      -8.015  15.745  67.767  1.00  0.00    -0.142 C  
HETATM   13  C   UNL     1      -5.741  14.665  67.993  1.00  0.00    -0.138 C  
HETATM   14  C   UNL     1      -7.366  16.675  66.722  1.00  0.00    -0.248 C  
HETATM   15  O   UNL     1      -5.275  17.522  65.888  1.00  0.00    -0.222 OA 
HETATM   16  O   UNL     1      -5.255  15.489  66.936  1.00  0.00    -0.068 OA 
HETATM   17  C   UNL     1      -5.853  16.776  66.953  1.00  0.00    -0.146 C  
BRANCH  14  18
HETATM   18  O   UNL     1      -8.024  17.926  66.541  1.00  0.00    -0.242 OA 
HETATM   19  S   UNL     1      -7.693  19.255  67.409  1.00  0.00    -0.250 S  
HETATM   20  O   UNL     1      -7.781  18.917  68.810  1.00  0.00    -0.329 OA 
HETATM   21  O   UNL     1      -6.154  19.571  67.075  1.00  0.00    -0.181 OA 
HETATM   22  O   UNL     1      -8.454  20.339  66.832  1.00  0.00    -0.314 OA 
ENDBRANCH  14  18
BRANCH  12  23
HETATM   23  O   UNL     1      -9.426  15.573  67.565  1.00  0.00    -0.206 OA 
HETATM   24  S   UNL     1     -10.530  16.290  68.513  1.00  0.00    -0.296 S  
HETATM   25  O   UNL     1     -10.478  15.664  69.814  1.00  0.00    -0.267 OA 
HETATM   26  O   UNL     1     -11.910  15.801  67.845  1.00  0.00    -0.156 OA 
HETATM   27  O   UNL     1     -10.452  17.721  68.362  1.00  0.00    -0.369 OA 
ENDBRANCH  12  23
ENDBRANCH   9  10
ENDBRANCH   6   9
BRANCH   7  28
HETATM   28  O   UNL     1      -9.313  11.082  69.005  1.00  0.00    -0.173 OA 
HETATM   29  O   UNL     1     -10.959  12.900  68.581  1.00  0.00    -0.244 OA 
HETATM   30  O   UNL     1     -11.777  10.688  69.173  1.00  0.00    -0.283 OA 
HETATM   31  S   UNL     1     -10.715  11.507  68.287  1.00  0.00    -0.226 S  
HETATM   32  O   UNL     1     -10.744  10.964  66.951  1.00  0.00    -0.253 OA 
ENDBRANCH   7  28
BRANCH   8  33
HETATM   33  O   UNL     1      -8.062   9.271  67.072  1.00  0.00    -0.110 OA 
HETATM   34  S   UNL     1      -7.683   9.551  65.517  1.00  0.00    -0.108 S  
HETATM   35  O   UNL     1      -8.381  10.731  65.068  1.00  0.00    -0.147 OA 
HETATM   36  O   UNL     1      -6.260   9.361  65.347  1.00  0.00    -0.062 OA 
HETATM   37  O   UNL     1      -8.451   8.349  64.777  1.00  0.00    -0.162 OA 
ENDBRANCH   8  33
TORSDOF 6
ENDMDL
MODEL      191
REMARK 921   NORMALIZED FREE ENERGY PREDICTED BY IDOCK:   -1.44 KCAL/MOL
REMARK 922        TOTAL FREE ENERGY PREDICTED BY IDOCK:   -4.05 KCAL/MOL
REMARK 923 INTER-LIGAND FREE ENERGY PREDICTED BY IDOCK:   -4.82 KCAL/MOL
REMARK 924 INTRA-LIGAND FREE ENERGY PREDICTED BY IDOCK:    0.77 KCAL/MOL
REMARK 927      BINDING AFFINITY PREDICTED BY RF-SCORE:    0.00 PKD
ROOT
HETATM    1  O   UNL     1     -11.063  13.313  65.903  1.00  0.00    -0.284 OA 
HETATM    2  H   UNL     1     -10.650  13.446  65.059  1.00  0.00     0.000 HD 
HETATM    3  C   UNL     1     -10.824  11.970  66.318  1.00  0.00    -0.279 C  
HETATM    4  C   UNL     1     -11.485  11.758  67.668  1.00  0.00    -0.300 C  
HETATM    5  O   UNL     1     -11.284  10.436  68.119  1.00  0.00    -0.288 OA 
HETATM    6  C   UNL     1      -9.926  10.111  68.347  1.00  0.00    -0.156 C  
HETATM    7  C   UNL     1      -9.054  10.295  67.082  1.00  0.00    -0.142 C  
HETATM    8  C   UNL     1      -9.323  11.647  66.374  1.00  0.00    -0.213 C  
ENDROOT
BRANCH   6   9
HETATM    9  O   UNL     1      -9.857   8.738  68.741  1.00  0.00    -0.163 OA 
BRANCH   9  10
HETATM   10  C   UNL     1      -9.808   7.800  67.658  1.00  0.00    -0.163 C  
HETATM   11  H   UNL     1      -9.588   3.439  65.889  1.00  0.00     0.000 HD 
HETATM   12  C   UNL     1      -8.719   6.736  67.964  1.00  0.00    -0.118 C  
HETATM   13  C   UNL     1     -11.157   7.107  67.411  1.00  0.00    -0.138 C  
HETATM   14  C   UNL     1      -8.747   5.608  66.913  1.00  0.00    -0.113 C  
HETATM   15  O   UNL     1     -10.183   4.143  65.655  1.00  0.00    -0.205 OA 
HETATM   16  O   UNL     1     -11.062   6.127  66.379  1.00  0.00    -0.107 OA 
HETATM   17  C   UNL     1     -10.175   5.076  66.729  1.00  0.00    -0.248 C  
BRANCH  14  18
HETATM   18  O   UNL     1      -7.755   4.600  67.087  1.00  0.00    -0.089 OA 
HETATM   19  S   UNL     1      -7.858   3.411  68.185  1.00  0.00    -0.063 S  
HETATM   20  O   UNL     1      -8.104   4.006  69.477  1.00  0.00    -0.055 OA 
HETATM   21  O   UNL     1      -9.175   2.595  67.761  1.00  0.00    -0.172 OA 
HETATM   22  O   UNL     1      -6.747   2.519  67.950  1.00  0.00    -0.038 OA 
ENDBRANCH  14  18
BRANCH  12  23
HETATM   23  O   UNL     1      -7.412   7.307  68.137  1.00  0.00    -0.097 OA 
HETATM   24  S   UNL     1      -6.710   7.437  69.594  1.00  0.00    -0.041 S  
HETATM   25  O   UNL     1      -7.425   8.442  70.347  1.00  0.00    -0.062 OA 
HETATM   26  O   UNL     1      -5.290   8.094  69.221  1.00  0.00    -0.029 OA 
HETATM   27  O   UNL     1      -6.459   6.126  70.136  1.00  0.00    -0.040 OA 
ENDBRANCH  12  23
ENDBRANCH   9  10
ENDBRANCH   6   9
BRANCH   7  28
HETATM   28  O   UNL     1      -7.658  10.256  67.428  1.00  0.00    -0.094 OA 
HETATM   29  O   UNL     1      -6.585  12.483  67.131  1.00  0.00    -0.150 OA 
HETATM   30  O   UNL     1      -5.623  10.917  68.724  1.00  0.00    -0.041 OA 
HETATM   31  S   UNL     1      -6.988  11.552  68.159  1.00  0.00    -0.075 S  
HETATM   32  O   UNL     1      -7.801  11.926  69.291  1.00  0.00     0.120 OA 
ENDBRANCH   7  28
BRANCH   8  33
HETATM   33  O   UNL     1      -8.787  11.530  65.044  1.00  0.00     0.040 OA 
HETATM   34  S   UNL     1      -9.547  10.634  63.922  1.00  0.00    -0.330 S  
HETATM   35  O   UNL     1      -9.163   9.253  64.083  1.00  0.00    -0.110 OA 
HETATM   36  O   UNL     1     -10.924  11.068  63.839  1.00  0.00    -0.307 OA 
HETATM   37  O   UNL     1      -8.787  11.086  62.580  1.00  0.00    -0.275 OA 
ENDBRANCH   8  33
TORSDOF 6
ENDMDL
MODEL      192
REMARK 921   NORMALIZED FREE ENERGY PREDICTED BY IDOCK:   -1.44 KCAL/MOL
REMARK 922        TOTAL FREE ENERGY PREDICTED BY IDOCK:   -4.05 KCAL/MOL
REMARK 923 INTER-LIGAND FREE ENERGY PREDICTED BY IDOCK:   -4.54 KCAL/MOL
REMARK 924 INTRA-LIGAND FREE ENERGY PREDICTED BY IDOCK:    0.48 KCAL/MOL
REMARK 927      BINDING AFFINITY PREDICTED BY RF-SCORE:    0.00 PKD
ROOT
HETATM    1  O   UNL     1      -8.420   6.681  63.676  1.00  0.00    -0.338 OA 
HETATM    2  H   UNL     1      -7.693   7.259  63.478  1.00  0.00     0.000 HD 
HETATM    3  C   UNL     1      -8.560   6.598  65.091  1.00  0.00     0.033 C  
HETATM    4  C   UNL     1      -9.723   5.674  65.407  1.00  0.00     0.360 C  
HETATM    5  O   UNL     1      -9.897   5.551  66.802  1.00  0.00    -0.141 OA 
HETATM    6  C   UNL     1     -10.241   6.765  67.442  1.00  0.00    -0.197 C  
HETATM    7  C   UNL     1      -9.185   7.873  67.214  1.00  0.00    -0.142 C  
HETATM    8  C   UNL     1      -8.759   7.983  65.729  1.00  0.00    -0.146 C  
ENDROOT
BRANCH   6   9
HETATM    9  O   UNL     1     -10.331   6.517  68.848  1.00  0.00    -0.169 OA 
BRANCH   9  10
HETATM   10  C   UNL     1      -9.125   6.036  69.455  1.00  0.00    -0.137 C  
HETATM   11  H   UNL     1      -6.623   2.865  71.880  1.00  0.00     0.000 HD 
HETATM   12  C   UNL     1      -9.460   5.484  70.868  1.00  0.00    -0.166 C  
HETATM   13  C   UNL     1      -8.433   4.946  68.622  1.00  0.00    -0.086 C  
HETATM   14  C   UNL     1      -8.228   4.796  71.492  1.00  0.00    -0.104 C  
HETATM   15  O   UNL     1      -6.401   3.292  71.060  1.00  0.00    -0.018 OA 
HETATM   16  O   UNL     1      -7.279   4.433  69.283  1.00  0.00    -0.050 OA 
HETATM   17  C   UNL     1      -7.611   3.795  70.506  1.00  0.00    -0.041 C  
BRANCH  14  18
HETATM   18  O   UNL     1      -8.426   4.289  72.809  1.00  0.00    -0.099 OA 
HETATM   19  S   UNL     1      -9.165   2.883  73.134  1.00  0.00    -0.090 S  
HETATM   20  O   UNL     1     -10.447   2.880  72.471  1.00  0.00    -0.147 OA 
HETATM   21  O   UNL     1      -8.241   1.778  72.424  1.00  0.00    -0.051 OA 
HETATM   22  O   UNL     1      -9.035   2.654  74.554  1.00  0.00    -0.077 OA 
ENDBRANCH  14  18
BRANCH  12  23
HETATM   23  O   UNL     1     -10.046   6.471  71.730  1.00  0.00    -0.184 OA 
HETATM   24  S   UNL     1     -11.617   6.445  72.134  1.00  0.00    -0.311 S  
HETATM   25  O   UNL     1     -12.387   6.783  70.958  1.00  0.00    -0.378 OA 
HETATM   26  O   UNL     1     -11.730   7.718  73.112  1.00  0.00    -0.226 OA 
HETATM   27  O   UNL     1     -11.905   5.267  72.910  1.00  0.00    -0.271 OA 
ENDBRANCH  12  23
ENDBRANCH   9  10
ENDBRANCH   6   9
BRANCH   7  28
HETATM   28  O   UNL     1      -9.710   9.153  67.610  1.00  0.00    -0.149 OA 
HETATM   29  O   UNL     1      -9.871   9.343  70.088  1.00  0.00    -0.200 OA 
HETATM   30  O   UNL     1      -9.649  11.371  68.764  1.00  0.00    -0.190 OA 
HETATM   31  S   UNL     1      -9.130   9.862  68.961  1.00  0.00    -0.174 S  
HETATM   32  O   UNL     1      -7.689   9.879  68.902  1.00  0.00    -0.078 OA 
ENDBRANCH   7  28
BRANCH   8  33
HETATM   33  O   UNL     1      -7.527   8.724  65.707  1.00  0.00    -0.084 OA 
HETATM   34  S   UNL     1      -7.294   9.911  64.622  1.00  0.00    -0.143 S  
HETATM   35  O   UNL     1      -6.844   9.332  63.380  1.00  0.00    -0.090 OA 
HETATM   36  O   UNL     1      -8.400  10.838  64.708  1.00  0.00    -0.118 OA 
HETATM   37  O   UNL     1      -5.980  10.628  65.206  1.00  0.00    -0.133 OA 
ENDBRANCH   8  33
TORSDOF 6
ENDMDL
MODEL      193
REMARK 921   NORMALIZED FREE ENERGY PREDICTED BY IDOCK:   -1.44 KCAL/MOL
REMARK 922        TOTAL FREE ENERGY PREDICTED BY IDOCK:   -4.04 KCAL/MOL
REMARK 923 INTER-LIGAND FREE ENERGY PREDICTED BY IDOCK:   -3.50 KCAL/MOL
REMARK 924 INTRA-LIGAND FREE ENERGY PREDICTED BY IDOCK:   -0.54 KCAL/MOL
REMARK 927      BINDING AFFINITY PREDICTED BY RF-SCORE:    0.00 PKD
ROOT
HETATM    1  O   UNL     1      -7.904  11.715  69.330  1.00  0.00    -0.355 OA 
HETATM    2  H   UNL     1      -8.829  11.855  69.493  1.00  0.00     0.000 HD 
HETATM    3  C   UNL     1      -7.706  10.344  68.996  1.00  0.00    -0.116 C  
HETATM    4  C   UNL     1      -6.227  10.122  68.735  1.00  0.00    -0.047 C  
HETATM    5  O   UNL     1      -5.977   8.771  68.407  1.00  0.00    -0.044 OA 
HETATM    6  C   UNL     1      -6.603   8.350  67.211  1.00  0.00    -0.059 C  
HETATM    7  C   UNL     1      -8.140   8.528  67.254  1.00  0.00    -0.105 C  
HETATM    8  C   UNL     1      -8.556   9.921  67.787  1.00  0.00    -0.121 C  
ENDROOT
BRANCH   6   9
HETATM    9  O   UNL     1      -6.319   6.960  67.026  1.00  0.00    -0.041 OA 
BRANCH   9  10
HETATM   10  C   UNL     1      -7.465   6.099  67.068  1.00  0.00    -0.087 C  
HETATM   11  H   UNL     1      -9.589   1.917  66.632  1.00  0.00     0.000 HD 
HETATM   12  C   UNL     1      -7.453   5.187  65.810  1.00  0.00    -0.082 C  
HETATM   13  C   UNL     1      -7.512   5.234  68.337  1.00  0.00    -0.075 C  
HETATM   14  C   UNL     1      -8.568   4.125  65.897  1.00  0.00    -0.114 C  
HETATM   15  O   UNL     1      -9.651   2.540  67.347  1.00  0.00    -0.097 OA 
HETATM   16  O   UNL     1      -8.618   4.335  68.318  1.00  0.00    -0.092 OA 
HETATM   17  C   UNL     1      -8.525   3.405  67.251  1.00  0.00    -0.098 C  
BRANCH  14  18
HETATM   18  O   UNL     1      -8.663   3.261  64.767  1.00  0.00    -0.100 OA 
HETATM   19  S   UNL     1      -9.843   3.351  63.659  1.00  0.00    -0.169 S  
HETATM   20  O   UNL     1     -11.114   3.312  64.344  1.00  0.00    -0.038 OA 
HETATM   21  O   UNL     1      -9.674   4.814  63.019  1.00  0.00     0.056 OA 
HETATM   22  O   UNL     1      -9.510   2.418  62.608  1.00  0.00    -0.090 OA 
ENDBRANCH  14  18
BRANCH  12  23
HETATM   23  O   UNL     1      -7.481   5.929  64.581  1.00  0.00    -0.069 OA 
HETATM   24  S   UNL     1      -6.267   5.868  63.506  1.00  0.00    -0.025 S  
HETATM   25  O   UNL     1      -5.128   6.549  64.078  1.00  0.00    -0.023 OA 
HETATM   26  O   UNL     1      -6.812   6.830  62.336  1.00  0.00    -0.045 OA 
HETATM   27  O   UNL     1      -6.157   4.537  62.965  1.00  0.00    -0.017 OA 
ENDBRANCH  12  23
ENDBRANCH   9  10
ENDBRANCH   6   9
BRANCH   7  28
HETATM   28  O   UNL     1      -8.696   8.383  65.935  1.00  0.00    -0.151 OA 
HETATM   29  O   UNL     1      -9.092  10.598  64.867  1.00  0.00    -0.188 OA 
HETATM   30  O   UNL     1      -8.737   8.654  63.449  1.00  0.00    -0.071 OA 
HETATM   31  S   UNL     1      -8.245   9.431  64.768  1.00  0.00    -0.156 S  
HETATM   32  O   UNL     1      -6.805   9.500  64.727  1.00  0.00    -0.094 OA 
ENDBRANCH   7  28
BRANCH   8  33
HETATM   33  O   UNL     1      -9.941   9.823  68.160  1.00  0.00    -0.146 OA 
HETATM   34  S   UNL     1     -10.875  11.151  68.231  1.00  0.00    -0.234 S  
HETATM   35  O   UNL     1     -10.686  11.791  69.510  1.00  0.00    -0.074 OA 
HETATM   36  O   UNL     1     -10.775  11.853  66.971  1.00  0.00    -0.223 OA 
HETATM   37  O   UNL     1     -12.343  10.507  68.341  1.00  0.00    -0.113 OA 
ENDBRANCH   8  33
TORSDOF 6
ENDMDL
MODEL      194
REMARK 921   NORMALIZED FREE ENERGY PREDICTED BY IDOCK:   -1.42 KCAL/MOL
REMARK 922        TOTAL FREE ENERGY PREDICTED BY IDOCK:   -4.02 KCAL/MOL
REMARK 923 INTER-LIGAND FREE ENERGY PREDICTED BY IDOCK:   -4.49 KCAL/MOL
REMARK 924 INTRA-LIGAND FREE ENERGY PREDICTED BY IDOCK:    0.47 KCAL/MOL
REMARK 927      BINDING AFFINITY PREDICTED BY RF-SCORE:    0.00 PKD
ROOT
HETATM    1  O   UNL     1     -12.551   6.514  71.261  1.00  0.00    -0.245 OA 
HETATM    2  H   UNL     1     -12.367   6.729  72.167  1.00  0.00     0.000 HD 
HETATM    3  C   UNL     1     -11.387   6.791  70.485  1.00  0.00    -0.343 C  
HETATM    4  C   UNL     1     -11.681   6.447  69.036  1.00  0.00     0.328 C  
HETATM    5  O   UNL     1     -10.558   6.714  68.223  1.00  0.00    -0.197 OA 
HETATM    6  C   UNL     1      -9.426   5.927  68.540  1.00  0.00    -0.121 C  
HETATM    7  C   UNL     1      -8.974   6.105  70.009  1.00  0.00    -0.147 C  
HETATM    8  C   UNL     1     -10.159   6.025  71.003  1.00  0.00    -0.192 C  
ENDROOT
BRANCH   6   9
HETATM    9  O   UNL     1      -8.350   6.332  67.688  1.00  0.00    -0.116 OA 
BRANCH   9  10
HETATM   10  C   UNL     1      -8.679   7.363  66.748  1.00  0.00    -0.133 C  
HETATM   11  H   UNL     1      -7.634  11.115  64.099  1.00  0.00     0.000 HD 
HETATM   12  C   UNL     1      -8.084   8.707  67.250  1.00  0.00    -0.101 C  
HETATM   13  C   UNL     1      -8.164   7.063  65.332  1.00  0.00    -0.133 C  
HETATM   14  C   UNL     1      -8.261   9.812  66.189  1.00  0.00    -0.120 C  
HETATM   15  O   UNL     1      -8.082  10.317  63.843  1.00  0.00    -0.155 OA 
HETATM   16  O   UNL     1      -8.439   8.137  64.436  1.00  0.00    -0.094 OA 
HETATM   17  C   UNL     1      -7.770   9.328  64.818  1.00  0.00    -0.111 C  
BRANCH  14  18
HETATM   18  O   UNL     1      -7.779  11.097  66.573  1.00  0.00    -0.150 OA 
HETATM   19  S   UNL     1      -6.225  11.416  66.908  1.00  0.00    -0.143 S  
HETATM   20  O   UNL     1      -5.770  10.468  67.897  1.00  0.00    -0.044 OA 
HETATM   21  O   UNL     1      -5.452  11.104  65.535  1.00  0.00    -0.180 OA 
HETATM   22  O   UNL     1      -6.118  12.843  67.107  1.00  0.00    -0.304 OA 
ENDBRANCH  14  18
BRANCH  12  23
HETATM   23  O   UNL     1      -8.577   9.090  68.543  1.00  0.00    -0.127 OA 
HETATM   24  S   UNL     1      -9.840  10.091  68.727  1.00  0.00    -0.176 S  
HETATM   25  O   UNL     1      -9.427  11.414  68.316  1.00  0.00    -0.174 OA 
HETATM   26  O   UNL     1      -9.984  10.154  70.328  1.00  0.00    -0.204 OA 
HETATM   27  O   UNL     1     -11.034   9.478  68.202  1.00  0.00    -0.192 OA 
ENDBRANCH  12  23
ENDBRANCH   9  10
ENDBRANCH   6   9
BRANCH   7  28
HETATM   28  O   UNL     1      -8.034   5.077  70.370  1.00  0.00    -0.081 OA 
HETATM   29  O   UNL     1      -5.727   5.653  69.632  1.00  0.00    -0.011 OA 
HETATM   30  O   UNL     1      -6.016   4.152  71.523  1.00  0.00    -0.012 OA 
HETATM   31  S   UNL     1      -6.528   5.507  70.826  1.00  0.00    -0.036 S  
HETATM   32  O   UNL     1      -6.616   6.523  71.846  1.00  0.00    -0.056 OA 
ENDBRANCH   7  28
BRANCH   8  33
HETATM   33  O   UNL     1      -9.699   6.596  72.240  1.00  0.00    -0.151 OA 
HETATM   34  S   UNL     1      -9.593   5.687  73.583  1.00  0.00    -0.145 S  
HETATM   35  O   UNL     1     -10.889   5.629  74.214  1.00  0.00    -0.167 OA 
HETATM   36  O   UNL     1      -8.805   4.513  73.284  1.00  0.00    -0.107 OA 
HETATM   37  O   UNL     1      -8.739   6.643  74.552  1.00  0.00    -0.149 OA 
ENDBRANCH   8  33
TORSDOF 6
ENDMDL
MODEL      195
REMARK 921   NORMALIZED FREE ENERGY PREDICTED BY IDOCK:   -1.42 KCAL/MOL
REMARK 922        TOTAL FREE ENERGY PREDICTED BY IDOCK:   -4.02 KCAL/MOL
REMARK 923 INTER-LIGAND FREE ENERGY PREDICTED BY IDOCK:   -6.14 KCAL/MOL
REMARK 924 INTRA-LIGAND FREE ENERGY PREDICTED BY IDOCK:    2.12 KCAL/MOL
REMARK 927      BINDING AFFINITY PREDICTED BY RF-SCORE:    0.00 PKD
ROOT
HETATM    1  O   UNL     1     -11.981  11.478  65.672  1.00  0.00    -0.150 OA 
HETATM    2  H   UNL     1     -12.176  10.636  66.065  1.00  0.00     0.000 HD 
HETATM    3  C   UNL     1     -10.933  12.093  66.418  1.00  0.00    -0.288 C  
HETATM    4  C   UNL     1     -10.621  13.439  65.790  1.00  0.00    -0.282 C  
HETATM    5  O   UNL     1      -9.592  14.093  66.501  1.00  0.00    -0.276 OA 
HETATM    6  C   UNL     1      -8.355  13.407  66.474  1.00  0.00     0.434 C  
HETATM    7  C   UNL     1      -8.461  11.974  67.048  1.00  0.00    -0.183 C  
HETATM    8  C   UNL     1      -9.681  11.203  66.485  1.00  0.00    -0.198 C  
ENDROOT
BRANCH   6   9
HETATM    9  O   UNL     1      -7.421  14.141  67.272  1.00  0.00    -0.167 OA 
BRANCH   9  10
HETATM   10  C   UNL     1      -8.012  15.048  68.212  1.00  0.00    -0.128 C  
HETATM   11  H   UNL     1     -11.565  17.678  69.840  1.00  0.00     0.000 HD 
HETATM   12  C   UNL     1      -8.772  16.155  67.430  1.00  0.00    -0.180 C  
HETATM   13  C   UNL     1      -8.970  14.351  69.190  1.00  0.00     0.099 C  
HETATM   14  C   UNL     1      -9.570  17.055  68.395  1.00  0.00    -0.277 C  
HETATM   15  O   UNL     1     -11.019  17.062  70.316  1.00  0.00    -0.010 OA 
HETATM   16  O   UNL     1      -9.600  15.286  70.063  1.00  0.00    -0.167 OA 
HETATM   17  C   UNL     1     -10.415  16.205  69.353  1.00  0.00    -0.283 C  
BRANCH  14  18
HETATM   18  O   UNL     1     -10.273  18.127  67.774  1.00  0.00    -0.345 OA 
HETATM   19  S   UNL     1      -9.977  19.693  68.072  1.00  0.00    -0.451 S  
HETATM   20  O   UNL     1     -10.037  19.903  69.499  1.00  0.00    -0.315 OA 
HETATM   21  O   UNL     1      -8.454  19.904  67.608  1.00  0.00    -0.312 OA 
HETATM   22  O   UNL     1     -10.782  20.460  67.150  1.00  0.00    -0.090 OA 
ENDBRANCH  14  18
BRANCH  12  23
HETATM   23  O   UNL     1      -7.922  16.899  66.544  1.00  0.00    -0.234 OA 
HETATM   24  S   UNL     1      -6.357  17.172  66.873  1.00  0.00    -0.219 S  
HETATM   25  O   UNL     1      -6.286  18.100  67.978  1.00  0.00    -0.173 OA 
HETATM   26  O   UNL     1      -5.884  17.999  65.575  1.00  0.00    -0.191 OA 
HETATM   27  O   UNL     1      -5.633  15.926  66.887  1.00  0.00    -0.290 OA 
ENDBRANCH  12  23
ENDBRANCH   9  10
ENDBRANCH   6   9
BRANCH   7  28
HETATM   28  O   UNL     1      -7.281  11.217  66.723  1.00  0.00    -0.133 OA 
HETATM   29  O   UNL     1      -5.338  11.920  68.111  1.00  0.00    -0.043 OA 
HETATM   30  O   UNL     1      -5.379   9.666  67.202  1.00  0.00    -0.035 OA 
HETATM   31  S   UNL     1      -6.246  10.814  67.918  1.00  0.00    -0.054 S  
HETATM   32  O   UNL     1      -6.986  10.201  68.994  1.00  0.00    -0.053 OA 
ENDBRANCH   7  28
BRANCH   8  33
HETATM   33  O   UNL     1      -9.906  10.088  67.364  1.00  0.00    -0.172 OA 
HETATM   34  S   UNL     1     -10.775  10.270  68.725  1.00  0.00    -0.232 S  
HETATM   35  O   UNL     1      -9.918  10.780  69.766  1.00  0.00    -0.071 OA 
HETATM   36  O   UNL     1     -12.048  10.866  68.384  1.00  0.00    -0.559 OA 
HETATM   37  O   UNL     1     -11.026   8.741  69.153  1.00  0.00    -0.113 OA 
ENDBRANCH   8  33
TORSDOF 6
ENDMDL
MODEL      196
REMARK 921   NORMALIZED FREE ENERGY PREDICTED BY IDOCK:   -1.38 KCAL/MOL
REMARK 922        TOTAL FREE ENERGY PREDICTED BY IDOCK:   -3.96 KCAL/MOL
REMARK 923 INTER-LIGAND FREE ENERGY PREDICTED BY IDOCK:   -5.64 KCAL/MOL
REMARK 924 INTRA-LIGAND FREE ENERGY PREDICTED BY IDOCK:    1.68 KCAL/MOL
REMARK 927      BINDING AFFINITY PREDICTED BY RF-SCORE:    0.00 PKD
ROOT
HETATM    1  O   UNL     1      -6.241   2.872  66.796  1.00  0.00    -0.024 OA 
HETATM    2  H   UNL     1      -6.297   2.527  67.679  1.00  0.00     0.000 HD 
HETATM    3  C   UNL     1      -7.278   3.834  66.619  1.00  0.00    -0.068 C  
HETATM    4  C   UNL     1      -7.188   4.386  65.208  1.00  0.00    -0.068 C  
HETATM    5  O   UNL     1      -8.204   5.339  64.980  1.00  0.00    -0.120 OA 
HETATM    6  C   UNL     1      -8.104   6.485  65.803  1.00  0.00    -0.128 C  
HETATM    7  C   UNL     1      -8.142   6.136  67.310  1.00  0.00    -0.106 C  
HETATM    8  C   UNL     1      -7.199   4.959  67.664  1.00  0.00    -0.070 C  
ENDROOT
BRANCH   6   9
HETATM    9  O   UNL     1      -9.216   7.338  65.514  1.00  0.00     0.111 OA 
BRANCH   9  10
HETATM   10  C   UNL     1      -9.357   8.464  66.391  1.00  0.00    -0.214 C  
HETATM   11  H   UNL     1     -11.181  12.634  67.606  1.00  0.00     0.000 HD 
HETATM   12  C   UNL     1      -9.321   9.766  65.545  1.00  0.00    -0.240 C  
HETATM   13  C   UNL     1     -10.652   8.416  67.217  1.00  0.00    -0.257 C  
HETATM   14  C   UNL     1      -9.644  10.994  66.420  1.00  0.00    -0.198 C  
HETATM   15  O   UNL     1     -11.102  11.847  68.133  1.00  0.00    -0.211 OA 
HETATM   16  O   UNL     1     -10.803   9.581  68.024  1.00  0.00    -0.233 OA 
HETATM   17  C   UNL     1     -10.920  10.756  67.237  1.00  0.00    -0.297 C  
BRANCH  14  18
HETATM   18  O   UNL     1      -9.598  12.245  65.739  1.00  0.00    -0.241 OA 
HETATM   19  S   UNL     1     -10.830  12.851  64.878  1.00  0.00    -0.325 S  
HETATM   20  O   UNL     1     -11.252  11.853  63.924  1.00  0.00    -0.360 OA 
HETATM   21  O   UNL     1     -12.011  13.033  65.952  1.00  0.00    -0.392 OA 
HETATM   22  O   UNL     1     -10.452  14.185  64.476  1.00  0.00    -0.408 OA 
ENDBRANCH  14  18
BRANCH  12  23
HETATM   23  O   UNL     1      -8.105   9.915  64.798  1.00  0.00    -0.136 OA 
HETATM   24  S   UNL     1      -8.066   9.820  63.178  1.00  0.00    -0.162 S  
HETATM   25  O   UNL     1      -8.316   8.447  62.804  1.00  0.00    -0.183 OA 
HETATM   26  O   UNL     1      -6.509  10.083  62.868  1.00  0.00    -0.116 OA 
HETATM   27  O   UNL     1      -8.818  10.906  62.605  1.00  0.00    -0.254 OA 
ENDBRANCH  12  23
ENDBRANCH   9  10
ENDBRANCH   6   9
BRANCH   7  28
HETATM   28  O   UNL     1      -7.733   7.270  68.095  1.00  0.00    -0.111 OA 
HETATM   29  O   UNL     1      -5.424   6.981  68.979  1.00  0.00    -0.017 OA 
HETATM   30  O   UNL     1      -6.291   9.232  68.668  1.00  0.00    -0.048 OA 
HETATM   31  S   UNL     1      -6.179   7.762  68.026  1.00  0.00    -0.047 S  
HETATM   32  O   UNL     1      -5.793   7.912  66.645  1.00  0.00    -0.041 OA 
ENDBRANCH   7  28
BRANCH   8  33
HETATM   33  O   UNL     1      -7.613   4.473  68.953  1.00  0.00    -0.059 OA 
HETATM   34  S   UNL     1      -9.141   3.977  69.200  1.00  0.00    -0.150 S  
HETATM   35  O   UNL     1      -9.967   5.124  69.485  1.00  0.00    -0.190 OA 
HETATM   36  O   UNL     1      -9.474   2.992  68.195  1.00  0.00    -0.201 OA 
HETATM   37  O   UNL     1      -9.014   3.236  70.619  1.00  0.00    -0.077 OA 
ENDBRANCH   8  33
TORSDOF 6
ENDMDL
MODEL      197
REMARK 921   NORMALIZED FREE ENERGY PREDICTED BY IDOCK:   -1.34 KCAL/MOL
REMARK 922        TOTAL FREE ENERGY PREDICTED BY IDOCK:   -3.91 KCAL/MOL
REMARK 923 INTER-LIGAND FREE ENERGY PREDICTED BY IDOCK:   -5.31 KCAL/MOL
REMARK 924 INTRA-LIGAND FREE ENERGY PREDICTED BY IDOCK:    1.40 KCAL/MOL
REMARK 927      BINDING AFFINITY PREDICTED BY RF-SCORE:    0.00 PKD
ROOT
HETATM    1  O   UNL     1      -5.973   4.797  69.477  1.00  0.00    -0.016 OA 
HETATM    2  H   UNL     1      -6.285   4.147  68.858  1.00  0.00     0.000 HD 
HETATM    3  C   UNL     1      -6.859   5.913  69.446  1.00  0.00    -0.062 C  
HETATM    4  C   UNL     1      -6.361   6.950  70.436  1.00  0.00    -0.039 C  
HETATM    5  O   UNL     1      -7.202   8.084  70.436  1.00  0.00    -0.048 OA 
HETATM    6  C   UNL     1      -8.524   7.812  70.860  1.00  0.00    -0.127 C  
HETATM    7  C   UNL     1      -9.215   6.735  69.990  1.00  0.00    -0.158 C  
HETATM    8  C   UNL     1      -8.309   5.502  69.750  1.00  0.00    -0.105 C  
ENDROOT
BRANCH   6   9
HETATM    9  O   UNL     1      -9.281   9.021  70.760  1.00  0.00    -0.203 OA 
BRANCH   9  10
HETATM   10  C   UNL     1      -9.908   9.237  69.488  1.00  0.00    -0.181 C  
HETATM   11  H   UNL     1     -10.764  11.767  65.608  1.00  0.00     0.000 HD 
HETATM   12  C   UNL     1     -10.453  10.691  69.438  1.00  0.00    -0.225 C  
HETATM   13  C   UNL     1      -8.955   8.999  68.307  1.00  0.00    -0.133 C  
HETATM   14  C   UNL     1     -10.981  11.028  68.029  1.00  0.00    -0.258 C  
HETATM   15  O   UNL     1     -10.521  10.850  65.674  1.00  0.00    -0.249 OA 
HETATM   16  O   UNL     1      -9.581   9.292  67.060  1.00  0.00    -0.154 OA 
HETATM   17  C   UNL     1      -9.943  10.660  66.961  1.00  0.00    -0.202 C  
BRANCH  14  18
HETATM   18  O   UNL     1     -11.540  12.332  67.893  1.00  0.00    -0.312 OA 
HETATM   19  S   UNL     1     -10.661  13.694  67.884  1.00  0.00    -0.253 S  
HETATM   20  O   UNL     1      -9.822  13.702  69.059  1.00  0.00    -0.037 OA 
HETATM   21  O   UNL     1      -9.707  13.541  66.600  1.00  0.00    -0.264 OA 
HETATM   22  O   UNL     1     -11.564  14.779  67.579  1.00  0.00    -0.347 OA 
ENDBRANCH  14  18
BRANCH  12  23
HETATM   23  O   UNL     1     -11.409  10.966  70.474  1.00  0.00    -0.290 OA 
HETATM   24  S   UNL     1     -12.730  10.052  70.700  1.00  0.00    -0.147 S  
HETATM   25  O   UNL     1     -13.627  10.281  69.591  1.00  0.00     0.540 OA 
HETATM   26  O   UNL     1     -13.413  10.764  71.971  1.00  0.00    -0.373 OA 
HETATM   27  O   UNL     1     -12.345   8.722  71.095  1.00  0.00    -0.288 OA 
ENDBRANCH  12  23
ENDBRANCH   9  10
ENDBRANCH   6   9
BRANCH   7  28
HETATM   28  O   UNL     1     -10.418   6.272  70.629  1.00  0.00    -0.205 OA 
HETATM   29  O   UNL     1      -9.949   4.400  72.202  1.00  0.00    -0.171 OA 
HETATM   30  O   UNL     1     -11.908   5.790  72.579  1.00  0.00    -0.297 OA 
HETATM   31  S   UNL     1     -10.349   5.788  72.186  1.00  0.00    -0.212 S  
HETATM   32  O   UNL     1      -9.696   6.809  72.968  1.00  0.00    -0.155 OA 
ENDBRANCH   7  28
BRANCH   8  33
HETATM   33  O   UNL     1      -8.870   4.788  68.635  1.00  0.00    -0.096 OA 
HETATM   34  S   UNL     1      -8.870   3.163  68.608  1.00  0.00    -0.133 S  
HETATM   35  O   UNL     1      -7.593   2.700  68.125  1.00  0.00    -0.055 OA 
HETATM   36  O   UNL     1      -9.477   2.682  69.829  1.00  0.00    -0.138 OA 
HETATM   37  O   UNL     1      -9.872   2.862  67.388  1.00  0.00     0.081 OA 
ENDBRANCH   8  33
TORSDOF 6
ENDMDL
MODEL      198
REMARK 921   NORMALIZED FREE ENERGY PREDICTED BY IDOCK:   -1.20 KCAL/MOL
REMARK 922        TOTAL FREE ENERGY PREDICTED BY IDOCK:   -3.71 KCAL/MOL
REMARK 923 INTER-LIGAND FREE ENERGY PREDICTED BY IDOCK:   -7.90 KCAL/MOL
REMARK 924 INTRA-LIGAND FREE ENERGY PREDICTED BY IDOCK:    4.19 KCAL/MOL
REMARK 927      BINDING AFFINITY PREDICTED BY RF-SCORE:    0.00 PKD
ROOT
HETATM    1  O   UNL     1      -6.658  18.926  69.961  1.00  0.00    -0.091 OA 
HETATM    2  H   UNL     1      -7.005  19.796  69.803  1.00  0.00     0.000 HD 
HETATM    3  C   UNL     1      -7.256  18.024  69.033  1.00  0.00    -0.209 C  
HETATM    4  C   UNL     1      -6.699  16.634  69.286  1.00  0.00    -0.221 C  
HETATM    5  O   UNL     1      -7.270  15.700  68.396  1.00  0.00    -0.111 OA 
HETATM    6  C   UNL     1      -6.966  15.949  67.037  1.00  0.00    -0.138 C  
HETATM    7  C   UNL     1      -7.426  17.352  66.575  1.00  0.00    -0.280 C  
HETATM    8  C   UNL     1      -7.023  18.462  67.578  1.00  0.00    -0.204 C  
ENDROOT
BRANCH   6   9
HETATM    9  O   UNL     1      -7.646  14.972  66.242  1.00  0.00     0.638 OA 
BRANCH   9  10
HETATM   10  C   UNL     1      -8.789  14.375  66.868  1.00  0.00    -0.223 C  
HETATM   11  H   UNL     1     -12.007  10.968  67.348  1.00  0.00     0.000 HD 
HETATM   12  C   UNL     1      -9.749  13.852  65.764  1.00  0.00    -0.164 C  
HETATM   13  C   UNL     1      -8.415  13.226  67.818  1.00  0.00    -0.181 C  
HETATM   14  C   UNL     1     -10.908  13.047  66.384  1.00  0.00    -0.278 C  
HETATM   15  O   UNL     1     -11.472  11.375  68.020  1.00  0.00    -0.280 OA 
HETATM   16  O   UNL     1      -9.573  12.602  68.367  1.00  0.00    -0.217 OA 
HETATM   17  C   UNL     1     -10.372  11.995  67.364  1.00  0.00    -0.207 C  
BRANCH  14  18
HETATM   18  O   UNL     1     -11.866  12.556  65.451  1.00  0.00    -0.388 OA 
HETATM   19  S   UNL     1     -11.477  11.848  64.046  1.00  0.00    -0.393 S  
HETATM   20  O   UNL     1     -10.581  12.723  63.328  1.00  0.00    -0.201 OA 
HETATM   21  O   UNL     1     -10.648  10.541  64.477  1.00  0.00    -0.246 OA 
HETATM   22  O   UNL     1     -12.705  11.361  63.461  1.00  0.00    -0.115 OA 
ENDBRANCH  14  18
BRANCH  12  23
HETATM   23  O   UNL     1     -10.198  14.888  64.877  1.00  0.00    -0.372 OA 
HETATM   24  S   UNL     1     -11.505  15.795  65.196  1.00  0.00     0.033 S  
HETATM   25  O   UNL     1     -12.675  14.956  65.068  1.00  0.00    -0.218 OA 
HETATM   26  O   UNL     1     -11.537  16.788  63.931  1.00  0.00    -1.122 OA 
HETATM   27  O   UNL     1     -11.274  16.590  66.374  1.00  0.00     0.138 OA 
ENDBRANCH  12  23
ENDBRANCH   9  10
ENDBRANCH   6   9
BRANCH   7  28
HETATM   28  O   UNL     1      -6.834  17.679  65.306  1.00  0.00    -0.135 OA 
HETATM   29  O   UNL     1      -7.062  20.105  64.793  1.00  0.00    -0.272 OA 
HETATM   30  O   UNL     1      -5.235  18.857  63.785  1.00  0.00    -0.220 OA 
HETATM   31  S   UNL     1      -6.070  19.111  65.134  1.00  0.00    -0.283 S  
HETATM   32  O   UNL     1      -5.127  19.273  66.213  1.00  0.00    -0.152 OA 
ENDBRANCH   7  28
BRANCH   8  33
HETATM   33  O   UNL     1      -7.831  19.611  67.268  1.00  0.00    -0.254 OA 
HETATM   34  S   UNL     1      -9.453  19.514  67.289  1.00  0.00    -0.346 S  
HETATM   35  O   UNL     1      -9.908  18.985  66.027  1.00  0.00    -0.439 OA 
HETATM   36  O   UNL     1      -9.866  18.978  68.567  1.00  0.00    -0.363 OA 
HETATM   37  O   UNL     1      -9.869  21.064  67.226  1.00  0.00    -0.386 OA 
ENDBRANCH   8  33
TORSDOF 6
ENDMDL
MODEL      199
REMARK 921   NORMALIZED FREE ENERGY PREDICTED BY IDOCK:   -1.18 KCAL/MOL
REMARK 922        TOTAL FREE ENERGY PREDICTED BY IDOCK:   -3.69 KCAL/MOL
REMARK 923 INTER-LIGAND FREE ENERGY PREDICTED BY IDOCK:   -6.82 KCAL/MOL
REMARK 924 INTRA-LIGAND FREE ENERGY PREDICTED BY IDOCK:    3.13 KCAL/MOL
REMARK 927      BINDING AFFINITY PREDICTED BY RF-SCORE:    0.00 PKD
ROOT
HETATM    1  O   UNL     1     -11.985  14.851  67.135  1.00  0.00    -0.367 OA 
HETATM    2  H   UNL     1     -12.609  15.363  67.635  1.00  0.00     0.000 HD 
HETATM    3  C   UNL     1     -11.325  13.951  68.021  1.00  0.00    -0.288 C  
HETATM    4  C   UNL     1     -10.327  13.133  67.221  1.00  0.00    -0.243 C  
HETATM    5  O   UNL     1      -9.638  12.229  68.059  1.00  0.00    -0.193 OA 
HETATM    6  C   UNL     1     -10.474  11.258  68.659  1.00  0.00    -0.203 C  
HETATM    7  C   UNL     1     -11.602  11.892  69.508  1.00  0.00    -0.327 C  
HETATM    8  C   UNL     1     -12.321  13.045  68.764  1.00  0.00     0.175 C  
ENDROOT
BRANCH   6   9
HETATM    9  O   UNL     1      -9.668  10.448  69.520  1.00  0.00    -0.219 OA 
BRANCH   9  10
HETATM   10  C   UNL     1      -9.021   9.342  68.876  1.00  0.00    -0.136 C  
HETATM   11  H   UNL     1      -8.373   6.378  65.273  1.00  0.00     0.000 HD 
HETATM   12  C   UNL     1     -10.102   8.441  68.219  1.00  0.00    -0.199 C  
HETATM   13  C   UNL     1      -8.000   9.785  67.817  1.00  0.00    -0.101 C  
HETATM   14  C   UNL     1      -9.447   7.335  67.367  1.00  0.00    -0.132 C  
HETATM   15  O   UNL     1      -7.720   6.871  65.758  1.00  0.00    -0.090 OA 
HETATM   16  O   UNL     1      -7.427   8.668  67.142  1.00  0.00    -0.087 OA 
HETATM   17  C   UNL     1      -8.400   7.932  66.418  1.00  0.00    -0.129 C  
BRANCH  14  18
HETATM   18  O   UNL     1     -10.360   6.431  66.752  1.00  0.00    -0.207 OA 
HETATM   19  S   UNL     1      -9.905   5.144  65.877  1.00  0.00    -0.093 S  
HETATM   20  O   UNL     1      -8.983   5.590  64.859  1.00  0.00    -0.083 OA 
HETATM   21  O   UNL     1      -9.088   4.230  66.914  1.00  0.00    -0.120 OA 
HETATM   22  O   UNL     1     -11.103   4.404  65.555  1.00  0.00    -0.099 OA 
ENDBRANCH  14  18
BRANCH  12  23
HETATM   23  O   UNL     1     -11.055   7.930  69.164  1.00  0.00    -0.012 OA 
HETATM   24  S   UNL     1     -10.615   7.005  70.422  1.00  0.00    -0.230 S  
HETATM   25  O   UNL     1     -10.195   5.721  69.909  1.00  0.00    -0.195 OA 
HETATM   26  O   UNL     1     -12.026   6.745  71.152  1.00  0.00    -0.339 OA 
HETATM   27  O   UNL     1      -9.787   7.763  71.324  1.00  0.00    -0.171 OA 
ENDBRANCH  12  23
ENDBRANCH   9  10
ENDBRANCH   6   9
BRANCH   7  28
HETATM   28  O   UNL     1     -12.593  10.904  69.839  1.00  0.00    -0.289 OA 
HETATM   29  O   UNL     1     -11.935   9.592  71.850  1.00  0.00    -0.370 OA 
HETATM   30  O   UNL     1     -14.295   9.801  71.303  1.00  0.00     0.203 OA 
HETATM   31  S   UNL     1     -12.893  10.580  71.410  1.00  0.00    -0.476 S  
HETATM   32  O   UNL     1     -13.130  11.819  72.110  1.00  0.00    -0.452 OA 
ENDBRANCH   7  28
BRANCH   8  33
HETATM   33  O   UNL     1     -13.033  13.798  69.760  1.00  0.00     0.131 OA 
HETATM   34  S   UNL     1     -12.335  15.070  70.493  1.00  0.00    -0.383 S  
HETATM   35  O   UNL     1     -11.523  14.595  71.585  1.00  0.00    -0.221 OA 
HETATM   36  O   UNL     1     -11.846  15.976  69.477  1.00  0.00    -0.319 OA 
HETATM   37  O   UNL     1     -13.594  15.753  71.222  1.00  0.00    -0.561 OA 
ENDBRANCH   8  33
TORSDOF 6
ENDMDL
MODEL      200
REMARK 921   NORMALIZED FREE ENERGY PREDICTED BY IDOCK:   -1.15 KCAL/MOL
REMARK 922        TOTAL FREE ENERGY PREDICTED BY IDOCK:   -3.65 KCAL/MOL
REMARK 923 INTER-LIGAND FREE ENERGY PREDICTED BY IDOCK:   -5.01 KCAL/MOL
REMARK 924 INTRA-LIGAND FREE ENERGY PREDICTED BY IDOCK:    1.36 KCAL/MOL
REMARK 927      BINDING AFFINITY PREDICTED BY RF-SCORE:    0.00 PKD
ROOT
HETATM    1  O   UNL     1      -6.242  12.080  70.534  1.00  0.00    -0.464 OA 
HETATM    2  H   UNL     1      -6.696  12.902  70.391  1.00  0.00     0.000 HD 
HETATM    3  C   UNL     1      -7.047  11.023  70.018  1.00  0.00     0.134 C  
HETATM    4  C   UNL     1      -6.321   9.710  70.246  1.00  0.00    -0.076 C  
HETATM    5  O   UNL     1      -7.084   8.627  69.758  1.00  0.00    -0.049 OA 
HETATM    6  C   UNL     1      -7.295   8.663  68.360  1.00  0.00    -0.086 C  
HETATM    7  C   UNL     1      -8.005   9.960  67.902  1.00  0.00    -0.104 C  
HETATM    8  C   UNL     1      -7.375  11.228  68.530  1.00  0.00    -0.106 C  
ENDROOT
BRANCH   6   9
HETATM    9  O   UNL     1      -8.123   7.552  68.006  1.00  0.00    -0.120 OA 
BRANCH   9  10
HETATM   10  C   UNL     1      -9.234   7.323  68.883  1.00  0.00    -0.141 C  
HETATM   11  H   UNL     1     -11.387   7.522  73.068  1.00  0.00     0.000 HD 
HETATM   12  C   UNL     1      -8.706   6.733  70.219  1.00  0.00    -0.144 C  
HETATM   13  C   UNL     1     -10.044   8.599  69.162  1.00  0.00    -0.199 C  
HETATM   14  C   UNL     1      -9.841   6.633  71.258  1.00  0.00    -0.177 C  
HETATM   15  O   UNL     1     -11.720   7.787  72.219  1.00  0.00    -0.306 OA 
HETATM   16  O   UNL     1     -11.096   8.359  70.094  1.00  0.00    -0.245 OA 
HETATM   17  C   UNL     1     -10.598   7.963  71.362  1.00  0.00    -0.211 C  
BRANCH  14  18
HETATM   18  O   UNL     1      -9.462   6.065  72.509  1.00  0.00    -0.148 OA 
HETATM   19  S   UNL     1     -10.250   4.841  73.221  1.00  0.00    -0.184 S  
HETATM   20  O   UNL     1     -11.648   5.190  73.309  1.00  0.00    -0.297 OA 
HETATM   21  O   UNL     1     -10.112   3.624  72.182  1.00  0.00    -0.168 OA 
HETATM   22  O   UNL     1      -9.481   4.459  74.383  1.00  0.00    -0.108 OA 
ENDBRANCH  14  18
BRANCH  12  23
HETATM   23  O   UNL     1      -7.997   5.497  70.043  1.00  0.00    -0.084 OA 
HETATM   24  S   UNL     1      -8.471   4.370  68.976  1.00  0.00    -0.083 S  
HETATM   25  O   UNL     1      -9.699   3.783  69.462  1.00  0.00    -0.189 OA 
HETATM   26  O   UNL     1      -7.341   3.240  69.161  1.00  0.00    -0.048 OA 
HETATM   27  O   UNL     1      -8.362   4.887  67.636  1.00  0.00    -0.105 OA 
ENDBRANCH  12  23
ENDBRANCH   9  10
ENDBRANCH   6   9
BRANCH   7  28
HETATM   28  O   UNL     1      -7.923  10.096  66.473  1.00  0.00    -0.114 OA 
HETATM   29  O   UNL     1      -9.425   8.482  65.317  1.00  0.00     0.073 OA 
HETATM   30  O   UNL     1      -8.821  10.546  64.182  1.00  0.00    -0.184 OA 
HETATM   31  S   UNL     1      -9.274   9.894  65.580  1.00  0.00    -0.213 S  
HETATM   32  O   UNL     1     -10.327  10.713  66.128  1.00  0.00    -0.245 OA 
ENDBRANCH   7  28
BRANCH   8  33
HETATM   33  O   UNL     1      -8.334  12.287  68.371  1.00  0.00    -0.167 OA 
HETATM   34  S   UNL     1      -7.846  13.820  68.140  1.00  0.00    -0.163 S  
HETATM   35  O   UNL     1      -7.554  14.419  69.419  1.00  0.00    -0.093 OA 
HETATM   36  O   UNL     1      -6.925  13.847  67.025  1.00  0.00    -0.014 OA 
HETATM   37  O   UNL     1      -9.215  14.530  67.689  1.00  0.00    -0.187 OA 
ENDBRANCH   8  33
TORSDOF 6
ENDMDL
MODEL      201
REMARK 921   NORMALIZED FREE ENERGY PREDICTED BY IDOCK:   -0.99 KCAL/MOL
REMARK 922        TOTAL FREE ENERGY PREDICTED BY IDOCK:   -3.44 KCAL/MOL
REMARK 923 INTER-LIGAND FREE ENERGY PREDICTED BY IDOCK:   -6.43 KCAL/MOL
REMARK 924 INTRA-LIGAND FREE ENERGY PREDICTED BY IDOCK:    2.98 KCAL/MOL
REMARK 927      BINDING AFFINITY PREDICTED BY RF-SCORE:    0.00 PKD
ROOT
HETATM    1  O   UNL     1      -6.316  20.106  67.746  1.00  0.00    -0.211 OA 
HETATM    2  H   UNL     1      -5.913  20.062  68.605  1.00  0.00     0.000 HD 
HETATM    3  C   UNL     1      -7.005  18.882  67.506  1.00  0.00    -0.202 C  
HETATM    4  C   UNL     1      -7.649  18.952  66.133  1.00  0.00    -0.261 C  
HETATM    5  O   UNL     1      -8.338  17.755  65.844  1.00  0.00    -0.524 OA 
HETATM    6  C   UNL     1      -9.421  17.496  66.717  1.00  0.00    -0.275 C  
HETATM    7  C   UNL     1      -8.981  17.418  68.199  1.00  0.00    -0.260 C  
HETATM    8  C   UNL     1      -8.048  18.589  68.597  1.00  0.00    -0.310 C  
ENDROOT
BRANCH   6   9
HETATM    9  O   UNL     1      -9.994  16.236  66.355  1.00  0.00    -0.266 OA 
BRANCH   9  10
HETATM   10  C   UNL     1      -9.402  15.098  66.994  1.00  0.00    -0.230 C  
HETATM   11  H   UNL     1      -7.081  10.999  66.953  1.00  0.00     0.000 HD 
HETATM   12  C   UNL     1      -9.808  13.817  66.213  1.00  0.00    -0.303 C  
HETATM   13  C   UNL     1      -7.871  15.192  67.078  1.00  0.00    -0.162 C  
HETATM   14  C   UNL     1      -9.056  12.586  66.756  1.00  0.00    -0.214 C  
HETATM   15  O   UNL     1      -6.915  11.767  67.488  1.00  0.00    -0.094 OA 
HETATM   16  O   UNL     1      -7.303  14.015  67.648  1.00  0.00    -0.149 OA 
HETATM   17  C   UNL     1      -7.551  12.869  66.850  1.00  0.00     0.214 C  
BRANCH  14  18
HETATM   18  O   UNL     1      -9.391  11.352  66.127  1.00  0.00    -0.203 OA 
HETATM   19  S   UNL     1      -8.682  10.806  64.776  1.00  0.00    -0.052 S  
HETATM   20  O   UNL     1      -8.759  11.840  63.771  1.00  0.00     0.468 OA 
HETATM   21  O   UNL     1      -7.138  10.630  65.182  1.00  0.00    -0.065 OA 
HETATM   22  O   UNL     1      -9.183   9.471  64.542  1.00  0.00    -0.238 OA 
ENDBRANCH  14  18
BRANCH  12  23
HETATM   23  O   UNL     1     -11.230  13.625  66.155  1.00  0.00    -0.298 OA 
HETATM   24  S   UNL     1     -12.073  13.810  64.781  1.00  0.00    -0.424 S  
HETATM   25  O   UNL     1     -12.089  15.217  64.452  1.00  0.00    -0.419 OA 
HETATM   26  O   UNL     1     -13.568  13.454  65.258  1.00  0.00    -0.282 OA 
HETATM   27  O   UNL     1     -11.670  12.817  63.819  1.00  0.00    -0.416 OA 
ENDBRANCH  12  23
ENDBRANCH   9  10
ENDBRANCH   6   9
BRANCH   7  28
HETATM   28  O   UNL     1     -10.129  17.463  69.064  1.00  0.00    -0.318 OA 
HETATM   29  O   UNL     1     -11.552  15.438  68.795  1.00  0.00    -0.332 OA 
HETATM   30  O   UNL     1     -11.616  16.649  70.903  1.00  0.00    -0.160 OA 
HETATM   31  S   UNL     1     -10.665  16.078  69.740  1.00  0.00    -0.345 S  
HETATM   32  O   UNL     1      -9.558  15.401  70.369  1.00  0.00     0.106 OA 
ENDBRANCH   7  28
BRANCH   8  33
HETATM   33  O   UNL     1      -7.397  18.200  69.819  1.00  0.00     0.249 OA 
HETATM   34  S   UNL     1      -6.160  17.146  69.799  1.00  0.00    -0.184 S  
HETATM   35  O   UNL     1      -6.687  15.804  69.778  1.00  0.00    -0.186 OA 
HETATM   36  O   UNL     1      -5.165  17.621  68.864  1.00  0.00    -0.154 OA 
HETATM   37  O   UNL     1      -5.578  17.303  71.289  1.00  0.00     0.074 OA 
ENDBRANCH   8  33
TORSDOF 6
ENDMDL
MODEL      202
REMARK 921   NORMALIZED FREE ENERGY PREDICTED BY IDOCK:   -0.84 KCAL/MOL
REMARK 922        TOTAL FREE ENERGY PREDICTED BY IDOCK:   -3.24 KCAL/MOL
REMARK 923 INTER-LIGAND FREE ENERGY PREDICTED BY IDOCK:   -6.66 KCAL/MOL
REMARK 924 INTRA-LIGAND FREE ENERGY PREDICTED BY IDOCK:    3.42 KCAL/MOL
REMARK 927      BINDING AFFINITY PREDICTED BY RF-SCORE:    0.00 PKD
ROOT
HETATM    1  O   UNL     1     -12.406  15.810  70.761  1.00  0.00    -0.410 OA 
HETATM    2  H   UNL     1     -12.499  16.754  70.808  1.00  0.00     0.000 HD 
HETATM    3  C   UNL     1     -11.771  15.479  69.528  1.00  0.00    -0.365 C  
HETATM    4  C   UNL     1     -11.622  13.970  69.453  1.00  0.00    -0.297 C  
HETATM    5  O   UNL     1     -11.005  13.590  68.242  1.00  0.00    -0.241 OA 
HETATM    6  C   UNL     1      -9.683  14.073  68.101  1.00  0.00    -0.220 C  
HETATM    7  C   UNL     1      -9.604  15.616  68.183  1.00  0.00    -0.196 C  
HETATM    8  C   UNL     1     -10.412  16.183  69.377  1.00  0.00    -0.283 C  
ENDROOT
BRANCH   6   9
HETATM    9  O   UNL     1      -9.197  13.669  66.817  1.00  0.00    -0.246 OA 
BRANCH   9  10
HETATM   10  C   UNL     1      -9.339  12.272  66.529  1.00  0.00    -0.230 C  
HETATM   11  H   UNL     1     -10.431   7.839  67.691  1.00  0.00     0.000 HD 
HETATM   12  C   UNL     1      -8.739  11.454  67.706  1.00  0.00    -0.136 C  
HETATM   13  C   UNL     1     -10.801  11.858  66.301  1.00  0.00    -0.282 C  
HETATM   14  C   UNL     1      -9.025   9.949  67.526  1.00  0.00    -0.134 C  
HETATM   15  O   UNL     1     -10.706   8.335  66.928  1.00  0.00    -0.299 OA 
HETATM   16  O   UNL     1     -10.922  10.453  66.091  1.00  0.00     0.005 OA 
HETATM   17  C   UNL     1     -10.512   9.712  67.230  1.00  0.00    -0.258 C  
BRANCH  14  18
HETATM   18  O   UNL     1      -8.479   9.109  68.539  1.00  0.00    -0.125 OA 
HETATM   19  S   UNL     1      -7.634   7.759  68.234  1.00  0.00    -0.111 S  
HETATM   20  O   UNL     1      -8.414   6.924  67.351  1.00  0.00    -0.121 OA 
HETATM   21  O   UNL     1      -6.349   8.273  67.419  1.00  0.00    -0.054 OA 
HETATM   22  O   UNL     1      -7.133   7.277  69.501  1.00  0.00    -0.069 OA 
ENDBRANCH  14  18
BRANCH  12  23
HETATM   23  O   UNL     1      -7.350  11.737  67.933  1.00  0.00    -0.087 OA 
HETATM   24  S   UNL     1      -6.762  12.056  69.411  1.00  0.00    -0.024 S  
HETATM   25  O   UNL     1      -7.258  13.351  69.820  1.00  0.00     0.284 OA 
HETATM   26  O   UNL     1      -5.195  12.262  69.108  1.00  0.00    -0.062 OA 
HETATM   27  O   UNL     1      -6.898  10.897  70.255  1.00  0.00    -0.233 OA 
ENDBRANCH  12  23
ENDBRANCH   9  10
ENDBRANCH   6   9
BRANCH   7  28
HETATM   28  O   UNL     1      -8.239  16.039  68.344  1.00  0.00    -0.154 OA 
HETATM   29  O   UNL     1      -6.672  14.542  67.118  1.00  0.00    -0.218 OA 
HETATM   30  O   UNL     1      -6.004  16.838  67.555  1.00  0.00    -0.127 OA 
HETATM   31  S   UNL     1      -7.209  15.883  67.088  1.00  0.00    -0.200 S  
HETATM   32  O   UNL     1      -7.807  16.469  65.914  1.00  0.00    -0.134 OA 
ENDBRANCH   7  28
BRANCH   8  33
HETATM   33  O   UNL     1     -10.602  17.585  69.119  1.00  0.00    -0.297 OA 
HETATM   34  S   UNL     1     -10.101  18.244  67.721  1.00  0.00    -0.375 S  
HETATM   35  O   UNL     1      -8.698  18.562  67.827  1.00  0.00    -0.268 OA 
HETATM   36  O   UNL     1     -10.659  17.483  66.626  1.00  0.00    -0.295 OA 
HETATM   37  O   UNL     1     -10.822  19.679  67.765  1.00  0.00    -0.394 OA 
ENDBRANCH   8  33
TORSDOF 6
ENDMDL
MODEL      203
REMARK 921   NORMALIZED FREE ENERGY PREDICTED BY IDOCK:   -0.60 KCAL/MOL
REMARK 922        TOTAL FREE ENERGY PREDICTED BY IDOCK:   -2.91 KCAL/MOL
REMARK 923 INTER-LIGAND FREE ENERGY PREDICTED BY IDOCK:   -7.56 KCAL/MOL
REMARK 924 INTRA-LIGAND FREE ENERGY PREDICTED BY IDOCK:    4.65 KCAL/MOL
REMARK 927      BINDING AFFINITY PREDICTED BY RF-SCORE:    0.00 PKD
ROOT
HETATM    1  O   UNL     1      -6.050  13.824  67.133  1.00  0.00    -0.387 OA 
HETATM    2  H   UNL     1      -5.460  14.263  67.734  1.00  0.00     0.000 HD 
HETATM    3  C   UNL     1      -7.388  14.042  67.573  1.00  0.00    -0.170 C  
HETATM    4  C   UNL     1      -8.331  13.340  66.612  1.00  0.00     0.236 C  
HETATM    5  O   UNL     1      -9.673  13.519  67.011  1.00  0.00    -0.236 OA 
HETATM    6  C   UNL     1     -10.099  14.867  66.986  1.00  0.00    -0.244 C  
HETATM    7  C   UNL     1      -9.234  15.779  67.889  1.00  0.00    -0.191 C  
HETATM    8  C   UNL     1      -7.717  15.539  67.684  1.00  0.00    -0.158 C  
ENDROOT
BRANCH   6   9
HETATM    9  O   UNL     1     -11.447  14.917  67.464  1.00  0.00    -0.336 OA 
BRANCH   9  10
HETATM   10  C   UNL     1     -11.851  13.789  68.252  1.00  0.00    -0.378 C  
HETATM   11  H   UNL     1     -11.270   9.433  69.949  1.00  0.00     0.000 HD 
HETATM   12  C   UNL     1     -11.646  12.495  67.417  1.00  0.00    -0.370 C  
HETATM   13  C   UNL     1     -11.078  13.681  69.575  1.00  0.00    -0.072 C  
HETATM   14  C   UNL     1     -11.900  11.243  68.280  1.00  0.00    -0.229 C  
HETATM   15  O   UNL     1     -11.489  10.228  70.422  1.00  0.00    -0.286 OA 
HETATM   16  O   UNL     1     -11.444  12.512  70.303  1.00  0.00    -0.074 OA 
HETATM   17  C   UNL     1     -11.117  11.326  69.597  1.00  0.00    -0.206 C  
BRANCH  14  18
HETATM   18  O   UNL     1     -11.775  10.002  67.590  1.00  0.00     0.071 OA 
HETATM   19  S   UNL     1     -10.361   9.253  67.331  1.00  0.00    -0.272 S  
HETATM   20  O   UNL     1      -9.457  10.189  66.707  1.00  0.00    -0.160 OA 
HETATM   21  O   UNL     1      -9.804   8.938  68.804  1.00  0.00    -0.165 OA 
HETATM   22  O   UNL     1     -10.663   7.969  66.740  1.00  0.00    -0.289 OA 
ENDBRANCH  14  18
BRANCH  12  23
HETATM   23  O   UNL     1     -12.398  12.494  66.194  1.00  0.00    -0.596 OA 
HETATM   24  S   UNL     1     -11.686  12.391  64.739  1.00  0.00    -0.371 S  
HETATM   25  O   UNL     1     -10.986  13.631  64.495  1.00  0.00    -0.375 OA 
HETATM   26  O   UNL     1     -12.954  12.399  63.748  1.00  0.00    -0.751 OA 
HETATM   27  O   UNL     1     -11.030  11.116  64.603  1.00  0.00    -0.281 OA 
ENDBRANCH  12  23
ENDBRANCH   9  10
ENDBRANCH   6   9
BRANCH   7  28
HETATM   28  O   UNL     1      -9.498  17.163  67.602  1.00  0.00    -0.237 OA 
HETATM   29  O   UNL     1      -7.987  18.027  65.821  1.00  0.00    -0.532 OA 
HETATM   30  O   UNL     1     -10.147  19.094  66.151  1.00  0.00    -0.395 OA 
HETATM   31  S   UNL     1      -9.371  17.689  66.062  1.00  0.00     0.051 S  
HETATM   32  O   UNL     1     -10.134  16.818  65.203  1.00  0.00    -0.534 OA 
ENDBRANCH   7  28
BRANCH   8  33
HETATM   33  O   UNL     1      -7.051  16.114  68.822  1.00  0.00    -0.137 OA 
HETATM   34  S   UNL     1      -6.418  15.163  69.978  1.00  0.00    -0.123 S  
HETATM   35  O   UNL     1      -7.458  14.795  70.906  1.00  0.00     0.864 OA 
HETATM   36  O   UNL     1      -5.538  14.201  69.352  1.00  0.00    -0.082 OA 
HETATM   37  O   UNL     1      -5.523  16.212  70.803  1.00  0.00    -0.147 OA 
ENDBRANCH   8  33
TORSDOF 6
ENDMDL
MODEL      204
REMARK 921   NORMALIZED FREE ENERGY PREDICTED BY IDOCK:   -0.58 KCAL/MOL
REMARK 922        TOTAL FREE ENERGY PREDICTED BY IDOCK:   -2.88 KCAL/MOL
REMARK 923 INTER-LIGAND FREE ENERGY PREDICTED BY IDOCK:   -6.54 KCAL/MOL
REMARK 924 INTRA-LIGAND FREE ENERGY PREDICTED BY IDOCK:    3.66 KCAL/MOL
REMARK 927      BINDING AFFINITY PREDICTED BY RF-SCORE:    0.00 PKD
ROOT
HETATM    1  O   UNL     1      -6.179  20.414  67.087  1.00  0.00    -0.187 OA 
HETATM    2  H   UNL     1      -5.710  20.558  67.900  1.00  0.00     0.000 HD 
HETATM    3  C   UNL     1      -6.453  19.021  66.964  1.00  0.00    -0.194 C  
HETATM    4  C   UNL     1      -7.203  18.790  65.664  1.00  0.00    -0.139 C  
HETATM    5  O   UNL     1      -7.490  17.419  65.491  1.00  0.00    -0.287 OA 
HETATM    6  C   UNL     1      -8.349  16.888  66.481  1.00  0.00    -0.280 C  
HETATM    7  C   UNL     1      -7.779  17.053  67.910  1.00  0.00    -0.175 C  
HETATM    8  C   UNL     1      -7.245  18.484  68.168  1.00  0.00    -0.255 C  
ENDROOT
BRANCH   6   9
HETATM    9  O   UNL     1      -8.513  15.490  66.225  1.00  0.00    -0.262 OA 
BRANCH   9  10
HETATM   10  C   UNL     1      -8.246  14.636  67.345  1.00  0.00    -0.201 C  
HETATM   11  H   UNL     1      -6.955  10.541  69.284  1.00  0.00     0.000 HD 
HETATM   12  C   UNL     1      -8.893  13.248  67.083  1.00  0.00    -0.222 C  
HETATM   13  C   UNL     1      -6.743  14.465  67.617  1.00  0.00    -0.169 C  
HETATM   14  C   UNL     1      -8.486  12.241  68.177  1.00  0.00    -0.176 C  
HETATM   15  O   UNL     1      -6.646  11.416  69.490  1.00  0.00    -0.107 OA 
HETATM   16  O   UNL     1      -6.504  13.553  68.686  1.00  0.00    -0.081 OA 
HETATM   17  C   UNL     1      -6.965  12.247  68.379  1.00  0.00    -0.082 C  
BRANCH  14  18
HETATM   18  O   UNL     1      -9.062  10.944  68.045  1.00  0.00    -0.144 OA 
HETATM   19  S   UNL     1      -8.530   9.821  67.004  1.00  0.00    -0.117 S  
HETATM   20  O   UNL     1      -8.478  10.409  65.687  1.00  0.00    -0.153 OA 
HETATM   21  O   UNL     1      -7.021   9.531  67.473  1.00  0.00    -0.082 OA 
HETATM   22  O   UNL     1      -9.268   8.608  67.274  1.00  0.00    -0.136 OA 
ENDBRANCH  14  18
BRANCH  12  23
HETATM   23  O   UNL     1     -10.314  13.320  66.889  1.00  0.00    -0.251 OA 
HETATM   24  S   UNL     1     -11.367  12.789  68.002  1.00  0.00    -0.315 S  
HETATM   25  O   UNL     1     -11.286  11.347  68.045  1.00  0.00    -0.236 OA 
HETATM   26  O   UNL     1     -12.780  13.129  67.311  1.00  0.00     0.114 OA 
HETATM   27  O   UNL     1     -11.261  13.585  69.198  1.00  0.00    -0.260 OA 
ENDBRANCH  12  23
ENDBRANCH   9  10
ENDBRANCH   6   9
BRANCH   7  28
HETATM   28  O   UNL     1      -8.800  16.788  68.889  1.00  0.00    -0.258 OA 
HETATM   29  O   UNL     1     -10.217  18.795  69.292  1.00  0.00    -0.243 OA 
HETATM   30  O   UNL     1     -11.152  16.591  69.717  1.00  0.00    -0.337 OA 
HETATM   31  S   UNL     1     -10.268  17.476  68.706  1.00  0.00    -0.356 S  
HETATM   32  O   UNL     1     -10.744  17.223  67.368  1.00  0.00    -0.329 OA 
ENDBRANCH   7  28
BRANCH   8  33
HETATM   33  O   UNL     1      -6.399  18.406  69.328  1.00  0.00    -0.246 OA 
HETATM   34  S   UNL     1      -6.169  19.707  70.274  1.00  0.00    -0.193 S  
HETATM   35  O   UNL     1      -5.129  20.527  69.702  1.00  0.00    -0.227 OA 
HETATM   36  O   UNL     1      -7.460  20.225  70.667  1.00  0.00     0.338 OA 
HETATM   37  O   UNL     1      -5.469  19.048  71.562  1.00  0.00    -0.293 OA 
ENDBRANCH   8  33
TORSDOF 6
ENDMDL
MODEL      205
REMARK 921   NORMALIZED FREE ENERGY PREDICTED BY IDOCK:   -0.57 KCAL/MOL
REMARK 922        TOTAL FREE ENERGY PREDICTED BY IDOCK:   -2.86 KCAL/MOL
REMARK 923 INTER-LIGAND FREE ENERGY PREDICTED BY IDOCK:   -4.59 KCAL/MOL
REMARK 924 INTRA-LIGAND FREE ENERGY PREDICTED BY IDOCK:    1.72 KCAL/MOL
REMARK 927      BINDING AFFINITY PREDICTED BY RF-SCORE:    0.00 PKD
ROOT
HETATM    1  O   UNL     1     -12.607   6.928  71.606  1.00  0.00    -0.357 OA 
HETATM    2  H   UNL     1     -12.389   7.132  72.508  1.00  0.00     0.000 HD 
HETATM    3  C   UNL     1     -11.414   6.988  70.828  1.00  0.00    -0.318 C  
HETATM    4  C   UNL     1     -11.763   6.663  69.387  1.00  0.00    -0.006 C  
HETATM    5  O   UNL     1     -10.612   6.719  68.571  1.00  0.00    -0.195 OA 
HETATM    6  C   UNL     1      -9.627   5.762  68.910  1.00  0.00    -0.131 C  
HETATM    7  C   UNL     1      -9.149   5.897  70.376  1.00  0.00    -0.147 C  
HETATM    8  C   UNL     1     -10.331   6.041  71.368  1.00  0.00    -0.220 C  
ENDROOT
BRANCH   6   9
HETATM    9  O   UNL     1      -8.499   5.961  68.052  1.00  0.00    -0.111 OA 
BRANCH   9  10
HETATM   10  C   UNL     1      -8.805   6.537  66.776  1.00  0.00    -0.129 C  
HETATM   11  H   UNL     1      -7.610   8.444  62.637  1.00  0.00     0.000 HD 
HETATM   12  C   UNL     1      -7.910   7.789  66.563  1.00  0.00    -0.101 C  
HETATM   13  C   UNL     1      -8.605   5.551  65.615  1.00  0.00    -0.148 C  
HETATM   14  C   UNL     1      -8.076   8.342  65.133  1.00  0.00    -0.142 C  
HETATM   15  O   UNL     1      -8.226   7.741  62.808  1.00  0.00    -0.140 OA 
HETATM   16  O   UNL     1      -8.844   6.171  64.353  1.00  0.00     0.203 OA 
HETATM   17  C   UNL     1      -7.924   7.220  64.098  1.00  0.00    -0.084 C  
BRANCH  14  18
HETATM   18  O   UNL     1      -7.322   9.517  64.852  1.00  0.00    -0.103 OA 
HETATM   19  S   UNL     1      -5.703   9.554  64.773  1.00  0.00    -0.074 S  
HETATM   20  O   UNL     1      -5.176   8.980  65.989  1.00  0.00    -0.032 OA 
HETATM   21  O   UNL     1      -5.343   8.560  63.564  1.00  0.00    -0.060 OA 
HETATM   22  O   UNL     1      -5.329  10.875  64.324  1.00  0.00    -0.120 OA 
ENDBRANCH  14  18
BRANCH  12  23
HETATM   23  O   UNL     1      -8.096   8.789  67.575  1.00  0.00    -0.105 OA 
HETATM   24  S   UNL     1      -9.302   9.873  67.511  1.00  0.00    -0.141 S  
HETATM   25  O   UNL     1      -9.023  10.790  66.430  1.00  0.00    -0.158 OA 
HETATM   26  O   UNL     1      -9.071  10.708  68.866  1.00  0.00    -0.165 OA 
HETATM   27  O   UNL     1     -10.572   9.201  67.620  1.00  0.00    -0.258 OA 
ENDBRANCH  12  23
ENDBRANCH   9  10
ENDBRANCH   6   9
BRANCH   7  28
HETATM   28  O   UNL     1      -8.394   4.736  70.764  1.00  0.00    -0.090 OA 
HETATM   29  O   UNL     1      -9.870   2.963  71.701  1.00  0.00    -0.156 OA 
HETATM   30  O   UNL     1      -7.752   2.320  70.693  1.00  0.00    -0.039 OA 
HETATM   31  S   UNL     1      -9.050   3.258  70.549  1.00  0.00    -0.137 S  
HETATM   32  O   UNL     1      -9.525   3.147  69.191  1.00  0.00    -0.161 OA 
ENDBRANCH   7  28
BRANCH   8  33
HETATM   33  O   UNL     1      -9.781   6.557  72.592  1.00  0.00    -0.161 OA 
HETATM   34  S   UNL     1      -9.200   8.073  72.665  1.00  0.00    -0.268 S  
HETATM   35  O   UNL     1      -7.843   8.080  72.176  1.00  0.00    -0.097 OA 
HETATM   36  O   UNL     1     -10.218   8.980  72.186  1.00  0.00    -0.300 OA 
HETATM   37  O   UNL     1      -9.036   8.280  74.250  1.00  0.00     0.063 OA 
ENDBRANCH   8  33
TORSDOF 6
ENDMDL
MODEL      206
REMARK 921   NORMALIZED FREE ENERGY PREDICTED BY IDOCK:   -0.55 KCAL/MOL
REMARK 922        TOTAL FREE ENERGY PREDICTED BY IDOCK:   -2.84 KCAL/MOL
REMARK 923 INTER-LIGAND FREE ENERGY PREDICTED BY IDOCK:   -4.90 KCAL/MOL
REMARK 924 INTRA-LIGAND FREE ENERGY PREDICTED BY IDOCK:    2.06 KCAL/MOL
REMARK 927      BINDING AFFINITY PREDICTED BY RF-SCORE:    0.00 PKD
ROOT
HETATM    1  O   UNL     1     -10.746  12.905  66.311  1.00  0.00    -0.270 OA 
HETATM    2  H   UNL     1     -10.136  12.873  65.584  1.00  0.00     0.000 HD 
HETATM    3  C   UNL     1     -10.740  11.637  66.962  1.00  0.00    -0.253 C  
HETATM    4  C   UNL     1     -11.715  11.688  68.125  1.00  0.00    -0.295 C  
HETATM    5  O   UNL     1     -11.753  10.449  68.798  1.00  0.00    -0.188 OA 
HETATM    6  C   UNL     1     -10.524  10.088  69.398  1.00  0.00    -0.232 C  
HETATM    7  C   UNL     1      -9.366  10.011  68.373  1.00  0.00    -0.138 C  
HETATM    8  C   UNL     1      -9.331  11.241  67.432  1.00  0.00    -0.162 C  
ENDROOT
BRANCH   6   9
HETATM    9  O   UNL     1     -10.680   8.796  69.993  1.00  0.00    -0.224 OA 
BRANCH   9  10
HETATM   10  C   UNL     1     -10.002   7.732  69.312  1.00  0.00    -0.182 C  
HETATM   11  H   UNL     1      -8.569   3.265  68.886  1.00  0.00     0.000 HD 
HETATM   12  C   UNL     1      -9.159   6.933  70.343  1.00  0.00    -0.156 C  
HETATM   13  C   UNL     1     -10.967   6.783  68.583  1.00  0.00    -0.199 C  
HETATM   14  C   UNL     1      -8.551   5.675  69.693  1.00  0.00    -0.110 C  
HETATM   15  O   UNL     1      -9.002   3.811  68.240  1.00  0.00    -0.105 OA 
HETATM   16  O   UNL     1     -10.274   5.694  67.978  1.00  0.00    -0.159 OA 
HETATM   17  C   UNL     1      -9.627   4.879  68.943  1.00  0.00    -0.158 C  
BRANCH  14  18
HETATM   18  O   UNL     1      -7.725   4.894  70.553  1.00  0.00    -0.061 OA 
HETATM   19  S   UNL     1      -6.248   4.362  70.148  1.00  0.00    -0.023 S  
HETATM   20  O   UNL     1      -6.345   3.665  68.888  1.00  0.00    -0.028 OA 
HETATM   21  O   UNL     1      -5.399   5.703  69.904  1.00  0.00    -0.004 OA 
HETATM   22  O   UNL     1      -5.682   3.744  71.325  1.00  0.00    -0.011 OA 
ENDBRANCH  14  18
BRANCH  12  23
HETATM   23  O   UNL     1      -8.183   7.744  71.015  1.00  0.00    -0.100 OA 
HETATM   24  S   UNL     1      -8.277   8.077  72.600  1.00  0.00    -0.164 S  
HETATM   25  O   UNL     1      -9.394   8.970  72.805  1.00  0.00    -0.098 OA 
HETATM   26  O   UNL     1      -6.956   8.966  72.832  1.00  0.00    -0.327 OA 
HETATM   27  O   UNL     1      -8.131   6.865  73.366  1.00  0.00    -0.101 OA 
ENDBRANCH  12  23
ENDBRANCH   9  10
ENDBRANCH   6   9
BRANCH   7  28
HETATM   28  O   UNL     1      -8.100   9.949  69.053  1.00  0.00    -0.097 OA 
HETATM   29  O   UNL     1      -6.288  10.988  67.699  1.00  0.00    -0.057 OA 
HETATM   30  O   UNL     1      -6.048  10.904  70.118  1.00  0.00    -0.101 OA 
HETATM   31  S   UNL     1      -7.060  11.197  68.903  1.00  0.00    -0.110 S  
HETATM   32  O   UNL     1      -7.754  12.427  69.194  1.00  0.00     0.095 OA 
ENDBRANCH   7  28
BRANCH   8  33
HETATM   33  O   UNL     1      -8.514  10.876  66.307  1.00  0.00    -0.156 OA 
HETATM   34  S   UNL     1      -9.193  10.421  64.902  1.00  0.00    -0.244 S  
HETATM   35  O   UNL     1      -9.531   9.021  64.975  1.00  0.00    -0.090 OA 
HETATM   36  O   UNL     1     -10.132  11.442  64.492  1.00  0.00    -0.250 OA 
HETATM   37  O   UNL     1      -7.932  10.458  63.907  1.00  0.00    -0.147 OA 
ENDBRANCH   8  33
TORSDOF 6
ENDMDL
MODEL      207
REMARK 921   NORMALIZED FREE ENERGY PREDICTED BY IDOCK:   -0.46 KCAL/MOL
REMARK 922        TOTAL FREE ENERGY PREDICTED BY IDOCK:   -2.72 KCAL/MOL
REMARK 923 INTER-LIGAND FREE ENERGY PREDICTED BY IDOCK:   -5.22 KCAL/MOL
REMARK 924 INTRA-LIGAND FREE ENERGY PREDICTED BY IDOCK:    2.50 KCAL/MOL
REMARK 927      BINDING AFFINITY PREDICTED BY RF-SCORE:    0.00 PKD
ROOT
HETATM    1  O   UNL     1     -11.600  12.986  70.040  1.00  0.00    -0.487 OA 
HETATM    2  H   UNL     1     -11.544  13.808  69.569  1.00  0.00     0.000 HD 
HETATM    3  C   UNL     1     -11.249  11.929  69.151  1.00  0.00    -0.255 C  
HETATM    4  C   UNL     1     -11.339  10.615  69.905  1.00  0.00    -0.313 C  
HETATM    5  O   UNL     1     -11.009   9.533  69.061  1.00  0.00    -0.194 OA 
HETATM    6  C   UNL     1      -9.677   9.566  68.588  1.00  0.00    -0.155 C  
HETATM    7  C   UNL     1      -9.358  10.862  67.806  1.00  0.00    -0.157 C  
HETATM    8  C   UNL     1      -9.850  12.131  68.546  1.00  0.00    -0.162 C  
ENDROOT
BRANCH   6   9
HETATM    9  O   UNL     1      -9.490   8.455  67.706  1.00  0.00    -0.145 OA 
BRANCH   9  10
HETATM   10  C   UNL     1      -8.719   7.375  68.250  1.00  0.00    -0.122 C  
HETATM   11  H   UNL     1      -4.893   4.633  68.446  1.00  0.00     0.000 HD 
HETATM   12  C   UNL     1      -8.116   6.550  67.079  1.00  0.00    -0.113 C  
HETATM   13  C   UNL     1      -7.594   7.856  69.179  1.00  0.00    -0.098 C  
HETATM   14  C   UNL     1      -7.138   5.483  67.611  1.00  0.00    -0.071 C  
HETATM   15  O   UNL     1      -5.341   5.075  69.158  1.00  0.00    -0.003 OA 
HETATM   16  O   UNL     1      -6.798   6.770  69.646  1.00  0.00    -0.051 OA 
HETATM   17  C   UNL     1      -6.129   6.110  68.582  1.00  0.00    -0.028 C  
BRANCH  14  18
HETATM   18  O   UNL     1      -6.560   4.647  66.612  1.00  0.00    -0.047 OA 
HETATM   19  S   UNL     1      -6.300   5.115  65.082  1.00  0.00    -0.036 S  
HETATM   20  O   UNL     1      -7.536   5.637  64.549  1.00  0.00    -0.065 OA 
HETATM   21  O   UNL     1      -5.266   6.337  65.213  1.00  0.00    -0.013 OA 
HETATM   22  O   UNL     1      -5.573   4.050  64.430  1.00  0.00    -0.013 OA 
ENDBRANCH  14  18
BRANCH  12  23
HETATM   23  O   UNL     1      -9.117   6.006  66.205  1.00  0.00    -0.150 OA 
HETATM   24  S   UNL     1     -10.491   5.349  66.763  1.00  0.00    -0.273 S  
HETATM   25  O   UNL     1     -10.159   4.105  67.419  1.00  0.00    -0.093 OA 
HETATM   26  O   UNL     1     -11.242   4.940  65.400  1.00  0.00    -0.028 OA 
HETATM   27  O   UNL     1     -11.286   6.357  67.417  1.00  0.00    -0.352 OA 
ENDBRANCH  12  23
ENDBRANCH   9  10
ENDBRANCH   6   9
BRANCH   7  28
HETATM   28  O   UNL     1      -7.939  10.995  67.614  1.00  0.00    -0.111 OA 
HETATM   29  O   UNL     1      -7.033  12.958  68.849  1.00  0.00    -0.095 OA 
HETATM   30  O   UNL     1      -5.551  11.096  68.351  1.00  0.00    -0.043 OA 
HETATM   31  S   UNL     1      -7.018  11.513  68.858  1.00  0.00    -0.107 S  
HETATM   32  O   UNL     1      -7.321  10.726  70.028  1.00  0.00    -0.095 OA 
ENDBRANCH   7  28
BRANCH   8  33
HETATM   33  O   UNL     1      -9.875  13.192  67.575  1.00  0.00    -0.209 OA 
HETATM   34  S   UNL     1     -11.032  13.245  66.436  1.00  0.00    -0.292 S  
HETATM   35  O   UNL     1     -10.650  12.393  65.337  1.00  0.00    -0.269 OA 
HETATM   36  O   UNL     1     -12.322  13.171  67.085  1.00  0.00    -0.261 OA 
HETATM   37  O   UNL     1     -10.840  14.730  65.851  1.00  0.00    -0.311 OA 
ENDBRANCH   8  33
TORSDOF 6
ENDMDL
MODEL      208
REMARK 921   NORMALIZED FREE ENERGY PREDICTED BY IDOCK:   -0.38 KCAL/MOL
REMARK 922        TOTAL FREE ENERGY PREDICTED BY IDOCK:   -2.61 KCAL/MOL
REMARK 923 INTER-LIGAND FREE ENERGY PREDICTED BY IDOCK:   -3.78 KCAL/MOL
REMARK 924 INTRA-LIGAND FREE ENERGY PREDICTED BY IDOCK:    1.17 KCAL/MOL
REMARK 927      BINDING AFFINITY PREDICTED BY RF-SCORE:    0.00 PKD
ROOT
HETATM    1  O   UNL     1      -6.251  11.692  71.313  1.00  0.00    -0.226 OA 
HETATM    2  H   UNL     1      -6.875  11.426  71.977  1.00  0.00     0.000 HD 
HETATM    3  C   UNL     1      -6.414  10.850  70.174  1.00  0.00    -0.145 C  
HETATM    4  C   UNL     1      -5.416  11.277  69.113  1.00  0.00    -0.040 C  
HETATM    5  O   UNL     1      -5.531  10.464  67.965  1.00  0.00    -0.041 OA 
HETATM    6  C   UNL     1      -6.785  10.567  67.318  1.00  0.00    -0.077 C  
HETATM    7  C   UNL     1      -7.964  10.202  68.251  1.00  0.00    -0.101 C  
HETATM    8  C   UNL     1      -7.853  10.889  69.635  1.00  0.00     0.122 C  
ENDROOT
BRANCH   6   9
HETATM    9  O   UNL     1      -6.792   9.658  66.213  1.00  0.00    -0.087 OA 
BRANCH   9  10
HETATM   10  C   UNL     1      -6.944   8.277  66.568  1.00  0.00    -0.068 C  
HETATM   11  H   UNL     1      -5.680   3.742  66.417  1.00  0.00     0.000 HD 
HETATM   12  C   UNL     1      -6.779   7.410  65.290  1.00  0.00    -0.047 C  
HETATM   13  C   UNL     1      -5.939   7.824  67.638  1.00  0.00    -0.045 C  
HETATM   14  C   UNL     1      -6.760   5.910  65.648  1.00  0.00    -0.048 C  
HETATM   15  O   UNL     1      -5.881   4.275  67.178  1.00  0.00    -0.021 OA 
HETATM   16  O   UNL     1      -6.062   6.432  67.918  1.00  0.00    -0.024 OA 
HETATM   17  C   UNL     1      -5.763   5.636  66.782  1.00  0.00    -0.017 C  
BRANCH  14  18
HETATM   18  O   UNL     1      -6.650   5.028  64.534  1.00  0.00    -0.040 OA 
HETATM   19  S   UNL     1      -7.791   3.955  64.116  1.00  0.00    -0.086 S  
HETATM   20  O   UNL     1      -8.108   3.153  65.274  1.00  0.00    -0.085 OA 
HETATM   21  O   UNL     1      -9.076   4.856  63.775  1.00  0.00    -0.091 OA 
HETATM   22  O   UNL     1      -7.379   3.363  62.864  1.00  0.00    -0.050 OA 
ENDBRANCH  14  18
BRANCH  12  23
HETATM   23  O   UNL     1      -7.735   7.730  64.269  1.00  0.00    -0.111 OA 
HETATM   24  S   UNL     1      -7.580   9.033  63.315  1.00  0.00    -0.111 S  
HETATM   25  O   UNL     1      -7.809  10.209  64.122  1.00  0.00    -0.151 OA 
HETATM   26  O   UNL     1      -8.867   8.899  62.358  1.00  0.00    -0.216 OA 
HETATM   27  O   UNL     1      -6.405   8.901  62.491  1.00  0.00    -0.095 OA 
ENDBRANCH  12  23
ENDBRANCH   9  10
ENDBRANCH   6   9
BRANCH   7  28
HETATM   28  O   UNL     1      -9.212  10.611  67.663  1.00  0.00    -0.145 OA 
HETATM   29  O   UNL     1     -10.088   8.885  66.096  1.00  0.00    -0.291 OA 
HETATM   30  O   UNL     1     -11.653  10.413  67.158  1.00  0.00    -0.166 OA 
HETATM   31  S   UNL     1     -10.360   9.486  67.382  1.00  0.00    -0.269 S  
HETATM   32  O   UNL     1     -10.571   8.718  68.585  1.00  0.00    -0.208 OA 
ENDBRANCH   7  28
BRANCH   8  33
HETATM   33  O   UNL     1      -8.737  10.179  70.520  1.00  0.00     0.079 OA 
HETATM   34  S   UNL     1      -8.245   8.824  71.270  1.00  0.00    -0.155 S  
HETATM   35  O   UNL     1      -8.414   7.705  70.376  1.00  0.00    -0.132 OA 
HETATM   36  O   UNL     1      -7.008   9.103  71.964  1.00  0.00    -0.308 OA 
HETATM   37  O   UNL     1      -9.407   8.619  72.361  1.00  0.00    -0.282 OA 
ENDBRANCH   8  33
TORSDOF 6
ENDMDL
MODEL      209
REMARK 921   NORMALIZED FREE ENERGY PREDICTED BY IDOCK:   -0.27 KCAL/MOL
REMARK 922        TOTAL FREE ENERGY PREDICTED BY IDOCK:   -2.47 KCAL/MOL
REMARK 923 INTER-LIGAND FREE ENERGY PREDICTED BY IDOCK:   -6.30 KCAL/MOL
REMARK 924 INTRA-LIGAND FREE ENERGY PREDICTED BY IDOCK:    3.83 KCAL/MOL
REMARK 927      BINDING AFFINITY PREDICTED BY RF-SCORE:    0.00 PKD
ROOT
HETATM    1  O   UNL     1     -10.591   5.288  74.289  1.00  0.00    -0.281 OA 
HETATM    2  H   UNL     1      -9.803   4.926  74.676  1.00  0.00     0.000 HD 
HETATM    3  C   UNL     1     -10.234   6.434  73.521  1.00  0.00    -0.248 C  
HETATM    4  C   UNL     1     -11.494   7.011  72.902  1.00  0.00    -0.123 C  
HETATM    5  O   UNL     1     -11.193   8.158  72.136  1.00  0.00    -0.280 OA 
HETATM    6  C   UNL     1     -10.355   7.898  71.027  1.00  0.00    -0.201 C  
HETATM    7  C   UNL     1      -9.005   7.263  71.441  1.00  0.00    -0.138 C  
HETATM    8  C   UNL     1      -9.187   6.098  72.446  1.00  0.00    -0.139 C  
ENDROOT
BRANCH   6   9
HETATM    9  O   UNL     1     -10.081   9.141  70.374  1.00  0.00    -0.189 OA 
BRANCH   9  10
HETATM   10  C   UNL     1     -10.386   9.166  68.973  1.00  0.00    -0.215 C  
HETATM   11  H   UNL     1      -9.458  10.309  64.498  1.00  0.00     0.000 HD 
HETATM   12  C   UNL     1     -10.108  10.593  68.425  1.00  0.00    -0.166 C  
HETATM   13  C   UNL     1      -9.578   8.135  68.170  1.00  0.00    -0.149 C  
HETATM   14  C   UNL     1     -10.252  10.627  66.891  1.00  0.00    -0.223 C  
HETATM   15  O   UNL     1      -9.723   9.467  64.850  1.00  0.00    -0.133 OA 
HETATM   16  O   UNL     1      -9.844   8.233  66.773  1.00  0.00    -0.216 OA 
HETATM   17  C   UNL     1      -9.448   9.490  66.247  1.00  0.00    -0.210 C  
BRANCH  14  18
HETATM   18  O   UNL     1     -10.054  11.906  66.296  1.00  0.00    -0.211 OA 
HETATM   19  S   UNL     1     -11.254  12.829  65.716  1.00  0.00    -0.320 S  
HETATM   20  O   UNL     1     -12.030  12.036  64.791  1.00  0.00    -0.321 OA 
HETATM   21  O   UNL     1     -12.174  13.132  66.996  1.00  0.00    -0.338 OA 
HETATM   22  O   UNL     1     -10.671  14.095  65.338  1.00  0.00    -0.307 OA 
ENDBRANCH  14  18
BRANCH  12  23
HETATM   23  O   UNL     1     -10.884  11.606  69.083  1.00  0.00    -0.221 OA 
HETATM   24  S   UNL     1     -11.983  11.251  70.223  1.00  0.00    -0.393 S  
HETATM   25  O   UNL     1     -13.096  10.589  69.582  1.00  0.00    -0.020 OA 
HETATM   26  O   UNL     1     -12.519  12.712  70.633  1.00  0.00    -0.318 OA 
HETATM   27  O   UNL     1     -11.330  10.684  71.374  1.00  0.00     0.130 OA 
ENDBRANCH  12  23
ENDBRANCH   9  10
ENDBRANCH   6   9
BRANCH   7  28
HETATM   28  O   UNL     1      -8.325   6.738  70.287  1.00  0.00    -0.130 OA 
HETATM   29  O   UNL     1      -7.777   4.326  70.573  1.00  0.00    -0.051 OA 
HETATM   30  O   UNL     1      -8.033   5.216  68.324  1.00  0.00    -0.087 OA 
HETATM   31  S   UNL     1      -8.635   5.207  69.815  1.00  0.00    -0.097 S  
HETATM   32  O   UNL     1     -10.062   5.026  69.713  1.00  0.00    -0.231 OA 
ENDBRANCH   7  28
BRANCH   8  33
HETATM   33  O   UNL     1      -7.903   5.872  73.053  1.00  0.00    -0.102 OA 
HETATM   34  S   UNL     1      -7.031   7.115  73.632  1.00  0.00    -0.068 S  
HETATM   35  O   UNL     1      -6.294   7.717  72.548  1.00  0.00    -0.056 OA 
HETATM   36  O   UNL     1      -7.857   7.872  74.545  1.00  0.00    -0.186 OA 
HETATM   37  O   UNL     1      -5.902   6.348  74.480  1.00  0.00    -0.061 OA 
ENDBRANCH   8  33
TORSDOF 6
ENDMDL
MODEL      210
REMARK 921   NORMALIZED FREE ENERGY PREDICTED BY IDOCK:   -0.17 KCAL/MOL
REMARK 922        TOTAL FREE ENERGY PREDICTED BY IDOCK:   -2.33 KCAL/MOL
REMARK 923 INTER-LIGAND FREE ENERGY PREDICTED BY IDOCK:   -4.23 KCAL/MOL
REMARK 924 INTRA-LIGAND FREE ENERGY PREDICTED BY IDOCK:    1.90 KCAL/MOL
REMARK 927      BINDING AFFINITY PREDICTED BY RF-SCORE:    0.00 PKD
ROOT
HETATM    1  O   UNL     1      -8.516   7.302  69.215  1.00  0.00    -0.131 OA 
HETATM    2  H   UNL     1      -7.633   7.412  69.548  1.00  0.00     0.000 HD 
HETATM    3  C   UNL     1      -9.322   8.369  69.707  1.00  0.00    -0.158 C  
HETATM    4  C   UNL     1     -10.732   8.193  69.173  1.00  0.00    -0.102 C  
HETATM    5  O   UNL     1     -11.575   9.224  69.642  1.00  0.00     0.048 OA 
HETATM    6  C   UNL     1     -11.199  10.513  69.198  1.00  0.00    -0.256 C  
HETATM    7  C   UNL     1      -9.755  10.885  69.614  1.00  0.00     0.247 C  
HETATM    8  C   UNL     1      -8.748   9.743  69.325  1.00  0.00    -0.164 C  
ENDROOT
BRANCH   6   9
HETATM    9  O   UNL     1     -12.091  11.465  69.785  1.00  0.00    -0.311 OA 
BRANCH   9  10
HETATM   10  C   UNL     1     -12.463  12.553  68.929  1.00  0.00     0.505 C  
HETATM   11  H   UNL     1     -11.485  16.249  66.177  1.00  0.00     0.000 HD 
HETATM   12  C   UNL     1     -11.645  13.810  69.332  1.00  0.00    -0.310 C  
HETATM   13  C   UNL     1     -12.238  12.242  67.441  1.00  0.00     0.327 C  
HETATM   14  C   UNL     1     -11.880  14.958  68.330  1.00  0.00    -0.278 C  
HETATM   15  O   UNL     1     -12.057  15.511  65.995  1.00  0.00     0.436 OA 
HETATM   16  O   UNL     1     -12.544  13.365  66.618  1.00  0.00    -0.234 OA 
HETATM   17  C   UNL     1     -11.692  14.466  66.889  1.00  0.00    -0.402 C  
BRANCH  14  18
HETATM   18  O   UNL     1     -11.200  16.172  68.637  1.00  0.00    -0.336 OA 
HETATM   19  S   UNL     1      -9.589  16.342  68.590  1.00  0.00    -0.246 S  
HETATM   20  O   UNL     1      -8.998  15.298  69.394  1.00  0.00    -0.243 OA 
HETATM   21  O   UNL     1      -9.206  16.057  67.056  1.00  0.00    -0.202 OA 
HETATM   22  O   UNL     1      -9.301  17.739  68.817  1.00  0.00    -0.282 OA 
ENDBRANCH  14  18
BRANCH  12  23
HETATM   23  O   UNL     1     -11.861  14.204  70.696  1.00  0.00    -0.303 OA 
HETATM   24  S   UNL     1     -13.317  14.110  71.405  1.00  0.00    -0.308 S  
HETATM   25  O   UNL     1     -14.170  15.114  70.812  1.00  0.00    -0.156 OA 
HETATM   26  O   UNL     1     -12.996  14.630  72.893  1.00  0.00    -0.438 OA 
HETATM   27  O   UNL     1     -13.728  12.733  71.500  1.00  0.00    -0.012 OA 
ENDBRANCH  12  23
ENDBRANCH   9  10
ENDBRANCH   6   9
BRANCH   7  28
HETATM   28  O   UNL     1      -9.311  12.048  68.893  1.00  0.00    -0.009 OA 
HETATM   29  O   UNL     1      -7.067  11.687  67.877  1.00  0.00    -0.074 OA 
HETATM   30  O   UNL     1      -8.567  13.314  66.869  1.00  0.00    -0.191 OA 
HETATM   31  S   UNL     1      -8.457  11.847  67.517  1.00  0.00    -0.171 S  
HETATM   32  O   UNL     1      -9.162  10.930  66.655  1.00  0.00    -0.163 OA 
ENDBRANCH   7  28
BRANCH   8  33
HETATM   33  O   UNL     1      -7.571  10.026  70.101  1.00  0.00    -0.162 OA 
HETATM   34  S   UNL     1      -6.284   9.035  70.044  1.00  0.00    -0.039 S  
HETATM   35  O   UNL     1      -6.494   7.939  70.958  1.00  0.00    -0.037 OA 
HETATM   36  O   UNL     1      -5.905   8.851  68.661  1.00  0.00    -0.040 OA 
HETATM   37  O   UNL     1      -5.160   9.925  70.768  1.00  0.00    -0.036 OA 
ENDBRANCH   8  33
TORSDOF 6
ENDMDL
MODEL      211
REMARK 921   NORMALIZED FREE ENERGY PREDICTED BY IDOCK:   -0.14 KCAL/MOL
REMARK 922        TOTAL FREE ENERGY PREDICTED BY IDOCK:   -2.29 KCAL/MOL
REMARK 923 INTER-LIGAND FREE ENERGY PREDICTED BY IDOCK:   -3.60 KCAL/MOL
REMARK 924 INTRA-LIGAND FREE ENERGY PREDICTED BY IDOCK:    1.31 KCAL/MOL
REMARK 927      BINDING AFFINITY PREDICTED BY RF-SCORE:    0.00 PKD
ROOT
HETATM    1  O   UNL     1     -11.076  17.681  68.530  1.00  0.00    -0.189 OA 
HETATM    2  H   UNL     1     -10.527  18.158  67.919  1.00  0.00     0.000 HD 
HETATM    3  C   UNL     1     -11.151  16.322  68.106  1.00  0.00    -0.329 C  
HETATM    4  C   UNL     1     -12.029  15.561  69.083  1.00  0.00    -0.309 C  
HETATM    5  O   UNL     1     -12.142  14.207  68.700  1.00  0.00    -0.343 OA 
HETATM    6  C   UNL     1     -10.914  13.504  68.723  1.00  0.00    -0.261 C  
HETATM    7  C   UNL     1      -9.847  14.146  67.804  1.00  0.00    -0.231 C  
HETATM    8  C   UNL     1      -9.758  15.682  67.991  1.00  0.00    -0.204 C  
ENDROOT
BRANCH   6   9
HETATM    9  O   UNL     1     -11.156  12.171  68.263  1.00  0.00    -0.212 OA 
BRANCH   9  10
HETATM   10  C   UNL     1     -11.929  11.356  69.153  1.00  0.00    -0.328 C  
HETATM   11  H   UNL     1     -12.445   8.598  72.937  1.00  0.00     0.000 HD 
HETATM   12  C   UNL     1     -11.136  10.056  69.460  1.00  0.00    -0.238 C  
HETATM   13  C   UNL     1     -12.278  12.074  70.466  1.00  0.00    -0.325 C  
HETATM   14  C   UNL     1     -11.847   9.227  70.549  1.00  0.00    -0.124 C  
HETATM   15  O   UNL     1     -12.973   9.343  72.672  1.00  0.00    -0.333 OA 
HETATM   16  O   UNL     1     -12.982  11.218  71.362  1.00  0.00    -0.407 OA 
HETATM   17  C   UNL     1     -12.194  10.106  71.758  1.00  0.00    -0.249 C  
BRANCH  14  18
HETATM   18  O   UNL     1     -11.214   7.993  70.873  1.00  0.00    -0.258 OA 
HETATM   19  S   UNL     1     -10.062   7.839  72.003  1.00  0.00    -0.203 S  
HETATM   20  O   UNL     1      -9.021   8.801  71.726  1.00  0.00    -0.225 OA 
HETATM   21  O   UNL     1     -10.786   8.277  73.368  1.00  0.00     0.143 OA 
HETATM   22  O   UNL     1      -9.785   6.427  72.138  1.00  0.00    -0.154 OA 
ENDBRANCH  14  18
BRANCH  12  23
HETATM   23  O   UNL     1     -10.835   9.293  68.282  1.00  0.00    -0.179 OA 
HETATM   24  S   UNL     1      -9.322   8.853  67.898  1.00  0.00    -0.142 S  
HETATM   25  O   UNL     1      -8.596  10.040  67.508  1.00  0.00    -0.122 OA 
HETATM   26  O   UNL     1      -9.552   8.015  66.544  1.00  0.00    -0.207 OA 
HETATM   27  O   UNL     1      -8.806   7.948  68.893  1.00  0.00    -0.141 OA 
ENDBRANCH  12  23
ENDBRANCH   9  10
ENDBRANCH   6   9
BRANCH   7  28
HETATM   28  O   UNL     1      -8.548  13.598  68.088  1.00  0.00    -0.162 OA 
HETATM   29  O   UNL     1      -7.094  15.255  69.246  1.00  0.00    -0.147 OA 
HETATM   30  O   UNL     1      -6.662  12.883  69.567  1.00  0.00    -0.073 OA 
HETATM   31  S   UNL     1      -7.800  14.015  69.477  1.00  0.00     0.571 S  
HETATM   32  O   UNL     1      -8.708  13.816  70.579  1.00  0.00     3.191 OA 
ENDBRANCH   7  28
BRANCH   8  33
HETATM   33  O   UNL     1      -9.064  16.198  66.842  1.00  0.00    -0.199 OA 
HETATM   34  S   UNL     1      -8.446  17.700  66.854  1.00  0.00    -0.250 S  
HETATM   35  O   UNL     1      -9.486  18.640  66.515  1.00  0.00    -0.306 OA 
HETATM   36  O   UNL     1      -7.600  17.842  68.018  1.00  0.00    -0.222 OA 
HETATM   37  O   UNL     1      -7.514  17.675  65.545  1.00  0.00    -0.432 OA 
ENDBRANCH   8  33
TORSDOF 6
ENDMDL
MODEL      212
REMARK 921   NORMALIZED FREE ENERGY PREDICTED BY IDOCK:   -0.09 KCAL/MOL
REMARK 922        TOTAL FREE ENERGY PREDICTED BY IDOCK:   -2.22 KCAL/MOL
REMARK 923 INTER-LIGAND FREE ENERGY PREDICTED BY IDOCK:   -4.32 KCAL/MOL
REMARK 924 INTRA-LIGAND FREE ENERGY PREDICTED BY IDOCK:    2.10 KCAL/MOL
REMARK 927      BINDING AFFINITY PREDICTED BY RF-SCORE:    0.00 PKD
ROOT
HETATM    1  O   UNL     1      -6.665  19.712  70.018  1.00  0.00    -0.266 OA 
HETATM    2  H   UNL     1      -7.040  20.546  69.765  1.00  0.00     0.000 HD 
HETATM    3  C   UNL     1      -7.386  18.673  69.360  1.00  0.00     0.016 C  
HETATM    4  C   UNL     1      -6.787  17.339  69.765  1.00  0.00     0.197 C  
HETATM    5  O   UNL     1      -7.475  16.275  69.144  1.00  0.00    -0.205 OA 
HETATM    6  C   UNL     1      -7.378  16.280  67.733  1.00  0.00    -0.132 C  
HETATM    7  C   UNL     1      -7.914  17.591  67.108  1.00  0.00    -0.209 C  
HETATM    8  C   UNL     1      -7.377  18.850  67.833  1.00  0.00    -0.241 C  
ENDROOT
BRANCH   6   9
HETATM    9  O   UNL     1      -8.160  15.193  67.228  1.00  0.00    -0.170 OA 
BRANCH   9  10
HETATM   10  C   UNL     1      -7.830  13.908  67.772  1.00  0.00    -0.168 C  
HETATM   11  H   UNL     1      -5.972   9.588  67.499  1.00  0.00     0.000 HD 
HETATM   12  C   UNL     1      -8.192  12.814  66.730  1.00  0.00     0.068 C  
HETATM   13  C   UNL     1      -6.347  13.789  68.157  1.00  0.00    -0.125 C  
HETATM   14  C   UNL     1      -7.695  11.431  67.196  1.00  0.00    -0.152 C  
HETATM   15  O   UNL     1      -5.844  10.245  68.174  1.00  0.00    -0.041 OA 
HETATM   16  O   UNL     1      -6.030  12.480  68.624  1.00  0.00    -0.060 OA 
HETATM   17  C   UNL     1      -6.221  11.499  67.617  1.00  0.00    -0.062 C  
BRANCH  14  18
HETATM   18  O   UNL     1      -8.015  10.352  66.322  1.00  0.00    -0.126 OA 
HETATM   19  S   UNL     1      -7.465  10.228  64.802  1.00  0.00    -0.057 S  
HETATM   20  O   UNL     1      -7.771  11.455  64.106  1.00  0.00     0.945 OA 
HETATM   21  O   UNL     1      -5.870  10.139  64.964  1.00  0.00    -0.097 OA 
HETATM   22  O   UNL     1      -7.884   8.939  64.303  1.00  0.00    -0.119 OA 
ENDBRANCH  14  18
BRANCH  12  23
HETATM   23  O   UNL     1      -9.583  12.819  66.375  1.00  0.00    -0.251 OA 
HETATM   24  S   UNL     1     -10.756  12.540  67.460  1.00  0.00    -0.230 S  
HETATM   25  O   UNL     1     -10.692  11.147  67.839  1.00  0.00    -0.191 OA 
HETATM   26  O   UNL     1     -12.082  12.691  66.562  1.00  0.00    -0.525 OA 
HETATM   27  O   UNL     1     -10.771  13.589  68.447  1.00  0.00    -0.244 OA 
ENDBRANCH  12  23
ENDBRANCH   9  10
ENDBRANCH   6   9
BRANCH   7  28
HETATM   28  O   UNL     1      -7.520  17.683  65.727  1.00  0.00    -0.512 OA 
HETATM   29  O   UNL     1      -7.034  20.037  65.076  1.00  0.00    -0.303 OA 
HETATM   30  O   UNL     1      -5.968  18.232  63.844  1.00  0.00     0.311 OA 
HETATM   31  S   UNL     1      -6.378  18.769  65.302  1.00  0.00    -0.238 S  
HETATM   32  O   UNL     1      -5.235  18.614  66.167  1.00  0.00    -0.137 OA 
ENDBRANCH   7  28
BRANCH   8  33
HETATM   33  O   UNL     1      -8.231  19.942  67.451  1.00  0.00    -0.297 OA 
HETATM   34  S   UNL     1      -9.846  19.767  67.447  1.00  0.00    -0.421 S  
HETATM   35  O   UNL     1     -10.250  19.156  66.204  1.00  0.00    -0.415 OA 
HETATM   36  O   UNL     1     -10.260  19.275  68.742  1.00  0.00    -0.406 OA 
HETATM   37  O   UNL     1     -10.335  21.291  67.299  1.00  0.00     0.543 OA 
ENDBRANCH   8  33
TORSDOF 6
ENDMDL
MODEL      213
REMARK 921   NORMALIZED FREE ENERGY PREDICTED BY IDOCK:    0.07 KCAL/MOL
REMARK 922        TOTAL FREE ENERGY PREDICTED BY IDOCK:   -2.00 KCAL/MOL
REMARK 923 INTER-LIGAND FREE ENERGY PREDICTED BY IDOCK:   -4.10 KCAL/MOL
REMARK 924 INTRA-LIGAND FREE ENERGY PREDICTED BY IDOCK:    2.10 KCAL/MOL
REMARK 927      BINDING AFFINITY PREDICTED BY RF-SCORE:    0.00 PKD
ROOT
HETATM    1  O   UNL     1      -7.603   7.521  62.984  1.00  0.00    -0.103 OA 
HETATM    2  H   UNL     1      -6.902   8.159  62.924  1.00  0.00     0.000 HD 
HETATM    3  C   UNL     1      -7.892   7.294  64.362  1.00  0.00    -0.126 C  
HETATM    4  C   UNL     1      -9.013   6.275  64.457  1.00  0.00     0.611 C  
HETATM    5  O   UNL     1      -9.330   6.008  65.806  1.00  0.00    -0.092 OA 
HETATM    6  C   UNL     1      -9.828   7.132  66.507  1.00  0.00    -0.120 C  
HETATM    7  C   UNL     1      -8.836   8.320  66.502  1.00  0.00    -0.150 C  
HETATM    8  C   UNL     1      -8.258   8.597  65.091  1.00  0.00    -0.151 C  
ENDROOT
BRANCH   6   9
HETATM    9  O   UNL     1     -10.055   6.745  67.865  1.00  0.00    -0.145 OA 
BRANCH   9  10
HETATM   10  C   UNL     1      -8.888   6.758  68.699  1.00  0.00    -0.123 C  
HETATM   11  H   UNL     1      -6.093   4.948  72.031  1.00  0.00     0.000 HD 
HETATM   12  C   UNL     1      -9.305   6.388  70.149  1.00  0.00    -0.157 C  
HETATM   13  C   UNL     1      -7.797   5.793  68.210  1.00  0.00    -0.100 C  
HETATM   14  C   UNL     1      -8.063   6.217  71.047  1.00  0.00    -0.121 C  
HETATM   15  O   UNL     1      -5.854   5.271  71.170  1.00  0.00    -0.018 OA 
HETATM   16  O   UNL     1      -6.681   5.769  69.096  1.00  0.00    -0.055 OA 
HETATM   17  C   UNL     1      -7.039   5.287  70.382  1.00  0.00    -0.061 C  
BRANCH  14  18
HETATM   18  O   UNL     1      -8.344   5.913  72.410  1.00  0.00    -0.117 OA 
HETATM   19  S   UNL     1      -9.104   4.568  72.898  1.00  0.00    -0.120 S  
HETATM   20  O   UNL     1     -10.342   4.454  72.164  1.00  0.00    -0.187 OA 
HETATM   21  O   UNL     1      -8.140   3.374  72.423  1.00  0.00    -0.066 OA 
HETATM   22  O   UNL     1      -9.065   4.557  74.342  1.00  0.00    -0.107 OA 
ENDBRANCH  14  18
BRANCH  12  23
HETATM   23  O   UNL     1     -10.274   7.292  70.701  1.00  0.00    -0.195 OA 
HETATM   24  S   UNL     1      -9.937   8.853  70.987  1.00  0.00    -0.282 S  
HETATM   25  O   UNL     1      -9.011   8.916  72.095  1.00  0.00    -0.381 OA 
HETATM   26  O   UNL     1     -11.341   9.396  71.557  1.00  0.00    -0.354 OA 
HETATM   27  O   UNL     1      -9.674   9.534  69.745  1.00  0.00    -0.186 OA 
ENDBRANCH  12  23
ENDBRANCH   9  10
ENDBRANCH   6   9
BRANCH   7  28
HETATM   28  O   UNL     1      -9.493   9.520  66.945  1.00  0.00    -0.147 OA 
HETATM   29  O   UNL     1      -8.778  11.495  65.608  1.00  0.00    -0.097 OA 
HETATM   30  O   UNL     1     -10.956  11.533  66.688  1.00  0.00    -0.276 OA 
HETATM   31  S   UNL     1      -9.921  10.642  65.840  1.00  0.00    -0.267 S  
HETATM   32  O   UNL     1     -10.657  10.001  64.779  1.00  0.00     0.193 OA 
ENDBRANCH   7  28
BRANCH   8  33
HETATM   33  O   UNL     1      -7.088   9.411  65.278  1.00  0.00    -0.087 OA 
HETATM   34  S   UNL     1      -6.212   9.908  64.002  1.00  0.00    -0.131 S  
HETATM   35  O   UNL     1      -5.295   8.861  63.625  1.00  0.00    -0.061 OA 
HETATM   36  O   UNL     1      -7.097  10.561  63.063  1.00  0.00    -0.112 OA 
HETATM   37  O   UNL     1      -5.268  11.020  64.673  1.00  0.00    -0.212 OA 
ENDBRANCH   8  33
TORSDOF 6
ENDMDL
MODEL      214
REMARK 921   NORMALIZED FREE ENERGY PREDICTED BY IDOCK:    0.08 KCAL/MOL
REMARK 922        TOTAL FREE ENERGY PREDICTED BY IDOCK:   -1.99 KCAL/MOL
REMARK 923 INTER-LIGAND FREE ENERGY PREDICTED BY IDOCK:   -4.99 KCAL/MOL
REMARK 924 INTRA-LIGAND FREE ENERGY PREDICTED BY IDOCK:    3.00 KCAL/MOL
REMARK 927      BINDING AFFINITY PREDICTED BY RF-SCORE:    0.00 PKD
ROOT
HETATM    1  O   UNL     1      -9.739   6.710  66.936  1.00  0.00    -0.151 OA 
HETATM    2  H   UNL     1     -10.073   6.402  67.769  1.00  0.00     0.000 HD 
HETATM    3  C   UNL     1      -9.732   8.135  66.949  1.00  0.00    -0.226 C  
HETATM    4  C   UNL     1      -9.196   8.626  65.616  1.00  0.00    -0.139 C  
HETATM    5  O   UNL     1      -9.178  10.037  65.576  1.00  0.00    -0.170 OA 
HETATM    6  C   UNL     1      -8.313  10.623  66.529  1.00  0.00    -0.143 C  
HETATM    7  C   UNL     1      -8.669  10.216  67.980  1.00  0.00    -0.122 C  
HETATM    8  C   UNL     1      -8.908   8.692  68.121  1.00  0.00    -0.142 C  
ENDROOT
BRANCH   6   9
HETATM    9  O   UNL     1      -8.431  12.045  66.423  1.00  0.00    -0.118 OA 
BRANCH   9  10
HETATM   10  C   UNL     1      -8.963  12.695  67.584  1.00  0.00    -0.186 C  
HETATM   11  H   UNL     1     -11.679  15.892  69.729  1.00  0.00     0.000 HD 
HETATM   12  C   UNL     1      -8.931  14.232  67.358  1.00  0.00    -0.201 C  
HETATM   13  C   UNL     1     -10.396  12.248  67.912  1.00  0.00    -0.208 C  
HETATM   14  C   UNL     1      -9.653  14.968  68.504  1.00  0.00    -0.210 C  
HETATM   15  O   UNL     1     -11.606  14.961  69.909  1.00  0.00    -0.257 OA 
HETATM   16  O   UNL     1     -10.927  12.964  69.025  1.00  0.00    -0.246 OA 
HETATM   17  C   UNL     1     -11.036  14.352  68.756  1.00  0.00    -0.250 C  
BRANCH  14  18
HETATM   18  O   UNL     1      -9.643  16.389  68.406  1.00  0.00    -0.209 OA 
HETATM   19  S   UNL     1     -10.321  17.214  67.186  1.00  0.00    -0.288 S  
HETATM   20  O   UNL     1      -9.809  16.690  65.942  1.00  0.00    -0.415 OA 
HETATM   21  O   UNL     1     -11.880  16.839  67.272  1.00  0.00     0.782 OA 
HETATM   22  O   UNL     1     -10.232  18.617  67.521  1.00  0.00    -0.345 OA 
ENDBRANCH  14  18
BRANCH  12  23
HETATM   23  O   UNL     1      -7.608  14.734  67.115  1.00  0.00    -0.194 OA 
HETATM   24  S   UNL     1      -6.569  15.055  68.319  1.00  0.00    -0.125 S  
HETATM   25  O   UNL     1      -7.053  16.216  69.031  1.00  0.00    -0.162 OA 
HETATM   26  O   UNL     1      -5.267  15.546  67.512  1.00  0.00    -0.288 OA 
HETATM   27  O   UNL     1      -6.226  13.837  69.008  1.00  0.00    -0.085 OA 
ENDBRANCH  12  23
ENDBRANCH   9  10
ENDBRANCH   6   9
BRANCH   7  28
HETATM   28  O   UNL     1      -7.601  10.573  68.875  1.00  0.00    -0.091 OA 
HETATM   29  O   UNL     1      -5.785   8.871  68.850  1.00  0.00    -0.039 OA 
HETATM   30  O   UNL     1      -5.245  11.158  69.475  1.00  0.00    -0.044 OA 
HETATM   31  S   UNL     1      -6.064  10.230  68.449  1.00  0.00    -0.043 S  
HETATM   32  O   UNL     1      -5.823  10.727  67.116  1.00  0.00    -0.045 OA 
ENDBRANCH   7  28
BRANCH   8  33
HETATM   33  O   UNL     1      -9.609   8.497  69.361  1.00  0.00    -0.167 OA 
HETATM   34  S   UNL     1     -10.323   7.076  69.695  1.00  0.00    -0.216 S  
HETATM   35  O   UNL     1     -11.625   7.048  69.076  1.00  0.00     0.106 OA 
HETATM   36  O   UNL     1      -9.347   6.021  69.534  1.00  0.00    -0.134 OA 
HETATM   37  O   UNL     1     -10.647   7.238  71.260  1.00  0.00    -0.219 OA 
ENDBRANCH   8  33
TORSDOF 6
ENDMDL
MODEL      215
REMARK 921   NORMALIZED FREE ENERGY PREDICTED BY IDOCK:    0.21 KCAL/MOL
REMARK 922        TOTAL FREE ENERGY PREDICTED BY IDOCK:   -1.82 KCAL/MOL
REMARK 923 INTER-LIGAND FREE ENERGY PREDICTED BY IDOCK:   -5.64 KCAL/MOL
REMARK 924 INTRA-LIGAND FREE ENERGY PREDICTED BY IDOCK:    3.82 KCAL/MOL
REMARK 927      BINDING AFFINITY PREDICTED BY RF-SCORE:    0.00 PKD
ROOT
HETATM    1  O   UNL     1     -10.901  10.339  66.410  1.00  0.00    -0.095 OA 
HETATM    2  H   UNL     1     -11.147   9.617  66.975  1.00  0.00     0.000 HD 
HETATM    3  C   UNL     1     -10.240  11.326  67.196  1.00  0.00    -0.201 C  
HETATM    4  C   UNL     1      -9.847  12.479  66.291  1.00  0.00    -0.252 C  
HETATM    5  O   UNL     1      -9.194  13.491  67.027  1.00  0.00    -0.229 OA 
HETATM    6  C   UNL     1      -7.971  13.076  67.604  1.00  0.00    -0.169 C  
HETATM    7  C   UNL     1      -8.145  11.866  68.554  1.00  0.00    -0.130 C  
HETATM    8  C   UNL     1      -9.017  10.749  67.928  1.00  0.00    -0.139 C  
ENDROOT
BRANCH   6   9
HETATM    9  O   UNL     1      -7.444  14.168  68.365  1.00  0.00    -0.107 OA 
BRANCH   9  10
HETATM   10  C   UNL     1      -7.110  15.332  67.597  1.00  0.00    -0.182 C  
HETATM   11  H   UNL     1      -6.650  19.984  67.016  1.00  0.00     0.000 HD 
HETATM   12  C   UNL     1      -8.221  16.399  67.795  1.00  0.00    -0.154 C  
HETATM   13  C   UNL     1      -5.745  15.925  67.981  1.00  0.00    -0.126 C  
HETATM   14  C   UNL     1      -7.822  17.732  67.132  1.00  0.00    -0.211 C  
HETATM   15  O   UNL     1      -6.023  19.298  66.815  1.00  0.00    -0.164 OA 
HETATM   16  O   UNL     1      -5.472  17.123  67.257  1.00  0.00    -0.119 OA 
HETATM   17  C   UNL     1      -6.407  18.146  67.557  1.00  0.00    -0.176 C  
BRANCH  14  18
HETATM   18  O   UNL     1      -8.798  18.766  67.226  1.00  0.00    -0.270 OA 
HETATM   19  S   UNL     1      -9.758  18.987  68.513  1.00  0.00    -0.421 S  
HETATM   20  O   UNL     1     -10.420  17.738  68.806  1.00  0.00    -0.343 OA 
HETATM   21  O   UNL     1      -8.741  19.299  69.716  1.00  0.00     0.325 OA 
HETATM   22  O   UNL     1     -10.494  20.210  68.290  1.00  0.00    -0.373 OA 
ENDBRANCH  14  18
BRANCH  12  23
HETATM   23  O   UNL     1      -9.519  15.938  67.389  1.00  0.00    -0.216 OA 
HETATM   24  S   UNL     1     -10.067  16.119  65.873  1.00  0.00    -0.361 S  
HETATM   25  O   UNL     1     -10.321  17.525  65.653  1.00  0.00    -0.601 OA 
HETATM   26  O   UNL     1     -11.513  15.419  65.956  1.00  0.00    -0.180 OA 
HETATM   27  O   UNL     1      -9.257  15.349  64.963  1.00  0.00     0.368 OA 
ENDBRANCH  12  23
ENDBRANCH   9  10
ENDBRANCH   6   9
BRANCH   7  28
HETATM   28  O   UNL     1      -6.865  11.291  68.870  1.00  0.00    -0.071 OA 
HETATM   29  O   UNL     1      -5.991  12.152  71.036  1.00  0.00    -0.330 OA 
HETATM   30  O   UNL     1      -5.249   9.973  70.252  1.00  0.00    -0.035 OA 
HETATM   31  S   UNL     1      -6.513  10.951  70.427  1.00  0.00     0.091 S  
HETATM   32  O   UNL     1      -7.592  10.180  70.995  1.00  0.00    -0.019 OA 
ENDBRANCH   7  28
BRANCH   8  33
HETATM   33  O   UNL     1      -9.437   9.900  69.010  1.00  0.00    -0.166 OA 
HETATM   34  S   UNL     1      -9.125   8.305  68.980  1.00  0.00    -0.147 S  
HETATM   35  O   UNL     1     -10.143   7.641  68.204  1.00  0.00    -0.173 OA 
HETATM   36  O   UNL     1      -7.709   8.117  68.756  1.00  0.00    -0.103 OA 
HETATM   37  O   UNL     1      -9.463   7.883  70.493  1.00  0.00    -0.162 OA 
ENDBRANCH   8  33
TORSDOF 6
ENDMDL
MODEL      216
REMARK 921   NORMALIZED FREE ENERGY PREDICTED BY IDOCK:    0.22 KCAL/MOL
REMARK 922        TOTAL FREE ENERGY PREDICTED BY IDOCK:   -1.80 KCAL/MOL
REMARK 923 INTER-LIGAND FREE ENERGY PREDICTED BY IDOCK:   -4.16 KCAL/MOL
REMARK 924 INTRA-LIGAND FREE ENERGY PREDICTED BY IDOCK:    2.36 KCAL/MOL
REMARK 927      BINDING AFFINITY PREDICTED BY RF-SCORE:    0.00 PKD
ROOT
HETATM    1  O   UNL     1      -7.159   8.243  67.104  1.00  0.00    -0.076 OA 
HETATM    2  H   UNL     1      -7.811   7.554  67.053  1.00  0.00     0.000 HD 
HETATM    3  C   UNL     1      -7.828   9.501  67.084  1.00  0.00    -0.095 C  
HETATM    4  C   UNL     1      -6.785  10.602  67.166  1.00  0.00    -0.081 C  
HETATM    5  O   UNL     1      -7.399  11.873  67.140  1.00  0.00    -0.136 OA 
HETATM    6  C   UNL     1      -8.245  12.119  68.246  1.00  0.00    -0.168 C  
HETATM    7  C   UNL     1      -9.378  11.072  68.369  1.00  0.00    -0.179 C  
HETATM    8  C   UNL     1      -8.857   9.621  68.220  1.00  0.00    -0.120 C  
ENDROOT
BRANCH   6   9
HETATM    9  O   UNL     1      -8.844  13.406  68.070  1.00  0.00    -0.168 OA 
BRANCH   9  10
HETATM   10  C   UNL     1      -8.011  14.377  67.422  1.00  0.00    -0.201 C  
HETATM   11  H   UNL     1      -5.322  18.245  67.387  1.00  0.00     0.000 HD 
HETATM   12  C   UNL     1      -8.432  15.795  67.895  1.00  0.00    -0.157 C  
HETATM   13  C   UNL     1      -6.516  14.158  67.701  1.00  0.00    -0.135 C  
HETATM   14  C   UNL     1      -7.454  16.861  67.362  1.00  0.00    -0.162 C  
HETATM   15  O   UNL     1      -5.131  17.388  67.022  1.00  0.00    -0.120 OA 
HETATM   16  O   UNL     1      -5.717  15.179  67.108  1.00  0.00    -0.265 OA 
HETATM   17  C   UNL     1      -6.003  16.457  67.653  1.00  0.00    -0.144 C  
BRANCH  14  18
HETATM   18  O   UNL     1      -7.779  18.204  67.712  1.00  0.00    -0.221 OA 
HETATM   19  S   UNL     1      -6.954  19.078  68.799  1.00  0.00    -0.320 S  
HETATM   20  O   UNL     1      -6.870  18.319  70.024  1.00  0.00     0.178 OA 
HETATM   21  O   UNL     1      -5.475  19.183  68.183  1.00  0.00    -0.187 OA 
HETATM   22  O   UNL     1      -7.493  20.418  68.763  1.00  0.00    -0.023 OA 
ENDBRANCH  14  18
BRANCH  12  23
HETATM   23  O   UNL     1      -9.805  16.098  67.601  1.00  0.00    -0.232 OA 
HETATM   24  S   UNL     1     -10.696  17.075  68.542  1.00  0.00    -0.320 S  
HETATM   25  O   UNL     1     -10.947  16.388  69.789  1.00  0.00    -0.338 OA 
HETATM   26  O   UNL     1     -12.103  17.095  67.761  1.00  0.00     1.175 OA 
HETATM   27  O   UNL     1     -10.158  18.410  68.513  1.00  0.00    -0.362 OA 
ENDBRANCH  12  23
ENDBRANCH   9  10
ENDBRANCH   6   9
BRANCH   7  28
HETATM   28  O   UNL     1     -10.015  11.174  69.654  1.00  0.00     0.078 OA 
HETATM   29  O   UNL     1     -11.738  12.971  69.676  1.00  0.00    -0.296 OA 
HETATM   30  O   UNL     1     -11.952  11.119  71.237  1.00  0.00    -0.195 OA 
HETATM   31  S   UNL     1     -11.606  11.533  69.723  1.00  0.00    -0.320 S  
HETATM   32  O   UNL     1     -12.327  10.644  68.846  1.00  0.00    -0.358 OA 
ENDBRANCH   7  28
BRANCH   8  33
HETATM   33  O   UNL     1     -10.002   8.797  67.944  1.00  0.00    -0.169 OA 
HETATM   34  S   UNL     1     -10.247   7.417  68.768  1.00  0.00    -0.194 S  
HETATM   35  O   UNL     1      -9.475   6.363  68.158  1.00  0.00    -0.117 OA 
HETATM   36  O   UNL     1     -10.207   7.712  70.183  1.00  0.00    -0.198 OA 
HETATM   37  O   UNL     1     -11.761   7.065  68.362  1.00  0.00     0.470 OA 
ENDBRANCH   8  33
TORSDOF 6
ENDMDL
MODEL      217
REMARK 921   NORMALIZED FREE ENERGY PREDICTED BY IDOCK:    0.27 KCAL/MOL
REMARK 922        TOTAL FREE ENERGY PREDICTED BY IDOCK:   -1.74 KCAL/MOL
REMARK 923 INTER-LIGAND FREE ENERGY PREDICTED BY IDOCK:   -5.81 KCAL/MOL
REMARK 924 INTRA-LIGAND FREE ENERGY PREDICTED BY IDOCK:    4.08 KCAL/MOL
REMARK 927      BINDING AFFINITY PREDICTED BY RF-SCORE:    0.00 PKD
ROOT
HETATM    1  O   UNL     1     -10.467  11.070  64.382  1.00  0.00    -0.336 OA 
HETATM    2  H   UNL     1     -10.756  11.974  64.424  1.00  0.00     0.000 HD 
HETATM    3  C   UNL     1      -9.976  10.692  65.665  1.00  0.00    -0.268 C  
HETATM    4  C   UNL     1      -9.514   9.247  65.598  1.00  0.00    -0.256 C  
HETATM    5  O   UNL     1      -9.008   8.827  66.847  1.00  0.00    -0.127 OA 
HETATM    6  C   UNL     1      -9.973   8.830  67.881  1.00  0.00    -0.187 C  
HETATM    7  C   UNL     1     -10.605  10.226  68.096  1.00  0.00    -0.221 C  
HETATM    8  C   UNL     1     -11.034  10.889  66.763  1.00  0.00    -0.185 C  
ENDROOT
BRANCH   6   9
HETATM    9  O   UNL     1      -9.324   8.442  69.096  1.00  0.00    -0.150 OA 
BRANCH   9  10
HETATM   10  C   UNL     1      -9.229   7.027  69.305  1.00  0.00    -0.139 C  
HETATM   11  H   UNL     1      -9.722   3.127  71.901  1.00  0.00     0.000 HD 
HETATM   12  C   UNL     1      -8.606   6.767  70.704  1.00  0.00    -0.142 C  
HETATM   13  C   UNL     1     -10.589   6.319  69.202  1.00  0.00    -0.268 C  
HETATM   14  C   UNL     1      -8.645   5.264  71.048  1.00  0.00    -0.123 C  
HETATM   15  O   UNL     1     -10.009   3.283  71.008  1.00  0.00    -0.116 OA 
HETATM   16  O   UNL     1     -10.479   4.926  69.488  1.00  0.00    -0.188 OA 
HETATM   17  C   UNL     1     -10.051   4.693  70.820  1.00  0.00    -0.194 C  
BRANCH  14  18
HETATM   18  O   UNL     1      -8.059   4.919  72.300  1.00  0.00    -0.107 OA 
HETATM   19  S   UNL     1      -8.885   4.278  73.538  1.00  0.00    -0.092 S  
HETATM   20  O   UNL     1     -10.025   5.122  73.810  1.00  0.00    -0.155 OA 
HETATM   21  O   UNL     1      -9.434   2.881  72.966  1.00  0.00    -0.089 OA 
HETATM   22  O   UNL     1      -7.923   3.936  74.560  1.00  0.00    -0.083 OA 
ENDBRANCH  14  18
BRANCH  12  23
HETATM   23  O   UNL     1      -7.298   7.341  70.849  1.00  0.00    -0.072 OA 
HETATM   24  S   UNL     1      -6.945   8.835  70.325  1.00  0.00    -0.048 S  
HETATM   25  O   UNL     1      -6.951   8.815  68.880  1.00  0.00    -0.060 OA 
HETATM   26  O   UNL     1      -5.402   8.982  70.756  1.00  0.00    -0.027 OA 
HETATM   27  O   UNL     1      -7.703   9.808  71.068  1.00  0.00    -0.292 OA 
ENDBRANCH  12  23
ENDBRANCH   9  10
ENDBRANCH   6   9
BRANCH   7  28
HETATM   28  O   UNL     1     -11.776  10.121  68.925  1.00  0.00    -0.075 OA 
HETATM   29  O   UNL     1     -11.172   9.834  71.323  1.00  0.00    -0.361 OA 
HETATM   30  O   UNL     1     -13.324  10.817  70.763  1.00  0.00    -0.146 OA 
HETATM   31  S   UNL     1     -11.755  10.792  70.412  1.00  0.00    -0.366 S  
HETATM   32  O   UNL     1     -11.305  12.158  70.306  1.00  0.00     0.002 OA 
ENDBRANCH   7  28
BRANCH   8  33
HETATM   33  O   UNL     1     -11.214  12.289  67.038  1.00  0.00    -0.273 OA 
HETATM   34  S   UNL     1      -9.943  13.301  67.045  1.00  0.00    -0.243 S  
HETATM   35  O   UNL     1      -9.300  13.240  68.334  1.00  0.00    -0.205 OA 
HETATM   36  O   UNL     1      -9.229  13.154  65.796  1.00  0.00     0.066 OA 
HETATM   37  O   UNL     1     -10.672  14.733  67.049  1.00  0.00    -0.289 OA 
ENDBRANCH   8  33
TORSDOF 6
ENDMDL
MODEL      218
REMARK 921   NORMALIZED FREE ENERGY PREDICTED BY IDOCK:    0.51 KCAL/MOL
REMARK 922        TOTAL FREE ENERGY PREDICTED BY IDOCK:   -1.40 KCAL/MOL
REMARK 923 INTER-LIGAND FREE ENERGY PREDICTED BY IDOCK:   -4.98 KCAL/MOL
REMARK 924 INTRA-LIGAND FREE ENERGY PREDICTED BY IDOCK:    3.58 KCAL/MOL
REMARK 927      BINDING AFFINITY PREDICTED BY RF-SCORE:    0.00 PKD
ROOT
HETATM    1  O   UNL     1     -12.540   6.824  70.166  1.00  0.00    -0.511 OA 
HETATM    2  H   UNL     1     -12.809   6.694  71.068  1.00  0.00     0.000 HD 
HETATM    3  C   UNL     1     -11.139   7.080  70.144  1.00  0.00    -0.285 C  
HETATM    4  C   UNL     1     -10.710   7.286  68.702  1.00  0.00    -0.138 C  
HETATM    5  O   UNL     1      -9.326   7.553  68.627  1.00  0.00    -0.144 OA 
HETATM    6  C   UNL     1      -8.515   6.484  69.076  1.00  0.00    -0.125 C  
HETATM    7  C   UNL     1      -8.820   6.084  70.539  1.00  0.00    -0.145 C  
HETATM    8  C   UNL     1     -10.339   5.946  70.806  1.00  0.00    -0.232 C  
ENDROOT
BRANCH   6   9
HETATM    9  O   UNL     1      -7.148   6.901  69.002  1.00  0.00    -0.082 OA 
BRANCH   9  10
HETATM   10  C   UNL     1      -6.951   8.321  68.959  1.00  0.00    -0.061 C  
HETATM   11  H   UNL     1      -8.331  12.721  67.996  1.00  0.00     0.000 HD 
HETATM   12  C   UNL     1      -7.438   8.853  67.583  1.00  0.00    -0.092 C  
HETATM   13  C   UNL     1      -7.685   9.058  70.090  1.00  0.00    -0.089 C  
HETATM   14  C   UNL     1      -7.410  10.394  67.553  1.00  0.00    -0.092 C  
HETATM   15  O   UNL     1      -7.942  12.385  68.796  1.00  0.00    -0.072 OA 
HETATM   16  O   UNL     1      -7.535  10.471  69.980  1.00  0.00    -0.142 OA 
HETATM   17  C   UNL     1      -8.116  10.972  68.787  1.00  0.00    -0.145 C  
BRANCH  14  18
HETATM   18  O   UNL     1      -7.804  10.978  66.315  1.00  0.00    -0.158 OA 
HETATM   19  S   UNL     1      -9.303  10.881  65.707  1.00  0.00    -0.212 S  
HETATM   20  O   UNL     1      -9.692   9.491  65.674  1.00  0.00    -0.272 OA 
HETATM   21  O   UNL     1     -10.221  11.623  66.797  1.00  0.00    -0.209 OA 
HETATM   22  O   UNL     1      -9.338  11.715  64.528  1.00  0.00    -0.098 OA 
ENDBRANCH  14  18
BRANCH  12  23
HETATM   23  O   UNL     1      -6.743   8.259  66.476  1.00  0.00    -0.061 OA 
HETATM   24  S   UNL     1      -7.009   6.728  66.008  1.00  0.00    -0.066 S  
HETATM   25  O   UNL     1      -6.472   5.850  67.022  1.00  0.00    -0.046 OA 
HETATM   26  O   UNL     1      -6.023   6.592  64.743  1.00  0.00    -0.032 OA 
HETATM   27  O   UNL     1      -8.360   6.589  65.529  1.00  0.00    -0.140 OA 
ENDBRANCH  12  23
ENDBRANCH   9  10
ENDBRANCH   6   9
BRANCH   7  28
HETATM   28  O   UNL     1      -8.208   4.820  70.850  1.00  0.00    -0.084 OA 
HETATM   29  O   UNL     1      -9.900   2.999  70.987  1.00  0.00    -0.152 OA 
HETATM   30  O   UNL     1      -7.602   2.430  70.430  1.00  0.00    -0.042 OA 
HETATM   31  S   UNL     1      -8.804   3.464  70.167  1.00  0.00    -0.096 S  
HETATM   32  O   UNL     1      -8.911   3.661  68.742  1.00  0.00    -0.104 OA 
ENDBRANCH   7  28
BRANCH   8  33
HETATM   33  O   UNL     1     -10.512   5.981  72.234  1.00  0.00    -0.195 OA 
HETATM   34  S   UNL     1      -9.886   7.195  73.114  1.00  0.00    -0.238 S  
HETATM   35  O   UNL     1      -8.502   6.906  73.395  1.00  0.00    -0.118 OA 
HETATM   36  O   UNL     1     -10.334   8.450  72.553  1.00  0.00    -0.315 OA 
HETATM   37  O   UNL     1     -10.617   6.978  74.528  1.00  0.00     0.013 OA 
ENDBRANCH   8  33
TORSDOF 6
ENDMDL
MODEL      219
REMARK 921   NORMALIZED FREE ENERGY PREDICTED BY IDOCK:    0.75 KCAL/MOL
REMARK 922        TOTAL FREE ENERGY PREDICTED BY IDOCK:   -1.09 KCAL/MOL
REMARK 923 INTER-LIGAND FREE ENERGY PREDICTED BY IDOCK:   -5.58 KCAL/MOL
REMARK 924 INTRA-LIGAND FREE ENERGY PREDICTED BY IDOCK:    4.49 KCAL/MOL
REMARK 927      BINDING AFFINITY PREDICTED BY RF-SCORE:    0.00 PKD
ROOT
HETATM    1  O   UNL     1     -10.906  17.542  66.405  1.00  0.00    -0.138 OA 
HETATM    2  H   UNL     1     -11.718  17.606  66.893  1.00  0.00     0.000 HD 
HETATM    3  C   UNL     1     -10.040  16.637  67.084  1.00  0.00    -0.276 C  
HETATM    4  C   UNL     1      -8.742  16.535  66.304  1.00  0.00    -0.333 C  
HETATM    5  O   UNL     1      -7.844  15.654  66.944  1.00  0.00    -0.221 OA 
HETATM    6  C   UNL     1      -8.307  14.320  67.014  1.00  0.00    -0.131 C  
HETATM    7  C   UNL     1      -9.661  14.201  67.754  1.00  0.00    -0.219 C  
HETATM    8  C   UNL     1     -10.689  15.256  67.272  1.00  0.00    -0.311 C  
ENDROOT
BRANCH   6   9
HETATM    9  O   UNL     1      -7.338  13.548  67.730  1.00  0.00    -0.129 OA 
BRANCH   9  10
HETATM   10  C   UNL     1      -7.219  12.184  67.306  1.00  0.00    -0.144 C  
HETATM   11  H   UNL     1      -8.794   7.763  66.901  1.00  0.00     0.000 HD 
HETATM   12  C   UNL     1      -7.667  11.256  68.468  1.00  0.00    -0.131 C  
HETATM   13  C   UNL     1      -8.046  11.878  66.048  1.00  0.00     0.415 C  
HETATM   14  C   UNL     1      -7.724   9.787  68.003  1.00  0.00    -0.083 C  
HETATM   15  O   UNL     1      -8.426   8.323  66.228  1.00  0.00    -0.116 OA 
HETATM   16  O   UNL     1      -7.970  10.500  65.692  1.00  0.00    -0.157 OA 
HETATM   17  C   UNL     1      -8.519   9.663  66.697  1.00  0.00    -0.123 C  
BRANCH  14  18
HETATM   18  O   UNL     1      -8.089   8.851  69.013  1.00  0.00    -0.110 OA 
HETATM   19  S   UNL     1      -9.607   8.638  69.541  1.00  0.00    -0.172 S  
HETATM   20  O   UNL     1     -10.138   9.924  69.928  1.00  0.00    -0.230 OA 
HETATM   21  O   UNL     1     -10.412   8.145  68.241  1.00  0.00    -0.204 OA 
HETATM   22  O   UNL     1      -9.588   7.512  70.446  1.00  0.00    -0.169 OA 
ENDBRANCH  14  18
BRANCH  12  23
HETATM   23  O   UNL     1      -6.888  11.437  69.660  1.00  0.00    -0.124 OA 
HETATM   24  S   UNL     1      -6.236  12.867  70.061  1.00  0.00     0.007 S  
HETATM   25  O   UNL     1      -5.169  13.150  69.129  1.00  0.00    -0.069 OA 
HETATM   26  O   UNL     1      -5.518  12.525  71.460  1.00  0.00    -0.379 OA 
HETATM   27  O   UNL     1      -7.279  13.825  70.325  1.00  0.00     0.530 OA 
ENDBRANCH  12  23
ENDBRANCH   9  10
ENDBRANCH   6   9
BRANCH   7  28
HETATM   28  O   UNL     1     -10.238  12.902  67.536  1.00  0.00    -0.211 OA 
HETATM   29  O   UNL     1     -12.537  13.073  66.597  1.00  0.00    -0.260 OA 
HETATM   30  O   UNL     1     -11.236  11.065  66.163  1.00  0.00    -0.103 OA 
HETATM   31  S   UNL     1     -11.197  12.670  66.237  1.00  0.00    -0.328 S  
HETATM   32  O   UNL     1     -10.517  13.149  65.058  1.00  0.00    -0.313 OA 
ENDBRANCH   7  28
BRANCH   8  33
HETATM   33  O   UNL     1     -11.717  15.319  68.276  1.00  0.00    -0.343 OA 
HETATM   34  S   UNL     1     -11.389  15.890  69.761  1.00  0.00    -0.357 S  
HETATM   35  O   UNL     1     -10.824  14.830  70.559  1.00  0.00    -0.104 OA 
HETATM   36  O   UNL     1     -10.778  17.194  69.630  1.00  0.00    -0.226 OA 
HETATM   37  O   UNL     1     -12.866  16.078  70.367  1.00  0.00    -0.313 OA 
ENDBRANCH   8  33
TORSDOF 6
ENDMDL
MODEL      220
REMARK 921   NORMALIZED FREE ENERGY PREDICTED BY IDOCK:    0.85 KCAL/MOL
REMARK 922        TOTAL FREE ENERGY PREDICTED BY IDOCK:   -0.96 KCAL/MOL
REMARK 923 INTER-LIGAND FREE ENERGY PREDICTED BY IDOCK:   -4.21 KCAL/MOL
REMARK 924 INTRA-LIGAND FREE ENERGY PREDICTED BY IDOCK:    3.25 KCAL/MOL
REMARK 927      BINDING AFFINITY PREDICTED BY RF-SCORE:    0.00 PKD
ROOT
HETATM    1  O   UNL     1      -8.331   7.015  63.601  1.00  0.00    -0.343 OA 
HETATM    2  H   UNL     1      -7.659   7.479  63.116  1.00  0.00     0.000 HD 
HETATM    3  C   UNL     1      -8.072   7.168  64.994  1.00  0.00    -0.119 C  
HETATM    4  C   UNL     1      -9.148   6.426  65.768  1.00  0.00     0.003 C  
HETATM    5  O   UNL     1      -8.929   6.540  67.158  1.00  0.00    -0.112 OA 
HETATM    6  C   UNL     1      -9.012   7.866  67.641  1.00  0.00    -0.131 C  
HETATM    7  C   UNL     1      -8.005   8.814  66.946  1.00  0.00    -0.098 C  
HETATM    8  C   UNL     1      -8.008   8.647  65.405  1.00  0.00    -0.111 C  
ENDROOT
BRANCH   6   9
HETATM    9  O   UNL     1      -8.717   7.850  69.041  1.00  0.00    -0.137 OA 
BRANCH   9  10
HETATM   10  C   UNL     1      -8.170   6.618  69.528  1.00  0.00    -0.130 C  
HETATM   11  H   UNL     1      -8.503   2.436  71.671  1.00  0.00     0.000 HD 
HETATM   12  C   UNL     1      -8.717   6.357  70.958  1.00  0.00    -0.135 C  
HETATM   13  C   UNL     1      -8.497   5.422  68.620  1.00  0.00    -0.093 C  
HETATM   14  C   UNL     1      -8.297   4.959  71.457  1.00  0.00    -0.113 C  
HETATM   15  O   UNL     1      -8.091   2.643  70.840  1.00  0.00    -0.049 OA 
HETATM   16  O   UNL     1      -8.006   4.199  69.166  1.00  0.00    -0.060 OA 
HETATM   17  C   UNL     1      -8.622   3.890  70.406  1.00  0.00    -0.072 C  
BRANCH  14  18
HETATM   18  O   UNL     1      -8.721   4.641  72.779  1.00  0.00    -0.113 OA 
HETATM   19  S   UNL     1     -10.223   4.163  73.156  1.00  0.00    -0.166 S  
HETATM   20  O   UNL     1     -11.155   5.128  72.623  1.00  0.00    -0.247 OA 
HETATM   21  O   UNL     1     -10.416   2.791  72.344  1.00  0.00    -0.132 OA 
HETATM   22  O   UNL     1     -10.214   3.797  74.554  1.00  0.00    -0.168 OA 
ENDBRANCH  14  18
BRANCH  12  23
HETATM   23  O   UNL     1      -8.387   7.404  71.883  1.00  0.00    -0.105 OA 
HETATM   24  S   UNL     1      -6.964   7.455  72.661  1.00  0.00    -0.070 S  
HETATM   25  O   UNL     1      -6.941   6.378  73.625  1.00  0.00    -0.081 OA 
HETATM   26  O   UNL     1      -7.104   8.809  73.520  1.00  0.00    -0.347 OA 
HETATM   27  O   UNL     1      -5.894   7.643  71.716  1.00  0.00    -0.036 OA 
ENDBRANCH  12  23
ENDBRANCH   9  10
ENDBRANCH   6   9
BRANCH   7  28
HETATM   28  O   UNL     1      -8.328  10.185  67.235  1.00  0.00    -0.121 OA 
HETATM   29  O   UNL     1      -7.841  10.754  69.609  1.00  0.00    -0.099 OA 
HETATM   30  O   UNL     1      -7.830  12.530  67.949  1.00  0.00    -0.120 OA 
HETATM   31  S   UNL     1      -7.379  11.020  68.267  1.00  0.00    -0.094 S  
HETATM   32  O   UNL     1      -6.002  10.877  67.861  1.00  0.00    -0.046 OA 
ENDBRANCH   7  28
BRANCH   8  33
HETATM   33  O   UNL     1      -6.794   9.248  64.923  1.00  0.00    -0.083 OA 
HETATM   34  S   UNL     1      -6.643   9.672  63.362  1.00  0.00    -0.114 S  
HETATM   35  O   UNL     1      -6.250   8.515  62.596  1.00  0.00    -0.087 OA 
HETATM   36  O   UNL     1      -7.761  10.516  63.003  1.00  0.00    -0.141 OA 
HETATM   37  O   UNL     1      -5.314  10.574  63.400  1.00  0.00    -0.141 OA 
ENDBRANCH   8  33
TORSDOF 6
ENDMDL
MODEL      221
REMARK 921   NORMALIZED FREE ENERGY PREDICTED BY IDOCK:    0.87 KCAL/MOL
REMARK 922        TOTAL FREE ENERGY PREDICTED BY IDOCK:   -0.93 KCAL/MOL
REMARK 923 INTER-LIGAND FREE ENERGY PREDICTED BY IDOCK:   -5.23 KCAL/MOL
REMARK 924 INTRA-LIGAND FREE ENERGY PREDICTED BY IDOCK:    4.30 KCAL/MOL
REMARK 927      BINDING AFFINITY PREDICTED BY RF-SCORE:    0.00 PKD
ROOT
HETATM    1  O   UNL     1      -8.547   7.648  67.228  1.00  0.00    -0.120 OA 
HETATM    2  H   UNL     1      -8.530   7.533  68.170  1.00  0.00     0.000 HD 
HETATM    3  C   UNL     1      -9.024   8.960  66.941  1.00  0.00    -0.128 C  
HETATM    4  C   UNL     1      -9.051   9.144  65.434  1.00  0.00    -0.214 C  
HETATM    5  O   UNL     1      -9.527  10.429  65.097  1.00  0.00    -0.206 OA 
HETATM    6  C   UNL     1      -8.701  11.481  65.556  1.00  0.00     0.105 C  
HETATM    7  C   UNL     1      -8.511  11.458  67.092  1.00  0.00    -0.153 C  
HETATM    8  C   UNL     1      -8.169  10.042  67.620  1.00  0.00    -0.114 C  
ENDROOT
BRANCH   6   9
HETATM    9  O   UNL     1      -9.321  12.721  65.202  1.00  0.00     0.198 OA 
BRANCH   9  10
HETATM   10  C   UNL     1     -10.041  13.361  66.263  1.00  0.00    -0.299 C  
HETATM   11  H   UNL     1     -11.883  13.498  70.597  1.00  0.00     0.000 HD 
HETATM   12  C   UNL     1     -11.050  12.345  66.868  1.00  0.00    -0.287 C  
HETATM   13  C   UNL     1      -9.119  13.898  67.368  1.00  0.00    -0.217 C  
HETATM   14  C   UNL     1     -11.724  12.930  68.126  1.00  0.00    -0.352 C  
HETATM   15  O   UNL     1     -11.340  14.148  70.164  1.00  0.00    -0.201 OA 
HETATM   16  O   UNL     1      -9.864  14.462  68.446  1.00  0.00    -0.221 OA 
HETATM   17  C   UNL     1     -10.673  13.492  69.092  1.00  0.00    -0.082 C  
BRANCH  14  18
HETATM   18  O   UNL     1     -12.698  12.084  68.733  1.00  0.00     0.327 OA 
HETATM   19  S   UNL     1     -12.369  10.616  69.336  1.00  0.00     0.191 S  
HETATM   20  O   UNL     1     -11.700   9.845  68.315  1.00  0.00     0.030 OA 
HETATM   21  O   UNL     1     -11.311  10.899  70.510  1.00  0.00    -0.290 OA 
HETATM   22  O   UNL     1     -13.569  10.147  69.989  1.00  0.00     0.227 OA 
ENDBRANCH  14  18
BRANCH  12  23
HETATM   23  O   UNL     1     -11.993  11.852  65.905  1.00  0.00    -0.480 OA 
HETATM   24  S   UNL     1     -12.716  12.822  64.825  1.00  0.00    -0.270 S  
HETATM   25  O   UNL     1     -13.644  13.671  65.536  1.00  0.00    -0.414 OA 
HETATM   26  O   UNL     1     -13.620  11.781  63.996  1.00  0.00    -0.392 OA 
HETATM   27  O   UNL     1     -11.735  13.369  63.922  1.00  0.00    -0.416 OA 
ENDBRANCH  12  23
ENDBRANCH   9  10
ENDBRANCH   6   9
BRANCH   7  28
HETATM   28  O   UNL     1      -7.438  12.335  67.476  1.00  0.00    -0.127 OA 
HETATM   29  O   UNL     1      -5.430  11.054  68.201  1.00  0.00    -0.043 OA 
HETATM   30  O   UNL     1      -5.137  13.305  67.327  1.00  0.00    -0.332 OA 
HETATM   31  S   UNL     1      -5.902  11.904  67.132  1.00  0.00    -0.146 S  
HETATM   32  O   UNL     1      -5.815  11.545  65.738  1.00  0.00    -0.074 OA 
ENDBRANCH   7  28
BRANCH   8  33
HETATM   33  O   UNL     1      -8.418  10.059  69.036  1.00  0.00    -0.127 OA 
HETATM   34  S   UNL     1      -8.080   8.760  69.952  1.00  0.00    -0.115 S  
HETATM   35  O   UNL     1      -9.181   7.832  69.877  1.00  0.00    -0.147 OA 
HETATM   36  O   UNL     1      -6.705   8.377  69.719  1.00  0.00    -0.039 OA 
HETATM   37  O   UNL     1      -8.196   9.371  71.433  1.00  0.00    -0.302 OA 
ENDBRANCH   8  33
TORSDOF 6
ENDMDL
MODEL      222
REMARK 921   NORMALIZED FREE ENERGY PREDICTED BY IDOCK:    1.29 KCAL/MOL
REMARK 922        TOTAL FREE ENERGY PREDICTED BY IDOCK:   -0.36 KCAL/MOL
REMARK 923 INTER-LIGAND FREE ENERGY PREDICTED BY IDOCK:   -5.73 KCAL/MOL
REMARK 924 INTRA-LIGAND FREE ENERGY PREDICTED BY IDOCK:    5.37 KCAL/MOL
REMARK 927      BINDING AFFINITY PREDICTED BY RF-SCORE:    0.00 PKD
ROOT
HETATM    1  O   UNL     1     -10.882   6.509  69.551  1.00  0.00    -0.245 OA 
HETATM    2  H   UNL     1     -10.509   6.190  70.364  1.00  0.00     0.000 HD 
HETATM    3  C   UNL     1      -9.896   7.284  68.874  1.00  0.00    -0.158 C  
HETATM    4  C   UNL     1     -10.493   7.793  67.574  1.00  0.00    -0.268 C  
HETATM    5  O   UNL     1      -9.555   8.577  66.868  1.00  0.00    -0.165 OA 
HETATM    6  C   UNL     1      -8.406   7.861  66.460  1.00  0.00    -0.127 C  
HETATM    7  C   UNL     1      -7.654   7.220  67.651  1.00  0.00    -0.110 C  
HETATM    8  C   UNL     1      -8.610   6.480  68.620  1.00  0.00    -0.124 C  
ENDROOT
BRANCH   6   9
HETATM    9  O   UNL     1      -7.517   8.776  65.812  1.00  0.00    -0.084 OA 
BRANCH   9  10
HETATM   10  C   UNL     1      -7.544  10.112  66.330  1.00  0.00    -0.111 C  
HETATM   11  H   UNL     1      -9.604  13.699  68.583  1.00  0.00     0.000 HD 
HETATM   12  C   UNL     1      -8.908  10.762  65.972  1.00  0.00    -0.180 C  
HETATM   13  C   UNL     1      -7.325  10.165  67.850  1.00  0.00    -0.087 C  
HETATM   14  C   UNL     1      -9.055  12.136  66.657  1.00  0.00    -0.206 C  
HETATM   15  O   UNL     1      -8.734  13.340  68.715  1.00  0.00    -0.023 OA 
HETATM   16  O   UNL     1      -7.431  11.496  68.349  1.00  0.00    -0.095 OA 
HETATM   17  C   UNL     1      -8.729  12.033  68.152  1.00  0.00    -0.177 C  
BRANCH  14  18
HETATM   18  O   UNL     1     -10.262  12.831  66.357  1.00  0.00    -0.244 OA 
HETATM   19  S   UNL     1     -11.566  12.832  67.321  1.00  0.00    -0.373 S  
HETATM   20  O   UNL     1     -11.915  11.462  67.615  1.00  0.00    -0.630 OA 
HETATM   21  O   UNL     1     -11.051  13.512  68.682  1.00  0.00    -0.247 OA 
HETATM   22  O   UNL     1     -12.515  13.759  66.750  1.00  0.00    -0.366 OA 
ENDBRANCH  14  18
BRANCH  12  23
HETATM   23  O   UNL     1      -9.151  10.812  64.558  1.00  0.00    -0.199 OA 
HETATM   24  S   UNL     1     -10.331  11.720  63.913  1.00  0.00    -0.430 S  
HETATM   25  O   UNL     1     -11.599  11.126  64.271  1.00  0.00     0.002 OA 
HETATM   26  O   UNL     1     -10.144  11.440  62.340  1.00  0.00     0.155 OA 
HETATM   27  O   UNL     1     -10.060  13.115  64.146  1.00  0.00    -0.335 OA 
ENDBRANCH  12  23
ENDBRANCH   9  10
ENDBRANCH   6   9
BRANCH   7  28
HETATM   28  O   UNL     1      -6.691   6.262  67.177  1.00  0.00    -0.056 OA 
HETATM   29  O   UNL     1      -7.370   3.934  67.739  1.00  0.00    -0.065 OA 
HETATM   30  O   UNL     1      -5.913   4.305  65.828  1.00  0.00    -0.022 OA 
HETATM   31  S   UNL     1      -7.217   4.825  66.612  1.00  0.00    -0.082 S  
HETATM   32  O   UNL     1      -8.255   5.054  65.637  1.00  0.00    -0.111 OA 
ENDBRANCH   7  28
BRANCH   8  33
HETATM   33  O   UNL     1      -7.888   6.293  69.850  1.00  0.00    -0.105 OA 
HETATM   34  S   UNL     1      -8.579   5.533  71.109  1.00  0.00    -0.127 S  
HETATM   35  O   UNL     1      -9.380   6.478  71.847  1.00  0.00    -0.149 OA 
HETATM   36  O   UNL     1      -9.080   4.254  70.656  1.00  0.00    -0.098 OA 
HETATM   37  O   UNL     1      -7.313   5.277  72.065  1.00  0.00    -0.083 OA 
ENDBRANCH   8  33
TORSDOF 6
ENDMDL
MODEL      223
REMARK 921   NORMALIZED FREE ENERGY PREDICTED BY IDOCK:    1.29 KCAL/MOL
REMARK 922        TOTAL FREE ENERGY PREDICTED BY IDOCK:   -0.35 KCAL/MOL
REMARK 923 INTER-LIGAND FREE ENERGY PREDICTED BY IDOCK:   -2.67 KCAL/MOL
REMARK 924 INTRA-LIGAND FREE ENERGY PREDICTED BY IDOCK:    2.32 KCAL/MOL
REMARK 927      BINDING AFFINITY PREDICTED BY RF-SCORE:    0.00 PKD
ROOT
HETATM    1  O   UNL     1     -10.447   6.182  66.934  1.00  0.00    -0.218 OA 
HETATM    2  H   UNL     1      -9.835   5.610  67.381  1.00  0.00     0.000 HD 
HETATM    3  C   UNL     1     -10.119   7.532  67.252  1.00  0.00    -0.231 C  
HETATM    4  C   UNL     1     -11.097   8.447  66.537  1.00  0.00     1.383 C  
HETATM    5  O   UNL     1     -10.819   9.800  66.829  1.00  0.00    -0.134 OA 
HETATM    6  C   UNL     1      -9.551  10.231  66.373  1.00  0.00    -0.185 C  
HETATM    7  C   UNL     1      -8.393   9.393  66.965  1.00  0.00    -0.127 C  
HETATM    8  C   UNL     1      -8.666   7.871  66.881  1.00  0.00    -0.131 C  
ENDROOT
BRANCH   6   9
HETATM    9  O   UNL     1      -9.371  11.591  66.779  1.00  0.00    -0.173 OA 
BRANCH   9  10
HETATM   10  C   UNL     1     -10.312  12.518  66.220  1.00  0.00    -0.250 C  
HETATM   11  H   UNL     1     -11.522  16.705  64.432  1.00  0.00     0.000 HD 
HETATM   12  C   UNL     1     -10.120  13.900  66.901  1.00  0.00    -0.260 C  
HETATM   13  C   UNL     1     -10.169  12.665  64.697  1.00  0.00    -0.294 C  
HETATM   14  C   UNL     1     -10.988  14.973  66.213  1.00  0.00    -0.338 C  
HETATM   15  O   UNL     1     -11.707  15.839  64.087  1.00  0.00    -0.455 OA 
HETATM   16  O   UNL     1     -11.064  13.645  64.178  1.00  0.00    -0.354 OA 
HETATM   17  C   UNL     1     -10.787  14.938  64.692  1.00  0.00    -0.275 C  
BRANCH  14  18
HETATM   18  O   UNL     1     -10.910  16.272  66.794  1.00  0.00    -0.253 OA 
HETATM   19  S   UNL     1      -9.554  16.899  67.425  1.00  0.00    -0.245 S  
HETATM   20  O   UNL     1      -9.024  15.962  68.386  1.00  0.00    -0.180 OA 
HETATM   21  O   UNL     1      -8.534  16.963  66.186  1.00  0.00    -0.375 OA 
HETATM   22  O   UNL     1      -9.843  18.272  67.771  1.00  0.00    -0.296 OA 
ENDBRANCH  14  18
BRANCH  12  23
HETATM   23  O   UNL     1     -10.310  13.854  68.324  1.00  0.00    -0.235 OA 
HETATM   24  S   UNL     1     -11.701  13.357  68.996  1.00  0.00    -0.338 S  
HETATM   25  O   UNL     1     -12.708  14.358  68.733  1.00  0.00     0.182 OA 
HETATM   26  O   UNL     1     -11.369  13.470  70.567  1.00  0.00     0.095 OA 
HETATM   27  O   UNL     1     -11.923  11.967  68.693  1.00  0.00    -0.316 OA 
ENDBRANCH  12  23
ENDBRANCH   9  10
ENDBRANCH   6   9
BRANCH   7  28
HETATM   28  O   UNL     1      -7.171   9.655  66.252  1.00  0.00    -0.091 OA 
HETATM   29  O   UNL     1      -7.339  11.734  64.893  1.00  0.00     1.780 OA 
HETATM   30  O   UNL     1      -5.147  10.988  65.635  1.00  0.00    -0.127 OA 
HETATM   31  S   UNL     1      -6.682  11.200  66.063  1.00  0.00     0.132 S  
HETATM   32  O   UNL     1      -6.694  11.859  67.347  1.00  0.00    -0.099 OA 
ENDBRANCH   7  28
BRANCH   8  33
HETATM   33  O   UNL     1      -7.756   7.237  67.797  1.00  0.00    -0.108 OA 
HETATM   34  S   UNL     1      -6.500   6.366  67.247  1.00  0.00    -0.054 S  
HETATM   35  O   UNL     1      -6.952   5.031  66.939  1.00  0.00    -0.061 OA 
HETATM   36  O   UNL     1      -5.745   7.180  66.320  1.00  0.00    -0.029 OA 
HETATM   37  O   UNL     1      -5.630   6.175  68.584  1.00  0.00    -0.010 OA 
ENDBRANCH   8  33
TORSDOF 6
ENDMDL
MODEL      224
REMARK 921   NORMALIZED FREE ENERGY PREDICTED BY IDOCK:    1.76 KCAL/MOL
REMARK 922        TOTAL FREE ENERGY PREDICTED BY IDOCK:    0.28 KCAL/MOL
REMARK 923 INTER-LIGAND FREE ENERGY PREDICTED BY IDOCK:   -5.47 KCAL/MOL
REMARK 924 INTRA-LIGAND FREE ENERGY PREDICTED BY IDOCK:    5.75 KCAL/MOL
REMARK 927      BINDING AFFINITY PREDICTED BY RF-SCORE:    0.00 PKD
ROOT
HETATM    1  O   UNL     1      -9.945   5.830  69.323  1.00  0.00    -0.157 OA 
HETATM    2  H   UNL     1      -9.630   5.571  70.180  1.00  0.00     0.000 HD 
HETATM    3  C   UNL     1     -10.145   7.242  69.323  1.00  0.00    -0.183 C  
HETATM    4  C   UNL     1     -10.649   7.656  67.952  1.00  0.00    -0.168 C  
HETATM    5  O   UNL     1     -10.871   9.049  67.904  1.00  0.00    -0.178 OA 
HETATM    6  C   UNL     1      -9.699   9.820  68.086  1.00  0.00    -0.145 C  
HETATM    7  C   UNL     1      -8.998   9.521  69.432  1.00  0.00    -0.172 C  
HETATM    8  C   UNL     1      -8.863   8.001  69.700  1.00  0.00    -0.141 C  
ENDROOT
BRANCH   6   9
HETATM    9  O   UNL     1     -10.069  11.202  68.072  1.00  0.00    -0.167 OA 
BRANCH   9  10
HETATM   10  C   UNL     1      -9.142  12.068  67.404  1.00  0.00    -0.178 C  
HETATM   11  H   UNL     1      -7.453  16.309  66.240  1.00  0.00     0.000 HD 
HETATM   12  C   UNL     1      -9.932  13.219  66.723  1.00  0.00    -0.263 C  
HETATM   13  C   UNL     1      -8.085  12.655  68.353  1.00  0.00    -0.137 C  
HETATM   14  C   UNL     1      -8.969  14.272  66.139  1.00  0.00     0.152 C  
HETATM   15  O   UNL     1      -6.979  15.554  66.570  1.00  0.00     0.092 OA 
HETATM   16  O   UNL     1      -7.224  13.569  67.680  1.00  0.00    -0.142 OA 
HETATM   17  C   UNL     1      -7.931  14.696  67.188  1.00  0.00    -0.154 C  
BRANCH  14  18
HETATM   18  O   UNL     1      -9.601  15.352  65.457  1.00  0.00    -0.313 OA 
HETATM   19  S   UNL     1     -10.722  16.311  66.128  1.00  0.00    -0.132 S  
HETATM   20  O   UNL     1     -11.764  15.476  66.679  1.00  0.00     0.032 OA 
HETATM   21  O   UNL     1      -9.959  17.016  67.353  1.00  0.00    -0.264 OA 
HETATM   22  O   UNL     1     -11.004  17.363  65.180  1.00  0.00    -0.582 OA 
ENDBRANCH  14  18
BRANCH  12  23
HETATM   23  O   UNL     1     -10.893  12.748  65.765  1.00  0.00    -0.267 OA 
HETATM   24  S   UNL     1     -10.464  12.249  64.282  1.00  0.00    -0.374 S  
HETATM   25  O   UNL     1     -10.040  13.406  63.526  1.00  0.00     0.396 OA 
HETATM   26  O   UNL     1     -11.881  11.812  63.656  1.00  0.00    -0.447 OA 
HETATM   27  O   UNL     1      -9.644  11.070  64.379  1.00  0.00    -0.229 OA 
ENDBRANCH  12  23
ENDBRANCH   9  10
ENDBRANCH   6   9
BRANCH   7  28
HETATM   28  O   UNL     1      -7.673  10.083  69.441  1.00  0.00    -0.101 OA 
HETATM   29  O   UNL     1      -6.627   9.911  71.694  1.00  0.00    -0.296 OA 
HETATM   30  O   UNL     1      -5.190  10.032  69.736  1.00  0.00    -0.037 OA 
HETATM   31  S   UNL     1      -6.521   9.377  70.356  1.00  0.00    -0.082 S  
HETATM   32  O   UNL     1      -6.492   7.964  70.068  1.00  0.00    -0.033 OA 
ENDBRANCH   7  28
BRANCH   8  33
HETATM   33  O   UNL     1      -8.588   7.852  71.103  1.00  0.00    -0.122 OA 
HETATM   34  S   UNL     1      -9.549   6.938  72.042  1.00  0.00    -0.140 S  
HETATM   35  O   UNL     1     -10.686   7.722  72.456  1.00  0.00    -0.259 OA 
HETATM   36  O   UNL     1      -9.667   5.627  71.443  1.00  0.00    -0.157 OA 
HETATM   37  O   UNL     1      -8.666   6.810  73.379  1.00  0.00    -0.121 OA 
ENDBRANCH   8  33
TORSDOF 6
ENDMDL
MODEL      225
REMARK 921   NORMALIZED FREE ENERGY PREDICTED BY IDOCK:    2.05 KCAL/MOL
REMARK 922        TOTAL FREE ENERGY PREDICTED BY IDOCK:    0.67 KCAL/MOL
REMARK 923 INTER-LIGAND FREE ENERGY PREDICTED BY IDOCK:   -2.78 KCAL/MOL
REMARK 924 INTRA-LIGAND FREE ENERGY PREDICTED BY IDOCK:    3.44 KCAL/MOL
REMARK 927      BINDING AFFINITY PREDICTED BY RF-SCORE:    0.00 PKD
ROOT
HETATM    1  O   UNL     1      -7.921   7.883  62.868  1.00  0.00    -0.147 OA 
HETATM    2  H   UNL     1      -7.251   8.554  62.817  1.00  0.00     0.000 HD 
HETATM    3  C   UNL     1      -8.027   7.451  64.222  1.00  0.00    -0.097 C  
HETATM    4  C   UNL     1      -9.098   6.378  64.303  1.00  0.00     1.053 C  
HETATM    5  O   UNL     1      -9.234   5.910  65.628  1.00  0.00    -0.106 OA 
HETATM    6  C   UNL     1      -9.670   6.899  66.540  1.00  0.00    -0.124 C  
HETATM    7  C   UNL     1      -8.720   8.119  66.588  1.00  0.00    -0.139 C  
HETATM    8  C   UNL     1      -8.333   8.619  65.174  1.00  0.00    -0.168 C  
ENDROOT
BRANCH   6   9
HETATM    9  O   UNL     1      -9.712   6.314  67.845  1.00  0.00    -0.120 OA 
BRANCH   9  10
HETATM   10  C   UNL     1      -8.473   6.356  68.566  1.00  0.00    -0.119 C  
HETATM   11  H   UNL     1      -5.809   5.610  72.378  1.00  0.00     0.000 HD 
HETATM   12  C   UNL     1      -8.744   6.893  69.998  1.00  0.00    -0.142 C  
HETATM   13  C   UNL     1      -7.785   4.985  68.646  1.00  0.00    -0.078 C  
HETATM   14  C   UNL     1      -7.475   6.793  70.868  1.00  0.00    -0.083 C  
HETATM   15  O   UNL     1      -5.626   5.378  71.475  1.00  0.00    -0.008 OA 
HETATM   16  O   UNL     1      -6.595   5.040  69.430  1.00  0.00    -0.040 OA 
HETATM   17  C   UNL     1      -6.868   5.387  70.779  1.00  0.00    -0.051 C  
BRANCH  14  18
HETATM   18  O   UNL     1      -7.613   7.298  72.193  1.00  0.00    -0.086 OA 
HETATM   19  S   UNL     1      -6.464   8.146  72.960  1.00  0.00    -0.088 S  
HETATM   20  O   UNL     1      -5.233   7.393  72.909  1.00  0.00    -0.037 OA 
HETATM   21  O   UNL     1      -6.274   9.461  72.059  1.00  0.00    -0.268 OA 
HETATM   22  O   UNL     1      -7.034   8.600  74.208  1.00  0.00    -0.273 OA 
ENDBRANCH  14  18
BRANCH  12  23
HETATM   23  O   UNL     1      -9.325   8.206  70.003  1.00  0.00    -0.158 OA 
HETATM   24  S   UNL     1     -10.843   8.480  70.506  1.00  0.00    -0.230 S  
HETATM   25  O   UNL     1     -11.746   7.911  69.532  1.00  0.00     0.416 OA 
HETATM   26  O   UNL     1     -10.965  10.076  70.337  1.00  0.00    -0.279 OA 
HETATM   27  O   UNL     1     -10.958   8.176  71.909  1.00  0.00    -0.244 OA 
ENDBRANCH  12  23
ENDBRANCH   9  10
ENDBRANCH   6   9
BRANCH   7  28
HETATM   28  O   UNL     1      -9.347   9.214  67.279  1.00  0.00    -0.131 OA 
HETATM   29  O   UNL     1      -7.695  10.975  67.883  1.00  0.00    -0.100 OA 
HETATM   30  O   UNL     1     -10.028  11.599  67.604  1.00  0.00    -0.184 OA 
HETATM   31  S   UNL     1      -8.815  10.732  67.004  1.00  0.00    -0.136 S  
HETATM   32  O   UNL     1      -8.768  10.964  65.581  1.00  0.00    -0.187 OA 
ENDBRANCH   7  28
BRANCH   8  33
HETATM   33  O   UNL     1      -7.171   9.451  65.333  1.00  0.00    -0.088 OA 
HETATM   34  S   UNL     1      -6.375  10.020  64.036  1.00  0.00    -0.129 S  
HETATM   35  O   UNL     1      -5.458   9.011  63.567  1.00  0.00    -0.066 OA 
HETATM   36  O   UNL     1      -7.321  10.692  63.173  1.00  0.00    -0.053 OA 
HETATM   37  O   UNL     1      -5.419  11.125  64.704  1.00  0.00    -0.086 OA 
ENDBRANCH   8  33
TORSDOF 6
ENDMDL
MODEL      226
REMARK 921   NORMALIZED FREE ENERGY PREDICTED BY IDOCK:    2.06 KCAL/MOL
REMARK 922        TOTAL FREE ENERGY PREDICTED BY IDOCK:    0.68 KCAL/MOL
REMARK 923 INTER-LIGAND FREE ENERGY PREDICTED BY IDOCK:   -4.82 KCAL/MOL
REMARK 924 INTRA-LIGAND FREE ENERGY PREDICTED BY IDOCK:    5.50 KCAL/MOL
REMARK 927      BINDING AFFINITY PREDICTED BY RF-SCORE:    0.00 PKD
ROOT
HETATM    1  O   UNL     1     -10.816   5.567  68.565  1.00  0.00    -0.166 OA 
HETATM    2  H   UNL     1     -11.429   5.679  69.281  1.00  0.00     0.000 HD 
HETATM    3  C   UNL     1      -9.773   6.528  68.708  1.00  0.00    -0.129 C  
HETATM    4  C   UNL     1      -8.792   6.349  67.564  1.00  0.00    -0.111 C  
HETATM    5  O   UNL     1      -7.741   7.287  67.657  1.00  0.00    -0.107 OA 
HETATM    6  C   UNL     1      -6.946   7.139  68.816  1.00  0.00    -0.082 C  
HETATM    7  C   UNL     1      -7.772   7.255  70.120  1.00  0.00    -0.091 C  
HETATM    8  C   UNL     1      -9.070   6.410  70.070  1.00  0.00    -0.150 C  
ENDROOT
BRANCH   6   9
HETATM    9  O   UNL     1      -5.962   8.177  68.817  1.00  0.00    -0.041 OA 
BRANCH   9  10
HETATM   10  C   UNL     1      -6.481   9.501  68.636  1.00  0.00    -0.052 C  
HETATM   11  H   UNL     1      -9.787  12.558  67.251  1.00  0.00     0.000 HD 
HETATM   12  C   UNL     1      -7.100   9.607  67.216  1.00  0.00    -0.086 C  
HETATM   13  C   UNL     1      -7.534   9.877  69.691  1.00  0.00    -0.122 C  
HETATM   14  C   UNL     1      -7.827  10.955  67.036  1.00  0.00    -0.132 C  
HETATM   15  O   UNL     1      -9.321  12.526  68.079  1.00  0.00    -0.193 OA 
HETATM   16  O   UNL     1      -8.087  11.167  69.444  1.00  0.00    -0.019 OA 
HETATM   17  C   UNL     1      -8.782  11.215  68.208  1.00  0.00    -0.151 C  
BRANCH  14  18
HETATM   18  O   UNL     1      -8.397  11.163  65.746  1.00  0.00    -0.140 OA 
HETATM   19  S   UNL     1      -9.894  10.694  65.335  1.00  0.00    -0.288 S  
HETATM   20  O   UNL     1     -10.035   9.293  65.651  1.00  0.00    -0.277 OA 
HETATM   21  O   UNL     1     -10.853  11.520  66.324  1.00  0.00    -0.272 OA 
HETATM   22  O   UNL     1     -10.151  11.211  64.011  1.00  0.00    -0.275 OA 
ENDBRANCH  14  18
BRANCH  12  23
HETATM   23  O   UNL     1      -6.153   9.338  66.171  1.00  0.00    -0.058 OA 
HETATM   24  S   UNL     1      -6.612   8.913  64.674  1.00  0.00    -0.066 S  
HETATM   25  O   UNL     1      -7.164   7.579  64.736  1.00  0.00    -0.061 OA 
HETATM   26  O   UNL     1      -5.198   8.768  63.921  1.00  0.00    -0.055 OA 
HETATM   27  O   UNL     1      -7.330   9.997  64.054  1.00  0.00    -0.131 OA 
ENDBRANCH  12  23
ENDBRANCH   9  10
ENDBRANCH   6   9
BRANCH   7  28
HETATM   28  O   UNL     1      -6.999   6.799  71.244  1.00  0.00    -0.070 OA 
HETATM   29  O   UNL     1      -7.546   4.440  71.826  1.00  0.00    -0.067 OA 
HETATM   30  O   UNL     1      -5.358   5.321  72.418  1.00  0.00    -0.015 OA 
HETATM   31  S   UNL     1      -6.485   5.250  71.273  1.00  0.00    -0.036 S  
HETATM   32  O   UNL     1      -5.828   4.948  70.025  1.00  0.00    -0.015 OA 
ENDBRANCH   7  28
BRANCH   8  33
HETATM   33  O   UNL     1      -9.923   6.904  71.117  1.00  0.00    -0.178 OA 
HETATM   34  S   UNL     1     -10.199   8.497  71.279  1.00  0.00    -0.244 S  
HETATM   35  O   UNL     1      -9.118   9.088  72.027  1.00  0.00    -0.375 OA 
HETATM   36  O   UNL     1     -10.661   9.016  70.010  1.00  0.00    -0.214 OA 
HETATM   37  O   UNL     1     -11.430   8.507  72.312  1.00  0.00    -0.355 OA 
ENDBRANCH   8  33
TORSDOF 6
ENDMDL
MODEL      227
REMARK 921   NORMALIZED FREE ENERGY PREDICTED BY IDOCK:    2.14 KCAL/MOL
REMARK 922        TOTAL FREE ENERGY PREDICTED BY IDOCK:    0.79 KCAL/MOL
REMARK 923 INTER-LIGAND FREE ENERGY PREDICTED BY IDOCK:   -3.11 KCAL/MOL
REMARK 924 INTRA-LIGAND FREE ENERGY PREDICTED BY IDOCK:    3.90 KCAL/MOL
REMARK 927      BINDING AFFINITY PREDICTED BY RF-SCORE:    0.00 PKD
ROOT
HETATM    1  O   UNL     1      -7.134  18.404  66.222  1.00  0.00    -0.218 OA 
HETATM    2  H   UNL     1      -7.333  19.223  66.660  1.00  0.00     0.000 HD 
HETATM    3  C   UNL     1      -7.417  17.331  67.117  1.00  0.00    -0.179 C  
HETATM    4  C   UNL     1      -7.100  16.023  66.415  1.00  0.00     0.574 C  
HETATM    5  O   UNL     1      -7.355  14.927  67.267  1.00  0.00    -0.199 OA 
HETATM    6  C   UNL     1      -8.714  14.797  67.636  1.00  0.00    -0.178 C  
HETATM    7  C   UNL     1      -9.257  16.059  68.348  1.00  0.00    -0.196 C  
HETATM    8  C   UNL     1      -8.874  17.363  67.606  1.00  0.00    -0.225 C  
ENDROOT
BRANCH   6   9
HETATM    9  O   UNL     1      -8.827  13.691  68.537  1.00  0.00    -0.169 OA 
BRANCH   9  10
HETATM   10  C   UNL     1      -8.645  12.402  67.937  1.00  0.00    -0.171 C  
HETATM   11  H   UNL     1      -7.936   9.549  64.257  1.00  0.00     0.000 HD 
HETATM   12  C   UNL     1      -9.520  12.317  66.656  1.00  0.00    -0.226 C  
HETATM   13  C   UNL     1      -7.178  12.112  67.585  1.00  0.00    -0.123 C  
HETATM   14  C   UNL     1      -9.226  11.017  65.881  1.00  0.00    -0.199 C  
HETATM   15  O   UNL     1      -7.480   9.563  65.091  1.00  0.00    -0.102 OA 
HETATM   16  O   UNL     1      -7.036  10.857  66.924  1.00  0.00    -0.103 OA 
HETATM   17  C   UNL     1      -7.716  10.837  65.679  1.00  0.00    -0.057 C  
BRANCH  14  18
HETATM   18  O   UNL     1     -10.010  10.829  64.706  1.00  0.00    -0.269 OA 
HETATM   19  S   UNL     1      -9.758  11.623  63.315  1.00  0.00    -0.304 S  
HETATM   20  O   UNL     1      -9.734  13.038  63.598  1.00  0.00     0.060 OA 
HETATM   21  O   UNL     1      -8.278  11.185  62.872  1.00  0.00    -0.030 OA 
HETATM   22  O   UNL     1     -10.650  11.053  62.333  1.00  0.00     0.488 OA 
ENDBRANCH  14  18
BRANCH  12  23
HETATM   23  O   UNL     1     -10.918  12.508  66.919  1.00  0.00    -0.242 OA 
HETATM   24  S   UNL     1     -11.838  13.505  66.030  1.00  0.00    -0.403 S  
HETATM   25  O   UNL     1     -11.435  14.862  66.316  1.00  0.00    -0.337 OA 
HETATM   26  O   UNL     1     -13.283  13.322  66.714  1.00  0.00     0.830 OA 
HETATM   27  O   UNL     1     -11.927  13.015  64.678  1.00  0.00    -0.354 OA 
ENDBRANCH  12  23
ENDBRANCH   9  10
ENDBRANCH   6   9
BRANCH   7  28
HETATM   28  O   UNL     1     -10.693  16.010  68.427  1.00  0.00    -0.262 OA 
HETATM   29  O   UNL     1     -11.473  13.913  69.519  1.00  0.00    -0.264 OA 
HETATM   30  O   UNL     1     -12.897  15.883  69.602  1.00  0.00     0.003 OA 
HETATM   31  S   UNL     1     -11.391  15.338  69.740  1.00  0.00    -0.316 S  
HETATM   32  O   UNL     1     -10.818  15.922  70.928  1.00  0.00    -0.251 OA 
ENDBRANCH   7  28
BRANCH   8  33
HETATM   33  O   UNL     1      -9.063  18.440  68.541  1.00  0.00    -0.317 OA 
HETATM   34  S   UNL     1      -8.084  19.737  68.518  1.00  0.00    -0.179 S  
HETATM   35  O   UNL     1      -6.889  19.438  69.268  1.00  0.00    -0.320 OA 
HETATM   36  O   UNL     1      -8.062  20.275  67.177  1.00  0.00    -0.315 OA 
HETATM   37  O   UNL     1      -8.883  20.760  69.466  1.00  0.00     1.445 OA 
ENDBRANCH   8  33
TORSDOF 6
ENDMDL
MODEL      228
REMARK 921   NORMALIZED FREE ENERGY PREDICTED BY IDOCK:    2.55 KCAL/MOL
REMARK 922        TOTAL FREE ENERGY PREDICTED BY IDOCK:    1.34 KCAL/MOL
REMARK 923 INTER-LIGAND FREE ENERGY PREDICTED BY IDOCK:   -6.87 KCAL/MOL
REMARK 924 INTRA-LIGAND FREE ENERGY PREDICTED BY IDOCK:    8.21 KCAL/MOL
REMARK 927      BINDING AFFINITY PREDICTED BY RF-SCORE:    0.00 PKD
ROOT
HETATM    1  O   UNL     1      -6.755  13.577  66.795  1.00  0.00    -0.211 OA 
HETATM    2  H   UNL     1      -6.307  13.183  67.534  1.00  0.00     0.000 HD 
HETATM    3  C   UNL     1      -7.895  14.282  67.281  1.00  0.00    -0.147 C  
HETATM    4  C   UNL     1      -8.611  14.912  66.100  1.00  0.00     0.346 C  
HETATM    5  O   UNL     1      -9.756  15.616  66.531  1.00  0.00    -0.239 OA 
HETATM    6  C   UNL     1      -9.467  16.710  67.379  1.00  0.00    -0.232 C  
HETATM    7  C   UNL     1      -8.694  16.285  68.650  1.00  0.00    -0.226 C  
HETATM    8  C   UNL     1      -7.510  15.339  68.329  1.00  0.00    -0.112 C  
ENDROOT
BRANCH   6   9
HETATM    9  O   UNL     1     -10.706  17.299  67.786  1.00  0.00    -0.368 OA 
BRANCH   9  10
HETATM   10  C   UNL     1     -11.631  16.393  68.402  1.00  0.00    -0.071 C  
HETATM   11  H   UNL     1     -12.840  12.210  70.201  1.00  0.00     0.000 HD 
HETATM   12  C   UNL     1     -11.545  15.020  67.680  1.00  0.00    -0.312 C  
HETATM   13  C   UNL     1     -11.369  16.206  69.905  1.00  0.00    -0.317 C  
HETATM   14  C   UNL     1     -12.392  13.962  68.416  1.00  0.00     0.032 C  
HETATM   15  O   UNL     1     -12.966  13.074  70.577  1.00  0.00     0.006 OA 
HETATM   16  O   UNL     1     -12.253  15.245  70.476  1.00  0.00    -0.317 OA 
HETATM   17  C   UNL     1     -12.066  13.956  69.915  1.00  0.00    -0.344 C  
BRANCH  14  18
HETATM   18  O   UNL     1     -12.408  12.675  67.805  1.00  0.00    -0.250 OA 
HETATM   19  S   UNL     1     -11.268  11.548  68.044  1.00  0.00    -0.296 S  
HETATM   20  O   UNL     1      -9.979  12.140  67.774  1.00  0.00    -0.190 OA 
HETATM   21  O   UNL     1     -11.345  11.235  69.618  1.00  0.00    -0.260 OA 
HETATM   22  O   UNL     1     -11.714  10.345  67.379  1.00  0.00    -0.177 OA 
ENDBRANCH  14  18
BRANCH  12  23
HETATM   23  O   UNL     1     -11.849  15.105  66.279  1.00  0.00    -0.114 OA 
HETATM   24  S   UNL     1     -12.324  13.816  65.416  1.00  0.00    -0.502 S  
HETATM   25  O   UNL     1     -11.194  12.926  65.281  1.00  0.00    -0.282 OA 
HETATM   26  O   UNL     1     -12.555  14.458  63.959  1.00  0.00    -0.764 OA 
HETATM   27  O   UNL     1     -13.599  13.347  65.897  1.00  0.00     0.134 OA 
ENDBRANCH  12  23
ENDBRANCH   9  10
ENDBRANCH   6   9
BRANCH   7  28
HETATM   28  O   UNL     1      -8.158  17.440  69.319  1.00  0.00    -0.055 OA 
HETATM   29  O   UNL     1      -5.777  17.826  68.701  1.00  0.00    -0.166 OA 
HETATM   30  O   UNL     1      -7.121  19.713  69.441  1.00  0.00    -0.357 OA 
HETATM   31  S   UNL     1      -7.095  18.391  68.526  1.00  0.00    -0.280 S  
HETATM   32  O   UNL     1      -7.644  18.736  67.237  1.00  0.00    -0.221 OA 
ENDBRANCH   7  28
BRANCH   8  33
HETATM   33  O   UNL     1      -7.141  14.704  69.566  1.00  0.00    -0.157 OA 
HETATM   34  S   UNL     1      -6.313  13.306  69.565  1.00  0.00    -0.079 S  
HETATM   35  O   UNL     1      -7.238  12.212  69.402  1.00  0.00     0.023 OA 
HETATM   36  O   UNL     1      -5.131  13.471  68.749  1.00  0.00    -0.070 OA 
HETATM   37  O   UNL     1      -5.861  13.198  71.103  1.00  0.00    -0.291 OA 
ENDBRANCH   8  33
TORSDOF 6
ENDMDL
MODEL      229
REMARK 921   NORMALIZED FREE ENERGY PREDICTED BY IDOCK:    3.66 KCAL/MOL
REMARK 922        TOTAL FREE ENERGY PREDICTED BY IDOCK:    2.84 KCAL/MOL
REMARK 923 INTER-LIGAND FREE ENERGY PREDICTED BY IDOCK:   -1.16 KCAL/MOL
REMARK 924 INTRA-LIGAND FREE ENERGY PREDICTED BY IDOCK:    4.00 KCAL/MOL
REMARK 927      BINDING AFFINITY PREDICTED BY RF-SCORE:    0.00 PKD
ROOT
HETATM    1  O   UNL     1     -12.161   7.021  69.316  1.00  0.00     0.095 OA 
HETATM    2  H   UNL     1     -12.141   6.480  70.096  1.00  0.00     0.000 HD 
HETATM    3  C   UNL     1     -11.284   8.128  69.509  1.00  0.00     0.162 C  
HETATM    4  C   UNL     1     -11.317   8.992  68.261  1.00  0.00     0.636 C  
HETATM    5  O   UNL     1     -10.468  10.110  68.408  1.00  0.00    -0.187 OA 
HETATM    6  C   UNL     1      -9.102   9.773  68.555  1.00  0.00    -0.128 C  
HETATM    7  C   UNL     1      -8.848   8.850  69.771  1.00  0.00    -0.144 C  
HETATM    8  C   UNL     1      -9.852   7.672  69.835  1.00  0.00    -0.184 C  
ENDROOT
BRANCH   6   9
HETATM    9  O   UNL     1      -8.363  10.982  68.750  1.00  0.00    -0.143 OA 
BRANCH   9  10
HETATM   10  C   UNL     1      -9.121  12.187  68.577  1.00  0.00    -0.090 C  
HETATM   11  H   UNL     1     -12.987  14.569  67.326  1.00  0.00     0.000 HD 
HETATM   12  C   UNL     1      -9.819  12.146  67.190  1.00  0.00    -0.197 C  
HETATM   13  C   UNL     1     -10.170  12.393  69.681  1.00  0.00     1.054 C  
HETATM   14  C   UNL     1     -10.784  13.338  67.030  1.00  0.00    -0.260 C  
HETATM   15  O   UNL     1     -12.483  14.641  68.128  1.00  0.00    -0.021 OA 
HETATM   16  O   UNL     1     -10.958  13.557  69.445  1.00  0.00    -0.173 OA 
HETATM   17  C   UNL     1     -11.711  13.451  68.247  1.00  0.00    -0.356 C  
BRANCH  14  18
HETATM   18  O   UNL     1     -11.446  13.410  65.770  1.00  0.00    -0.310 OA 
HETATM   19  S   UNL     1     -11.435  14.722  64.818  1.00  0.00    -0.398 S  
HETATM   20  O   UNL     1     -11.868  15.855  65.600  1.00  0.00     0.432 OA 
HETATM   21  O   UNL     1      -9.885  14.936  64.457  1.00  0.00     0.099 OA 
HETATM   22  O   UNL     1     -12.082  14.353  63.580  1.00  0.00    -0.362 OA 
ENDBRANCH  14  18
BRANCH  12  23
HETATM   23  O   UNL     1      -8.891  12.026  66.101  1.00  0.00    -0.141 OA 
HETATM   24  S   UNL     1      -7.645  10.989  66.134  1.00  0.00    -0.029 S  
HETATM   25  O   UNL     1      -6.688  11.469  67.105  1.00  0.00    -0.106 OA 
HETATM   26  O   UNL     1      -6.969  11.234  64.695  1.00  0.00     0.823 OA 
HETATM   27  O   UNL     1      -8.134   9.634  66.165  1.00  0.00    -0.107 OA 
ENDBRANCH  12  23
ENDBRANCH   9  10
ENDBRANCH   6   9
BRANCH   7  28
HETATM   28  O   UNL     1      -7.525   8.290  69.706  1.00  0.00    -0.073 OA 
HETATM   29  O   UNL     1      -5.780  10.064  69.788  1.00  0.00    -0.040 OA 
HETATM   30  O   UNL     1      -5.216   7.823  70.545  1.00  0.00    -0.023 OA 
HETATM   31  S   UNL     1      -6.329   8.982  70.573  1.00  0.00    -0.054 S  
HETATM   32  O   UNL     1      -6.768   9.140  71.938  1.00  0.00    -0.268 OA 
ENDBRANCH   7  28
BRANCH   8  33
HETATM   33  O   UNL     1      -9.788   7.147  71.172  1.00  0.00    -0.179 OA 
HETATM   34  S   UNL     1      -9.378   5.597  71.435  1.00  0.00    -0.147 S  
HETATM   35  O   UNL     1     -10.548   4.768  71.280  1.00  0.00    -0.112 OA 
HETATM   36  O   UNL     1      -8.125   5.331  70.763  1.00  0.00    -0.101 OA 
HETATM   37  O   UNL     1      -9.117   5.596  73.020  1.00  0.00    -0.123 OA 
ENDBRANCH   8  33
TORSDOF 6
ENDMDL
MODEL      230
REMARK 921   NORMALIZED FREE ENERGY PREDICTED BY IDOCK:    3.74 KCAL/MOL
REMARK 922        TOTAL FREE ENERGY PREDICTED BY IDOCK:    2.96 KCAL/MOL
REMARK 923 INTER-LIGAND FREE ENERGY PREDICTED BY IDOCK:   -0.69 KCAL/MOL
REMARK 924 INTRA-LIGAND FREE ENERGY PREDICTED BY IDOCK:    3.65 KCAL/MOL
REMARK 927      BINDING AFFINITY PREDICTED BY RF-SCORE:    0.00 PKD
ROOT
HETATM    1  O   UNL     1     -13.234  15.729  68.350  1.00  0.00     1.581 OA 
HETATM    2  H   UNL     1     -13.628  15.609  69.205  1.00  0.00     0.000 HD 
HETATM    3  C   UNL     1     -11.988  15.037  68.326  1.00  0.00    -0.183 C  
HETATM    4  C   UNL     1     -11.358  15.229  66.958  1.00  0.00    -0.230 C  
HETATM    5  O   UNL     1     -10.112  14.568  66.886  1.00  0.00    -0.251 OA 
HETATM    6  C   UNL     1     -10.204  13.164  67.027  1.00  0.00    -0.250 C  
HETATM    7  C   UNL     1     -10.862  12.745  68.364  1.00  0.00    -0.249 C  
HETATM    8  C   UNL     1     -12.155  13.546  68.659  1.00  0.00    -0.268 C  
ENDROOT
BRANCH   6   9
HETATM    9  O   UNL     1      -8.879  12.625  66.994  1.00  0.00    -0.202 OA 
BRANCH   9  10
HETATM   10  C   UNL     1      -8.794  11.255  66.579  1.00  0.00    -0.179 C  
HETATM   11  H   UNL     1      -9.488   6.636  67.189  1.00  0.00     0.000 HD 
HETATM   12  C   UNL     1      -8.295  10.399  67.775  1.00  0.00    -0.114 C  
HETATM   13  C   UNL     1     -10.135  10.704  66.070  1.00  0.00    -0.250 C  
HETATM   14  C   UNL     1      -8.354   8.897  67.433  1.00  0.00    -0.108 C  
HETATM   15  O   UNL     1      -9.696   7.170  66.430  1.00  0.00    -0.159 OA 
HETATM   16  O   UNL     1     -10.041   9.322  65.735  1.00  0.00    -0.268 OA 
HETATM   17  C   UNL     1      -9.730   8.524  66.866  1.00  0.00    -0.221 C  
BRANCH  14  18
HETATM   18  O   UNL     1      -7.878   8.028  68.457  1.00  0.00    -0.110 OA 
HETATM   19  S   UNL     1      -6.881   6.778  68.190  1.00  0.00    -0.080 S  
HETATM   20  O   UNL     1      -7.453   5.953  67.153  1.00  0.00    -0.082 OA 
HETATM   21  O   UNL     1      -5.548   7.454  67.601  1.00  0.00    -0.030 OA 
HETATM   22  O   UNL     1      -6.515   6.243  69.481  1.00  0.00    -0.036 OA 
ENDBRANCH  14  18
BRANCH  12  23
HETATM   23  O   UNL     1      -7.009  10.812  68.261  1.00  0.00    -0.067 OA 
HETATM   24  S   UNL     1      -6.783  11.330  69.782  1.00  0.00    -0.048 S  
HETATM   25  O   UNL     1      -7.426  12.617  69.918  1.00  0.00     0.803 OA 
HETATM   26  O   UNL     1      -5.201  11.625  69.801  1.00  0.00    -0.063 OA 
HETATM   27  O   UNL     1      -7.041  10.257  70.708  1.00  0.00    -0.315 OA 
ENDBRANCH  12  23
ENDBRANCH   9  10
ENDBRANCH   6   9
BRANCH   7  28
HETATM   28  O   UNL     1     -11.213  11.350  68.334  1.00  0.00    -0.219 OA 
HETATM   29  O   UNL     1      -9.952  10.057  70.047  1.00  0.00    -0.249 OA 
HETATM   30  O   UNL     1     -12.101   9.214  69.283  1.00  0.00     0.974 OA 
HETATM   31  S   UNL     1     -11.284  10.522  69.737  1.00  0.00    -0.318 S  
HETATM   32  O   UNL     1     -12.105  11.251  70.673  1.00  0.00    -0.355 OA 
ENDBRANCH   7  28
BRANCH   8  33
HETATM   33  O   UNL     1     -12.435  13.376  70.060  1.00  0.00    -0.248 OA 
HETATM   34  S   UNL     1     -11.937  14.480  71.144  1.00  0.00    -0.311 S  
HETATM   35  O   UNL     1     -10.565  14.209  71.494  1.00  0.00     2.132 OA 
HETATM   36  O   UNL     1     -12.404  15.782  70.724  1.00  0.00    -0.410 OA 
HETATM   37  O   UNL     1     -12.759  14.040  72.452  1.00  0.00    -0.309 OA 
ENDBRANCH   8  33
TORSDOF 6
ENDMDL
MODEL      231
REMARK 921   NORMALIZED FREE ENERGY PREDICTED BY IDOCK:    3.86 KCAL/MOL
REMARK 922        TOTAL FREE ENERGY PREDICTED BY IDOCK:    3.12 KCAL/MOL
REMARK 923 INTER-LIGAND FREE ENERGY PREDICTED BY IDOCK:   -4.16 KCAL/MOL
REMARK 924 INTRA-LIGAND FREE ENERGY PREDICTED BY IDOCK:    7.27 KCAL/MOL
REMARK 927      BINDING AFFINITY PREDICTED BY RF-SCORE:    0.00 PKD
ROOT
HETATM    1  O   UNL     1      -6.834  17.404  67.641  1.00  0.00    -0.150 OA 
HETATM    2  H   UNL     1      -6.151  17.137  68.244  1.00  0.00     0.000 HD 
HETATM    3  C   UNL     1      -7.402  16.236  67.055  1.00  0.00    -0.229 C  
HETATM    4  C   UNL     1      -8.494  16.663  66.091  1.00  0.00    -0.273 C  
HETATM    5  O   UNL     1      -9.083  15.537  65.476  1.00  0.00    -0.105 OA 
HETATM    6  C   UNL     1      -9.743  14.674  66.381  1.00  0.00    -0.295 C  
HETATM    7  C   UNL     1      -8.799  14.142  67.486  1.00  0.00    -0.201 C  
HETATM    8  C   UNL     1      -7.943  15.267  68.119  1.00  0.00    -0.128 C  
ENDROOT
BRANCH   6   9
HETATM    9  O   UNL     1     -10.243  13.554  65.643  1.00  0.00    -0.287 OA 
BRANCH   9  10
HETATM   10  C   UNL     1      -9.549  12.320  65.875  1.00  0.00    -0.198 C  
HETATM   11  H   UNL     1      -6.556   8.895  64.651  1.00  0.00     0.000 HD 
HETATM   12  C   UNL     1      -9.615  11.458  64.585  1.00  0.00    -0.199 C  
HETATM   13  C   UNL     1      -8.083  12.530  66.286  1.00  0.00     0.626 C  
HETATM   14  C   UNL     1      -8.737  10.198  64.725  1.00  0.00    -0.185 C  
HETATM   15  O   UNL     1      -6.601   9.376  65.469  1.00  0.00    -0.068 OA 
HETATM   16  O   UNL     1      -7.398  11.289  66.437  1.00  0.00    -0.131 OA 
HETATM   17  C   UNL     1      -7.331  10.571  65.215  1.00  0.00    -0.059 C  
BRANCH  14  18
HETATM   18  O   UNL     1      -8.762   9.320  63.603  1.00  0.00    -0.210 OA 
HETATM   19  S   UNL     1      -8.092   7.844  63.597  1.00  0.00    -0.015 S  
HETATM   20  O   UNL     1      -6.718   7.966  64.022  1.00  0.00    -0.060 OA 
HETATM   21  O   UNL     1      -8.890   7.043  64.738  1.00  0.00     0.248 OA 
HETATM   22  O   UNL     1      -8.455   7.218  62.346  1.00  0.00    -0.064 OA 
ENDBRANCH  14  18
BRANCH  12  23
HETATM   23  O   UNL     1     -10.960  11.160  64.180  1.00  0.00    -0.358 OA 
HETATM   24  S   UNL     1     -12.146  12.265  64.235  1.00  0.00    -0.409 S  
HETATM   25  O   UNL     1     -12.452  12.524  65.623  1.00  0.00    -0.648 OA 
HETATM   26  O   UNL     1     -13.399  11.437  63.656  1.00  0.00     0.023 OA 
HETATM   27  O   UNL     1     -11.863  13.335  63.313  1.00  0.00    -0.453 OA 
ENDBRANCH  12  23
ENDBRANCH   9  10
ENDBRANCH   6   9
BRANCH   7  28
HETATM   28  O   UNL     1      -9.561  13.530  68.542  1.00  0.00    -0.214 OA 
HETATM   29  O   UNL     1     -10.453  15.233  70.124  1.00  0.00    -0.284 OA 
HETATM   30  O   UNL     1     -11.615  13.108  69.905  1.00  0.00    -0.264 OA 
HETATM   31  S   UNL     1     -10.884  14.298  69.110  1.00  0.00    -0.214 S  
HETATM   32  O   UNL     1     -11.726  14.669  67.999  1.00  0.00    -0.330 OA 
ENDBRANCH   7  28
BRANCH   8  33
HETATM   33  O   UNL     1      -6.857  14.622  68.806  1.00  0.00    -0.086 OA 
HETATM   34  S   UNL     1      -6.446  15.072  70.312  1.00  0.00    -0.034 S  
HETATM   35  O   UNL     1      -5.577  16.221  70.239  1.00  0.00    -0.180 OA 
HETATM   36  O   UNL     1      -7.626  15.023  71.146  1.00  0.00     1.404 OA 
HETATM   37  O   UNL     1      -5.463  13.878  70.748  1.00  0.00    -0.129 OA 
ENDBRANCH   8  33
TORSDOF 6
ENDMDL
MODEL      232
REMARK 921   NORMALIZED FREE ENERGY PREDICTED BY IDOCK:    4.03 KCAL/MOL
REMARK 922        TOTAL FREE ENERGY PREDICTED BY IDOCK:    3.34 KCAL/MOL
REMARK 923 INTER-LIGAND FREE ENERGY PREDICTED BY IDOCK:   -1.56 KCAL/MOL
REMARK 924 INTRA-LIGAND FREE ENERGY PREDICTED BY IDOCK:    4.91 KCAL/MOL
REMARK 927      BINDING AFFINITY PREDICTED BY RF-SCORE:    0.00 PKD
ROOT
HETATM    1  O   UNL     1      -9.813  15.273  71.521  1.00  0.00     0.744 OA 
HETATM    2  H   UNL     1      -9.103  15.675  72.006  1.00  0.00     0.000 HD 
HETATM    3  C   UNL     1      -9.466  15.258  70.139  1.00  0.00     0.292 C  
HETATM    4  C   UNL     1     -10.602  14.614  69.363  1.00  0.00    -0.196 C  
HETATM    5  O   UNL     1     -10.308  14.585  67.983  1.00  0.00    -0.225 OA 
HETATM    6  C   UNL     1      -9.181  13.796  67.657  1.00  0.00    -0.207 C  
HETATM    7  C   UNL     1      -7.898  14.270  68.381  1.00  0.00    -0.140 C  
HETATM    8  C   UNL     1      -8.136  14.528  69.890  1.00  0.00     0.538 C  
ENDROOT
BRANCH   6   9
HETATM    9  O   UNL     1      -8.960  13.896  66.247  1.00  0.00    -0.077 OA 
BRANCH   9  10
HETATM   10  C   UNL     1      -8.807  15.233  65.753  1.00  0.00     0.416 C  
HETATM   11  H   UNL     1      -8.713  19.914  66.276  1.00  0.00     0.000 HD 
HETATM   12  C   UNL     1      -9.941  16.117  66.340  1.00  0.00    -0.299 C  
HETATM   13  C   UNL     1      -7.440  15.843  66.101  1.00  0.00     1.012 C  
HETATM   14  C   UNL     1      -9.720  17.600  65.979  1.00  0.00    -0.137 C  
HETATM   15  O   UNL     1      -8.081  19.355  65.838  1.00  0.00    -0.420 OA 
HETATM   16  O   UNL     1      -7.343  17.197  65.664  1.00  0.00    -0.187 OA 
HETATM   17  C   UNL     1      -8.287  18.031  66.317  1.00  0.00    -0.197 C  
BRANCH  14  18
HETATM   18  O   UNL     1     -10.733  18.489  66.442  1.00  0.00    -0.351 OA 
HETATM   19  S   UNL     1     -10.744  19.154  67.920  1.00  0.00    -0.204 S  
HETATM   20  O   UNL     1     -10.615  18.097  68.895  1.00  0.00    -0.174 OA 
HETATM   21  O   UNL     1      -9.402  20.034  67.968  1.00  0.00    -0.337 OA 
HETATM   22  O   UNL     1     -11.837  20.098  67.952  1.00  0.00     1.382 OA 
ENDBRANCH  14  18
BRANCH  12  23
HETATM   23  O   UNL     1     -11.253  15.647  65.994  1.00  0.00    -0.205 OA 
HETATM   24  S   UNL     1     -11.635  15.173  64.490  1.00  0.00    -0.255 S  
HETATM   25  O   UNL     1     -11.658  16.344  63.644  1.00  0.00    -0.926 OA 
HETATM   26  O   UNL     1     -13.171  14.726  64.663  1.00  0.00    -0.144 OA 
HETATM   27  O   UNL     1     -10.874  14.002  64.136  1.00  0.00    -0.204 OA 
ENDBRANCH  12  23
ENDBRANCH   9  10
ENDBRANCH   6   9
BRANCH   7  28
HETATM   28  O   UNL     1      -6.864  13.275  68.269  1.00  0.00    -0.083 OA 
HETATM   29  O   UNL     1      -6.393  12.201  70.465  1.00  0.00    -0.162 OA 
HETATM   30  O   UNL     1      -5.910  10.969  68.425  1.00  0.00    -0.043 OA 
HETATM   31  S   UNL     1      -6.970  11.919  69.171  1.00  0.00    -0.040 S  
HETATM   32  O   UNL     1      -8.280  11.340  68.998  1.00  0.00    -0.118 OA 
ENDBRANCH   7  28
BRANCH   8  33
HETATM   33  O   UNL     1      -7.034  15.328  70.351  1.00  0.00     0.043 OA 
HETATM   34  S   UNL     1      -6.527  16.612  69.494  1.00  0.00    -0.196 S  
HETATM   35  O   UNL     1      -5.629  16.161  68.459  1.00  0.00    -0.102 OA 
HETATM   36  O   UNL     1      -7.660  17.473  69.239  1.00  0.00    -0.128 OA 
HETATM   37  O   UNL     1      -5.558  17.341  70.548  1.00  0.00    -0.232 OA 
ENDBRANCH   8  33
TORSDOF 6
ENDMDL
MODEL      233
REMARK 921   NORMALIZED FREE ENERGY PREDICTED BY IDOCK:    4.97 KCAL/MOL
REMARK 922        TOTAL FREE ENERGY PREDICTED BY IDOCK:    4.61 KCAL/MOL
REMARK 923 INTER-LIGAND FREE ENERGY PREDICTED BY IDOCK:    0.23 KCAL/MOL
REMARK 924 INTRA-LIGAND FREE ENERGY PREDICTED BY IDOCK:    4.39 KCAL/MOL
REMARK 927      BINDING AFFINITY PREDICTED BY RF-SCORE:    0.00 PKD
ROOT
HETATM    1  O   UNL     1     -11.753  11.966  63.123  1.00  0.00    -0.699 OA 
HETATM    2  H   UNL     1     -11.041  12.126  62.515  1.00  0.00     0.000 HD 
HETATM    3  C   UNL     1     -11.260  11.174  64.200  1.00  0.00     0.018 C  
HETATM    4  C   UNL     1     -12.399  10.919  65.171  1.00  0.00     3.244 C  
HETATM    5  O   UNL     1     -11.961  10.128  66.255  1.00  0.00     1.937 OA 
HETATM    6  C   UNL     1     -10.967  10.748  67.048  1.00  0.00    -0.227 C  
HETATM    7  C   UNL     1      -9.710  11.129  66.230  1.00  0.00    -0.211 C  
HETATM    8  C   UNL     1     -10.067  11.843  64.902  1.00  0.00    -0.263 C  
ENDROOT
BRANCH   6   9
HETATM    9  O   UNL     1     -10.573   9.827  68.069  1.00  0.00    -0.216 OA 
BRANCH   9  10
HETATM   10  C   UNL     1      -9.173   9.827  68.375  1.00  0.00    -0.130 C  
HETATM   11  H   UNL     1      -5.065   7.688  69.238  1.00  0.00     0.000 HD 
HETATM   12  C   UNL     1      -8.900   8.769  69.478  1.00  0.00    -0.144 C  
HETATM   13  C   UNL     1      -8.296   9.537  67.148  1.00  0.00    -0.131 C  
HETATM   14  C   UNL     1      -7.385   8.608  69.718  1.00  0.00    -0.052 C  
HETATM   15  O   UNL     1      -5.245   8.403  68.638  1.00  0.00    -0.031 OA 
HETATM   16  O   UNL     1      -6.914   9.469  67.493  1.00  0.00    -0.082 OA 
HETATM   17  C   UNL     1      -6.646   8.402  68.389  1.00  0.00    -0.060 C  
BRANCH  14  18
HETATM   18  O   UNL     1      -7.034   7.682  70.743  1.00  0.00    -0.046 OA 
HETATM   19  S   UNL     1      -6.396   8.114  72.169  1.00  0.00    -0.063 S  
HETATM   20  O   UNL     1      -5.241   8.943  71.919  1.00  0.00    -0.038 OA 
HETATM   21  O   UNL     1      -7.525   9.035  72.845  1.00  0.00    -0.313 OA 
HETATM   22  O   UNL     1      -6.322   6.921  72.980  1.00  0.00    -0.060 OA 
ENDBRANCH  14  18
BRANCH  12  23
HETATM   23  O   UNL     1      -9.634   9.017  70.687  1.00  0.00    -0.198 OA 
HETATM   24  S   UNL     1     -10.625   7.912  71.341  1.00  0.00    -0.214 S  
HETATM   25  O   UNL     1     -11.777   7.776  70.479  1.00  0.00    -0.223 OA 
HETATM   26  O   UNL     1     -11.149   8.673  72.658  1.00  0.00    -0.260 OA 
HETATM   27  O   UNL     1      -9.866   6.765  71.770  1.00  0.00    -0.165 OA 
ENDBRANCH  12  23
ENDBRANCH   9  10
ENDBRANCH   6   9
BRANCH   7  28
HETATM   28  O   UNL     1      -8.870  12.017  66.988  1.00  0.00    -0.183 OA 
HETATM   29  O   UNL     1      -9.225  14.391  66.327  1.00  0.00    -0.253 OA 
HETATM   30  O   UNL     1      -8.402  13.903  68.563  1.00  0.00    -0.155 OA 
HETATM   31  S   UNL     1      -9.453  13.477  67.424  1.00  0.00    -0.234 S  
HETATM   32  O   UNL     1     -10.739  13.303  68.053  1.00  0.00    -0.230 OA 
ENDBRANCH   7  28
BRANCH   8  33
HETATM   33  O   UNL     1      -8.896  11.775  64.070  1.00  0.00     0.386 OA 
HETATM   34  S   UNL     1      -8.151  10.356  63.802  1.00  0.00    -0.051 S  
HETATM   35  O   UNL     1      -7.257  10.080  64.899  1.00  0.00    -0.131 OA 
HETATM   36  O   UNL     1      -9.128   9.406  63.319  1.00  0.00    -0.204 OA 
HETATM   37  O   UNL     1      -7.164  10.734  62.591  1.00  0.00    -0.094 OA 
ENDBRANCH   8  33
TORSDOF 6
ENDMDL
MODEL      234
REMARK 921   NORMALIZED FREE ENERGY PREDICTED BY IDOCK:    5.33 KCAL/MOL
REMARK 922        TOTAL FREE ENERGY PREDICTED BY IDOCK:    5.10 KCAL/MOL
REMARK 923 INTER-LIGAND FREE ENERGY PREDICTED BY IDOCK:    0.20 KCAL/MOL
REMARK 924 INTRA-LIGAND FREE ENERGY PREDICTED BY IDOCK:    4.91 KCAL/MOL
REMARK 927      BINDING AFFINITY PREDICTED BY RF-SCORE:    0.00 PKD
ROOT
HETATM    1  O   UNL     1      -6.608  19.653  66.120  1.00  0.00    -0.197 OA 
HETATM    2  H   UNL     1      -6.768  20.381  66.708  1.00  0.00     0.000 HD 
HETATM    3  C   UNL     1      -6.730  18.440  66.859  1.00  0.00    -0.187 C  
HETATM    4  C   UNL     1      -6.474  17.275  65.919  1.00  0.00     0.112 C  
HETATM    5  O   UNL     1      -6.574  16.048  66.607  1.00  0.00    -0.224 OA 
HETATM    6  C   UNL     1      -7.864  15.790  67.128  1.00  0.00    -0.212 C  
HETATM    7  C   UNL     1      -8.340  16.895  68.102  1.00  0.00    -0.212 C  
HETATM    8  C   UNL     1      -8.104  18.318  67.537  1.00  0.00    -0.239 C  
ENDROOT
BRANCH   6   9
HETATM    9  O   UNL     1      -7.816  14.553  67.845  1.00  0.00    -0.122 OA 
BRANCH   9  10
HETATM   10  C   UNL     1      -8.654  13.517  67.318  1.00  0.00    -0.213 C  
HETATM   11  H   UNL     1     -10.394  10.909  63.801  1.00  0.00     0.000 HD 
HETATM   12  C   UNL     1      -9.366  14.047  66.043  1.00  0.00    -0.055 C  
HETATM   13  C   UNL     1      -7.876  12.235  66.983  1.00  0.00    -0.108 C  
HETATM   14  C   UNL     1     -10.143  12.916  65.341  1.00  0.00    -0.251 C  
HETATM   15  O   UNL     1     -10.039  10.618  64.633  1.00  0.00    -0.311 OA 
HETATM   16  O   UNL     1      -8.718  11.249  66.392  1.00  0.00    -0.172 OA 
HETATM   17  C   UNL     1      -9.248  11.683  65.150  1.00  0.00     0.012 C  
BRANCH  14  18
HETATM   18  O   UNL     1     -10.863  13.313  64.178  1.00  0.00    -0.396 OA 
HETATM   19  S   UNL     1     -12.459  13.103  63.988  1.00  0.00    -0.222 S  
HETATM   20  O   UNL     1     -12.768  11.715  64.236  1.00  0.00    -0.138 OA 
HETATM   21  O   UNL     1     -13.115  13.971  65.170  1.00  0.00    -0.776 OA 
HETATM   22  O   UNL     1     -12.832  13.764  62.759  1.00  0.00    -0.266 OA 
ENDBRANCH  14  18
BRANCH  12  23
HETATM   23  O   UNL     1     -10.173  15.208  66.295  1.00  0.00    -0.264 OA 
HETATM   24  S   UNL     1     -10.415  16.354  65.173  1.00  0.00    -0.057 S  
HETATM   25  O   UNL     1      -9.170  17.064  64.982  1.00  0.00     0.913 OA 
HETATM   26  O   UNL     1     -11.388  17.376  65.946  1.00  0.00     0.536 OA 
HETATM   27  O   UNL     1     -11.147  15.806  64.060  1.00  0.00    -0.145 OA 
ENDBRANCH  12  23
ENDBRANCH   9  10
ENDBRANCH   6   9
BRANCH   7  28
HETATM   28  O   UNL     1      -9.748  16.759  68.362  1.00  0.00    -0.231 OA 
HETATM   29  O   UNL     1     -10.168  15.452  70.438  1.00  0.00    -0.244 OA 
HETATM   30  O   UNL     1     -11.847  17.045  69.692  1.00  0.00     0.887 OA 
HETATM   31  S   UNL     1     -10.274  16.791  69.906  1.00  0.00     0.293 S  
HETATM   32  O   UNL     1      -9.726  17.950  70.566  1.00  0.00     2.037 OA 
ENDBRANCH   7  28
BRANCH   8  33
HETATM   33  O   UNL     1      -8.194  19.224  68.650  1.00  0.00    -0.356 OA 
HETATM   34  S   UNL     1      -6.851  19.841  69.325  1.00  0.00    -0.304 S  
HETATM   35  O   UNL     1      -6.324  18.893  70.276  1.00  0.00    -0.102 OA 
HETATM   36  O   UNL     1      -6.049  20.448  68.286  1.00  0.00    -0.255 OA 
HETATM   37  O   UNL     1      -7.460  21.007  70.247  1.00  0.00     1.666 OA 
ENDBRANCH   8  33
TORSDOF 6
ENDMDL
MODEL      235
REMARK 921   NORMALIZED FREE ENERGY PREDICTED BY IDOCK:    5.74 KCAL/MOL
REMARK 922        TOTAL FREE ENERGY PREDICTED BY IDOCK:    5.66 KCAL/MOL
REMARK 923 INTER-LIGAND FREE ENERGY PREDICTED BY IDOCK:   -0.50 KCAL/MOL
REMARK 924 INTRA-LIGAND FREE ENERGY PREDICTED BY IDOCK:    6.16 KCAL/MOL
REMARK 927      BINDING AFFINITY PREDICTED BY RF-SCORE:    0.00 PKD
ROOT
HETATM    1  O   UNL     1     -11.530  18.177  68.456  1.00  0.00     0.414 OA 
HETATM    2  H   UNL     1     -11.634  18.541  67.585  1.00  0.00     0.000 HD 
HETATM    3  C   UNL     1     -11.502  16.756  68.353  1.00  0.00     0.072 C  
HETATM    4  C   UNL     1     -11.337  16.175  69.745  1.00  0.00    -0.323 C  
HETATM    5  O   UNL     1     -11.313  14.765  69.697  1.00  0.00    -0.259 OA 
HETATM    6  C   UNL     1     -10.217  14.238  68.974  1.00  0.00    -0.149 C  
HETATM    7  C   UNL     1     -10.177  14.741  67.511  1.00  0.00    -0.233 C  
HETATM    8  C   UNL     1     -10.388  16.273  67.410  1.00  0.00    -0.285 C  
ENDROOT
BRANCH   6   9
HETATM    9  O   UNL     1     -10.341  12.813  68.953  1.00  0.00    -0.159 OA 
BRANCH   9  10
HETATM   10  C   UNL     1      -9.150  12.098  69.307  1.00  0.00     0.835 C  
HETATM   11  H   UNL     1      -5.050  10.012  68.292  1.00  0.00     0.000 HD 
HETATM   12  C   UNL     1      -8.929  10.953  68.281  1.00  0.00    -0.150 C  
HETATM   13  C   UNL     1      -7.907  13.000  69.355  1.00  0.00     0.722 C  
HETATM   14  C   UNL     1      -7.569  10.265  68.516  1.00  0.00    -0.089 C  
HETATM   15  O   UNL     1      -5.238  10.646  68.975  1.00  0.00    -0.042 OA 
HETATM   16  O   UNL     1      -6.726  12.252  69.635  1.00  0.00    -0.066 OA 
HETATM   17  C   UNL     1      -6.446  11.306  68.616  1.00  0.00    -0.050 C  
BRANCH  14  18
HETATM   18  O   UNL     1      -7.290   9.172  67.645  1.00  0.00    -0.086 OA 
HETATM   19  S   UNL     1      -8.433   8.291  66.908  1.00  0.00    -0.120 S  
HETATM   20  O   UNL     1      -9.363   7.823  67.908  1.00  0.00    -0.140 OA 
HETATM   21  O   UNL     1      -9.205   9.346  65.975  1.00  0.00    -0.169 OA 
HETATM   22  O   UNL     1      -7.757   7.386  66.007  1.00  0.00    -0.088 OA 
ENDBRANCH  14  18
BRANCH  12  23
HETATM   23  O   UNL     1     -10.024  10.026  68.232  1.00  0.00    -0.147 OA 
HETATM   24  S   UNL     1     -10.939   9.698  69.531  1.00  0.00    -0.172 S  
HETATM   25  O   UNL     1     -10.136   8.946  70.468  1.00  0.00    -0.185 OA 
HETATM   26  O   UNL     1     -12.006   8.653  68.931  1.00  0.00     1.522 OA 
HETATM   27  O   UNL     1     -11.660  10.878  69.934  1.00  0.00    -0.273 OA 
ENDBRANCH  12  23
ENDBRANCH   9  10
ENDBRANCH   6   9
BRANCH   7  28
HETATM   28  O   UNL     1      -8.904  14.438  66.913  1.00  0.00    -0.228 OA 
HETATM   29  O   UNL     1      -8.009  16.384  65.643  1.00  0.00     0.209 OA 
HETATM   30  O   UNL     1      -6.451  14.738  66.526  1.00  0.00     1.187 OA 
HETATM   31  S   UNL     1      -7.768  15.607  66.837  1.00  0.00    -0.143 S  
HETATM   32  O   UNL     1      -7.609  16.195  68.145  1.00  0.00    -0.132 OA 
ENDBRANCH   7  28
BRANCH   8  33
HETATM   33  O   UNL     1     -10.734  16.552  66.043  1.00  0.00    -0.279 OA 
HETATM   34  S   UNL     1     -11.466  15.427  65.127  1.00  0.00    -0.146 S  
HETATM   35  O   UNL     1     -10.466  14.542  64.582  1.00  0.00    -0.388 OA 
HETATM   36  O   UNL     1     -12.642  14.958  65.825  1.00  0.00     0.042 OA 
HETATM   37  O   UNL     1     -11.936  16.298  63.861  1.00  0.00    -1.003 OA 
ENDBRANCH   8  33
TORSDOF 6
ENDMDL
MODEL      236
REMARK 921   NORMALIZED FREE ENERGY PREDICTED BY IDOCK:    6.81 KCAL/MOL
REMARK 922        TOTAL FREE ENERGY PREDICTED BY IDOCK:    7.09 KCAL/MOL
REMARK 923 INTER-LIGAND FREE ENERGY PREDICTED BY IDOCK:    4.28 KCAL/MOL
REMARK 924 INTRA-LIGAND FREE ENERGY PREDICTED BY IDOCK:    2.81 KCAL/MOL
REMARK 927      BINDING AFFINITY PREDICTED BY RF-SCORE:    0.00 PKD
ROOT
HETATM    1  O   UNL     1      -6.843  16.946  68.536  1.00  0.00    -0.158 OA 
HETATM    2  H   UNL     1      -6.323  16.851  69.325  1.00  0.00     0.000 HD 
HETATM    3  C   UNL     1      -6.871  15.693  67.858  1.00  0.00    -0.143 C  
HETATM    4  C   UNL     1      -7.702  15.845  66.597  1.00  0.00    -0.164 C  
HETATM    5  O   UNL     1      -7.753  14.628  65.884  1.00  0.00     1.959 OA 
HETATM    6  C   UNL     1      -8.390  13.581  66.589  1.00  0.00     0.270 C  
HETATM    7  C   UNL     1      -7.709  13.282  67.946  1.00  0.00    -0.152 C  
HETATM    8  C   UNL     1      -7.419  14.570  68.755  1.00  0.00    -0.132 C  
ENDROOT
BRANCH   6   9
HETATM    9  O   UNL     1      -8.325  12.399  65.786  1.00  0.00     0.611 OA 
BRANCH   9  10
HETATM   10  C   UNL     1      -8.216  11.174  66.523  1.00  0.00    -0.167 C  
HETATM   11  H   UNL     1      -7.423   6.543  66.872  1.00  0.00     0.000 HD 
HETATM   12  C   UNL     1      -8.954  10.052  65.743  1.00  0.00    -0.157 C  
HETATM   13  C   UNL     1      -6.758  10.759  66.775  1.00  0.00    -0.110 C  
HETATM   14  C   UNL     1      -8.717   8.680  66.405  1.00  0.00    -0.130 C  
HETATM   15  O   UNL     1      -7.058   7.247  67.397  1.00  0.00    -0.082 OA 
HETATM   16  O   UNL     1      -6.678   9.502  67.443  1.00  0.00    -0.070 OA 
HETATM   17  C   UNL     1      -7.221   8.452  66.658  1.00  0.00    -0.077 C  
BRANCH  14  18
HETATM   18  O   UNL     1      -9.388   7.588  65.782  1.00  0.00     0.001 OA 
HETATM   19  S   UNL     1     -10.213   6.453  66.594  1.00  0.00    -0.114 S  
HETATM   20  O   UNL     1      -9.351   5.907  67.615  1.00  0.00    -0.109 OA 
HETATM   21  O   UNL     1     -11.388   7.266  67.326  1.00  0.00    -0.064 OA 
HETATM   22  O   UNL     1     -10.863   5.616  65.612  1.00  0.00     0.351 OA 
ENDBRANCH  14  18
BRANCH  12  23
HETATM   23  O   UNL     1     -10.345  10.339  65.532  1.00  0.00    -0.258 OA 
HETATM   24  S   UNL     1     -10.862  11.253  64.295  1.00  0.00    -0.269 S  
HETATM   25  O   UNL     1     -10.454  12.616  64.545  1.00  0.00    -0.317 OA 
HETATM   26  O   UNL     1     -12.457  11.226  64.508  1.00  0.00     0.388 OA 
HETATM   27  O   UNL     1     -10.574  10.597  63.046  1.00  0.00     0.087 OA 
ENDBRANCH  12  23
ENDBRANCH   9  10
ENDBRANCH   6   9
BRANCH   7  28
HETATM   28  O   UNL     1      -8.553  12.443  68.755  1.00  0.00    -0.015 OA 
HETATM   29  O   UNL     1     -10.281  13.776  69.953  1.00  0.00     0.619 OA 
HETATM   30  O   UNL     1     -10.725  11.433  69.475  1.00  0.00    -0.168 OA 
HETATM   31  S   UNL     1     -10.138  12.810  68.888  1.00  0.00     0.172 S  
HETATM   32  O   UNL     1     -10.690  12.998  67.570  1.00  0.00    -0.234 OA 
ENDBRANCH   7  28
BRANCH   8  33
HETATM   33  O   UNL     1      -6.452  14.218  69.760  1.00  0.00    -0.132 OA 
HETATM   34  S   UNL     1      -6.334  15.078  71.134  1.00  0.00     0.605 S  
HETATM   35  O   UNL     1      -5.507  16.234  70.894  1.00  0.00    -0.120 OA 
HETATM   36  O   UNL     1      -7.643  15.154  71.744  1.00  0.00     2.740 OA 
HETATM   37  O   UNL     1      -5.406  14.123  72.033  1.00  0.00    -0.180 OA 
ENDBRANCH   8  33
TORSDOF 6
ENDMDL
MODEL      237
REMARK 921   NORMALIZED FREE ENERGY PREDICTED BY IDOCK:    7.14 KCAL/MOL
REMARK 922        TOTAL FREE ENERGY PREDICTED BY IDOCK:    7.54 KCAL/MOL
REMARK 923 INTER-LIGAND FREE ENERGY PREDICTED BY IDOCK:   -2.57 KCAL/MOL
REMARK 924 INTRA-LIGAND FREE ENERGY PREDICTED BY IDOCK:   10.11 KCAL/MOL
REMARK 927      BINDING AFFINITY PREDICTED BY RF-SCORE:    0.00 PKD
ROOT
HETATM    1  O   UNL     1      -6.453   2.889  66.958  1.00  0.00    -0.035 OA 
HETATM    2  H   UNL     1      -6.341   2.470  67.803  1.00  0.00     0.000 HD 
HETATM    3  C   UNL     1      -7.579   3.760  67.031  1.00  0.00    -0.080 C  
HETATM    4  C   UNL     1      -7.758   4.430  65.681  1.00  0.00    -0.090 C  
HETATM    5  O   UNL     1      -8.870   5.299  65.699  1.00  0.00    -0.144 OA 
HETATM    6  C   UNL     1      -8.734   6.379  66.602  1.00  0.00    -0.127 C  
HETATM    7  C   UNL     1      -8.504   5.908  68.058  1.00  0.00    -0.110 C  
HETATM    8  C   UNL     1      -7.427   4.799  68.154  1.00  0.00    -0.074 C  
ENDROOT
BRANCH   6   9
HETATM    9  O   UNL     1      -9.942   7.145  66.566  1.00  0.00    -0.182 OA 
BRANCH   9  10
HETATM   10  C   UNL     1     -10.103   8.070  67.649  1.00  0.00    -0.209 C  
HETATM   11  H   UNL     1     -12.350  11.545  69.900  1.00  0.00     0.000 HD 
HETATM   12  C   UNL     1     -10.458   9.466  67.067  1.00  0.00    -0.231 C  
HETATM   13  C   UNL     1     -11.184   7.634  68.649  1.00  0.00     0.427 C  
HETATM   14  C   UNL     1     -10.812  10.454  68.196  1.00  0.00    -0.264 C  
HETATM   15  O   UNL     1     -12.036  10.719  70.251  1.00  0.00    -0.290 OA 
HETATM   16  O   UNL     1     -11.376   8.607  69.673  1.00  0.00    -0.009 OA 
HETATM   17  C   UNL     1     -11.845   9.839  69.149  1.00  0.00     0.464 C  
BRANCH  14  18
HETATM   18  O   UNL     1     -11.117  11.777  67.764  1.00  0.00    -0.213 OA 
HETATM   19  S   UNL     1     -10.811  13.106  68.640  1.00  0.00    -0.253 S  
HETATM   20  O   UNL     1     -11.395  12.933  69.949  1.00  0.00    -0.123 OA 
HETATM   21  O   UNL     1      -9.214  13.109  68.810  1.00  0.00    -0.024 OA 
HETATM   22  O   UNL     1     -11.122  14.245  67.806  1.00  0.00    -0.265 OA 
ENDBRANCH  14  18
BRANCH  12  23
HETATM   23  O   UNL     1      -9.454   9.973  66.174  1.00  0.00    -0.169 OA 
HETATM   24  S   UNL     1      -8.816  11.455  66.340  1.00  0.00    -0.190 S  
HETATM   25  O   UNL     1      -9.834  12.422  66.000  1.00  0.00    -0.251 OA 
HETATM   26  O   UNL     1      -7.752  11.495  65.134  1.00  0.00     0.696 OA 
HETATM   27  O   UNL     1      -8.082  11.537  67.577  1.00  0.00    -0.126 OA 
ENDBRANCH  12  23
ENDBRANCH   9  10
ENDBRANCH   6   9
BRANCH   7  28
HETATM   28  O   UNL     1      -8.069   7.008  68.877  1.00  0.00    -0.118 OA 
HETATM   29  O   UNL     1      -5.593   7.259  68.822  1.00  0.00    -0.020 OA 
HETATM   30  O   UNL     1      -6.962   9.206  69.319  1.00  0.00    -0.052 OA 
HETATM   31  S   UNL     1      -6.804   7.911  68.380  1.00  0.00    -0.073 S  
HETATM   32  O   UNL     1      -7.027   8.325  67.017  1.00  0.00    -0.068 OA 
ENDBRANCH   7  28
BRANCH   8  33
HETATM   33  O   UNL     1      -7.591   4.174  69.438  1.00  0.00    -0.054 OA 
HETATM   34  S   UNL     1      -7.620   5.066  70.796  1.00  0.00    -0.075 S  
HETATM   35  O   UNL     1      -6.265   5.328  71.216  1.00  0.00    -0.027 OA 
HETATM   36  O   UNL     1      -8.616   6.103  70.645  1.00  0.00    -0.131 OA 
HETATM   37  O   UNL     1      -8.153   3.998  71.872  1.00  0.00    -0.080 OA 
ENDBRANCH   8  33
TORSDOF 6
ENDMDL
MODEL      238
REMARK 921   NORMALIZED FREE ENERGY PREDICTED BY IDOCK:    7.82 KCAL/MOL
REMARK 922        TOTAL FREE ENERGY PREDICTED BY IDOCK:    8.46 KCAL/MOL
REMARK 923 INTER-LIGAND FREE ENERGY PREDICTED BY IDOCK:   -3.15 KCAL/MOL
REMARK 924 INTRA-LIGAND FREE ENERGY PREDICTED BY IDOCK:   11.61 KCAL/MOL
REMARK 927      BINDING AFFINITY PREDICTED BY RF-SCORE:    0.00 PKD
ROOT
HETATM    1  O   UNL     1     -10.471   6.333  66.918  1.00  0.00    -0.218 OA 
HETATM    2  H   UNL     1      -9.837   5.671  67.165  1.00  0.00     0.000 HD 
HETATM    3  C   UNL     1     -10.052   7.585  67.456  1.00  0.00    -0.200 C  
HETATM    4  C   UNL     1     -11.066   8.643  67.061  1.00  0.00     0.580 C  
HETATM    5  O   UNL     1     -10.698   9.904  67.579  1.00  0.00    -0.258 OA 
HETATM    6  C   UNL     1      -9.474  10.395  67.068  1.00  0.00    -0.163 C  
HETATM    7  C   UNL     1      -8.292   9.433  67.338  1.00  0.00    -0.125 C  
HETATM    8  C   UNL     1      -8.638   7.964  66.986  1.00  0.00    -0.128 C  
ENDROOT
BRANCH   6   9
HETATM    9  O   UNL     1      -9.191  11.641  67.712  1.00  0.00    -0.168 OA 
BRANCH   9  10
HETATM   10  C   UNL     1      -9.945  12.758  67.222  1.00  0.00    -0.219 C  
HETATM   11  H   UNL     1     -10.819  17.367  66.796  1.00  0.00     0.000 HD 
HETATM   12  C   UNL     1     -10.160  13.766  68.384  1.00  0.00    -0.241 C  
HETATM   13  C   UNL     1      -9.263  13.465  66.041  1.00  0.00     0.112 C  
HETATM   14  C   UNL     1     -10.813  15.063  67.868  1.00  0.00    -0.280 C  
HETATM   15  O   UNL     1     -10.775  16.708  66.112  1.00  0.00    -0.249 OA 
HETATM   16  O   UNL     1      -9.995  14.614  65.623  1.00  0.00    -0.324 OA 
HETATM   17  C   UNL     1     -10.060  15.598  66.643  1.00  0.00    -0.273 C  
BRANCH  14  18
HETATM   18  O   UNL     1     -11.087  16.039  68.870  1.00  0.00    -0.287 OA 
HETATM   19  S   UNL     1     -11.574  15.677  70.373  1.00  0.00    -0.384 S  
HETATM   20  O   UNL     1     -12.728  14.813  70.282  1.00  0.00    -0.334 OA 
HETATM   21  O   UNL     1     -10.364  14.817  70.985  1.00  0.00     0.460 OA 
HETATM   22  O   UNL     1     -11.599  16.913  71.121  1.00  0.00     0.124 OA 
ENDBRANCH  14  18
BRANCH  12  23
HETATM   23  O   UNL     1     -10.858  13.193  69.500  1.00  0.00    -0.018 OA 
HETATM   24  S   UNL     1     -11.237  11.617  69.568  1.00  0.00    -0.172 S  
HETATM   25  O   UNL     1     -12.267  11.361  68.587  1.00  0.00    -0.532 OA 
HETATM   26  O   UNL     1     -11.961  11.511  71.002  1.00  0.00    -0.245 OA 
HETATM   27  O   UNL     1     -10.035  10.825  69.623  1.00  0.00    -0.130 OA 
ENDBRANCH  12  23
ENDBRANCH   9  10
ENDBRANCH   6   9
BRANCH   7  28
HETATM   28  O   UNL     1      -7.150   9.811  66.549  1.00  0.00    -0.087 OA 
HETATM   29  O   UNL     1      -7.465  12.051  65.508  1.00  0.00     1.328 OA 
HETATM   30  O   UNL     1      -5.205  11.252  65.919  1.00  0.00    -0.211 OA 
HETATM   31  S   UNL     1      -6.690  11.376  66.523  1.00  0.00    -0.011 S  
HETATM   32  O   UNL     1      -6.575  11.855  67.879  1.00  0.00    -0.065 OA 
ENDBRANCH   7  28
BRANCH   8  33
HETATM   33  O   UNL     1      -7.657   7.141  67.641  1.00  0.00    -0.105 OA 
HETATM   34  S   UNL     1      -7.580   7.076  69.263  1.00  0.00    -0.097 S  
HETATM   35  O   UNL     1      -6.807   8.195  69.743  1.00  0.00    -0.040 OA 
HETATM   36  O   UNL     1      -8.892   6.743  69.773  1.00  0.00    -0.140 OA 
HETATM   37  O   UNL     1      -6.609   5.816  69.489  1.00  0.00    -0.046 OA 
ENDBRANCH   8  33
TORSDOF 6
ENDMDL
MODEL      239
REMARK 921   NORMALIZED FREE ENERGY PREDICTED BY IDOCK:   10.33 KCAL/MOL
REMARK 922        TOTAL FREE ENERGY PREDICTED BY IDOCK:   11.85 KCAL/MOL
REMARK 923 INTER-LIGAND FREE ENERGY PREDICTED BY IDOCK:    2.34 KCAL/MOL
REMARK 924 INTRA-LIGAND FREE ENERGY PREDICTED BY IDOCK:    9.50 KCAL/MOL
REMARK 927      BINDING AFFINITY PREDICTED BY RF-SCORE:    0.00 PKD
ROOT
HETATM    1  O   UNL     1     -11.836  16.820  73.383  1.00  0.00    -0.396 OA 
HETATM    2  H   UNL     1     -11.870  17.760  73.511  1.00  0.00     0.000 HD 
HETATM    3  C   UNL     1     -11.741  16.556  71.986  1.00  0.00    -0.225 C  
HETATM    4  C   UNL     1     -11.687  15.052  71.782  1.00  0.00    -0.385 C  
HETATM    5  O   UNL     1     -11.601  14.738  70.409  1.00  0.00    -0.263 OA 
HETATM    6  C   UNL     1     -10.421  15.211  69.789  1.00  0.00    -0.233 C  
HETATM    7  C   UNL     1     -10.261  16.745  69.912  1.00  0.00     0.138 C  
HETATM    8  C   UNL     1     -10.523  17.249  71.354  1.00  0.00     2.836 C  
ENDROOT
BRANCH   6   9
HETATM    9  O   UNL     1     -10.485  14.879  68.398  1.00  0.00    -0.234 OA 
BRANCH   9  10
HETATM   10  C   UNL     1     -11.102  13.619  68.106  1.00  0.00    -0.256 C  
HETATM   11  H   UNL     1     -11.029   9.172  66.551  1.00  0.00     0.000 HD 
HETATM   12  C   UNL     1     -10.626  13.140  66.707  1.00  0.00    -0.263 C  
HETATM   13  C   UNL     1     -10.786  12.544  69.158  1.00  0.00    -0.084 C  
HETATM   14  C   UNL     1     -11.123  11.709  66.421  1.00  0.00    -0.291 C  
HETATM   15  O   UNL     1     -11.398   9.510  67.359  1.00  0.00     0.138 OA 
HETATM   16  O   UNL     1     -11.349  11.283  68.804  1.00  0.00    -0.220 OA 
HETATM   17  C   UNL     1     -10.798  10.779  67.598  1.00  0.00    -0.279 C  
BRANCH  14  18
HETATM   18  O   UNL     1     -10.768  11.193  65.141  1.00  0.00    -0.273 OA 
HETATM   19  S   UNL     1      -9.625  10.069  64.905  1.00  0.00    -0.294 S  
HETATM   20  O   UNL     1      -8.410  10.513  65.546  1.00  0.00    -0.163 OA 
HETATM   21  O   UNL     1     -10.162   8.785  65.707  1.00  0.00     0.083 OA 
HETATM   22  O   UNL     1      -9.667   9.707  63.507  1.00  0.00     0.160 OA 
ENDBRANCH  14  18
BRANCH  12  23
HETATM   23  O   UNL     1     -10.951  14.065  65.658  1.00  0.00    -0.292 OA 
HETATM   24  S   UNL     1     -10.400  15.591  65.648  1.00  0.00    -0.413 S  
HETATM   25  O   UNL     1     -11.063  16.314  66.709  1.00  0.00    -0.114 OA 
HETATM   26  O   UNL     1     -11.021  16.159  64.276  1.00  0.00    -0.605 OA 
HETATM   27  O   UNL     1      -8.966  15.594  65.516  1.00  0.00    -0.051 OA 
ENDBRANCH  12  23
ENDBRANCH   9  10
ENDBRANCH   6   9
BRANCH   7  28
HETATM   28  O   UNL     1      -8.926  17.139  69.551  1.00  0.00     0.189 OA 
HETATM   29  O   UNL     1      -7.238  15.514  70.392  1.00  0.00     0.236 OA 
HETATM   30  O   UNL     1      -6.702  16.863  68.441  1.00  0.00    -0.154 OA 
HETATM   31  S   UNL     1      -7.838  15.986  69.165  1.00  0.00    -0.223 S  
HETATM   32  O   UNL     1      -8.414  15.107  68.177  1.00  0.00    -0.146 OA 
ENDBRANCH   7  28
BRANCH   8  33
HETATM   33  O   UNL     1     -10.748  18.666  71.261  1.00  0.00     1.900 OA 
HETATM   34  S   UNL     1     -10.057  19.539  70.077  1.00  0.00     0.916 S  
HETATM   35  O   UNL     1      -8.714  19.885  70.471  1.00  0.00     1.068 OA 
HETATM   36  O   UNL     1     -10.376  18.926  68.807  1.00  0.00    -0.325 OA 
HETATM   37  O   UNL     1     -10.858  20.927  70.190  1.00  0.00     0.863 OA 
ENDBRANCH   8  33
TORSDOF 6
ENDMDL
MODEL      240
REMARK 921   NORMALIZED FREE ENERGY PREDICTED BY IDOCK:   10.48 KCAL/MOL
REMARK 922        TOTAL FREE ENERGY PREDICTED BY IDOCK:   12.05 KCAL/MOL
REMARK 923 INTER-LIGAND FREE ENERGY PREDICTED BY IDOCK:    7.37 KCAL/MOL
REMARK 924 INTRA-LIGAND FREE ENERGY PREDICTED BY IDOCK:    4.69 KCAL/MOL
REMARK 927      BINDING AFFINITY PREDICTED BY RF-SCORE:    0.00 PKD
ROOT
HETATM    1  O   UNL     1      -6.415  12.585  71.308  1.00  0.00     0.214 OA 
HETATM    2  H   UNL     1      -7.010  13.324  71.278  1.00  0.00     0.000 HD 
HETATM    3  C   UNL     1      -6.994  11.507  70.577  1.00  0.00     1.402 C  
HETATM    4  C   UNL     1      -6.042  10.325  70.626  1.00  0.00    -0.103 C  
HETATM    5  O   UNL     1      -6.577   9.225  69.922  1.00  0.00    -0.044 OA 
HETATM    6  C   UNL     1      -6.753   9.466  68.539  1.00  0.00    -0.058 C  
HETATM    7  C   UNL     1      -7.680  10.674  68.263  1.00  0.00    -0.107 C  
HETATM    8  C   UNL     1      -7.315  11.906  69.128  1.00  0.00     0.022 C  
ENDROOT
BRANCH   6   9
HETATM    9  O   UNL     1      -7.350   8.303  67.957  1.00  0.00    -0.092 OA 
BRANCH   9  10
HETATM   10  C   UNL     1      -7.909   7.377  68.898  1.00  0.00    -0.117 C  
HETATM   11  H   UNL     1      -7.997   5.149  73.048  1.00  0.00     0.000 HD 
HETATM   12  C   UNL     1      -6.760   6.532  69.514  1.00  0.00    -0.053 C  
HETATM   13  C   UNL     1      -8.702   8.070  70.017  1.00  0.00    -0.135 C  
HETATM   14  C   UNL     1      -7.289   5.643  70.658  1.00  0.00    -0.083 C  
HETATM   15  O   UNL     1      -8.708   5.593  72.600  1.00  0.00    -0.124 OA 
HETATM   16  O   UNL     1      -9.183   7.134  70.977  1.00  0.00    -0.157 OA 
HETATM   17  C   UNL     1      -8.122   6.471  71.646  1.00  0.00    -0.108 C  
BRANCH  14  18
HETATM   18  O   UNL     1      -6.314   4.800  71.263  1.00  0.00    -0.018 OA 
HETATM   19  S   UNL     1      -6.672   3.442  72.074  1.00  0.00    -0.019 S  
HETATM   20  O   UNL     1      -7.656   3.760  73.081  1.00  0.00    -0.069 OA 
HETATM   21  O   UNL     1      -7.375   2.501  70.979  1.00  0.00    -0.033 OA 
HETATM   22  O   UNL     1      -5.420   2.800  72.401  1.00  0.00    -0.003 OA 
ENDBRANCH  14  18
BRANCH  12  23
HETATM   23  O   UNL     1      -6.017   5.796  68.531  1.00  0.00    -0.018 OA 
HETATM   24  S   UNL     1      -6.540   5.617  67.006  1.00  0.00    -0.058 S  
HETATM   25  O   UNL     1      -7.689   4.741  67.025  1.00  0.00    -0.090 OA 
HETATM   26  O   UNL     1      -5.347   4.762  66.344  1.00  0.00    -0.008 OA 
HETATM   27  O   UNL     1      -6.580   6.898  66.347  1.00  0.00    -0.049 OA 
ENDBRANCH  12  23
ENDBRANCH   9  10
ENDBRANCH   6   9
BRANCH   7  28
HETATM   28  O   UNL     1      -7.587  11.069  66.883  1.00  0.00    -0.119 OA 
HETATM   29  O   UNL     1      -9.326   9.950  65.496  1.00  0.00    -0.186 OA 
HETATM   30  O   UNL     1      -8.420  12.081  64.752  1.00  0.00     1.019 OA 
HETATM   31  S   UNL     1      -8.959  11.247  66.017  1.00  0.00    -0.184 S  
HETATM   32  O   UNL     1      -9.871  12.093  66.747  1.00  0.00    -0.201 OA 
ENDBRANCH   7  28
BRANCH   8  33
HETATM   33  O   UNL     1      -8.451  12.787  69.092  1.00  0.00     0.367 OA 
HETATM   34  S   UNL     1      -8.453  14.169  69.946  1.00  0.00     1.508 S  
HETATM   35  O   UNL     1      -8.852  13.883  71.302  1.00  0.00     5.449 OA 
HETATM   36  O   UNL     1      -7.263  14.920  69.612  1.00  0.00    -0.174 OA 
HETATM   37  O   UNL     1      -9.727  14.928  69.326  1.00  0.00    -0.203 OA 
ENDBRANCH   8  33
TORSDOF 6
ENDMDL
MODEL      241
REMARK 921   NORMALIZED FREE ENERGY PREDICTED BY IDOCK:   11.14 KCAL/MOL
REMARK 922        TOTAL FREE ENERGY PREDICTED BY IDOCK:   12.95 KCAL/MOL
REMARK 923 INTER-LIGAND FREE ENERGY PREDICTED BY IDOCK:   -0.00 KCAL/MOL
REMARK 924 INTRA-LIGAND FREE ENERGY PREDICTED BY IDOCK:   12.95 KCAL/MOL
REMARK 927      BINDING AFFINITY PREDICTED BY RF-SCORE:    0.00 PKD
ROOT
HETATM    1  O   UNL     1     -11.615  17.125  71.683  1.00  0.00    -0.227 OA 
HETATM    2  H   UNL     1     -11.113  17.875  71.977  1.00  0.00     0.000 HD 
HETATM    3  C   UNL     1     -11.659  17.140  70.259  1.00  0.00     1.587 C  
HETATM    4  C   UNL     1     -12.461  15.940  69.788  1.00  0.00     0.086 C  
HETATM    5  O   UNL     1     -12.541  15.916  68.379  1.00  0.00     0.611 OA 
HETATM    6  C   UNL     1     -11.289  15.762  67.740  1.00  0.00    -0.240 C  
HETATM    7  C   UNL     1     -10.291  16.884  68.117  1.00  0.00    -0.336 C  
HETATM    8  C   UNL     1     -10.250  17.146  69.643  1.00  0.00     0.027 C  
ENDROOT
BRANCH   6   9
HETATM    9  O   UNL     1     -11.502  15.811  66.326  1.00  0.00     0.038 OA 
BRANCH   9  10
HETATM   10  C   UNL     1     -10.748  14.854  65.569  1.00  0.00    -0.356 C  
HETATM   11  H   UNL     1      -9.700  10.468  64.208  1.00  0.00     0.000 HD 
HETATM   12  C   UNL     1     -10.367  13.668  66.497  1.00  0.00    -0.282 C  
HETATM   13  C   UNL     1     -11.513  14.330  64.344  1.00  0.00    -0.310 C  
HETATM   14  C   UNL     1      -9.708  12.533  65.689  1.00  0.00    -0.158 C  
HETATM   15  O   UNL     1      -9.845  11.236  63.667  1.00  0.00    -0.274 OA 
HETATM   16  O   UNL     1     -10.773  13.327  63.653  1.00  0.00    -0.106 OA 
HETATM   17  C   UNL     1     -10.556  12.180  64.460  1.00  0.00    -0.310 C  
BRANCH  14  18
HETATM   18  O   UNL     1      -9.286  11.412  66.461  1.00  0.00    -0.178 OA 
HETATM   19  S   UNL     1     -10.242  10.154  66.824  1.00  0.00    -0.223 S  
HETATM   20  O   UNL     1     -11.454  10.662  67.422  1.00  0.00    -0.436 OA 
HETATM   21  O   UNL     1     -10.624   9.523  65.397  1.00  0.00     0.421 OA 
HETATM   22  O   UNL     1      -9.416   9.169  67.484  1.00  0.00    -0.136 OA 
ENDBRANCH  14  18
BRANCH  12  23
HETATM   23  O   UNL     1      -9.587  14.074  67.632  1.00  0.00    -0.212 OA 
HETATM   24  S   UNL     1      -9.188  13.045  68.822  1.00  0.00     0.273 S  
HETATM   25  O   UNL     1     -10.389  12.727  69.560  1.00  0.00     0.358 OA 
HETATM   26  O   UNL     1      -8.312  13.983  69.792  1.00  0.00     0.697 OA 
HETATM   27  O   UNL     1      -8.323  12.014  68.309  1.00  0.00    -0.153 OA 
ENDBRANCH  12  23
ENDBRANCH   9  10
ENDBRANCH   6   9
BRANCH   7  28
HETATM   28  O   UNL     1      -8.961  16.529  67.701  1.00  0.00    -0.196 OA 
HETATM   29  O   UNL     1      -8.913  15.805  65.320  1.00  0.00     0.162 OA 
HETATM   30  O   UNL     1      -6.891  16.723  66.310  1.00  0.00    -0.161 OA 
HETATM   31  S   UNL     1      -8.486  16.883  66.181  1.00  0.00    -0.171 S  
HETATM   32  O   UNL     1      -8.769  18.271  65.910  1.00  0.00    -0.500 OA 
ENDBRANCH   7  28
BRANCH   8  33
HETATM   33  O   UNL     1      -9.631  18.431  69.824  1.00  0.00     0.447 OA 
HETATM   34  S   UNL     1      -9.116  19.290  68.545  1.00  0.00    -0.383 S  
HETATM   35  O   UNL     1      -7.802  18.829  68.168  1.00  0.00    -0.270 OA 
HETATM   36  O   UNL     1     -10.208  19.421  67.607  1.00  0.00    -0.363 OA 
HETATM   37  O   UNL     1      -8.839  20.726  69.211  1.00  0.00     1.273 OA 
ENDBRANCH   8  33
TORSDOF 6
ENDMDL
MODEL      242
REMARK 921   NORMALIZED FREE ENERGY PREDICTED BY IDOCK:   12.52 KCAL/MOL
REMARK 922        TOTAL FREE ENERGY PREDICTED BY IDOCK:   14.81 KCAL/MOL
REMARK 923 INTER-LIGAND FREE ENERGY PREDICTED BY IDOCK:   -1.14 KCAL/MOL
REMARK 924 INTRA-LIGAND FREE ENERGY PREDICTED BY IDOCK:   15.95 KCAL/MOL
REMARK 927      BINDING AFFINITY PREDICTED BY RF-SCORE:    0.00 PKD
ROOT
HETATM    1  O   UNL     1      -5.604   9.901  67.905  1.00  0.00    -0.040 OA 
HETATM    2  H   UNL     1      -5.759   9.312  67.177  1.00  0.00     0.000 HD 
HETATM    3  C   UNL     1      -6.199  11.160  67.602  1.00  0.00    -0.053 C  
HETATM    4  C   UNL     1      -5.952  12.102  68.767  1.00  0.00    -0.057 C  
HETATM    5  O   UNL     1      -6.516  13.370  68.510  1.00  0.00    -0.073 OA 
HETATM    6  C   UNL     1      -7.924  13.351  68.378  1.00  0.00    -0.139 C  
HETATM    7  C   UNL     1      -8.400  12.408  67.247  1.00  0.00    -0.184 C  
HETATM    8  C   UNL     1      -7.701  11.026  67.302  1.00  0.00    -0.118 C  
ENDROOT
BRANCH   6   9
HETATM    9  O   UNL     1      -8.361  14.677  68.065  1.00  0.00    -0.133 OA 
BRANCH   9  10
HETATM   10  C   UNL     1      -9.374  14.757  67.054  1.00  0.00    -0.233 C  
HETATM   11  H   UNL     1     -11.058  16.229  62.908  1.00  0.00     0.000 HD 
HETATM   12  C   UNL     1      -9.495  16.231  66.580  1.00  0.00    -0.248 C  
HETATM   13  C   UNL     1      -9.086  13.846  65.850  1.00  0.00     0.345 C  
HETATM   14  C   UNL     1     -10.447  16.340  65.372  1.00  0.00    -0.343 C  
HETATM   15  O   UNL     1     -11.056  15.348  63.266  1.00  0.00     1.641 OA 
HETATM   16  O   UNL     1     -10.069  14.001  64.829  1.00  0.00    -0.375 OA 
HETATM   17  C   UNL     1     -10.072  15.315  64.294  1.00  0.00     1.848 C  
BRANCH  14  18
HETATM   18  O   UNL     1     -10.654  17.664  64.887  1.00  0.00    -0.429 OA 
HETATM   19  S   UNL     1     -10.350  19.000  65.753  1.00  0.00    -0.109 S  
HETATM   20  O   UNL     1     -11.038  18.889  67.017  1.00  0.00    -0.273 OA 
HETATM   21  O   UNL     1      -8.772  18.933  66.044  1.00  0.00    -0.466 OA 
HETATM   22  O   UNL     1     -10.542  20.130  64.872  1.00  0.00     0.103 OA 
ENDBRANCH  14  18
BRANCH  12  23
HETATM   23  O   UNL     1      -9.834  17.135  67.643  1.00  0.00    -0.258 OA 
HETATM   24  S   UNL     1      -9.756  16.703  69.205  1.00  0.00    -0.110 S  
HETATM   25  O   UNL     1     -10.813  15.752  69.461  1.00  0.00    -0.240 OA 
HETATM   26  O   UNL     1     -10.197  18.061  69.948  1.00  0.00     0.288 OA 
HETATM   27  O   UNL     1      -8.390  16.427  69.570  1.00  0.00    -0.073 OA 
ENDBRANCH  12  23
ENDBRANCH   9  10
ENDBRANCH   6   9
BRANCH   7  28
HETATM   28  O   UNL     1      -9.817  12.181  67.347  1.00  0.00    -0.188 OA 
HETATM   29  O   UNL     1     -10.863  11.955  65.099  1.00  0.00    -0.284 OA 
HETATM   30  O   UNL     1     -11.939  10.901  67.009  1.00  0.00    -0.001 OA 
HETATM   31  S   UNL     1     -10.536  11.182  66.276  1.00  0.00    -0.252 S  
HETATM   32  O   UNL     1      -9.806   9.939  66.228  1.00  0.00    -0.212 OA 
ENDBRANCH   7  28
BRANCH   8  33
HETATM   33  O   UNL     1      -7.900  10.412  66.017  1.00  0.00    -0.130 OA 
HETATM   34  S   UNL     1      -6.780   9.411  65.395  1.00  0.00    -0.081 S  
HETATM   35  O   UNL     1      -5.760  10.195  64.744  1.00  0.00    -0.094 OA 
HETATM   36  O   UNL     1      -6.488   8.383  66.369  1.00  0.00    -0.056 OA 
HETATM   37  O   UNL     1      -7.586   8.745  64.175  1.00  0.00    -0.111 OA 
ENDBRANCH   8  33
TORSDOF 6
ENDMDL
MODEL      243
REMARK 921   NORMALIZED FREE ENERGY PREDICTED BY IDOCK:   14.96 KCAL/MOL
REMARK 922        TOTAL FREE ENERGY PREDICTED BY IDOCK:   18.10 KCAL/MOL
REMARK 923 INTER-LIGAND FREE ENERGY PREDICTED BY IDOCK:    3.66 KCAL/MOL
REMARK 924 INTRA-LIGAND FREE ENERGY PREDICTED BY IDOCK:   14.44 KCAL/MOL
REMARK 927      BINDING AFFINITY PREDICTED BY RF-SCORE:    0.00 PKD
ROOT
HETATM    1  O   UNL     1      -8.805  18.124  66.525  1.00  0.00    -0.272 OA 
HETATM    2  H   UNL     1      -9.591  18.438  66.953  1.00  0.00     0.000 HD 
HETATM    3  C   UNL     1      -8.615  16.754  66.873  1.00  0.00    -0.212 C  
HETATM    4  C   UNL     1      -7.357  16.253  66.187  1.00  0.00     0.544 C  
HETATM    5  O   UNL     1      -7.120  14.899  66.509  1.00  0.00     0.536 OA 
HETATM    6  C   UNL     1      -8.131  14.020  66.055  1.00  0.00     2.085 C  
HETATM    7  C   UNL     1      -9.526  14.382  66.619  1.00  0.00    -0.283 C  
HETATM    8  C   UNL     1      -9.834  15.895  66.500  1.00  0.00    -0.261 C  
ENDROOT
BRANCH   6   9
HETATM    9  O   UNL     1      -7.802  12.698  66.492  1.00  0.00     0.201 OA 
BRANCH   9  10
HETATM   10  C   UNL     1      -8.910  11.929  66.978  1.00  0.00    -0.190 C  
HETATM   11  H   UNL     1     -12.953  11.427  69.343  1.00  0.00     0.000 HD 
HETATM   12  C   UNL     1      -9.156  12.290  68.469  1.00  0.00    -0.076 C  
HETATM   13  C   UNL     1     -10.196  12.162  66.168  1.00  0.00    -0.227 C  
HETATM   14  C   UNL     1     -10.444  11.620  68.987  1.00  0.00    -0.128 C  
HETATM   15  O   UNL     1     -12.742  11.133  68.464  1.00  0.00     0.100 OA 
HETATM   16  O   UNL     1     -11.298  11.444  66.717  1.00  0.00    -0.363 OA 
HETATM   17  C   UNL     1     -11.614  11.883  68.029  1.00  0.00    -0.332 C  
BRANCH  14  18
HETATM   18  O   UNL     1     -10.736  11.860  70.361  1.00  0.00     1.068 OA 
HETATM   19  S   UNL     1     -12.197  11.637  71.026  1.00  0.00    -0.109 S  
HETATM   20  O   UNL     1     -13.169  12.363  70.243  1.00  0.00     0.578 OA 
HETATM   21  O   UNL     1     -12.484  10.069  70.835  1.00  0.00    -0.312 OA 
HETATM   22  O   UNL     1     -12.052  11.842  72.449  1.00  0.00     1.560 OA 
ENDBRANCH  14  18
BRANCH  12  23
HETATM   23  O   UNL     1      -8.016  12.030  69.302  1.00  0.00     0.205 OA 
HETATM   24  S   UNL     1      -6.856  13.136  69.552  1.00  0.00     0.180 S  
HETATM   25  O   UNL     1      -6.119  13.298  68.320  1.00  0.00    -0.074 OA 
HETATM   26  O   UNL     1      -5.867  12.359  70.556  1.00  0.00    -0.171 OA 
HETATM   27  O   UNL     1      -7.400  14.267  70.258  1.00  0.00     0.281 OA 
ENDBRANCH  12  23
ENDBRANCH   9  10
ENDBRANCH   6   9
BRANCH   7  28
HETATM   28  O   UNL     1     -10.554  13.672  65.904  1.00  0.00    -0.280 OA 
HETATM   29  O   UNL     1     -12.701  14.931  65.910  1.00  0.00     0.122 OA 
HETATM   30  O   UNL     1     -12.263  13.361  64.105  1.00  0.00    -0.485 OA 
HETATM   31  S   UNL     1     -11.635  14.521  65.025  1.00  0.00    -0.399 S  
HETATM   32  O   UNL     1     -10.928  15.434  64.162  1.00  0.00     0.010 OA 
ENDBRANCH   7  28
BRANCH   8  33
HETATM   33  O   UNL     1     -10.928  16.166  67.394  1.00  0.00    -0.302 OA 
HETATM   34  S   UNL     1     -10.665  16.874  68.833  1.00  0.00    -0.287 S  
HETATM   35  O   UNL     1     -10.272  15.868  69.788  1.00  0.00    -0.268 OA 
HETATM   36  O   UNL     1      -9.920  18.095  68.616  1.00  0.00    -0.364 OA 
HETATM   37  O   UNL     1     -12.159  17.261  69.279  1.00  0.00     1.589 OA 
ENDBRANCH   8  33
TORSDOF 6
ENDMDL
MODEL      244
REMARK 921   NORMALIZED FREE ENERGY PREDICTED BY IDOCK:   15.31 KCAL/MOL
REMARK 922        TOTAL FREE ENERGY PREDICTED BY IDOCK:   18.58 KCAL/MOL
REMARK 923 INTER-LIGAND FREE ENERGY PREDICTED BY IDOCK:   11.54 KCAL/MOL
REMARK 924 INTRA-LIGAND FREE ENERGY PREDICTED BY IDOCK:    7.03 KCAL/MOL
REMARK 927      BINDING AFFINITY PREDICTED BY RF-SCORE:    0.00 PKD
ROOT
HETATM    1  O   UNL     1     -13.477   8.866  73.259  1.00  0.00    -0.972 OA 
HETATM    2  H   UNL     1     -13.189   8.154  73.817  1.00  0.00     0.000 HD 
HETATM    3  C   UNL     1     -12.359   9.331  72.506  1.00  0.00    -0.070 C  
HETATM    4  C   UNL     1     -12.820  10.469  71.613  1.00  0.00    -0.475 C  
HETATM    5  O   UNL     1     -11.743  10.972  70.852  1.00  0.00    -0.284 OA 
HETATM    6  C   UNL     1     -11.193  10.030  69.951  1.00  0.00    -0.275 C  
HETATM    7  C   UNL     1     -10.685   8.755  70.666  1.00  0.00    -0.225 C  
HETATM    8  C   UNL     1     -11.712   8.204  71.686  1.00  0.00    -0.287 C  
ENDROOT
BRANCH   6   9
HETATM    9  O   UNL     1     -10.083  10.643  69.289  1.00  0.00    -0.217 OA 
BRANCH   9  10
HETATM   10  C   UNL     1     -10.321  11.978  68.822  1.00  0.00    -0.160 C  
HETATM   11  H   UNL     1     -11.393  15.129  65.488  1.00  0.00     0.000 HD 
HETATM   12  C   UNL     1      -9.582  12.175  67.470  1.00  0.00    -0.179 C  
HETATM   13  C   UNL     1     -11.815  12.290  68.648  1.00  0.00    -0.305 C  
HETATM   14  C   UNL     1      -9.948  13.535  66.841  1.00  0.00    -0.256 C  
HETATM   15  O   UNL     1     -11.761  15.043  66.361  1.00  0.00    -0.256 OA 
HETATM   16  O   UNL     1     -12.020  13.596  68.113  1.00  0.00    -0.362 OA 
HETATM   17  C   UNL     1     -11.471  13.724  66.811  1.00  0.00    -0.348 C  
BRANCH  14  18
HETATM   18  O   UNL     1      -9.289  13.826  65.612  1.00  0.00     0.017 OA 
HETATM   19  S   UNL     1      -9.984  13.671  64.156  1.00  0.00     1.333 S  
HETATM   20  O   UNL     1     -10.528  12.338  64.051  1.00  0.00    -0.337 OA 
HETATM   21  O   UNL     1     -11.214  14.703  64.192  1.00  0.00    -0.115 OA 
HETATM   22  O   UNL     1      -9.054  14.198  63.183  1.00  0.00     7.886 OA 
ENDBRANCH  14  18
BRANCH  12  23
HETATM   23  O   UNL     1      -8.165  11.969  67.571  1.00  0.00    -0.142 OA 
HETATM   24  S   UNL     1      -7.167  12.175  66.308  1.00  0.00     1.070 S  
HETATM   25  O   UNL     1      -7.417  11.112  65.362  1.00  0.00     0.168 OA 
HETATM   26  O   UNL     1      -5.733  11.854  66.962  1.00  0.00    -0.126 OA 
HETATM   27  O   UNL     1      -7.167  13.558  65.904  1.00  0.00     3.030 OA 
ENDBRANCH  12  23
ENDBRANCH   9  10
ENDBRANCH   6   9
BRANCH   7  28
HETATM   28  O   UNL     1     -10.425   7.715  69.707  1.00  0.00    -0.222 OA 
HETATM   29  O   UNL     1     -12.532   6.623  68.954  1.00  0.00     1.890 OA 
HETATM   30  O   UNL     1     -10.597   6.588  67.480  1.00  0.00    -0.205 OA 
HETATM   31  S   UNL     1     -11.477   7.489  68.480  1.00  0.00     1.060 S  
HETATM   32  O   UNL     1     -11.723   8.754  67.832  1.00  0.00     1.385 OA 
ENDBRANCH   7  28
BRANCH   8  33
HETATM   33  O   UNL     1     -10.995   7.306  72.550  1.00  0.00    -0.246 OA 
HETATM   34  S   UNL     1     -10.564   5.827  72.032  1.00  0.00    -0.233 S  
HETATM   35  O   UNL     1     -11.678   4.927  72.199  1.00  0.00     0.315 OA 
HETATM   36  O   UNL     1      -9.838   5.966  70.790  1.00  0.00    -0.175 OA 
HETATM   37  O   UNL     1      -9.532   5.373  73.178  1.00  0.00    -0.142 OA 
ENDBRANCH   8  33
TORSDOF 6
ENDMDL
MODEL      245
REMARK 921   NORMALIZED FREE ENERGY PREDICTED BY IDOCK:   15.93 KCAL/MOL
REMARK 922        TOTAL FREE ENERGY PREDICTED BY IDOCK:   19.42 KCAL/MOL
REMARK 923 INTER-LIGAND FREE ENERGY PREDICTED BY IDOCK:    2.22 KCAL/MOL
REMARK 924 INTRA-LIGAND FREE ENERGY PREDICTED BY IDOCK:   17.20 KCAL/MOL
REMARK 927      BINDING AFFINITY PREDICTED BY RF-SCORE:    0.00 PKD
ROOT
HETATM    1  O   UNL     1     -11.548  18.760  69.437  1.00  0.00     2.781 OA 
HETATM    2  H   UNL     1     -11.745  19.051  68.555  1.00  0.00     0.000 HD 
HETATM    3  C   UNL     1     -11.341  17.350  69.412  1.00  0.00     1.160 C  
HETATM    4  C   UNL     1     -11.025  16.885  70.822  1.00  0.00     0.566 C  
HETATM    5  O   UNL     1     -10.820  15.488  70.852  1.00  0.00    -0.325 OA 
HETATM    6  C   UNL     1      -9.707  15.060  70.093  1.00  0.00     0.292 C  
HETATM    7  C   UNL     1      -9.812  15.470  68.604  1.00  0.00    -0.207 C  
HETATM    8  C   UNL     1     -10.226  16.953  68.431  1.00  0.00    -0.322 C  
ENDROOT
BRANCH   6   9
HETATM    9  O   UNL     1      -9.645  13.632  70.159  1.00  0.00     1.964 OA 
BRANCH   9  10
HETATM   10  C   UNL     1      -8.546  13.042  69.453  1.00  0.00     1.198 C  
HETATM   11  H   UNL     1      -5.927  12.336  65.601  1.00  0.00     0.000 HD 
HETATM   12  C   UNL     1      -9.052  12.528  68.077  1.00  0.00    -0.200 C  
HETATM   13  C   UNL     1      -7.378  14.019  69.246  1.00  0.00     0.016 C  
HETATM   14  C   UNL     1      -7.873  12.043  67.209  1.00  0.00    -0.170 C  
HETATM   15  O   UNL     1      -5.639  12.557  66.480  1.00  0.00    -0.062 OA 
HETATM   16  O   UNL     1      -6.332  13.431  68.477  1.00  0.00    -0.075 OA 
HETATM   17  C   UNL     1      -6.761  13.099  67.166  1.00  0.00     0.232 C  
BRANCH  14  18
HETATM   18  O   UNL     1      -8.241  11.516  65.937  1.00  0.00    -0.006 OA 
HETATM   19  S   UNL     1      -8.771  10.001  65.706  1.00  0.00    -0.152 S  
HETATM   20  O   UNL     1      -7.816   9.091  66.294  1.00  0.00    -0.097 OA 
HETATM   21  O   UNL     1     -10.123   9.919  66.569  1.00  0.00    -0.214 OA 
HETATM   22  O   UNL     1      -9.177   9.899  64.324  1.00  0.00    -0.245 OA 
ENDBRANCH  14  18
BRANCH  12  23
HETATM   23  O   UNL     1     -10.100  11.554  68.194  1.00  0.00    -0.181 OA 
HETATM   24  S   UNL     1     -11.667  11.970  68.252  1.00  0.00    -0.307 S  
HETATM   25  O   UNL     1     -11.911  12.620  69.519  1.00  0.00    -0.306 OA 
HETATM   26  O   UNL     1     -12.388  10.535  68.348  1.00  0.00    -0.113 OA 
HETATM   27  O   UNL     1     -12.060  12.577  67.006  1.00  0.00    -0.521 OA 
ENDBRANCH  12  23
ENDBRANCH   9  10
ENDBRANCH   6   9
BRANCH   7  28
HETATM   28  O   UNL     1      -8.546  15.293  67.946  1.00  0.00    -0.148 OA 
HETATM   29  O   UNL     1      -7.424  17.476  67.529  1.00  0.00    -0.183 OA 
HETATM   30  O   UNL     1      -6.061  15.472  67.724  1.00  0.00    -0.137 OA 
HETATM   31  S   UNL     1      -7.307  16.282  68.334  1.00  0.00    -0.166 S  
HETATM   32  O   UNL     1      -7.157  16.308  69.769  1.00  0.00    -0.129 OA 
ENDBRANCH   7  28
BRANCH   8  33
HETATM   33  O   UNL     1     -10.680  17.098  67.074  1.00  0.00    -0.266 OA 
HETATM   34  S   UNL     1      -9.650  16.908  65.831  1.00  0.00    -0.059 S  
HETATM   35  O   UNL     1      -8.941  18.145  65.615  1.00  0.00    -0.288 OA 
HETATM   36  O   UNL     1      -8.989  15.630  65.972  1.00  0.00    -0.334 OA 
HETATM   37  O   UNL     1     -10.661  16.825  64.585  1.00  0.00    -0.778 OA 
ENDBRANCH   8  33
TORSDOF 6
ENDMDL
MODEL      246
REMARK 921   NORMALIZED FREE ENERGY PREDICTED BY IDOCK:   17.67 KCAL/MOL
REMARK 922        TOTAL FREE ENERGY PREDICTED BY IDOCK:   21.76 KCAL/MOL
REMARK 923 INTER-LIGAND FREE ENERGY PREDICTED BY IDOCK:    6.31 KCAL/MOL
REMARK 924 INTRA-LIGAND FREE ENERGY PREDICTED BY IDOCK:   15.45 KCAL/MOL
REMARK 927      BINDING AFFINITY PREDICTED BY RF-SCORE:    0.00 PKD
ROOT
HETATM    1  O   UNL     1      -8.637  14.257  65.838  1.00  0.00     0.035 OA 
HETATM    2  H   UNL     1      -8.008  14.965  65.908  1.00  0.00     0.000 HD 
HETATM    3  C   UNL     1      -8.580  13.481  67.033  1.00  0.00    -0.157 C  
HETATM    4  C   UNL     1      -9.586  12.350  66.920  1.00  0.00    -0.219 C  
HETATM    5  O   UNL     1      -9.561  11.544  68.079  1.00  0.00    -0.169 OA 
HETATM    6  C   UNL     1      -9.945  12.228  69.256  1.00  0.00     0.514 C  
HETATM    7  C   UNL     1      -9.053  13.460  69.543  1.00  0.00     1.382 C  
HETATM    8  C   UNL     1      -8.839  14.337  68.284  1.00  0.00    -0.185 C  
ENDROOT
BRANCH   6   9
HETATM    9  O   UNL     1      -9.823  11.323  70.357  1.00  0.00     1.633 OA 
BRANCH   9  10
HETATM   10  C   UNL     1      -9.305  10.029  70.021  1.00  0.00    -0.119 C  
HETATM   11  H   UNL     1      -6.095   7.163  68.103  1.00  0.00     0.000 HD 
HETATM   12  C   UNL     1      -8.810  10.055  68.548  1.00  0.00    -0.120 C  
HETATM   13  C   UNL     1      -8.161   9.587  70.946  1.00  0.00     0.059 C  
HETATM   14  C   UNL     1      -8.086   8.741  68.193  1.00  0.00    -0.107 C  
HETATM   15  O   UNL     1      -6.488   7.117  68.968  1.00  0.00    -0.034 OA 
HETATM   16  O   UNL     1      -7.615   8.333  70.544  1.00  0.00    -0.071 OA 
HETATM   17  C   UNL     1      -7.029   8.402  69.253  1.00  0.00    -0.054 C  
BRANCH  14  18
HETATM   18  O   UNL     1      -7.627   8.653  66.847  1.00  0.00    -0.083 OA 
HETATM   19  S   UNL     1      -6.124   8.207  66.433  1.00  0.00    -0.046 S  
HETATM   20  O   UNL     1      -5.188   9.034  67.157  1.00  0.00    -0.035 OA 
HETATM   21  O   UNL     1      -5.989   6.707  66.990  1.00  0.00    -0.020 OA 
HETATM   22  O   UNL     1      -6.096   8.097  64.992  1.00  0.00    -0.045 OA 
ENDBRANCH  14  18
BRANCH  12  23
HETATM   23  O   UNL     1      -9.848  10.392  67.615  1.00  0.00    -0.165 OA 
HETATM   24  S   UNL     1     -10.927   9.301  67.089  1.00  0.00     0.319 S  
HETATM   25  O   UNL     1     -10.237   8.366  66.229  1.00  0.00    -0.212 OA 
HETATM   26  O   UNL     1     -11.852  10.190  66.117  1.00  0.00     1.615 OA 
HETATM   27  O   UNL     1     -11.746   8.852  68.185  1.00  0.00     1.160 OA 
ENDBRANCH  12  23
ENDBRANCH   9  10
ENDBRANCH   6   9
BRANCH   7  28
HETATM   28  O   UNL     1      -9.655  14.289  70.552  1.00  0.00     1.632 OA 
HETATM   29  O   UNL     1     -11.942  15.016  69.888  1.00  0.00    -0.296 OA 
HETATM   30  O   UNL     1     -11.386  14.897  72.252  1.00  0.00    -0.252 OA 
HETATM   31  S   UNL     1     -11.257  14.160  70.830  1.00  0.00     0.627 S  
HETATM   32  O   UNL     1     -11.591  12.770  71.022  1.00  0.00     0.573 OA 
ENDBRANCH   7  28
BRANCH   8  33
HETATM   33  O   UNL     1      -7.707  15.180  68.555  1.00  0.00    -0.113 OA 
HETATM   34  S   UNL     1      -7.813  16.792  68.376  1.00  0.00    -0.224 S  
HETATM   35  O   UNL     1      -7.595  17.126  66.991  1.00  0.00    -0.165 OA 
HETATM   36  O   UNL     1      -8.948  17.266  69.137  1.00  0.00    -0.139 OA 
HETATM   37  O   UNL     1      -6.468  17.286  69.104  1.00  0.00    -0.211 OA 
ENDBRANCH   8  33
TORSDOF 6
ENDMDL
MODEL      247
REMARK 921   NORMALIZED FREE ENERGY PREDICTED BY IDOCK:   18.64 KCAL/MOL
REMARK 922        TOTAL FREE ENERGY PREDICTED BY IDOCK:   23.07 KCAL/MOL
REMARK 923 INTER-LIGAND FREE ENERGY PREDICTED BY IDOCK:    4.98 KCAL/MOL
REMARK 924 INTRA-LIGAND FREE ENERGY PREDICTED BY IDOCK:   18.09 KCAL/MOL
REMARK 927      BINDING AFFINITY PREDICTED BY RF-SCORE:    0.00 PKD
ROOT
HETATM    1  O   UNL     1     -11.264  17.114  71.410  1.00  0.00    -0.108 OA 
HETATM    2  H   UNL     1     -11.066  18.040  71.484  1.00  0.00     0.000 HD 
HETATM    3  C   UNL     1     -10.857  16.666  70.120  1.00  0.00    -0.109 C  
HETATM    4  C   UNL     1     -11.174  15.186  70.002  1.00  0.00    -0.277 C  
HETATM    5  O   UNL     1     -10.797  14.695  68.734  1.00  0.00    -0.238 OA 
HETATM    6  C   UNL     1      -9.406  14.768  68.486  1.00  0.00    -0.199 C  
HETATM    7  C   UNL     1      -8.861  16.212  68.592  1.00  0.00    -0.218 C  
HETATM    8  C   UNL     1      -9.366  16.939  69.864  1.00  0.00     1.011 C  
ENDROOT
BRANCH   6   9
HETATM    9  O   UNL     1      -9.165  14.296  67.157  1.00  0.00    -0.204 OA 
BRANCH   9  10
HETATM   10  C   UNL     1      -8.216  13.226  67.058  1.00  0.00    -0.045 C  
HETATM   11  H   UNL     1      -5.696  10.062  64.644  1.00  0.00     0.000 HD 
HETATM   12  C   UNL     1      -8.776  12.147  66.092  1.00  0.00     0.099 C  
HETATM   13  C   UNL     1      -6.838  13.697  66.569  1.00  0.00     2.509 C  
HETATM   14  C   UNL     1      -7.718  11.059  65.816  1.00  0.00     0.037 C  
HETATM   15  O   UNL     1      -5.398  10.671  65.311  1.00  0.00    -0.118 OA 
HETATM   16  O   UNL     1      -5.937  12.604  66.409  1.00  0.00     0.475 OA 
HETATM   17  C   UNL     1      -6.381  11.695  65.414  1.00  0.00     1.656 C  
BRANCH  14  18
HETATM   18  O   UNL     1      -8.152  10.000  64.967  1.00  0.00    -0.133 OA 
HETATM   19  S   UNL     1      -8.094  10.059  63.348  1.00  0.00    -0.164 S  
HETATM   20  O   UNL     1      -8.758  11.264  62.913  1.00  0.00    -0.181 OA 
HETATM   21  O   UNL     1      -6.530  10.212  63.014  1.00  0.00    -0.126 OA 
HETATM   22  O   UNL     1      -8.477   8.754  62.862  1.00  0.00    -0.194 OA 
ENDBRANCH  14  18
BRANCH  12  23
HETATM   23  O   UNL     1     -10.034  11.607  66.524  1.00  0.00    -0.197 OA 
HETATM   24  S   UNL     1     -11.229  11.255  65.484  1.00  0.00     0.101 S  
HETATM   25  O   UNL     1     -11.757  12.498  64.970  1.00  0.00    -0.332 OA 
HETATM   26  O   UNL     1     -12.362  10.669  66.465  1.00  0.00     2.250 OA 
HETATM   27  O   UNL     1     -10.816  10.191  64.604  1.00  0.00     0.512 OA 
ENDBRANCH  12  23
ENDBRANCH   9  10
ENDBRANCH   6   9
BRANCH   7  28
HETATM   28  O   UNL     1      -7.423  16.201  68.641  1.00  0.00    -0.158 OA 
HETATM   29  O   UNL     1      -6.438  15.965  66.366  1.00  0.00     0.157 OA 
HETATM   30  O   UNL     1      -5.130  17.045  68.108  1.00  0.00    -0.114 OA 
HETATM   31  S   UNL     1      -6.586  16.921  67.439  1.00  0.00    -0.179 S  
HETATM   32  O   UNL     1      -7.097  18.256  67.245  1.00  0.00    -0.196 OA 
ENDBRANCH   7  28
BRANCH   8  33
HETATM   33  O   UNL     1      -9.145  18.344  69.651  1.00  0.00     0.482 OA 
HETATM   34  S   UNL     1      -8.193  18.858  68.439  1.00  0.00    -0.352 S  
HETATM   35  O   UNL     1      -6.818  18.816  68.871  1.00  0.00    -0.273 OA 
HETATM   36  O   UNL     1      -8.654  18.261  67.205  1.00  0.00    -0.248 OA 
HETATM   37  O   UNL     1      -8.534  20.428  68.406  1.00  0.00     0.056 OA 
ENDBRANCH   8  33
TORSDOF 6
ENDMDL
MODEL      248
REMARK 921   NORMALIZED FREE ENERGY PREDICTED BY IDOCK:   21.06 KCAL/MOL
REMARK 922        TOTAL FREE ENERGY PREDICTED BY IDOCK:   26.34 KCAL/MOL
REMARK 923 INTER-LIGAND FREE ENERGY PREDICTED BY IDOCK:   -1.71 KCAL/MOL
REMARK 924 INTRA-LIGAND FREE ENERGY PREDICTED BY IDOCK:   28.06 KCAL/MOL
REMARK 927      BINDING AFFINITY PREDICTED BY RF-SCORE:    0.00 PKD
ROOT
HETATM    1  O   UNL     1      -8.157   7.476  64.232  1.00  0.00    -0.231 OA 
HETATM    2  H   UNL     1      -7.547   8.191  64.095  1.00  0.00     0.000 HD 
HETATM    3  C   UNL     1      -8.452   7.394  65.624  1.00  0.00    -0.130 C  
HETATM    4  C   UNL     1      -9.428   6.252  65.843  1.00  0.00     0.091 C  
HETATM    5  O   UNL     1      -9.745   6.124  67.212  1.00  0.00    -0.120 OA 
HETATM    6  C   UNL     1     -10.409   7.250  67.751  1.00  0.00    -0.209 C  
HETATM    7  C   UNL     1      -9.586   8.552  67.598  1.00  0.00    -0.153 C  
HETATM    8  C   UNL     1      -9.011   8.719  66.169  1.00  0.00    -0.185 C  
ENDROOT
BRANCH   6   9
HETATM    9  O   UNL     1     -10.621   7.018  69.147  1.00  0.00    -0.207 OA 
BRANCH   9  10
HETATM   10  C   UNL     1      -9.653   6.162  69.769  1.00  0.00    -0.150 C  
HETATM   11  H   UNL     1      -8.131   1.983  71.322  1.00  0.00     0.000 HD 
HETATM   12  C   UNL     1     -10.381   5.234  70.780  1.00  0.00    -0.239 C  
HETATM   13  C   UNL     1      -8.871   5.312  68.756  1.00  0.00    -0.096 C  
HETATM   14  C   UNL     1      -9.412   4.177  71.347  1.00  0.00    -0.160 C  
HETATM   15  O   UNL     1      -7.673   2.615  70.781  1.00  0.00    -0.042 OA 
HETATM   16  O   UNL     1      -7.970   4.418  69.405  1.00  0.00    -0.061 OA 
HETATM   17  C   UNL     1      -8.655   3.474  70.213  1.00  0.00    -0.059 C  
BRANCH  14  18
HETATM   18  O   UNL     1      -9.980   3.300  72.317  1.00  0.00    -0.153 OA 
HETATM   19  S   UNL     1      -9.800   3.485  73.917  1.00  0.00    -0.118 S  
HETATM   20  O   UNL     1      -8.391   3.598  74.206  1.00  0.00    -0.081 OA 
HETATM   21  O   UNL     1     -10.482   4.906  74.229  1.00  0.00    -0.253 OA 
HETATM   22  O   UNL     1     -10.637   2.496  74.555  1.00  0.00    -0.153 OA 
ENDBRANCH  14  18
BRANCH  12  23
HETATM   23  O   UNL     1     -11.079   5.960  71.804  1.00  0.00    -0.263 OA 
HETATM   24  S   UNL     1     -11.631   5.244  73.151  1.00  0.00    -0.025 S  
HETATM   25  O   UNL     1     -12.736   4.388  72.782  1.00  0.00     0.769 OA 
HETATM   26  O   UNL     1     -12.283   6.484  73.943  1.00  0.00     2.372 OA 
HETATM   27  O   UNL     1     -10.527   4.753  73.934  1.00  0.00    -0.210 OA 
ENDBRANCH  12  23
ENDBRANCH   9  10
ENDBRANCH   6   9
BRANCH   7  28
HETATM   28  O   UNL     1     -10.411   9.699  67.870  1.00  0.00    -0.196 OA 
HETATM   29  O   UNL     1      -9.175  11.823  67.468  1.00  0.00    -0.168 OA 
HETATM   30  O   UNL     1     -11.601  11.823  67.299  1.00  0.00    -0.461 OA 
HETATM   31  S   UNL     1     -10.255  11.025  66.932  1.00  0.00    -0.230 S  
HETATM   32  O   UNL     1     -10.337  10.635  65.547  1.00  0.00    -0.266 OA 
ENDBRANCH   7  28
BRANCH   8  33
HETATM   33  O   UNL     1      -7.966   9.703  66.258  1.00  0.00    -0.107 OA 
HETATM   34  S   UNL     1      -6.467   9.280  66.721  1.00  0.00    -0.068 S  
HETATM   35  O   UNL     1      -6.412   9.247  68.161  1.00  0.00    -0.057 OA 
HETATM   36  O   UNL     1      -6.017   8.188  65.886  1.00  0.00    -0.037 OA 
HETATM   37  O   UNL     1      -5.628  10.595  66.337  1.00  0.00    -0.059 OA 
ENDBRANCH   8  33
TORSDOF 6
ENDMDL
MODEL      249
REMARK 921   NORMALIZED FREE ENERGY PREDICTED BY IDOCK:   21.50 KCAL/MOL
REMARK 922        TOTAL FREE ENERGY PREDICTED BY IDOCK:   26.93 KCAL/MOL
REMARK 923 INTER-LIGAND FREE ENERGY PREDICTED BY IDOCK:   19.64 KCAL/MOL
REMARK 924 INTRA-LIGAND FREE ENERGY PREDICTED BY IDOCK:    7.29 KCAL/MOL
REMARK 927      BINDING AFFINITY PREDICTED BY RF-SCORE:    0.00 PKD
ROOT
HETATM    1  O   UNL     1     -14.164   7.230  69.242  1.00  0.00     6.409 OA 
HETATM    2  H   UNL     1     -13.792   6.362  69.146  1.00  0.00     0.000 HD 
HETATM    3  C   UNL     1     -13.106   8.151  69.492  1.00  0.00     4.356 C  
HETATM    4  C   UNL     1     -13.701   9.539  69.645  1.00  0.00     3.072 C  
HETATM    5  O   UNL     1     -12.690  10.489  69.904  1.00  0.00    -0.209 OA 
HETATM    6  C   UNL     1     -11.758  10.631  68.849  1.00  0.00    -0.211 C  
HETATM    7  C   UNL     1     -11.050   9.300  68.503  1.00  0.00     0.120 C  
HETATM    8  C   UNL     1     -12.045   8.119  68.379  1.00  0.00     3.508 C  
ENDROOT
BRANCH   6   9
HETATM    9  O   UNL     1     -10.763  11.574  69.258  1.00  0.00    -0.204 OA 
BRANCH   9  10
HETATM   10  C   UNL     1      -9.419  11.228  68.896  1.00  0.00    -0.089 C  
HETATM   11  H   UNL     1      -4.740  11.588  69.299  1.00  0.00     0.000 HD 
HETATM   12  C   UNL     1      -8.582  12.530  68.772  1.00  0.00     0.157 C  
HETATM   13  C   UNL     1      -8.757  10.278  69.905  1.00  0.00     0.043 C  
HETATM   14  C   UNL     1      -7.091  12.202  68.556  1.00  0.00    -0.099 C  
HETATM   15  O   UNL     1      -5.272  10.801  69.276  1.00  0.00    -0.042 OA 
HETATM   16  O   UNL     1      -7.399  10.010  69.562  1.00  0.00    -0.084 OA 
HETATM   17  C   UNL     1      -6.604  11.185  69.596  1.00  0.00    -0.139 C  
BRANCH  14  18
HETATM   18  O   UNL     1      -6.244  13.337  68.392  1.00  0.00    -0.072 OA 
HETATM   19  S   UNL     1      -6.154  14.207  67.028  1.00  0.00     1.587 S  
HETATM   20  O   UNL     1      -5.891  13.307  65.930  1.00  0.00     3.913 OA 
HETATM   21  O   UNL     1      -7.636  14.796  66.836  1.00  0.00    -0.044 OA 
HETATM   22  O   UNL     1      -5.309  15.345  67.305  1.00  0.00    -0.338 OA 
ENDBRANCH  14  18
BRANCH  12  23
HETATM   23  O   UNL     1      -9.103  13.440  67.791  1.00  0.00    -0.183 OA 
HETATM   24  S   UNL     1      -9.907  14.788  68.200  1.00  0.00    -0.226 S  
HETATM   25  O   UNL     1     -11.185  14.398  68.751  1.00  0.00    -0.236 OA 
HETATM   26  O   UNL     1     -10.228  15.434  66.762  1.00  0.00    -0.260 OA 
HETATM   27  O   UNL     1      -9.029  15.690  68.901  1.00  0.00    -0.188 OA 
ENDBRANCH  12  23
ENDBRANCH   9  10
ENDBRANCH   6   9
BRANCH   7  28
HETATM   28  O   UNL     1     -10.356   9.415  67.248  1.00  0.00    -0.228 OA 
HETATM   29  O   UNL     1      -8.619   7.648  67.003  1.00  0.00    -0.118 OA 
HETATM   30  O   UNL     1      -9.587   8.631  65.001  1.00  0.00     0.306 OA 
HETATM   31  S   UNL     1      -9.898   8.056  66.470  1.00  0.00    -0.181 S  
HETATM   32  O   UNL     1     -11.030   7.169  66.365  1.00  0.00     0.230 OA 
ENDBRANCH   7  28
BRANCH   8  33
HETATM   33  O   UNL     1     -11.267   6.913  68.466  1.00  0.00    -0.116 OA 
HETATM   34  S   UNL     1     -10.867   6.287  69.912  1.00  0.00    -0.372 S  
HETATM   35  O   UNL     1      -9.689   6.957  70.404  1.00  0.00    -0.172 OA 
HETATM   36  O   UNL     1     -12.072   6.129  70.695  1.00  0.00    -0.054 OA 
HETATM   37  O   UNL     1     -10.333   4.830  69.496  1.00  0.00    -0.196 OA 
ENDBRANCH   8  33
TORSDOF 6
ENDMDL
MODEL      250
REMARK 921   NORMALIZED FREE ENERGY PREDICTED BY IDOCK:   21.72 KCAL/MOL
REMARK 922        TOTAL FREE ENERGY PREDICTED BY IDOCK:   27.24 KCAL/MOL
REMARK 923 INTER-LIGAND FREE ENERGY PREDICTED BY IDOCK:   21.85 KCAL/MOL
REMARK 924 INTRA-LIGAND FREE ENERGY PREDICTED BY IDOCK:    5.39 KCAL/MOL
REMARK 927      BINDING AFFINITY PREDICTED BY RF-SCORE:    0.00 PKD
ROOT
HETATM    1  O   UNL     1     -10.403   5.229  74.459  1.00  0.00    -0.264 OA 
HETATM    2  H   UNL     1      -9.727   4.615  74.721  1.00  0.00     0.000 HD 
HETATM    3  C   UNL     1      -9.880   6.064  73.429  1.00  0.00    -0.165 C  
HETATM    4  C   UNL     1     -10.960   7.045  73.009  1.00  0.00    -0.292 C  
HETATM    5  O   UNL     1     -10.487   7.903  71.994  1.00  0.00    -0.208 OA 
HETATM    6  C   UNL     1     -10.147   7.234  70.795  1.00  0.00    -0.190 C  
HETATM    7  C   UNL     1      -9.066   6.148  71.009  1.00  0.00    -0.147 C  
HETATM    8  C   UNL     1      -9.374   5.245  72.230  1.00  0.00    -0.142 C  
ENDROOT
BRANCH   6   9
HETATM    9  O   UNL     1      -9.632   8.202  69.875  1.00  0.00    -0.173 OA 
BRANCH   9  10
HETATM   10  C   UNL     1     -10.395   8.357  68.671  1.00  0.00    -0.197 C  
HETATM   11  H   UNL     1     -12.152   6.797  64.588  1.00  0.00     0.000 HD 
HETATM   12  C   UNL     1      -9.584   7.767  67.485  1.00  0.00    -0.148 C  
HETATM   13  C   UNL     1     -11.771   7.678  68.748  1.00  0.00     1.375 C  
HETATM   14  C   UNL     1     -10.432   7.751  66.198  1.00  0.00     0.887 C  
HETATM   15  O   UNL     1     -12.604   7.246  65.293  1.00  0.00    10.716 OA 
HETATM   16  O   UNL     1     -12.477   7.782  67.513  1.00  0.00     4.832 OA 
HETATM   17  C   UNL     1     -11.802   7.111  66.461  1.00  0.00     3.483 C  
BRANCH  14  18
HETATM   18  O   UNL     1      -9.760   7.262  65.040  1.00  0.00     1.413 OA 
HETATM   19  S   UNL     1      -8.190   7.518  64.733  1.00  0.00    -0.007 S  
HETATM   20  O   UNL     1      -7.935   8.937  64.815  1.00  0.00    -0.114 OA 
HETATM   21  O   UNL     1      -7.426   6.810  65.956  1.00  0.00    -0.077 OA 
HETATM   22  O   UNL     1      -7.856   6.746  63.558  1.00  0.00    -0.119 OA 
ENDBRANCH  14  18
BRANCH  12  23
HETATM   23  O   UNL     1      -8.309   8.404  67.307  1.00  0.00    -0.121 OA 
HETATM   24  S   UNL     1      -7.640   9.339  68.452  1.00  0.00    -0.086 S  
HETATM   25  O   UNL     1      -8.415  10.555  68.547  1.00  0.00    -0.118 OA 
HETATM   26  O   UNL     1      -6.246   9.758  67.767  1.00  0.00    -0.052 OA 
HETATM   27  O   UNL     1      -7.337   8.546  69.616  1.00  0.00    -0.058 OA 
ENDBRANCH  12  23
ENDBRANCH   9  10
ENDBRANCH   6   9
BRANCH   7  28
HETATM   28  O   UNL     1      -8.976   5.298  69.852  1.00  0.00    -0.115 OA 
HETATM   29  O   UNL     1      -9.994   3.066  70.282  1.00  0.00     0.053 OA 
HETATM   30  O   UNL     1      -9.886   3.889  67.996  1.00  0.00    -0.110 OA 
HETATM   31  S   UNL     1     -10.207   4.277  69.523  1.00  0.00     0.557 S  
HETATM   32  O   UNL     1     -11.446   5.014  69.540  1.00  0.00     1.694 OA 
ENDBRANCH   7  28
BRANCH   8  33
HETATM   33  O   UNL     1      -8.147   4.574  72.566  1.00  0.00    -0.098 OA 
HETATM   34  S   UNL     1      -6.713   5.299  72.324  1.00  0.00    -0.063 S  
HETATM   35  O   UNL     1      -6.317   5.109  70.950  1.00  0.00    -0.022 OA 
HETATM   36  O   UNL     1      -6.735   6.593  72.969  1.00  0.00    -0.067 OA 
HETATM   37  O   UNL     1      -5.723   4.336  73.144  1.00  0.00    -0.007 OA 
ENDBRANCH   8  33
TORSDOF 6
ENDMDL
MODEL      251
REMARK 921   NORMALIZED FREE ENERGY PREDICTED BY IDOCK:   22.62 KCAL/MOL
REMARK 922        TOTAL FREE ENERGY PREDICTED BY IDOCK:   28.46 KCAL/MOL
REMARK 923 INTER-LIGAND FREE ENERGY PREDICTED BY IDOCK:    5.21 KCAL/MOL
REMARK 924 INTRA-LIGAND FREE ENERGY PREDICTED BY IDOCK:   23.25 KCAL/MOL
REMARK 927      BINDING AFFINITY PREDICTED BY RF-SCORE:    0.00 PKD
ROOT
HETATM    1  O   UNL     1     -11.038  11.914  72.046  1.00  0.00     4.372 OA 
HETATM    2  H   UNL     1     -10.374  11.847  72.721  1.00  0.00     0.000 HD 
HETATM    3  C   UNL     1     -10.556  11.273  70.869  1.00  0.00     2.661 C  
HETATM    4  C   UNL     1     -11.619  11.381  69.791  1.00  0.00    -0.332 C  
HETATM    5  O   UNL     1     -11.183  10.766  68.598  1.00  0.00    -0.235 OA 
HETATM    6  C   UNL     1     -10.962   9.375  68.722  1.00  0.00    -0.042 C  
HETATM    7  C   UNL     1      -9.917   9.037  69.812  1.00  0.00    -0.196 C  
HETATM    8  C   UNL     1     -10.175   9.807  71.132  1.00  0.00     0.063 C  
ENDROOT
BRANCH   6   9
HETATM    9  O   UNL     1     -10.472   8.888  67.468  1.00  0.00    -0.252 OA 
BRANCH   9  10
HETATM   10  C   UNL     1      -9.209   9.431  67.062  1.00  0.00    -0.142 C  
HETATM   11  H   UNL     1      -4.890  11.105  67.918  1.00  0.00     0.000 HD 
HETATM   12  C   UNL     1      -8.851  10.620  67.994  1.00  0.00    -0.130 C  
HETATM   13  C   UNL     1      -8.079   8.391  67.087  1.00  0.00    -0.104 C  
HETATM   14  C   UNL     1      -7.423  11.126  67.709  1.00  0.00    -0.095 C  
HETATM   15  O   UNL     1      -5.154  10.445  67.286  1.00  0.00    -0.040 OA 
HETATM   16  O   UNL     1      -6.822   8.974  66.751  1.00  0.00    -0.078 OA 
HETATM   17  C   UNL     1      -6.428   9.958  67.694  1.00  0.00    -0.064 C  
BRANCH  14  18
HETATM   18  O   UNL     1      -7.014  12.245  68.492  1.00  0.00    -0.079 OA 
HETATM   19  S   UNL     1      -7.968  13.514  68.820  1.00  0.00     0.073 S  
HETATM   20  O   UNL     1      -8.493  14.023  67.575  1.00  0.00    -0.170 OA 
HETATM   21  O   UNL     1      -9.192  12.884  69.649  1.00  0.00     1.385 OA 
HETATM   22  O   UNL     1      -7.251  14.354  69.751  1.00  0.00    -0.074 OA 
ENDBRANCH  14  18
BRANCH  12  23
HETATM   23  O   UNL     1      -9.832  11.668  67.968  1.00  0.00    -0.179 OA 
HETATM   24  S   UNL     1     -10.412  12.276  66.580  1.00  0.00    -0.226 S  
HETATM   25  O   UNL     1      -9.356  13.031  65.945  1.00  0.00    -0.102 OA 
HETATM   26  O   UNL     1     -11.471  13.365  67.112  1.00  0.00    -0.307 OA 
HETATM   27  O   UNL     1     -11.146  11.261  65.868  1.00  0.00    -0.219 OA 
ENDBRANCH  12  23
ENDBRANCH   9  10
ENDBRANCH   6   9
BRANCH   7  28
HETATM   28  O   UNL     1      -9.949   7.631  70.116  1.00  0.00    -0.184 OA 
HETATM   29  O   UNL     1     -10.156   6.257  68.050  1.00  0.00    -0.133 OA 
HETATM   30  O   UNL     1      -9.128   5.271  70.021  1.00  0.00    -0.123 OA 
HETATM   31  S   UNL     1      -9.218   6.585  69.100  1.00  0.00    -0.134 S  
HETATM   32  O   UNL     1      -7.873   7.038  68.845  1.00  0.00    -0.111 OA 
ENDBRANCH   7  28
BRANCH   8  33
HETATM   33  O   UNL     1      -8.958   9.736  71.895  1.00  0.00     0.758 OA 
HETATM   34  S   UNL     1      -7.586   9.188  71.217  1.00  0.00     0.060 S  
HETATM   35  O   UNL     1      -7.578   7.747  71.272  1.00  0.00    -0.076 OA 
HETATM   36  O   UNL     1      -7.340   9.936  70.005  1.00  0.00    -0.121 OA 
HETATM   37  O   UNL     1      -6.492   9.617  72.313  1.00  0.00    -0.217 OA 
ENDBRANCH   8  33
TORSDOF 6
ENDMDL
MODEL      252
REMARK 921   NORMALIZED FREE ENERGY PREDICTED BY IDOCK:   22.86 KCAL/MOL
REMARK 922        TOTAL FREE ENERGY PREDICTED BY IDOCK:   28.78 KCAL/MOL
REMARK 923 INTER-LIGAND FREE ENERGY PREDICTED BY IDOCK:   22.81 KCAL/MOL
REMARK 924 INTRA-LIGAND FREE ENERGY PREDICTED BY IDOCK:    5.97 KCAL/MOL
REMARK 927      BINDING AFFINITY PREDICTED BY RF-SCORE:    0.00 PKD
ROOT
HETATM    1  O   UNL     1     -11.977  11.374  63.277  1.00  0.00    -0.838 OA 
HETATM    2  H   UNL     1     -11.240  11.233  62.695  1.00  0.00     0.000 HD 
HETATM    3  C   UNL     1     -11.772  10.611  64.463  1.00  0.00     2.150 C  
HETATM    4  C   UNL     1     -12.951  10.839  65.392  1.00  0.00     7.360 C  
HETATM    5  O   UNL     1     -12.798  10.094  66.581  1.00  0.00     7.275 OA 
HETATM    6  C   UNL     1     -11.676  10.476  67.352  1.00  0.00     0.746 C  
HETATM    7  C   UNL     1     -10.348  10.350  66.567  1.00  0.00    -0.224 C  
HETATM    8  C   UNL     1     -10.443  10.967  65.149  1.00  0.00    -0.246 C  
ENDROOT
BRANCH   6   9
HETATM    9  O   UNL     1     -11.604   9.613  68.492  1.00  0.00     0.182 OA 
BRANCH   9  10
HETATM   10  C   UNL     1     -10.295   9.106  68.783  1.00  0.00    -0.214 C  
HETATM   11  H   UNL     1      -7.336   5.850  70.467  1.00  0.00     0.000 HD 
HETATM   12  C   UNL     1     -10.294   8.518  70.221  1.00  0.00    -0.205 C  
HETATM   13  C   UNL     1      -9.837   8.033  67.783  1.00  0.00    -0.165 C  
HETATM   14  C   UNL     1      -8.960   7.804  70.518  1.00  0.00    -0.150 C  
HETATM   15  O   UNL     1      -7.308   6.297  69.629  1.00  0.00    -0.075 OA 
HETATM   16  O   UNL     1      -8.566   7.493  68.139  1.00  0.00    -0.123 OA 
HETATM   17  C   UNL     1      -8.608   6.825  69.390  1.00  0.00    -0.132 C  
BRANCH  14  18
HETATM   18  O   UNL     1      -8.847   7.263  71.832  1.00  0.00    -0.122 OA 
HETATM   19  S   UNL     1      -7.890   7.883  72.984  1.00  0.00    -0.142 S  
HETATM   20  O   UNL     1      -6.555   8.005  72.449  1.00  0.00    -0.063 OA 
HETATM   21  O   UNL     1      -8.463   9.364  73.220  1.00  0.00     1.041 OA 
HETATM   22  O   UNL     1      -8.164   7.154  74.201  1.00  0.00    -0.121 OA 
ENDBRANCH  14  18
BRANCH  12  23
HETATM   23  O   UNL     1     -10.645   9.487  71.222  1.00  0.00    -0.332 OA 
HETATM   24  S   UNL     1     -11.715  10.673  70.941  1.00  0.00    -0.205 S  
HETATM   25  O   UNL     1     -11.115  11.609  70.017  1.00  0.00    -0.080 OA 
HETATM   26  O   UNL     1     -11.758  11.426  72.362  1.00  0.00     2.861 OA 
HETATM   27  O   UNL     1     -13.020  10.111  70.702  1.00  0.00    -0.320 OA 
ENDBRANCH  12  23
ENDBRANCH   9  10
ENDBRANCH   6   9
BRANCH   7  28
HETATM   28  O   UNL     1      -9.288  11.027  67.265  1.00  0.00    -0.155 OA 
HETATM   29  O   UNL     1      -8.984  13.351  66.424  1.00  0.00    -0.120 OA 
HETATM   30  O   UNL     1      -8.303  12.825  68.698  1.00  0.00    -0.091 OA 
HETATM   31  S   UNL     1      -9.443  12.620  67.583  1.00  0.00    -0.196 S  
HETATM   32  O   UNL     1     -10.720  12.853  68.210  1.00  0.00    -0.228 OA 
ENDBRANCH   7  28
BRANCH   8  33
HETATM   33  O   UNL     1      -9.336  10.442  64.396  1.00  0.00    -0.223 OA 
HETATM   34  S   UNL     1      -9.513   9.111  63.481  1.00  0.00     1.338 S  
HETATM   35  O   UNL     1      -9.361   7.944  64.315  1.00  0.00     1.266 OA 
HETATM   36  O   UNL     1     -10.637   9.308  62.593  1.00  0.00     3.513 OA 
HETATM   37  O   UNL     1      -8.163   9.136  62.611  1.00  0.00    -0.151 OA 
ENDBRANCH   8  33
TORSDOF 6
ENDMDL
MODEL      253
REMARK 921   NORMALIZED FREE ENERGY PREDICTED BY IDOCK:   23.04 KCAL/MOL
REMARK 922        TOTAL FREE ENERGY PREDICTED BY IDOCK:   29.02 KCAL/MOL
REMARK 923 INTER-LIGAND FREE ENERGY PREDICTED BY IDOCK:   19.57 KCAL/MOL
REMARK 924 INTRA-LIGAND FREE ENERGY PREDICTED BY IDOCK:    9.45 KCAL/MOL
REMARK 927      BINDING AFFINITY PREDICTED BY RF-SCORE:    0.00 PKD
ROOT
HETATM    1  O   UNL     1     -12.770  15.423  73.274  1.00  0.00    -0.408 OA 
HETATM    2  H   UNL     1     -12.618  16.359  73.224  1.00  0.00     0.000 HD 
HETATM    3  C   UNL     1     -12.328  14.827  72.056  1.00  0.00    -0.341 C  
HETATM    4  C   UNL     1     -12.571  13.331  72.137  1.00  0.00     0.069 C  
HETATM    5  O   UNL     1     -12.157  12.695  70.947  1.00  0.00    -0.287 OA 
HETATM    6  C   UNL     1     -10.769  12.804  70.695  1.00  0.00     3.064 C  
HETATM    7  C   UNL     1     -10.298  14.275  70.609  1.00  0.00     1.504 C  
HETATM    8  C   UNL     1     -10.850  15.139  71.770  1.00  0.00     0.317 C  
ENDROOT
BRANCH   6   9
HETATM    9  O   UNL     1     -10.492  12.172  69.442  1.00  0.00     0.063 OA 
BRANCH   9  10
HETATM   10  C   UNL     1      -9.143  11.716  69.281  1.00  0.00     0.523 C  
HETATM   11  H   UNL     1      -5.541  10.090  66.716  1.00  0.00     0.000 HD 
HETATM   12  C   UNL     1      -9.147  10.443  68.390  1.00  0.00    -0.147 C  
HETATM   13  C   UNL     1      -8.225  12.780  68.661  1.00  0.00     0.012 C  
HETATM   14  C   UNL     1      -7.707  10.015  68.044  1.00  0.00    -0.089 C  
HETATM   15  O   UNL     1      -5.546  10.807  67.341  1.00  0.00    -0.043 OA 
HETATM   16  O   UNL     1      -6.909  12.277  68.443  1.00  0.00    -0.064 OA 
HETATM   17  C   UNL     1      -6.901  11.207  67.511  1.00  0.00    -0.086 C  
BRANCH  14  18
HETATM   18  O   UNL     1      -7.605   8.830  67.259  1.00  0.00    -0.088 OA 
HETATM   19  S   UNL     1      -6.607   7.600  67.606  1.00  0.00    -0.064 S  
HETATM   20  O   UNL     1      -5.274   8.128  67.770  1.00  0.00    -0.031 OA 
HETATM   21  O   UNL     1      -7.109   7.077  69.039  1.00  0.00    -0.079 OA 
HETATM   22  O   UNL     1      -6.902   6.538  66.672  1.00  0.00    -0.061 OA 
ENDBRANCH  14  18
BRANCH  12  23
HETATM   23  O   UNL     1      -9.930   9.375  68.944  1.00  0.00    -0.169 OA 
HETATM   24  S   UNL     1     -11.551   9.426  68.995  1.00  0.00     0.719 S  
HETATM   25  O   UNL     1     -11.938  10.426  69.963  1.00  0.00    -0.268 OA 
HETATM   26  O   UNL     1     -11.907   8.006  69.664  1.00  0.00     0.485 OA 
HETATM   27  O   UNL     1     -12.084   9.427  67.656  1.00  0.00     2.296 OA 
ENDBRANCH  12  23
ENDBRANCH   9  10
ENDBRANCH   6   9
BRANCH   7  28
HETATM   28  O   UNL     1      -8.862  14.344  70.663  1.00  0.00     1.959 OA 
HETATM   29  O   UNL     1      -7.873  14.501  68.383  1.00  0.00    -0.120 OA 
HETATM   30  O   UNL     1      -6.625  15.392  70.271  1.00  0.00    -0.088 OA 
HETATM   31  S   UNL     1      -8.074  15.280  69.583  1.00  0.00    -0.013 S  
HETATM   32  O   UNL     1      -8.664  16.596  69.582  1.00  0.00     0.174 OA 
ENDBRANCH   7  28
BRANCH   8  33
HETATM   33  O   UNL     1     -10.697  16.512  71.372  1.00  0.00     0.666 OA 
HETATM   34  S   UNL     1     -11.772  17.209  70.371  1.00  0.00     2.511 S  
HETATM   35  O   UNL     1     -11.423  16.886  69.010  1.00  0.00    -0.003 OA 
HETATM   36  O   UNL     1     -13.098  17.020  70.915  1.00  0.00     4.144 OA 
HETATM   37  O   UNL     1     -11.380  18.761  70.508  1.00  0.00     3.515 OA 
ENDBRANCH   8  33
TORSDOF 6
ENDMDL
MODEL      254
REMARK 921   NORMALIZED FREE ENERGY PREDICTED BY IDOCK:   25.89 KCAL/MOL
REMARK 922        TOTAL FREE ENERGY PREDICTED BY IDOCK:   32.88 KCAL/MOL
REMARK 923 INTER-LIGAND FREE ENERGY PREDICTED BY IDOCK:    3.25 KCAL/MOL
REMARK 924 INTRA-LIGAND FREE ENERGY PREDICTED BY IDOCK:   29.63 KCAL/MOL
REMARK 927      BINDING AFFINITY PREDICTED BY RF-SCORE:    0.00 PKD
ROOT
HETATM    1  O   UNL     1      -6.566   3.132  66.763  1.00  0.00    -0.036 OA 
HETATM    2  H   UNL     1      -6.935   2.646  67.490  1.00  0.00     0.000 HD 
HETATM    3  C   UNL     1      -7.386   4.270  66.515  1.00  0.00    -0.080 C  
HETATM    4  C   UNL     1      -6.795   5.047  65.352  1.00  0.00    -0.061 C  
HETATM    5  O   UNL     1      -7.580   6.183  65.061  1.00  0.00    -0.081 OA 
HETATM    6  C   UNL     1      -7.628   7.126  66.114  1.00  0.00    -0.092 C  
HETATM    7  C   UNL     1      -8.179   6.521  67.427  1.00  0.00    -0.121 C  
HETATM    8  C   UNL     1      -7.527   5.156  67.764  1.00  0.00    -0.079 C  
ENDROOT
BRANCH   6   9
HETATM    9  O   UNL     1      -8.495   8.193  65.716  1.00  0.00    -0.134 OA 
BRANCH   9  10
HETATM   10  C   UNL     1      -9.063   8.945  66.797  1.00  0.00    -0.143 C  
HETATM   11  H   UNL     1     -11.467  12.589  68.566  1.00  0.00     0.000 HD 
HETATM   12  C   UNL     1      -8.742  10.449  66.584  1.00  0.00    -0.135 C  
HETATM   13  C   UNL     1     -10.582   8.750  66.924  1.00  0.00    -0.193 C  
HETATM   14  C   UNL     1      -9.479  11.317  67.625  1.00  0.00    -0.167 C  
HETATM   15  O   UNL     1     -11.577  11.663  68.750  1.00  0.00    -0.258 OA 
HETATM   16  O   UNL     1     -11.131   9.565  67.957  1.00  0.00    -0.157 OA 
HETATM   17  C   UNL     1     -10.967  10.947  67.682  1.00  0.00    -0.293 C  
BRANCH  14  18
HETATM   18  O   UNL     1      -9.217  12.715  67.536  1.00  0.00    -0.177 OA 
HETATM   19  S   UNL     1      -9.049  13.686  68.822  1.00  0.00     0.157 S  
HETATM   20  O   UNL     1     -10.201  13.514  69.675  1.00  0.00     0.442 OA 
HETATM   21  O   UNL     1      -7.771  13.098  69.598  1.00  0.00     0.617 OA 
HETATM   22  O   UNL     1      -8.649  14.983  68.327  1.00  0.00    -0.147 OA 
ENDBRANCH  14  18
BRANCH  12  23
HETATM   23  O   UNL     1      -7.333  10.719  66.527  1.00  0.00    -0.125 OA 
HETATM   24  S   UNL     1      -6.738  12.228  66.552  1.00  0.00     0.948 S  
HETATM   25  O   UNL     1      -7.073  12.862  65.297  1.00  0.00     4.905 OA 
HETATM   26  O   UNL     1      -5.152  11.961  66.500  1.00  0.00    -0.305 OA 
HETATM   27  O   UNL     1      -7.037  12.853  67.814  1.00  0.00    -0.106 OA 
ENDBRANCH  12  23
ENDBRANCH   9  10
ENDBRANCH   6   9
BRANCH   7  28
HETATM   28  O   UNL     1      -7.926   7.407  68.531  1.00  0.00    -0.119 OA 
HETATM   29  O   UNL     1      -8.427   6.312  70.710  1.00  0.00    -0.131 OA 
HETATM   30  O   UNL     1      -6.811   8.129  70.651  1.00  0.00    -0.037 OA 
HETATM   31  S   UNL     1      -7.320   6.793  69.916  1.00  0.00    -0.091 S  
HETATM   32  O   UNL     1      -6.161   5.991  69.607  1.00  0.00    -0.027 OA 
ENDBRANCH   7  28
BRANCH   8  33
HETATM   33  O   UNL     1      -8.378   4.521  68.734  1.00  0.00    -0.080 OA 
HETATM   34  S   UNL     1      -9.360   5.405  69.680  1.00  0.00    -0.142 S  
HETATM   35  O   UNL     1      -8.610   5.890  70.812  1.00  0.00    -0.127 OA 
HETATM   36  O   UNL     1     -10.164   6.261  68.837  1.00  0.00    -0.156 OA 
HETATM   37  O   UNL     1     -10.308   4.270  70.308  1.00  0.00    -0.022 OA 
ENDBRANCH   8  33
TORSDOF 6
ENDMDL
MODEL      255
REMARK 921   NORMALIZED FREE ENERGY PREDICTED BY IDOCK:   26.99 KCAL/MOL
REMARK 922        TOTAL FREE ENERGY PREDICTED BY IDOCK:   34.36 KCAL/MOL
REMARK 923 INTER-LIGAND FREE ENERGY PREDICTED BY IDOCK:   -0.30 KCAL/MOL
REMARK 924 INTRA-LIGAND FREE ENERGY PREDICTED BY IDOCK:   34.66 KCAL/MOL
REMARK 927      BINDING AFFINITY PREDICTED BY RF-SCORE:    0.00 PKD
ROOT
HETATM    1  O   UNL     1     -11.615  13.288  65.649  1.00  0.00    -0.317 OA 
HETATM    2  H   UNL     1     -11.078  13.575  64.920  1.00  0.00     0.000 HD 
HETATM    3  C   UNL     1     -10.995  12.153  66.248  1.00  0.00    -0.295 C  
HETATM    4  C   UNL     1     -11.853  11.694  67.413  1.00  0.00    -0.091 C  
HETATM    5  O   UNL     1     -11.284  10.563  68.037  1.00  0.00    -0.289 OA 
HETATM    6  C   UNL     1     -10.019  10.810  68.620  1.00  0.00    -0.182 C  
HETATM    7  C   UNL     1      -8.985  11.329  67.592  1.00  0.00    -0.142 C  
HETATM    8  C   UNL     1      -9.558  12.459  66.701  1.00  0.00    -0.229 C  
ENDROOT
BRANCH   6   9
HETATM    9  O   UNL     1      -9.531   9.580  69.163  1.00  0.00    -0.153 OA 
BRANCH   9  10
HETATM   10  C   UNL     1      -8.399   9.026  68.480  1.00  0.00    -0.124 C  
HETATM   11  H   UNL     1      -6.228   5.655  66.006  1.00  0.00     0.000 HD 
HETATM   12  C   UNL     1      -8.245   7.536  68.891  1.00  0.00    -0.128 C  
HETATM   13  C   UNL     1      -8.516   9.133  66.951  1.00  0.00    -0.123 C  
HETATM   14  C   UNL     1      -7.149   6.848  68.052  1.00  0.00    -0.086 C  
HETATM   15  O   UNL     1      -6.261   6.589  65.831  1.00  0.00    -0.035 OA 
HETATM   16  O   UNL     1      -7.415   8.508  66.296  1.00  0.00    -0.087 OA 
HETATM   17  C   UNL     1      -7.366   7.115  66.557  1.00  0.00    -0.083 C  
BRANCH  14  18
HETATM   18  O   UNL     1      -6.906   5.484  68.384  1.00  0.00    -0.056 OA 
HETATM   19  S   UNL     1      -6.385   4.987  69.836  1.00  0.00    -0.031 S  
HETATM   20  O   UNL     1      -5.196   5.734  70.173  1.00  0.00    -0.008 OA 
HETATM   21  O   UNL     1      -7.549   5.432  70.848  1.00  0.00    -0.084 OA 
HETATM   22  O   UNL     1      -6.404   3.542  69.822  1.00  0.00    -0.027 OA 
ENDBRANCH  14  18
BRANCH  12  23
HETATM   23  O   UNL     1      -8.059   7.362  70.304  1.00  0.00    -0.112 OA 
HETATM   24  S   UNL     1      -8.467   5.991  71.069  1.00  0.00    -0.125 S  
HETATM   25  O   UNL     1      -9.909   5.899  71.085  1.00  0.00    -0.174 OA 
HETATM   26  O   UNL     1      -8.031   6.313  72.584  1.00  0.00    -0.105 OA 
HETATM   27  O   UNL     1      -7.648   4.904  70.598  1.00  0.00    -0.063 OA 
ENDBRANCH  12  23
ENDBRANCH   9  10
ENDBRANCH   6   9
BRANCH   7  28
HETATM   28  O   UNL     1      -7.828  11.853  68.268  1.00  0.00    -0.126 OA 
HETATM   29  O   UNL     1      -6.309  13.034  66.688  1.00  0.00     0.368 OA 
HETATM   30  O   UNL     1      -6.275  13.655  69.039  1.00  0.00    -0.086 OA 
HETATM   31  S   UNL     1      -7.213  13.285  67.787  1.00  0.00    -0.167 S  
HETATM   32  O   UNL     1      -8.276  14.259  67.730  1.00  0.00    -0.148 OA 
ENDBRANCH   7  28
BRANCH   8  33
HETATM   33  O   UNL     1      -8.688  12.566  65.561  1.00  0.00     0.565 OA 
HETATM   34  S   UNL     1      -8.055  11.237  64.874  1.00  0.00     0.766 S  
HETATM   35  O   UNL     1      -6.874  10.847  65.604  1.00  0.00    -0.070 OA 
HETATM   36  O   UNL     1      -9.131  10.323  64.561  1.00  0.00    -0.193 OA 
HETATM   37  O   UNL     1      -7.474  11.830  63.498  1.00  0.00     1.941 OA 
ENDBRANCH   8  33
TORSDOF 6
ENDMDL
MODEL      256
REMARK 921   NORMALIZED FREE ENERGY PREDICTED BY IDOCK:   27.56 KCAL/MOL
REMARK 922        TOTAL FREE ENERGY PREDICTED BY IDOCK:   35.13 KCAL/MOL
REMARK 923 INTER-LIGAND FREE ENERGY PREDICTED BY IDOCK:   18.97 KCAL/MOL
REMARK 924 INTRA-LIGAND FREE ENERGY PREDICTED BY IDOCK:   16.16 KCAL/MOL
REMARK 927      BINDING AFFINITY PREDICTED BY RF-SCORE:    0.00 PKD
ROOT
HETATM    1  O   UNL     1     -10.515   5.219  74.320  1.00  0.00    -0.268 OA 
HETATM    2  H   UNL     1     -10.237   4.352  74.591  1.00  0.00     0.000 HD 
HETATM    3  C   UNL     1      -9.855   5.546  73.100  1.00  0.00    -0.163 C  
HETATM    4  C   UNL     1     -10.301   6.931  72.668  1.00  0.00    -0.203 C  
HETATM    5  O   UNL     1      -9.666   7.306  71.464  1.00  0.00    -0.161 OA 
HETATM    6  C   UNL     1      -9.998   6.481  70.365  1.00  0.00    -0.179 C  
HETATM    7  C   UNL     1      -9.652   4.994  70.614  1.00  0.00    -0.184 C  
HETATM    8  C   UNL     1     -10.132   4.504  72.003  1.00  0.00    -0.196 C  
ENDROOT
BRANCH   6   9
HETATM    9  O   UNL     1      -9.251   6.929  69.230  1.00  0.00    -0.140 OA 
BRANCH   9  10
HETATM   10  C   UNL     1     -10.033   7.199  68.059  1.00  0.00    -0.158 C  
HETATM   11  H   UNL     1     -12.803   5.906  64.475  1.00  0.00     0.000 HD 
HETATM   12  C   UNL     1      -9.704   6.132  66.979  1.00  0.00    -0.142 C  
HETATM   13  C   UNL     1     -11.544   7.203  68.342  1.00  0.00     0.786 C  
HETATM   14  C   UNL     1     -10.646   6.274  65.767  1.00  0.00     1.225 C  
HETATM   15  O   UNL     1     -12.931   6.615  65.095  1.00  0.00     8.179 OA 
HETATM   16  O   UNL     1     -12.300   7.398  67.149  1.00  0.00     3.625 OA 
HETATM   17  C   UNL     1     -12.109   6.340  66.224  1.00  0.00     3.610 C  
BRANCH  14  18
HETATM   18  O   UNL     1     -10.397   5.360  64.702  1.00  0.00     0.981 OA 
HETATM   19  S   UNL     1      -8.921   4.823  64.300  1.00  0.00    -0.057 S  
HETATM   20  O   UNL     1      -8.059   5.964  64.104  1.00  0.00    -0.122 OA 
HETATM   21  O   UNL     1      -8.414   4.043  65.610  1.00  0.00    -0.108 OA 
HETATM   22  O   UNL     1      -9.099   3.813  63.283  1.00  0.00    -0.098 OA 
ENDBRANCH  14  18
BRANCH  12  23
HETATM   23  O   UNL     1      -8.316   6.118  66.611  1.00  0.00    -0.109 OA 
HETATM   24  S   UNL     1      -7.174   6.838  67.511  1.00  0.00    -0.092 S  
HETATM   25  O   UNL     1      -7.354   8.268  67.402  1.00  0.00    -0.089 OA 
HETATM   26  O   UNL     1      -5.837   6.500  66.683  1.00  0.00    -0.016 OA 
HETATM   27  O   UNL     1      -7.075   6.187  68.792  1.00  0.00    -0.076 OA 
ENDBRANCH  12  23
ENDBRANCH   9  10
ENDBRANCH   6   9
BRANCH   7  28
HETATM   28  O   UNL     1     -10.277   4.162  69.621  1.00  0.00     0.014 OA 
HETATM   29  O   UNL     1      -8.599   2.783  68.402  1.00  0.00    -0.069 OA 
HETATM   30  O   UNL     1     -10.894   1.990  68.543  1.00  0.00     3.251 OA 
HETATM   31  S   UNL     1      -9.681   2.666  69.353  1.00  0.00     0.343 S  
HETATM   32  O   UNL     1      -9.554   1.977  70.614  1.00  0.00    -0.123 OA 
ENDBRANCH   7  28
BRANCH   8  33
HETATM   33  O   UNL     1      -9.418   3.286  72.281  1.00  0.00    -0.109 OA 
HETATM   34  S   UNL     1      -7.917   3.056  71.702  1.00  0.00    -0.057 S  
HETATM   35  O   UNL     1      -8.005   2.571  70.347  1.00  0.00    -0.042 OA 
HETATM   36  O   UNL     1      -7.097   4.182  72.089  1.00  0.00    -0.051 OA 
HETATM   37  O   UNL     1      -7.444   1.768  72.538  1.00  0.00    -0.033 OA 
ENDBRANCH   8  33
TORSDOF 6
ENDMDL
MODEL      257
REMARK 921   NORMALIZED FREE ENERGY PREDICTED BY IDOCK:   28.36 KCAL/MOL
REMARK 922        TOTAL FREE ENERGY PREDICTED BY IDOCK:   36.21 KCAL/MOL
REMARK 923 INTER-LIGAND FREE ENERGY PREDICTED BY IDOCK:   27.13 KCAL/MOL
REMARK 924 INTRA-LIGAND FREE ENERGY PREDICTED BY IDOCK:    9.08 KCAL/MOL
REMARK 927      BINDING AFFINITY PREDICTED BY RF-SCORE:    0.00 PKD
ROOT
HETATM    1  O   UNL     1     -12.047  11.326  63.285  1.00  0.00    -0.749 OA 
HETATM    2  H   UNL     1     -11.281  11.116  62.765  1.00  0.00     0.000 HD 
HETATM    3  C   UNL     1     -12.032  10.519  64.460  1.00  0.00     3.521 C  
HETATM    4  C   UNL     1     -13.258  10.856  65.291  1.00  0.00     7.553 C  
HETATM    5  O   UNL     1     -13.293  10.074  66.465  1.00  0.00    12.431 OA 
HETATM    6  C   UNL     1     -12.209  10.312  67.341  1.00  0.00     3.468 C  
HETATM    7  C   UNL     1     -10.838  10.056  66.670  1.00  0.00     0.012 C  
HETATM    8  C   UNL     1     -10.739  10.710  65.269  1.00  0.00    -0.030 C  
ENDROOT
BRANCH   6   9
HETATM    9  O   UNL     1     -12.333   9.422  68.455  1.00  0.00     1.987 OA 
BRANCH   9  10
HETATM   10  C   UNL     1     -11.122   8.753  68.831  1.00  0.00     0.231 C  
HETATM   11  H   UNL     1      -8.724   5.184  70.755  1.00  0.00     0.000 HD 
HETATM   12  C   UNL     1     -11.275   8.217  70.281  1.00  0.00    -0.182 C  
HETATM   13  C   UNL     1     -10.763   7.597  67.885  1.00  0.00    -0.108 C  
HETATM   14  C   UNL     1     -10.067   7.339  70.668  1.00  0.00    -0.194 C  
HETATM   15  O   UNL     1      -8.592   5.597  69.909  1.00  0.00    -0.121 OA 
HETATM   16  O   UNL     1      -9.598   6.903  68.323  1.00  0.00    -0.130 OA 
HETATM   17  C   UNL     1      -9.794   6.287  69.586  1.00  0.00    -0.163 C  
BRANCH  14  18
HETATM   18  O   UNL     1     -10.097   6.830  71.999  1.00  0.00    -0.183 OA 
HETATM   19  S   UNL     1     -11.297   5.914  72.589  1.00  0.00    -0.270 S  
HETATM   20  O   UNL     1     -12.547   6.598  72.358  1.00  0.00    -0.074 OA 
HETATM   21  O   UNL     1     -11.279   4.598  71.668  1.00  0.00     0.357 OA 
HETATM   22  O   UNL     1     -10.892   5.480  73.906  1.00  0.00    -0.268 OA 
ENDBRANCH  14  18
BRANCH  12  23
HETATM   23  O   UNL     1     -11.542   9.255  71.236  1.00  0.00    -0.293 OA 
HETATM   24  S   UNL     1     -12.402  10.578  70.860  1.00  0.00    -0.427 S  
HETATM   25  O   UNL     1     -11.610  11.387  69.963  1.00  0.00    -0.298 OA 
HETATM   26  O   UNL     1     -12.424  11.369  72.261  1.00  0.00     0.342 OA 
HETATM   27  O   UNL     1     -13.758  10.208  70.543  1.00  0.00     0.012 OA 
ENDBRANCH  12  23
ENDBRANCH   9  10
ENDBRANCH   6   9
BRANCH   7  28
HETATM   28  O   UNL     1      -9.778  10.597  67.477  1.00  0.00    -0.163 OA 
HETATM   29  O   UNL     1      -8.538   8.799  68.673  1.00  0.00    -0.131 OA 
HETATM   30  O   UNL     1      -7.400  10.895  68.195  1.00  0.00    -0.084 OA 
HETATM   31  S   UNL     1      -8.381   9.764  67.609  1.00  0.00    -0.114 S  
HETATM   32  O   UNL     1      -7.914   9.417  66.289  1.00  0.00    -0.109 OA 
ENDBRANCH   7  28
BRANCH   8  33
HETATM   33  O   UNL     1      -9.633  10.083  64.598  1.00  0.00    -0.289 OA 
HETATM   34  S   UNL     1      -8.631  10.954  63.661  1.00  0.00     0.110 S  
HETATM   35  O   UNL     1      -9.213  11.089  62.348  1.00  0.00    -0.302 OA 
HETATM   36  O   UNL     1      -8.141  12.076  64.429  1.00  0.00     1.910 OA 
HETATM   37  O   UNL     1      -7.421   9.921  63.437  1.00  0.00    -0.124 OA 
ENDBRANCH   8  33
TORSDOF 6
ENDMDL
MODEL      258
REMARK 921   NORMALIZED FREE ENERGY PREDICTED BY IDOCK:   41.41 KCAL/MOL
REMARK 922        TOTAL FREE ENERGY PREDICTED BY IDOCK:   53.83 KCAL/MOL
REMARK 923 INTER-LIGAND FREE ENERGY PREDICTED BY IDOCK:   22.59 KCAL/MOL
REMARK 924 INTRA-LIGAND FREE ENERGY PREDICTED BY IDOCK:   31.24 KCAL/MOL
REMARK 927      BINDING AFFINITY PREDICTED BY RF-SCORE:    0.00 PKD
ROOT
HETATM    1  O   UNL     1      -7.568  11.486  65.025  1.00  0.00     0.284 OA 
HETATM    2  H   UNL     1      -7.403  11.004  65.826  1.00  0.00     0.000 HD 
HETATM    3  C   UNL     1      -8.295  12.668  65.350  1.00  0.00     2.095 C  
HETATM    4  C   UNL     1      -8.558  13.439  64.069  1.00  0.00     6.408 C  
HETATM    5  O   UNL     1      -9.287  14.618  64.337  1.00  0.00     1.373 OA 
HETATM    6  C   UNL     1      -8.596  15.540  65.157  1.00  0.00     3.110 C  
HETATM    7  C   UNL     1      -8.197  14.934  66.524  1.00  0.00     0.227 C  
HETATM    8  C   UNL     1      -7.551  13.533  66.379  1.00  0.00     1.773 C  
ENDROOT
BRANCH   6   9
HETATM    9  O   UNL     1      -9.460  16.655  65.398  1.00  0.00    -0.413 OA 
BRANCH   9  10
HETATM   10  C   UNL     1      -9.956  16.755  66.739  1.00  0.00    -0.282 C  
HETATM   11  H   UNL     1     -10.684  19.059  70.783  1.00  0.00     0.000 HD 
HETATM   12  C   UNL     1      -8.870  17.422  67.628  1.00  0.00    -0.225 C  
HETATM   13  C   UNL     1     -11.265  17.555  66.831  1.00  0.00     0.552 C  
HETATM   14  C   UNL     1      -9.421  17.711  69.039  1.00  0.00    -0.099 C  
HETATM   15  O   UNL     1     -11.307  18.563  70.266  1.00  0.00     3.108 OA 
HETATM   16  O   UNL     1     -11.696  17.703  68.182  1.00  0.00     0.735 OA 
HETATM   17  C   UNL     1     -10.766  18.444  68.955  1.00  0.00     0.443 C  
BRANCH  14  18
HETATM   18  O   UNL     1      -8.484  18.289  69.943  1.00  0.00     1.041 OA 
HETATM   19  S   UNL     1      -8.232  19.884  70.085  1.00  0.00     1.428 S  
HETATM   20  O   UNL     1      -7.957  20.420  68.774  1.00  0.00     0.163 OA 
HETATM   21  O   UNL     1      -9.650  20.466  70.567  1.00  0.00     0.761 OA 
HETATM   22  O   UNL     1      -7.328  20.074  71.196  1.00  0.00     0.519 OA 
ENDBRANCH  14  18
BRANCH  12  23
HETATM   23  O   UNL     1      -7.636  16.688  67.648  1.00  0.00    -0.146 OA 
HETATM   24  S   UNL     1      -6.893  16.280  69.032  1.00  0.00    -0.193 S  
HETATM   25  O   UNL     1      -6.372  17.486  69.632  1.00  0.00    -0.248 OA 
HETATM   26  O   UNL     1      -5.612  15.468  68.494  1.00  0.00    -0.093 OA 
HETATM   27  O   UNL     1      -7.715  15.362  69.777  1.00  0.00    -0.195 OA 
ENDBRANCH  12  23
ENDBRANCH   9  10
ENDBRANCH   6   9
BRANCH   7  28
HETATM   28  O   UNL     1      -7.246  15.784  67.189  1.00  0.00    -0.201 OA 
HETATM   29  O   UNL     1      -5.265  16.234  65.749  1.00  0.00     1.357 OA 
HETATM   30  O   UNL     1      -5.855  17.844  67.473  1.00  0.00    -0.144 OA 
HETATM   31  S   UNL     1      -6.424  16.888  66.312  1.00  0.00     0.295 S  
HETATM   32  O   UNL     1      -7.358  17.656  65.527  1.00  0.00    -0.425 OA 
ENDBRANCH   7  28
BRANCH   8  33
HETATM   33  O   UNL     1      -7.603  12.919  67.679  1.00  0.00    -0.129 OA 
HETATM   34  S   UNL     1      -6.433  11.900  68.160  1.00  0.00    -0.057 S  
HETATM   35  O   UNL     1      -6.714  10.583  67.644  1.00  0.00    -0.071 OA 
HETATM   36  O   UNL     1      -5.155  12.557  68.001  1.00  0.00    -0.063 OA 
HETATM   37  O   UNL     1      -6.747  11.769  69.731  1.00  0.00    -0.093 OA 
ENDBRANCH   8  33
TORSDOF 6
ENDMDL
MODEL      259
REMARK 921   NORMALIZED FREE ENERGY PREDICTED BY IDOCK:   43.62 KCAL/MOL
REMARK 922        TOTAL FREE ENERGY PREDICTED BY IDOCK:   56.81 KCAL/MOL
REMARK 923 INTER-LIGAND FREE ENERGY PREDICTED BY IDOCK:   14.64 KCAL/MOL
REMARK 924 INTRA-LIGAND FREE ENERGY PREDICTED BY IDOCK:   42.18 KCAL/MOL
REMARK 927      BINDING AFFINITY PREDICTED BY RF-SCORE:    0.00 PKD
ROOT
HETATM    1  O   UNL     1     -11.504  12.499  65.780  1.00  0.00    -0.328 OA 
HETATM    2  H   UNL     1     -10.834  12.853  65.208  1.00  0.00     0.000 HD 
HETATM    3  C   UNL     1     -11.175  11.145  66.081  1.00  0.00     0.011 C  
HETATM    4  C   UNL     1     -12.246  10.581  66.996  1.00  0.00     3.399 C  
HETATM    5  O   UNL     1     -11.969   9.234  67.317  1.00  0.00     2.375 OA 
HETATM    6  C   UNL     1     -10.769   9.058  68.045  1.00  0.00    -0.125 C  
HETATM    7  C   UNL     1      -9.534   9.608  67.292  1.00  0.00    -0.143 C  
HETATM    8  C   UNL     1      -9.779  11.024  66.715  1.00  0.00    -0.193 C  
ENDROOT
BRANCH   6   9
HETATM    9  O   UNL     1     -10.577   7.656  68.254  1.00  0.00    -0.190 OA 
BRANCH   9  10
HETATM   10  C   UNL     1      -9.242   7.188  68.019  1.00  0.00    -0.130 C  
HETATM   11  H   UNL     1      -5.808   5.515  65.262  1.00  0.00     0.000 HD 
HETATM   12  C   UNL     1      -9.308   5.908  67.140  1.00  0.00    -0.116 C  
HETATM   13  C   UNL     1      -8.354   8.241  67.338  1.00  0.00    -0.125 C  
HETATM   14  C   UNL     1      -7.893   5.466  66.714  1.00  0.00    -0.101 C  
HETATM   15  O   UNL     1      -5.772   6.236  65.880  1.00  0.00    -0.022 OA 
HETATM   16  O   UNL     1      -7.057   7.725  67.048  1.00  0.00    -0.080 OA 
HETATM   17  C   UNL     1      -7.112   6.648  66.125  1.00  0.00    -0.063 C  
BRANCH  14  18
HETATM   18  O   UNL     1      -7.846   4.275  65.933  1.00  0.00    -0.093 OA 
HETATM   19  S   UNL     1      -9.118   3.668  65.133  1.00  0.00    -0.151 S  
HETATM   20  O   UNL     1     -10.218   3.537  66.059  1.00  0.00     0.181 OA 
HETATM   21  O   UNL     1      -9.502   4.813  64.074  1.00  0.00    -0.023 OA 
HETATM   22  O   UNL     1      -8.636   2.553  64.352  1.00  0.00    -0.089 OA 
ENDBRANCH  14  18
BRANCH  12  23
HETATM   23  O   UNL     1     -10.066   4.851  67.747  1.00  0.00    -0.153 OA 
HETATM   24  S   UNL     1     -10.488   3.512  66.934  1.00  0.00     2.224 S  
HETATM   25  O   UNL     1     -11.484   3.878  65.953  1.00  0.00     2.032 OA 
HETATM   26  O   UNL     1     -11.272   2.672  68.061  1.00  0.00     6.444 OA 
HETATM   27  O   UNL     1      -9.310   2.766  66.570  1.00  0.00    -0.120 OA 
ENDBRANCH  12  23
ENDBRANCH   9  10
ENDBRANCH   6   9
BRANCH   7  28
HETATM   28  O   UNL     1      -8.404   9.690  68.179  1.00  0.00    -0.116 OA 
HETATM   29  O   UNL     1      -8.774  11.380  69.969  1.00  0.00     1.326 OA 
HETATM   30  O   UNL     1      -7.238   9.542  70.387  1.00  0.00    -0.096 OA 
HETATM   31  S   UNL     1      -8.663   9.954  69.768  1.00  0.00    -0.193 S  
HETATM   32  O   UNL     1      -9.642   9.009  70.248  1.00  0.00    -0.174 OA 
ENDBRANCH   7  28
BRANCH   8  33
HETATM   33  O   UNL     1      -8.760  11.249  65.725  1.00  0.00    -0.181 OA 
HETATM   34  S   UNL     1      -7.928  10.003  65.096  1.00  0.00    -0.149 S  
HETATM   35  O   UNL     1      -6.842   9.667  65.984  1.00  0.00    -0.084 OA 
HETATM   36  O   UNL     1      -8.869   9.028  64.591  1.00  0.00    -0.175 OA 
HETATM   37  O   UNL     1      -7.198  10.702  63.847  1.00  0.00     0.057 OA 
ENDBRANCH   8  33
TORSDOF 6
ENDMDL
MODEL      260
REMARK 921   NORMALIZED FREE ENERGY PREDICTED BY IDOCK:   48.06 KCAL/MOL
REMARK 922        TOTAL FREE ENERGY PREDICTED BY IDOCK:   62.82 KCAL/MOL
REMARK 923 INTER-LIGAND FREE ENERGY PREDICTED BY IDOCK:   -2.53 KCAL/MOL
REMARK 924 INTRA-LIGAND FREE ENERGY PREDICTED BY IDOCK:   65.35 KCAL/MOL
REMARK 927      BINDING AFFINITY PREDICTED BY RF-SCORE:    0.00 PKD
ROOT
HETATM    1  O   UNL     1     -10.532   5.289  74.391  1.00  0.00    -0.275 OA 
HETATM    2  H   UNL     1     -10.075   4.469  74.247  1.00  0.00     0.000 HD 
HETATM    3  C   UNL     1      -9.954   6.284  73.550  1.00  0.00    -0.193 C  
HETATM    4  C   UNL     1     -10.685   7.594  73.781  1.00  0.00     0.308 C  
HETATM    5  O   UNL     1     -10.141   8.617  72.975  1.00  0.00    -0.022 OA 
HETATM    6  C   UNL     1     -10.284   8.385  71.587  1.00  0.00    -0.241 C  
HETATM    7  C   UNL     1      -9.626   7.058  71.138  1.00  0.00    -0.165 C  
HETATM    8  C   UNL     1      -9.994   5.875  72.069  1.00  0.00    -0.175 C  
ENDROOT
BRANCH   6   9
HETATM    9  O   UNL     1      -9.646   9.458  70.888  1.00  0.00    -0.267 OA 
BRANCH   9  10
HETATM   10  C   UNL     1      -9.655   9.337  69.459  1.00  0.00    -0.173 C  
HETATM   11  H   UNL     1      -9.812   6.855  65.458  1.00  0.00     0.000 HD 
HETATM   12  C   UNL     1      -8.687   8.195  69.045  1.00  0.00    -0.144 C  
HETATM   13  C   UNL     1     -11.057   9.060  68.895  1.00  0.00     0.164 C  
HETATM   14  C   UNL     1      -8.794   7.910  67.534  1.00  0.00    -0.128 C  
HETATM   15  O   UNL     1     -10.325   7.617  65.702  1.00  0.00     1.231 OA 
HETATM   16  O   UNL     1     -11.027   8.870  67.482  1.00  0.00    -0.134 OA 
HETATM   17  C   UNL     1     -10.260   7.733  67.119  1.00  0.00    -0.295 C  
BRANCH  14  18
HETATM   18  O   UNL     1      -7.913   6.900  67.049  1.00  0.00    -0.112 OA 
HETATM   19  S   UNL     1      -6.810   7.146  65.887  1.00  0.00    -0.058 S  
HETATM   20  O   UNL     1      -7.475   7.726  64.745  1.00  0.00    -0.080 OA 
HETATM   21  O   UNL     1      -5.828   8.258  66.502  1.00  0.00    -0.042 OA 
HETATM   22  O   UNL     1      -6.024   5.938  65.785  1.00  0.00    -0.026 OA 
ENDBRANCH  14  18
BRANCH  12  23
HETATM   23  O   UNL     1      -7.337   8.422  69.479  1.00  0.00    -0.069 OA 
HETATM   24  S   UNL     1      -6.965   9.514  70.619  1.00  0.00    -0.103 S  
HETATM   25  O   UNL     1      -7.178  10.831  70.065  1.00  0.00    -0.121 OA 
HETATM   26  O   UNL     1      -5.370   9.340  70.738  1.00  0.00    -0.027 OA 
HETATM   27  O   UNL     1      -7.545   9.124  71.879  1.00  0.00    -0.340 OA 
ENDBRANCH  12  23
ENDBRANCH   9  10
ENDBRANCH   6   9
BRANCH   7  28
HETATM   28  O   UNL     1     -10.053   6.713  69.809  1.00  0.00    -0.177 OA 
HETATM   29  O   UNL     1      -8.595   7.760  68.084  1.00  0.00    -0.123 OA 
HETATM   30  O   UNL     1      -9.791   5.717  67.529  1.00  0.00    -0.117 OA 
HETATM   31  S   UNL     1      -8.926   6.474  68.653  1.00  0.00    -0.125 S  
HETATM   32  O   UNL     1      -7.936   5.548  69.145  1.00  0.00    -0.092 OA 
ENDBRANCH   7  28
BRANCH   8  33
HETATM   33  O   UNL     1      -9.037   4.834  71.812  1.00  0.00    -0.131 OA 
HETATM   34  S   UNL     1      -7.667   5.151  70.997  1.00  0.00    -0.098 S  
HETATM   35  O   UNL     1      -7.939   5.104  69.582  1.00  0.00    -0.077 OA 
HETATM   36  O   UNL     1      -6.996   6.261  71.638  1.00  0.00    -0.072 OA 
HETATM   37  O   UNL     1      -6.815   3.816  71.267  1.00  0.00    -0.030 OA 
ENDBRANCH   8  33
TORSDOF 6
ENDMDL
MODEL      261
REMARK 921   NORMALIZED FREE ENERGY PREDICTED BY IDOCK:   49.12 KCAL/MOL
REMARK 922        TOTAL FREE ENERGY PREDICTED BY IDOCK:   64.25 KCAL/MOL
REMARK 923 INTER-LIGAND FREE ENERGY PREDICTED BY IDOCK:   38.69 KCAL/MOL
REMARK 924 INTRA-LIGAND FREE ENERGY PREDICTED BY IDOCK:   25.56 KCAL/MOL
REMARK 927      BINDING AFFINITY PREDICTED BY RF-SCORE:    0.00 PKD
ROOT
HETATM    1  O   UNL     1      -8.859  20.100  65.899  1.00  0.00    -0.550 OA 
HETATM    2  H   UNL     1      -9.711  20.004  66.305  1.00  0.00     0.000 HD 
HETATM    3  C   UNL     1      -7.988  19.105  66.431  1.00  0.00    -0.294 C  
HETATM    4  C   UNL     1      -6.625  19.260  65.781  1.00  0.00    -0.244 C  
HETATM    5  O   UNL     1      -5.722  18.299  66.283  1.00  0.00    -0.146 OA 
HETATM    6  C   UNL     1      -6.090  16.964  65.993  1.00  0.00     0.638 C  
HETATM    7  C   UNL     1      -7.489  16.603  66.548  1.00  0.00    -0.271 C  
HETATM    8  C   UNL     1      -8.547  17.688  66.226  1.00  0.00    -0.189 C  
ENDROOT
BRANCH   6   9
HETATM    9  O   UNL     1      -5.130  16.095  66.602  1.00  0.00    -0.260 OA 
BRANCH   9  10
HETATM   10  C   UNL     1      -5.671  14.882  67.142  1.00  0.00     0.767 C  
HETATM   11  H   UNL     1      -9.237  12.048  68.343  1.00  0.00     0.000 HD 
HETATM   12  C   UNL     1      -6.850  15.236  68.089  1.00  0.00    -0.129 C  
HETATM   13  C   UNL     1      -6.153  13.910  66.054  1.00  0.00     6.557 C  
HETATM   14  C   UNL     1      -7.577  13.959  68.558  1.00  0.00    -0.134 C  
HETATM   15  O   UNL     1      -8.456  11.836  67.845  1.00  0.00    -0.140 OA 
HETATM   16  O   UNL     1      -6.754  12.747  66.618  1.00  0.00     0.239 OA 
HETATM   17  C   UNL     1      -7.920  13.063  67.361  1.00  0.00    -0.172 C  
BRANCH  14  18
HETATM   18  O   UNL     1      -8.654  14.179  69.464  1.00  0.00     0.366 OA 
HETATM   19  S   UNL     1     -10.120  13.508  69.304  1.00  0.00     0.497 S  
HETATM   20  O   UNL     1     -10.608  13.791  67.975  1.00  0.00    -0.242 OA 
HETATM   21  O   UNL     1      -9.845  11.928  69.401  1.00  0.00     0.307 OA 
HETATM   22  O   UNL     1     -10.876  13.851  70.487  1.00  0.00     0.523 OA 
ENDBRANCH  14  18
BRANCH  12  23
HETATM   23  O   UNL     1      -6.458  16.088  69.176  1.00  0.00    -0.137 OA 
HETATM   24  S   UNL     1      -7.498  16.553  70.331  1.00  0.00     2.401 S  
HETATM   25  O   UNL     1      -8.442  17.473  69.740  1.00  0.00     0.786 OA 
HETATM   26  O   UNL     1      -6.558  17.442  71.287  1.00  0.00     2.303 OA 
HETATM   27  O   UNL     1      -7.936  15.407  71.088  1.00  0.00     2.117 OA 
ENDBRANCH  12  23
ENDBRANCH   9  10
ENDBRANCH   6   9
BRANCH   7  28
HETATM   28  O   UNL     1      -7.948  15.365  65.976  1.00  0.00     0.553 OA 
HETATM   29  O   UNL     1     -10.200  15.619  64.946  1.00  0.00    -0.418 OA 
HETATM   30  O   UNL     1      -8.722  13.871  64.126  1.00  0.00     4.287 OA 
HETATM   31  S   UNL     1      -8.815  15.406  64.595  1.00  0.00     6.192 S  
HETATM   32  O   UNL     1      -8.113  16.207  63.622  1.00  0.00    13.312 OA 
ENDBRANCH   7  28
BRANCH   8  33
HETATM   33  O   UNL     1      -9.658  17.456  67.109  1.00  0.00    -0.253 OA 
HETATM   34  S   UNL     1      -9.810  18.304  68.487  1.00  0.00    -0.393 S  
HETATM   35  O   UNL     1      -9.004  17.686  69.511  1.00  0.00     0.323 OA 
HETATM   36  O   UNL     1      -9.745  19.713  68.171  1.00  0.00    -0.359 OA 
HETATM   37  O   UNL     1     -11.316  17.947  68.920  1.00  0.00     0.857 OA 
ENDBRANCH   8  33
TORSDOF 6
ENDMDL
MODEL      262
REMARK 921   NORMALIZED FREE ENERGY PREDICTED BY IDOCK:   81.76 KCAL/MOL
REMARK 922        TOTAL FREE ENERGY PREDICTED BY IDOCK:  108.34 KCAL/MOL
REMARK 923 INTER-LIGAND FREE ENERGY PREDICTED BY IDOCK:   44.05 KCAL/MOL
REMARK 924 INTRA-LIGAND FREE ENERGY PREDICTED BY IDOCK:   64.29 KCAL/MOL
REMARK 927      BINDING AFFINITY PREDICTED BY RF-SCORE:    0.00 PKD
ROOT
HETATM    1  O   UNL     1     -11.437  18.416  73.493  1.00  0.00     0.578 OA 
HETATM    2  H   UNL     1     -11.842  19.133  73.020  1.00  0.00     0.000 HD 
HETATM    3  C   UNL     1     -11.594  17.224  72.727  1.00  0.00     1.033 C  
HETATM    4  C   UNL     1     -10.947  16.077  73.484  1.00  0.00     2.576 C  
HETATM    5  O   UNL     1     -11.085  14.868  72.768  1.00  0.00     0.114 OA 
HETATM    6  C   UNL     1     -10.425  14.869  71.517  1.00  0.00     1.248 C  
HETATM    7  C   UNL     1     -10.921  16.003  70.588  1.00  0.00    -0.253 C  
HETATM    8  C   UNL     1     -11.001  17.367  71.316  1.00  0.00     1.724 C  
ENDROOT
BRANCH   6   9
HETATM    9  O   UNL     1     -10.689  13.618  70.874  1.00  0.00     1.772 OA 
BRANCH   9  10
HETATM   10  C   UNL     1      -9.809  13.300  69.788  1.00  0.00     1.693 C  
HETATM   11  H   UNL     1      -8.664  10.963  65.861  1.00  0.00     0.000 HD 
HETATM   12  C   UNL     1      -9.762  11.757  69.615  1.00  0.00     1.179 C  
HETATM   13  C   UNL     1     -10.234  13.958  68.466  1.00  0.00    -0.240 C  
HETATM   14  C   UNL     1      -8.968  11.373  68.350  1.00  0.00    -0.172 C  
HETATM   15  O   UNL     1      -8.614  11.897  66.029  1.00  0.00    -0.038 OA 
HETATM   16  O   UNL     1      -9.387  13.567  67.389  1.00  0.00    -0.211 OA 
HETATM   17  C   UNL     1      -9.463  12.172  67.138  1.00  0.00    -0.190 C  
BRANCH  14  18
HETATM   18  O   UNL     1      -8.836   9.972  68.126  1.00  0.00    -0.121 OA 
HETATM   19  S   UNL     1      -9.525   8.840  69.058  1.00  0.00    -0.161 S  
HETATM   20  O   UNL     1      -9.158   9.095  70.431  1.00  0.00    -0.192 OA 
HETATM   21  O   UNL     1     -11.101   9.111  68.911  1.00  0.00    -0.047 OA 
HETATM   22  O   UNL     1      -9.283   7.564  68.425  1.00  0.00    -0.140 OA 
ENDBRANCH  14  18
BRANCH  12  23
HETATM   23  O   UNL     1      -9.303  11.076  70.793  1.00  0.00     2.401 OA 
HETATM   24  S   UNL     1      -9.964   9.684  71.301  1.00  0.00     0.376 S  
HETATM   25  O   UNL     1     -11.292   9.972  71.791  1.00  0.00    -0.112 OA 
HETATM   26  O   UNL     1      -9.078   9.352  72.603  1.00  0.00     0.594 OA 
HETATM   27  O   UNL     1      -9.727   8.645  70.332  1.00  0.00    -0.167 OA 
ENDBRANCH  12  23
ENDBRANCH   9  10
ENDBRANCH   6   9
BRANCH   7  28
HETATM   28  O   UNL     1     -10.028  16.159  69.471  1.00  0.00    -0.250 OA 
HETATM   29  O   UNL     1      -9.196  13.958  68.655  1.00  0.00    -0.179 OA 
HETATM   30  O   UNL     1      -9.272  15.833  67.109  1.00  0.00    -0.202 OA 
HETATM   31  S   UNL     1     -10.059  15.052  68.272  1.00  0.00    -0.226 S  
HETATM   32  O   UNL     1     -11.422  14.869  67.836  1.00  0.00    -0.318 OA 
ENDBRANCH   7  28
BRANCH   8  33
HETATM   33  O   UNL     1     -11.833  18.218  70.509  1.00  0.00     5.186 OA 
HETATM   34  S   UNL     1     -12.781  17.589  69.349  1.00  0.00     8.869 S  
HETATM   35  O   UNL     1     -11.998  17.400  68.153  1.00  0.00     1.033 OA 
HETATM   36  O   UNL     1     -13.597  16.549  69.934  1.00  0.00     2.560 OA 
HETATM   37  O   UNL     1     -13.726  18.839  68.992  1.00  0.00    14.330 OA 
ENDBRANCH   8  33
TORSDOF 6
ENDMDL
