MODEL        1
REMARK 921   NORMALIZED FREE ENERGY PREDICTED BY IDOCK:   -5.81 KCAL/MOL
REMARK 922        TOTAL FREE ENERGY PREDICTED BY IDOCK:  -10.37 KCAL/MOL
REMARK 923 INTER-LIGAND FREE ENERGY PREDICTED BY IDOCK:   -9.55 KCAL/MOL
REMARK 924 INTRA-LIGAND FREE ENERGY PREDICTED BY IDOCK:   -0.82 KCAL/MOL
REMARK 927      BINDING AFFINITY PREDICTED BY RF-SCORE:    0.00 PKD
ROOT
HETATM    1  C   UNL     1     -10.360  12.159  63.547  1.00  0.00    -0.473 C  
HETATM    2  C   UNL     1     -11.728  12.826  63.673  1.00  0.00    -0.519 C  
ENDROOT
BRANCH   2   3
HETATM    3  N   UNL     1     -11.790  13.918  64.662  1.00  0.00    -0.387 NA 
BRANCH   3   4
HETATM    4  C   UNL     1     -12.349  13.513  65.961  1.00  0.00    -0.433 C  
HETATM    5  C   UNL     1     -11.638  12.370  66.676  1.00  0.00    -0.447 C  
ENDBRANCH   3   4
BRANCH   3   6
HETATM    6  C   UNL     1     -10.466  14.574  64.760  1.00  0.00    -0.337 C  
BRANCH   6   7
HETATM    7  C   UNL     1     -10.291  15.516  65.961  1.00  0.00    -0.326 C  
BRANCH   7   8
HETATM    8  O   UNL     1      -8.964  15.394  66.493  1.00  0.00    -0.264 OA 
BRANCH   8   9
HETATM    9  C   UNL     1      -9.009  14.988  67.863  1.00  0.00    -0.175 C  
BRANCH   9  10
HETATM   10  C   UNL     1      -9.801  15.996  68.692  1.00  0.00    -0.218 C  
BRANCH  10  11
HETATM   11  O   UNL     1     -10.415  15.369  69.834  1.00  0.00    -0.276 OA 
BRANCH  11  12
HETATM   12  C   UNL     1     -11.761  15.161  69.732  1.00  0.00    -0.319 C  
HETATM   13  O   UNL     1     -12.409  15.399  68.718  1.00  0.00    -0.117 OA 
BRANCH  12  14
HETATM   14  C   UNL     1     -12.382  14.664  71.052  1.00  0.00    -0.403 C  
HETATM   15  C   UNL     1     -13.775  15.292  71.337  1.00  0.00    -0.602 C  
HETATM   16  C   UNL     1     -11.532  15.293  72.187  1.00  0.00    -0.499 C  
HETATM   17  C   UNL     1     -12.450  15.352  73.393  1.00  0.00    -0.633 C  
HETATM   18  C   UNL     1     -13.798  15.725  72.808  1.00  0.00    -0.600 C  
BRANCH  14  19
HETATM   19  C   UNL     1     -12.462  13.125  71.040  1.00  0.00    -0.406 A  
HETATM   20  C   UNL     1     -11.903  10.930  70.122  1.00  0.00    -0.438 A  
HETATM   21  C   UNL     1     -12.723  10.305  71.056  1.00  0.00    -0.491 A  
HETATM   22  C   UNL     1     -11.778  12.323  70.112  1.00  0.00    -0.280 A  
HETATM   23  C   UNL     1     -13.408  11.072  71.988  1.00  0.00    -0.393 A  
HETATM   24  C   UNL     1     -13.272  12.465  71.986  1.00  0.00    -0.514 A  
ENDBRANCH  14  19
ENDBRANCH  12  14
ENDBRANCH  11  12
ENDBRANCH  10  11
ENDBRANCH   9  10
ENDBRANCH   8   9
ENDBRANCH   7   8
ENDBRANCH   6   7
ENDBRANCH   3   6
ENDBRANCH   2   3
TORSDOF 11
ENDMDL
MODEL        2
REMARK 921   NORMALIZED FREE ENERGY PREDICTED BY IDOCK:   -5.71 KCAL/MOL
REMARK 922        TOTAL FREE ENERGY PREDICTED BY IDOCK:  -10.20 KCAL/MOL
REMARK 923 INTER-LIGAND FREE ENERGY PREDICTED BY IDOCK:   -8.81 KCAL/MOL
REMARK 924 INTRA-LIGAND FREE ENERGY PREDICTED BY IDOCK:   -1.40 KCAL/MOL
REMARK 927      BINDING AFFINITY PREDICTED BY RF-SCORE:    0.00 PKD
ROOT
HETATM    1  C   UNL     1     -12.603  16.302  74.030  1.00  0.00    -0.633 C  
HETATM    2  C   UNL     1     -13.648  15.879  73.000  1.00  0.00    -0.536 C  
ENDROOT
BRANCH   2   3
HETATM    3  N   UNL     1     -13.126  15.699  71.633  1.00  0.00    -0.476 NA 
BRANCH   3   4
HETATM    4  C   UNL     1     -11.690  15.989  71.502  1.00  0.00    -0.484 C  
HETATM    5  C   UNL     1     -11.134  16.031  70.084  1.00  0.00    -0.372 C  
ENDBRANCH   3   4
BRANCH   3   6
HETATM    6  C   UNL     1     -13.514  14.362  71.126  1.00  0.00    -0.306 C  
BRANCH   6   7
HETATM    7  C   UNL     1     -13.764  13.301  72.210  1.00  0.00    -0.589 C  
BRANCH   7   8
HETATM    8  O   UNL     1     -13.187  12.049  71.814  1.00  0.00    -0.450 OA 
BRANCH   8   9
HETATM    9  C   UNL     1     -12.387  12.214  70.642  1.00  0.00    -0.295 C  
BRANCH   9  10
HETATM   10  C   UNL     1     -11.970  10.856  70.084  1.00  0.00    -0.352 C  
BRANCH  10  11
HETATM   11  O   UNL     1     -10.657  10.911  69.494  1.00  0.00    -0.229 OA 
BRANCH  11  12
HETATM   12  C   UNL     1     -10.596  10.572  68.173  1.00  0.00    -0.204 C  
HETATM   13  O   UNL     1     -11.030   9.516  67.723  1.00  0.00    -0.244 OA 
BRANCH  12  14
HETATM   14  C   UNL     1      -9.858  11.627  67.326  1.00  0.00    -0.203 C  
HETATM   15  C   UNL     1      -8.385  11.237  67.025  1.00  0.00    -0.153 C  
HETATM   16  C   UNL     1      -9.659  12.855  68.255  1.00  0.00    -0.212 C  
HETATM   17  C   UNL     1      -8.453  13.588  67.700  1.00  0.00    -0.184 C  
HETATM   18  C   UNL     1      -7.515  12.477  67.271  1.00  0.00    -0.125 C  
BRANCH  14  19
HETATM   19  C   UNL     1     -10.639  11.884  66.023  1.00  0.00    -0.304 A  
HETATM   20  C   UNL     1     -12.545  12.767  64.774  1.00  0.00    -0.518 A  
HETATM   21  C   UNL     1     -12.036  12.250  63.586  1.00  0.00    -0.648 A  
HETATM   22  C   UNL     1     -11.857  12.582  65.977  1.00  0.00    -0.478 A  
HETATM   23  C   UNL     1     -10.832  11.559  63.601  1.00  0.00    -0.488 A  
HETATM   24  C   UNL     1     -10.137  11.386  64.804  1.00  0.00    -0.326 A  
ENDBRANCH  14  19
ENDBRANCH  12  14
ENDBRANCH  11  12
ENDBRANCH  10  11
ENDBRANCH   9  10
ENDBRANCH   8   9
ENDBRANCH   7   8
ENDBRANCH   6   7
ENDBRANCH   3   6
ENDBRANCH   2   3
TORSDOF 11
ENDMDL
MODEL        3
REMARK 921   NORMALIZED FREE ENERGY PREDICTED BY IDOCK:   -5.70 KCAL/MOL
REMARK 922        TOTAL FREE ENERGY PREDICTED BY IDOCK:  -10.19 KCAL/MOL
REMARK 923 INTER-LIGAND FREE ENERGY PREDICTED BY IDOCK:   -9.14 KCAL/MOL
REMARK 924 INTRA-LIGAND FREE ENERGY PREDICTED BY IDOCK:   -1.05 KCAL/MOL
REMARK 927      BINDING AFFINITY PREDICTED BY RF-SCORE:    0.00 PKD
ROOT
HETATM    1  C   UNL     1     -10.716   9.798  70.634  1.00  0.00    -0.394 C  
HETATM    2  C   UNL     1     -12.122  10.210  70.204  1.00  0.00    -0.149 C  
ENDROOT
BRANCH   2   3
HETATM    3  N   UNL     1     -12.165  11.294  69.205  1.00  0.00    -0.415 NA 
BRANCH   3   4
HETATM    4  C   UNL     1     -11.644  12.578  69.698  1.00  0.00    -0.253 C  
HETATM    5  C   UNL     1     -12.381  13.198  70.879  1.00  0.00    -0.393 C  
ENDBRANCH   3   4
BRANCH   3   6
HETATM    6  C   UNL     1     -11.532  10.835  67.947  1.00  0.00    -0.227 C  
BRANCH   6   7
HETATM    7  C   UNL     1     -11.156  11.952  66.961  1.00  0.00    -0.302 C  
BRANCH   7   8
HETATM    8  O   UNL     1     -12.316  12.375  66.230  1.00  0.00    -0.577 OA 
BRANCH   8   9
HETATM    9  C   UNL     1     -11.986  12.607  64.859  1.00  0.00    -0.406 C  
BRANCH   9  10
HETATM   10  C   UNL     1     -12.014  14.102  64.550  1.00  0.00    -0.458 C  
BRANCH  10  11
HETATM   11  O   UNL     1     -10.711  14.695  64.707  1.00  0.00    -0.412 OA 
BRANCH  11  12
HETATM   12  C   UNL     1     -10.707  16.007  65.084  1.00  0.00    -0.409 C  
HETATM   13  O   UNL     1     -11.144  16.915  64.383  1.00  0.00    -1.128 OA 
BRANCH  12  14
HETATM   14  C   UNL     1     -10.030  16.227  66.450  1.00  0.00    -0.315 C  
HETATM   15  C   UNL     1      -8.794  15.310  66.666  1.00  0.00    -0.328 C  
HETATM   16  C   UNL     1     -11.012  15.659  67.509  1.00  0.00    -0.309 C  
HETATM   17  C   UNL     1     -10.151  15.291  68.702  1.00  0.00    -0.222 C  
HETATM   18  C   UNL     1      -8.888  14.725  68.081  1.00  0.00    -0.170 C  
BRANCH  14  19
HETATM   19  C   UNL     1      -9.650  17.712  66.607  1.00  0.00    -0.301 A  
HETATM   20  C   UNL     1     -10.199  20.064  66.975  1.00  0.00    -0.587 A  
HETATM   21  C   UNL     1      -8.865  20.426  66.814  1.00  0.00    -0.315 A  
HETATM   22  C   UNL     1     -10.587  18.725  66.868  1.00  0.00    -0.472 A  
HETATM   23  C   UNL     1      -7.917  19.444  66.560  1.00  0.00    -0.309 A  
HETATM   24  C   UNL     1      -8.303  18.103  66.466  1.00  0.00    -0.288 A  
ENDBRANCH  14  19
ENDBRANCH  12  14
ENDBRANCH  11  12
ENDBRANCH  10  11
ENDBRANCH   9  10
ENDBRANCH   8   9
ENDBRANCH   7   8
ENDBRANCH   6   7
ENDBRANCH   3   6
ENDBRANCH   2   3
TORSDOF 11
ENDMDL
MODEL        4
REMARK 921   NORMALIZED FREE ENERGY PREDICTED BY IDOCK:   -5.66 KCAL/MOL
REMARK 922        TOTAL FREE ENERGY PREDICTED BY IDOCK:  -10.12 KCAL/MOL
REMARK 923 INTER-LIGAND FREE ENERGY PREDICTED BY IDOCK:   -8.60 KCAL/MOL
REMARK 924 INTRA-LIGAND FREE ENERGY PREDICTED BY IDOCK:   -1.52 KCAL/MOL
REMARK 927      BINDING AFFINITY PREDICTED BY RF-SCORE:    0.00 PKD
ROOT
HETATM    1  C   UNL     1     -13.396  12.871  72.166  1.00  0.00    -0.615 C  
HETATM    2  C   UNL     1     -13.144  11.416  71.778  1.00  0.00    -0.418 C  
ENDROOT
BRANCH   2   3
HETATM    3  N   UNL     1     -11.950  11.203  70.937  1.00  0.00    -0.311 NA 
BRANCH   3   4
HETATM    4  C   UNL     1     -11.673   9.788  70.646  1.00  0.00    -0.300 C  
HETATM    5  C   UNL     1     -10.944   9.005  71.731  1.00  0.00    -0.443 C  
ENDBRANCH   3   4
BRANCH   3   6
HETATM    6  C   UNL     1     -12.036  12.056  69.730  1.00  0.00    -0.300 C  
BRANCH   6   7
HETATM    7  C   UNL     1     -11.285  11.522  68.499  1.00  0.00    -0.258 C  
BRANCH   7   8
HETATM    8  O   UNL     1     -12.122  11.609  67.337  1.00  0.00    -0.605 OA 
BRANCH   8   9
HETATM    9  C   UNL     1     -11.436  12.276  66.275  1.00  0.00    -0.380 C  
BRANCH   9  10
HETATM   10  C   UNL     1     -12.348  13.309  65.618  1.00  0.00    -0.465 C  
BRANCH  10  11
HETATM   11  O   UNL     1     -12.268  14.582  66.288  1.00  0.00    -0.359 OA 
BRANCH  11  12
HETATM   12  C   UNL     1     -11.210  15.366  65.928  1.00  0.00    -0.179 C  
HETATM   13  O   UNL     1     -10.923  15.626  64.763  1.00  0.00    -0.436 OA 
BRANCH  12  14
HETATM   14  C   UNL     1     -10.378  15.828  67.140  1.00  0.00    -0.291 C  
HETATM   15  C   UNL     1      -9.128  14.939  67.388  1.00  0.00    -0.196 C  
HETATM   16  C   UNL     1     -11.233  15.499  68.394  1.00  0.00    -0.341 C  
HETATM   17  C   UNL     1     -10.239  15.345  69.530  1.00  0.00    -0.273 C  
HETATM   18  C   UNL     1      -9.059  14.640  68.891  1.00  0.00    -0.148 C  
BRANCH  14  19
HETATM   19  C   UNL     1      -9.979  17.306  66.963  1.00  0.00    -0.289 A  
HETATM   20  C   UNL     1      -8.397  19.070  66.370  1.00  0.00    -0.315 A  
HETATM   21  C   UNL     1      -9.315  20.049  66.733  1.00  0.00    -0.510 A  
HETATM   22  C   UNL     1      -8.723  17.715  66.487  1.00  0.00    -0.289 A  
HETATM   23  C   UNL     1     -10.567  19.673  67.202  1.00  0.00    -0.611 A  
HETATM   24  C   UNL     1     -10.898  18.318  67.307  1.00  0.00    -0.269 A  
ENDBRANCH  14  19
ENDBRANCH  12  14
ENDBRANCH  11  12
ENDBRANCH  10  11
ENDBRANCH   9  10
ENDBRANCH   8   9
ENDBRANCH   7   8
ENDBRANCH   6   7
ENDBRANCH   3   6
ENDBRANCH   2   3
TORSDOF 11
ENDMDL
MODEL        5
REMARK 921   NORMALIZED FREE ENERGY PREDICTED BY IDOCK:   -5.62 KCAL/MOL
REMARK 922        TOTAL FREE ENERGY PREDICTED BY IDOCK:  -10.05 KCAL/MOL
REMARK 923 INTER-LIGAND FREE ENERGY PREDICTED BY IDOCK:   -8.68 KCAL/MOL
REMARK 924 INTRA-LIGAND FREE ENERGY PREDICTED BY IDOCK:   -1.37 KCAL/MOL
REMARK 927      BINDING AFFINITY PREDICTED BY RF-SCORE:    0.00 PKD
ROOT
HETATM    1  C   UNL     1     -10.496  19.144  65.895  1.00  0.00    -0.500 C  
HETATM    2  C   UNL     1     -10.625  17.695  66.359  1.00  0.00    -0.208 C  
ENDROOT
BRANCH   2   3
HETATM    3  N   UNL     1      -9.826  16.728  65.582  1.00  0.00    -0.572 NA 
BRANCH   3   4
HETATM    4  C   UNL     1      -8.546  16.372  66.212  1.00  0.00    -0.340 C  
HETATM    5  C   UNL     1      -7.407  17.370  66.041  1.00  0.00    -0.265 C  
ENDBRANCH   3   4
BRANCH   3   6
HETATM    6  C   UNL     1     -10.666  15.559  65.232  1.00  0.00    -0.422 C  
BRANCH   6   7
HETATM    7  C   UNL     1     -11.864  15.865  64.321  1.00  0.00    -0.071 C  
BRANCH   7   8
HETATM    8  O   UNL     1     -12.435  14.644  63.830  1.00  0.00    -0.799 OA 
BRANCH   8   9
HETATM    9  C   UNL     1     -11.556  13.545  64.082  1.00  0.00    -0.376 C  
BRANCH   9  10
HETATM   10  C   UNL     1     -12.340  12.343  64.602  1.00  0.00    -0.441 C  
BRANCH  10  11
HETATM   11  O   UNL     1     -12.408  12.343  66.040  1.00  0.00    -0.627 OA 
BRANCH  11  12
HETATM   12  C   UNL     1     -11.319  11.820  66.677  1.00  0.00    -0.316 C  
HETATM   13  O   UNL     1     -10.680  10.863  66.251  1.00  0.00    -0.243 OA 
BRANCH  12  14
HETATM   14  C   UNL     1     -11.029  12.518  68.019  1.00  0.00    -0.266 C  
HETATM   15  C   UNL     1     -11.903  13.783  68.244  1.00  0.00    -0.413 C  
HETATM   16  C   UNL     1      -9.619  13.151  67.874  1.00  0.00    -0.218 C  
HETATM   17  C   UNL     1      -9.592  14.307  68.856  1.00  0.00    -0.086 C  
HETATM   18  C   UNL     1     -10.986  14.898  68.763  1.00  0.00    -0.259 C  
BRANCH  14  19
HETATM   19  C   UNL     1     -11.203  11.513  69.174  1.00  0.00    -0.337 A  
HETATM   20  C   UNL     1     -10.563   9.516  70.428  1.00  0.00    -0.333 A  
HETATM   21  C   UNL     1     -11.644   9.680  71.288  1.00  0.00    -0.466 A  
HETATM   22  C   UNL     1     -10.348  10.419  69.382  1.00  0.00    -0.259 A  
HETATM   23  C   UNL     1     -12.504  10.755  71.109  1.00  0.00    -0.519 A  
HETATM   24  C   UNL     1     -12.281  11.666  70.070  1.00  0.00    -0.338 A  
ENDBRANCH  14  19
ENDBRANCH  12  14
ENDBRANCH  11  12
ENDBRANCH  10  11
ENDBRANCH   9  10
ENDBRANCH   8   9
ENDBRANCH   7   8
ENDBRANCH   6   7
ENDBRANCH   3   6
ENDBRANCH   2   3
TORSDOF 11
ENDMDL
MODEL        6
REMARK 921   NORMALIZED FREE ENERGY PREDICTED BY IDOCK:   -5.61 KCAL/MOL
REMARK 922        TOTAL FREE ENERGY PREDICTED BY IDOCK:  -10.03 KCAL/MOL
REMARK 923 INTER-LIGAND FREE ENERGY PREDICTED BY IDOCK:   -8.91 KCAL/MOL
REMARK 924 INTRA-LIGAND FREE ENERGY PREDICTED BY IDOCK:   -1.12 KCAL/MOL
REMARK 927      BINDING AFFINITY PREDICTED BY RF-SCORE:    0.00 PKD
ROOT
HETATM    1  C   UNL     1      -9.666  10.440  66.419  1.00  0.00    -0.250 C  
HETATM    2  C   UNL     1      -8.823  10.741  65.182  1.00  0.00    -0.186 C  
ENDROOT
BRANCH   2   3
HETATM    3  N   UNL     1      -9.577  11.308  64.048  1.00  0.00    -0.239 NA 
BRANCH   3   4
HETATM    4  C   UNL     1      -9.031  10.946  62.731  1.00  0.00    -0.305 C  
HETATM    5  C   UNL     1      -9.099   9.472  62.352  1.00  0.00    -0.257 C  
ENDBRANCH   3   4
BRANCH   3   6
HETATM    6  C   UNL     1     -11.016  10.996  64.204  1.00  0.00    -0.063 C  
BRANCH   6   7
HETATM    7  C   UNL     1     -11.978  12.044  63.622  1.00  0.00    -0.515 C  
BRANCH   7   8
HETATM    8  O   UNL     1     -13.047  12.297  64.545  1.00  0.00    -0.791 OA 
BRANCH   8   9
HETATM    9  C   UNL     1     -12.874  13.568  65.176  1.00  0.00    -0.322 C  
BRANCH   9  10
HETATM   10  C   UNL     1     -12.199  14.549  64.221  1.00  0.00    -0.415 C  
BRANCH  10  11
HETATM   11  O   UNL     1     -10.875  14.893  64.672  1.00  0.00    -0.370 OA 
BRANCH  11  12
HETATM   12  C   UNL     1     -10.713  16.185  65.081  1.00  0.00    -0.371 C  
HETATM   13  O   UNL     1     -11.118  17.154  64.444  1.00  0.00    -1.100 OA 
BRANCH  12  14
HETATM   14  C   UNL     1      -9.906  16.295  66.389  1.00  0.00    -0.310 C  
HETATM   15  C   UNL     1      -8.585  15.477  66.353  1.00  0.00    -0.292 C  
HETATM   16  C   UNL     1     -10.715  15.510  67.456  1.00  0.00    -0.300 C  
HETATM   17  C   UNL     1      -9.698  15.078  68.495  1.00  0.00    -0.217 C  
HETATM   18  C   UNL     1      -8.473  14.714  67.679  1.00  0.00    -0.187 C  
BRANCH  14  19
HETATM   19  C   UNL     1      -9.630  17.778  66.705  1.00  0.00    -0.311 A  
HETATM   20  C   UNL     1      -8.297  19.819  66.544  1.00  0.00    -0.373 A  
HETATM   21  C   UNL     1      -9.172  20.486  67.395  1.00  0.00    -0.481 A  
HETATM   22  C   UNL     1      -8.522  18.481  66.206  1.00  0.00    -0.227 A  
HETATM   23  C   UNL     1     -10.280  19.817  67.900  1.00  0.00    -0.576 A  
HETATM   24  C   UNL     1     -10.511  18.482  67.551  1.00  0.00    -0.453 A  
ENDBRANCH  14  19
ENDBRANCH  12  14
ENDBRANCH  11  12
ENDBRANCH  10  11
ENDBRANCH   9  10
ENDBRANCH   8   9
ENDBRANCH   7   8
ENDBRANCH   6   7
ENDBRANCH   3   6
ENDBRANCH   2   3
TORSDOF 11
ENDMDL
MODEL        7
REMARK 921   NORMALIZED FREE ENERGY PREDICTED BY IDOCK:   -5.55 KCAL/MOL
REMARK 922        TOTAL FREE ENERGY PREDICTED BY IDOCK:   -9.93 KCAL/MOL
REMARK 923 INTER-LIGAND FREE ENERGY PREDICTED BY IDOCK:   -8.79 KCAL/MOL
REMARK 924 INTRA-LIGAND FREE ENERGY PREDICTED BY IDOCK:   -1.14 KCAL/MOL
REMARK 927      BINDING AFFINITY PREDICTED BY RF-SCORE:    0.00 PKD
ROOT
HETATM    1  C   UNL     1      -9.664   7.980  72.751  1.00  0.00    -0.348 C  
HETATM    2  C   UNL     1     -10.046   8.986  71.667  1.00  0.00    -0.335 C  
ENDROOT
BRANCH   2   3
HETATM    3  N   UNL     1     -11.396   8.796  71.102  1.00  0.00    -0.270 NA 
BRANCH   3   4
HETATM    4  C   UNL     1     -11.884   7.411  71.181  1.00  0.00    -0.301 C  
HETATM    5  C   UNL     1     -13.319   7.226  71.662  1.00  0.00    -0.421 C  
ENDBRANCH   3   4
BRANCH   3   6
HETATM    6  C   UNL     1     -12.323   9.791  71.689  1.00  0.00    -0.408 C  
BRANCH   6   7
HETATM    7  C   UNL     1     -12.766  10.911  70.735  1.00  0.00    -0.340 C  
BRANCH   7   8
HETATM    8  O   UNL     1     -12.858  12.155  71.445  1.00  0.00    -0.376 OA 
BRANCH   8   9
HETATM    9  C   UNL     1     -12.506  13.245  70.590  1.00  0.00    -0.298 C  
BRANCH   9  10
HETATM   10  C   UNL     1     -11.485  12.798  69.547  1.00  0.00    -0.225 C  
BRANCH  10  11
HETATM   11  O   UNL     1     -11.934  13.099  68.212  1.00  0.00    -0.343 OA 
BRANCH  11  12
HETATM   12  C   UNL     1     -11.635  12.159  67.268  1.00  0.00    -0.334 C  
HETATM   13  O   UNL     1     -11.560  10.957  67.509  1.00  0.00    -0.526 OA 
BRANCH  12  14
HETATM   14  C   UNL     1     -11.334  12.779  65.890  1.00  0.00    -0.363 C  
HETATM   15  C   UNL     1     -12.619  13.071  65.066  1.00  0.00    -0.515 C  
HETATM   16  C   UNL     1     -10.687  11.648  65.046  1.00  0.00    -0.351 C  
HETATM   17  C   UNL     1     -10.969  12.013  63.601  1.00  0.00    -0.517 C  
HETATM   18  C   UNL     1     -12.376  12.578  63.634  1.00  0.00    -0.618 C  
BRANCH  14  19
HETATM   19  C   UNL     1     -10.491  14.056  66.070  1.00  0.00    -0.307 A  
HETATM   20  C   UNL     1      -8.475  15.244  66.774  1.00  0.00    -0.290 A  
HETATM   21  C   UNL     1      -9.042  16.464  66.423  1.00  0.00    -0.341 A  
HETATM   22  C   UNL     1      -9.192  14.055  66.603  1.00  0.00    -0.262 A  
HETATM   23  C   UNL     1     -10.324  16.495  65.889  1.00  0.00    -0.365 A  
HETATM   24  C   UNL     1     -11.036  15.304  65.706  1.00  0.00    -0.340 A  
ENDBRANCH  14  19
ENDBRANCH  12  14
ENDBRANCH  11  12
ENDBRANCH  10  11
ENDBRANCH   9  10
ENDBRANCH   8   9
ENDBRANCH   7   8
ENDBRANCH   6   7
ENDBRANCH   3   6
ENDBRANCH   2   3
TORSDOF 11
ENDMDL
MODEL        8
REMARK 921   NORMALIZED FREE ENERGY PREDICTED BY IDOCK:   -5.53 KCAL/MOL
REMARK 922        TOTAL FREE ENERGY PREDICTED BY IDOCK:   -9.90 KCAL/MOL
REMARK 923 INTER-LIGAND FREE ENERGY PREDICTED BY IDOCK:   -9.32 KCAL/MOL
REMARK 924 INTRA-LIGAND FREE ENERGY PREDICTED BY IDOCK:   -0.58 KCAL/MOL
REMARK 927      BINDING AFFINITY PREDICTED BY RF-SCORE:    0.00 PKD
ROOT
HETATM    1  C   UNL     1      -9.512   8.837  65.819  1.00  0.00    -0.239 C  
HETATM    2  C   UNL     1     -10.157  10.190  66.110  1.00  0.00    -0.246 C  
ENDROOT
BRANCH   2   3
HETATM    3  N   UNL     1      -9.768  11.269  65.181  1.00  0.00    -0.235 NA 
BRANCH   3   4
HETATM    4  C   UNL     1     -10.217  11.052  63.797  1.00  0.00    -0.364 C  
HETATM    5  C   UNL     1      -9.124  10.941  62.741  1.00  0.00    -0.351 C  
ENDBRANCH   3   4
BRANCH   3   6
HETATM    6  C   UNL     1     -10.174  12.577  65.743  1.00  0.00    -0.270 C  
BRANCH   6   7
HETATM    7  C   UNL     1     -11.615  13.006  65.424  1.00  0.00    -0.341 C  
BRANCH   7   8
HETATM    8  O   UNL     1     -12.047  14.009  66.354  1.00  0.00    -0.416 OA 
BRANCH   8   9
HETATM    9  C   UNL     1     -10.950  14.453  67.156  1.00  0.00    -0.303 C  
BRANCH   9  10
HETATM   10  C   UNL     1     -11.265  15.807  67.789  1.00  0.00    -0.286 C  
BRANCH  10  11
HETATM   11  O   UNL     1     -12.063  15.657  68.979  1.00  0.00    -0.337 OA 
BRANCH  11  12
HETATM   12  C   UNL     1     -11.373  15.308  70.104  1.00  0.00    -0.289 C  
HETATM   13  O   UNL     1     -10.151  15.370  70.197  1.00  0.00    -0.281 OA 
BRANCH  12  14
HETATM   14  C   UNL     1     -12.292  14.763  71.215  1.00  0.00    -0.390 C  
HETATM   15  C   UNL     1     -13.679  15.461  71.248  1.00  0.00    -0.558 C  
HETATM   16  C   UNL     1     -11.678  15.251  72.554  1.00  0.00    -0.535 C  
HETATM   17  C   UNL     1     -12.833  15.286  73.537  1.00  0.00    -0.681 C  
HETATM   18  C   UNL     1     -14.001  15.789  72.712  1.00  0.00    -0.541 C  
BRANCH  14  19
HETATM   19  C   UNL     1     -12.445  13.237  71.057  1.00  0.00    -0.422 A  
HETATM   20  C   UNL     1     -13.256  11.051  71.787  1.00  0.00    -0.505 A  
HETATM   21  C   UNL     1     -12.614  10.430  70.720  1.00  0.00    -0.462 A  
HETATM   22  C   UNL     1     -13.169  12.437  71.955  1.00  0.00    -0.486 A  
HETATM   23  C   UNL     1     -11.894  11.197  69.814  1.00  0.00    -0.422 A  
HETATM   24  C   UNL     1     -11.818  12.585  69.976  1.00  0.00    -0.363 A  
ENDBRANCH  14  19
ENDBRANCH  12  14
ENDBRANCH  11  12
ENDBRANCH  10  11
ENDBRANCH   9  10
ENDBRANCH   8   9
ENDBRANCH   7   8
ENDBRANCH   6   7
ENDBRANCH   3   6
ENDBRANCH   2   3
TORSDOF 11
ENDMDL
MODEL        9
REMARK 921   NORMALIZED FREE ENERGY PREDICTED BY IDOCK:   -5.49 KCAL/MOL
REMARK 922        TOTAL FREE ENERGY PREDICTED BY IDOCK:   -9.84 KCAL/MOL
REMARK 923 INTER-LIGAND FREE ENERGY PREDICTED BY IDOCK:   -8.43 KCAL/MOL
REMARK 924 INTRA-LIGAND FREE ENERGY PREDICTED BY IDOCK:   -1.41 KCAL/MOL
REMARK 927      BINDING AFFINITY PREDICTED BY RF-SCORE:    0.00 PKD
ROOT
HETATM    1  C   UNL     1     -12.703  15.857  74.104  1.00  0.00    -0.661 C  
HETATM    2  C   UNL     1     -13.615  15.791  72.881  1.00  0.00    -0.577 C  
ENDROOT
BRANCH   2   3
HETATM    3  N   UNL     1     -13.034  15.091  71.720  1.00  0.00    -0.323 NA 
BRANCH   3   4
HETATM    4  C   UNL     1     -11.621  15.418  71.474  1.00  0.00    -0.411 C  
HETATM    5  C   UNL     1     -11.335  16.332  70.288  1.00  0.00    -0.299 C  
ENDBRANCH   3   4
BRANCH   3   6
HETATM    6  C   UNL     1     -13.300  13.638  71.832  1.00  0.00    -0.425 C  
BRANCH   6   7
HETATM    7  C   UNL     1     -12.323  12.735  71.064  1.00  0.00    -0.221 C  
BRANCH   7   8
HETATM    8  O   UNL     1     -12.708  11.360  71.207  1.00  0.00    -0.405 OA 
BRANCH   8   9
HETATM    9  C   UNL     1     -12.660  10.693  69.944  1.00  0.00    -0.101 C  
BRANCH   9  10
HETATM   10  C   UNL     1     -11.426  11.127  69.158  1.00  0.00    -0.298 C  
BRANCH  10  11
HETATM   11  O   UNL     1     -11.788  11.695  67.885  1.00  0.00    -0.543 OA 
BRANCH  11  12
HETATM   12  C   UNL     1     -11.142  11.168  66.804  1.00  0.00    -0.214 C  
HETATM   13  O   UNL     1     -10.628  10.053  66.799  1.00  0.00    -0.218 OA 
BRANCH  12  14
HETATM   14  C   UNL     1     -11.067  12.153  65.622  1.00  0.00    -0.360 C  
HETATM   15  C   UNL     1     -12.439  12.364  64.924  1.00  0.00    -0.439 C  
HETATM   16  C   UNL     1     -10.273  11.421  64.507  1.00  0.00    -0.352 C  
HETATM   17  C   UNL     1     -10.723  12.060  63.206  1.00  0.00    -0.400 C  
HETATM   18  C   UNL     1     -12.207  12.296  63.409  1.00  0.00    -0.630 C  
BRANCH  14  19
HETATM   19  C   UNL     1     -10.479  13.494  66.102  1.00  0.00    -0.296 A  
HETATM   20  C   UNL     1      -8.700  14.860  67.072  1.00  0.00    -0.263 A  
HETATM   21  C   UNL     1      -9.508  15.991  67.020  1.00  0.00    -0.230 A  
HETATM   22  C   UNL     1      -9.181  13.626  66.622  1.00  0.00    -0.225 A  
HETATM   23  C   UNL     1     -10.794  15.891  66.506  1.00  0.00    -0.198 A  
HETATM   24  C   UNL     1     -11.270  14.659  66.044  1.00  0.00    -0.342 A  
ENDBRANCH  14  19
ENDBRANCH  12  14
ENDBRANCH  11  12
ENDBRANCH  10  11
ENDBRANCH   9  10
ENDBRANCH   8   9
ENDBRANCH   7   8
ENDBRANCH   6   7
ENDBRANCH   3   6
ENDBRANCH   2   3
TORSDOF 11
ENDMDL
MODEL       10
REMARK 921   NORMALIZED FREE ENERGY PREDICTED BY IDOCK:   -5.49 KCAL/MOL
REMARK 922        TOTAL FREE ENERGY PREDICTED BY IDOCK:   -9.84 KCAL/MOL
REMARK 923 INTER-LIGAND FREE ENERGY PREDICTED BY IDOCK:   -8.23 KCAL/MOL
REMARK 924 INTRA-LIGAND FREE ENERGY PREDICTED BY IDOCK:   -1.61 KCAL/MOL
REMARK 927      BINDING AFFINITY PREDICTED BY RF-SCORE:    0.00 PKD
ROOT
HETATM    1  C   UNL     1     -11.305  11.256  67.548  1.00  0.00    -0.360 C  
HETATM    2  C   UNL     1     -10.321  10.418  66.735  1.00  0.00    -0.235 C  
ENDROOT
BRANCH   2   3
HETATM    3  N   UNL     1      -9.471  11.193  65.811  1.00  0.00    -0.213 NA 
BRANCH   3   4
HETATM    4  C   UNL     1      -8.033  11.096  66.103  1.00  0.00    -0.090 C  
HETATM    5  C   UNL     1      -7.186  10.341  65.086  1.00  0.00    -0.125 C  
ENDBRANCH   3   4
BRANCH   3   6
HETATM    6  C   UNL     1      -9.822  10.852  64.413  1.00  0.00    -0.309 C  
BRANCH   6   7
HETATM    7  C   UNL     1     -10.335  12.026  63.564  1.00  0.00    -0.461 C  
BRANCH   7   8
HETATM    8  O   UNL     1     -11.750  11.904  63.361  1.00  0.00    -0.447 OA 
BRANCH   8   9
HETATM    9  C   UNL     1     -12.460  12.770  64.250  1.00  0.00    -0.382 C  
BRANCH   9  10
HETATM   10  C   UNL     1     -12.075  14.225  63.997  1.00  0.00    -0.316 C  
BRANCH  10  11
HETATM   11  O   UNL     1     -12.011  14.972  65.227  1.00  0.00    -0.229 OA 
BRANCH  11  12
HETATM   12  C   UNL     1     -11.192  16.064  65.205  1.00  0.00    -0.112 C  
HETATM   13  O   UNL     1     -11.165  16.873  64.282  1.00  0.00    -1.204 OA 
BRANCH  12  14
HETATM   14  C   UNL     1     -10.260  16.128  66.430  1.00  0.00    -0.315 C  
HETATM   15  C   UNL     1      -8.982  15.262  66.262  1.00  0.00    -0.314 C  
HETATM   16  C   UNL     1     -10.994  15.363  67.565  1.00  0.00    -0.315 C  
HETATM   17  C   UNL     1      -9.900  14.881  68.498  1.00  0.00    -0.217 C  
HETATM   18  C   UNL     1      -8.773  14.480  67.566  1.00  0.00    -0.195 C  
BRANCH  14  19
HETATM   19  C   UNL     1      -9.898  17.596  66.730  1.00  0.00    -0.304 A  
HETATM   20  C   UNL     1     -10.419  19.833  67.563  1.00  0.00    -0.569 A  
HETATM   21  C   UNL     1      -9.164  20.295  67.180  1.00  0.00    -0.519 A  
HETATM   22  C   UNL     1     -10.782  18.502  67.337  1.00  0.00    -0.424 A  
HETATM   23  C   UNL     1      -8.267  19.420  66.581  1.00  0.00    -0.322 A  
HETATM   24  C   UNL     1      -8.626  18.085  66.366  1.00  0.00    -0.253 A  
ENDBRANCH  14  19
ENDBRANCH  12  14
ENDBRANCH  11  12
ENDBRANCH  10  11
ENDBRANCH   9  10
ENDBRANCH   8   9
ENDBRANCH   7   8
ENDBRANCH   6   7
ENDBRANCH   3   6
ENDBRANCH   2   3
TORSDOF 11
ENDMDL
MODEL       11
REMARK 921   NORMALIZED FREE ENERGY PREDICTED BY IDOCK:   -5.45 KCAL/MOL
REMARK 922        TOTAL FREE ENERGY PREDICTED BY IDOCK:   -9.78 KCAL/MOL
REMARK 923 INTER-LIGAND FREE ENERGY PREDICTED BY IDOCK:   -8.46 KCAL/MOL
REMARK 924 INTRA-LIGAND FREE ENERGY PREDICTED BY IDOCK:   -1.32 KCAL/MOL
REMARK 927      BINDING AFFINITY PREDICTED BY RF-SCORE:    0.00 PKD
ROOT
HETATM    1  C   UNL     1     -10.816   9.663  70.825  1.00  0.00    -0.400 C  
HETATM    2  C   UNL     1     -11.787  10.794  70.493  1.00  0.00    -0.356 C  
ENDROOT
BRANCH   2   3
HETATM    3  N   UNL     1     -13.040  10.778  71.272  1.00  0.00    -0.366 NA 
BRANCH   3   4
HETATM    4  C   UNL     1     -13.149   9.639  72.197  1.00  0.00    -0.431 C  
HETATM    5  C   UNL     1     -14.321   8.692  71.967  1.00  0.00    -0.512 C  
ENDBRANCH   3   4
BRANCH   3   6
HETATM    6  C   UNL     1     -13.238  12.095  71.919  1.00  0.00    -0.369 C  
BRANCH   6   7
HETATM    7  C   UNL     1     -12.558  13.278  71.213  1.00  0.00    -0.308 C  
BRANCH   7   8
HETATM    8  O   UNL     1     -13.474  14.378  71.104  1.00  0.00    -0.358 OA 
BRANCH   8   9
HETATM    9  C   UNL     1     -12.765  15.599  70.884  1.00  0.00    -0.445 C  
BRANCH   9  10
HETATM   10  C   UNL     1     -11.259  15.346  70.868  1.00  0.00    -0.358 C  
BRANCH  10  11
HETATM   11  O   UNL     1     -10.581  16.271  69.997  1.00  0.00    -0.297 OA 
BRANCH  11  12
HETATM   12  C   UNL     1      -9.732  15.706  69.090  1.00  0.00    -0.249 C  
HETATM   13  O   UNL     1      -8.871  14.883  69.388  1.00  0.00    -0.149 OA 
BRANCH  12  14
HETATM   14  C   UNL     1      -9.926  16.267  67.669  1.00  0.00    -0.247 C  
HETATM   15  C   UNL     1      -8.599  16.755  67.026  1.00  0.00    -0.233 C  
HETATM   16  C   UNL     1     -10.687  17.609  67.841  1.00  0.00    -0.341 C  
HETATM   17  C   UNL     1     -10.332  18.434  66.618  1.00  0.00    -0.422 C  
HETATM   18  C   UNL     1      -8.868  18.119  66.376  1.00  0.00    -0.255 C  
BRANCH  14  19
HETATM   19  C   UNL     1     -10.613  15.210  66.783  1.00  0.00    -0.298 A  
HETATM   20  C   UNL     1     -12.397  13.611  66.300  1.00  0.00    -0.464 A  
HETATM   21  C   UNL     1     -11.767  13.227  65.121  1.00  0.00    -0.358 A  
HETATM   22  C   UNL     1     -11.825  14.587  67.123  1.00  0.00    -0.412 A  
HETATM   23  C   UNL     1     -10.569  13.829  64.758  1.00  0.00    -0.444 A  
HETATM   24  C   UNL     1     -10.004  14.815  65.574  1.00  0.00    -0.390 A  
ENDBRANCH  14  19
ENDBRANCH  12  14
ENDBRANCH  11  12
ENDBRANCH  10  11
ENDBRANCH   9  10
ENDBRANCH   8   9
ENDBRANCH   7   8
ENDBRANCH   6   7
ENDBRANCH   3   6
ENDBRANCH   2   3
TORSDOF 11
ENDMDL
MODEL       12
REMARK 921   NORMALIZED FREE ENERGY PREDICTED BY IDOCK:   -5.45 KCAL/MOL
REMARK 922        TOTAL FREE ENERGY PREDICTED BY IDOCK:   -9.77 KCAL/MOL
REMARK 923 INTER-LIGAND FREE ENERGY PREDICTED BY IDOCK:   -8.54 KCAL/MOL
REMARK 924 INTRA-LIGAND FREE ENERGY PREDICTED BY IDOCK:   -1.23 KCAL/MOL
REMARK 927      BINDING AFFINITY PREDICTED BY RF-SCORE:    0.00 PKD
ROOT
HETATM    1  C   UNL     1     -11.281   6.097  69.360  1.00  0.00    -0.466 C  
HETATM    2  C   UNL     1     -11.518   6.280  70.857  1.00  0.00    -0.312 C  
ENDROOT
BRANCH   2   3
HETATM    3  N   UNL     1     -12.109   7.579  71.231  1.00  0.00    -0.314 NA 
BRANCH   3   4
HETATM    4  C   UNL     1     -13.525   7.499  71.621  1.00  0.00    -0.365 C  
HETATM    5  C   UNL     1     -14.270   8.823  71.741  1.00  0.00    -0.443 C  
ENDBRANCH   3   4
BRANCH   3   6
HETATM    6  C   UNL     1     -11.249   8.244  72.238  1.00  0.00    -0.374 C  
BRANCH   6   7
HETATM    7  C   UNL     1     -10.088   9.069  71.661  1.00  0.00    -0.335 C  
BRANCH   7   8
HETATM    8  O   UNL     1     -10.580   9.987  70.674  1.00  0.00    -0.295 OA 
BRANCH   8   9
HETATM    9  C   UNL     1      -9.815   9.884  69.471  1.00  0.00    -0.223 C  
BRANCH   9  10
HETATM   10  C   UNL     1     -10.738   9.764  68.260  1.00  0.00    -0.233 C  
BRANCH  10  11
HETATM   11  O   UNL     1     -10.401  10.728  67.245  1.00  0.00    -0.199 OA 
BRANCH  11  12
HETATM   12  C   UNL     1     -11.319  11.720  67.052  1.00  0.00    -0.321 C  
HETATM   13  O   UNL     1     -12.253  11.938  67.819  1.00  0.00    -0.508 OA 
BRANCH  12  14
HETATM   14  C   UNL     1     -11.095  12.484  65.733  1.00  0.00    -0.343 C  
HETATM   15  C   UNL     1     -12.414  12.746  64.956  1.00  0.00    -0.572 C  
HETATM   16  C   UNL     1     -10.378  11.489  64.781  1.00  0.00    -0.341 C  
HETATM   17  C   UNL     1     -10.716  11.959  63.379  1.00  0.00    -0.476 C  
HETATM   18  C   UNL     1     -12.162  12.405  63.481  1.00  0.00    -0.661 C  
BRANCH  14  19
HETATM   19  C   UNL     1     -10.350  13.803  66.018  1.00  0.00    -0.311 A  
HETATM   20  C   UNL     1      -8.436  15.080  66.841  1.00  0.00    -0.269 A  
HETATM   21  C   UNL     1      -9.088  16.278  66.568  1.00  0.00    -0.302 A  
HETATM   22  C   UNL     1      -9.062  13.858  66.574  1.00  0.00    -0.165 A  
HETATM   23  C   UNL     1     -10.361  16.254  66.015  1.00  0.00    -0.363 A  
HETATM   24  C   UNL     1     -10.981  15.031  65.735  1.00  0.00    -0.351 A  
ENDBRANCH  14  19
ENDBRANCH  12  14
ENDBRANCH  11  12
ENDBRANCH  10  11
ENDBRANCH   9  10
ENDBRANCH   8   9
ENDBRANCH   7   8
ENDBRANCH   6   7
ENDBRANCH   3   6
ENDBRANCH   2   3
TORSDOF 11
ENDMDL
MODEL       13
REMARK 921   NORMALIZED FREE ENERGY PREDICTED BY IDOCK:   -5.42 KCAL/MOL
REMARK 922        TOTAL FREE ENERGY PREDICTED BY IDOCK:   -9.73 KCAL/MOL
REMARK 923 INTER-LIGAND FREE ENERGY PREDICTED BY IDOCK:   -8.17 KCAL/MOL
REMARK 924 INTRA-LIGAND FREE ENERGY PREDICTED BY IDOCK:   -1.57 KCAL/MOL
REMARK 927      BINDING AFFINITY PREDICTED BY RF-SCORE:    0.00 PKD
ROOT
HETATM    1  C   UNL     1     -11.040  15.266  70.893  1.00  0.00    -0.343 C  
HETATM    2  C   UNL     1     -12.251  14.448  70.449  1.00  0.00    -0.338 C  
ENDROOT
BRANCH   2   3
HETATM    3  N   UNL     1     -12.807  13.561  71.489  1.00  0.00    -0.361 NA 
BRANCH   3   4
HETATM    4  C   UNL     1     -14.134  13.974  71.973  1.00  0.00    -0.509 C  
HETATM    5  C   UNL     1     -14.252  15.405  72.483  1.00  0.00    -0.500 C  
ENDBRANCH   3   4
BRANCH   3   6
HETATM    6  C   UNL     1     -12.751  12.156  71.024  1.00  0.00    -0.228 C  
BRANCH   6   7
HETATM    7  C   UNL     1     -11.717  11.874  69.924  1.00  0.00    -0.308 C  
BRANCH   7   8
HETATM    8  O   UNL     1     -12.297  11.049  68.903  1.00  0.00    -0.516 OA 
BRANCH   8   9
HETATM    9  C   UNL     1     -11.286  10.561  68.019  1.00  0.00    -0.294 C  
BRANCH   9  10
HETATM   10  C   UNL     1      -9.997  11.362  68.189  1.00  0.00    -0.189 C  
BRANCH  10  11
HETATM   11  O   UNL     1      -9.704  12.140  67.013  1.00  0.00    -0.197 OA 
BRANCH  11  12
HETATM   12  C   UNL     1      -9.479  13.468  67.232  1.00  0.00    -0.230 C  
HETATM   13  O   UNL     1      -8.620  13.893  67.999  1.00  0.00    -0.159 OA 
BRANCH  12  14
HETATM   14  C   UNL     1     -10.467  14.369  66.467  1.00  0.00    -0.289 C  
HETATM   15  C   UNL     1     -11.948  14.107  66.856  1.00  0.00    -0.479 C  
HETATM   16  C   UNL     1     -10.451  13.868  64.997  1.00  0.00    -0.428 C  
HETATM   17  C   UNL     1     -11.794  14.270  64.419  1.00  0.00    -0.444 C  
HETATM   18  C   UNL     1     -12.767  14.041  65.560  1.00  0.00    -0.517 C  
BRANCH  14  19
HETATM   19  C   UNL     1     -10.093  15.848  66.681  1.00  0.00    -0.287 A  
HETATM   20  C   UNL     1      -8.646  17.790  66.352  1.00  0.00    -0.260 A  
HETATM   21  C   UNL     1      -9.450  18.560  67.187  1.00  0.00    -0.294 A  
HETATM   22  C   UNL     1      -8.962  16.450  66.105  1.00  0.00    -0.367 A  
HETATM   23  C   UNL     1     -10.577  17.992  67.766  1.00  0.00    -0.409 A  
HETATM   24  C   UNL     1     -10.899  16.655  67.509  1.00  0.00    -0.221 A  
ENDBRANCH  14  19
ENDBRANCH  12  14
ENDBRANCH  11  12
ENDBRANCH  10  11
ENDBRANCH   9  10
ENDBRANCH   8   9
ENDBRANCH   7   8
ENDBRANCH   6   7
ENDBRANCH   3   6
ENDBRANCH   2   3
TORSDOF 11
ENDMDL
MODEL       14
REMARK 921   NORMALIZED FREE ENERGY PREDICTED BY IDOCK:   -5.42 KCAL/MOL
REMARK 922        TOTAL FREE ENERGY PREDICTED BY IDOCK:   -9.73 KCAL/MOL
REMARK 923 INTER-LIGAND FREE ENERGY PREDICTED BY IDOCK:   -8.30 KCAL/MOL
REMARK 924 INTRA-LIGAND FREE ENERGY PREDICTED BY IDOCK:   -1.43 KCAL/MOL
REMARK 927      BINDING AFFINITY PREDICTED BY RF-SCORE:    0.00 PKD
ROOT
HETATM    1  C   UNL     1     -11.347  10.994  68.918  1.00  0.00    -0.346 C  
HETATM    2  C   UNL     1     -11.745  11.861  70.110  1.00  0.00    -0.253 C  
ENDROOT
BRANCH   2   3
HETATM    3  N   UNL     1     -13.023  11.485  70.744  1.00  0.00    -0.113 NA 
BRANCH   3   4
HETATM    4  C   UNL     1     -13.272  10.035  70.766  1.00  0.00    -0.208 C  
HETATM    5  C   UNL     1     -13.277   9.371  72.137  1.00  0.00    -0.541 C  
ENDBRANCH   3   4
BRANCH   3   6
HETATM    6  C   UNL     1     -13.126  12.129  72.074  1.00  0.00    -0.357 C  
BRANCH   6   7
HETATM    7  C   UNL     1     -13.670  13.566  72.062  1.00  0.00    -0.478 C  
BRANCH   7   8
HETATM    8  O   UNL     1     -13.177  14.288  73.200  1.00  0.00    -0.616 OA 
BRANCH   8   9
HETATM    9  C   UNL     1     -11.985  15.001  72.861  1.00  0.00    -0.296 C  
BRANCH   9  10
HETATM   10  C   UNL     1     -12.210  15.857  71.617  1.00  0.00    -0.479 C  
BRANCH  10  11
HETATM   11  O   UNL     1     -11.058  15.841  70.754  1.00  0.00    -0.328 OA 
BRANCH  11  12
HETATM   12  C   UNL     1     -11.324  15.650  69.428  1.00  0.00    -0.330 C  
HETATM   13  O   UNL     1     -12.404  15.251  69.003  1.00  0.00    -0.162 OA 
BRANCH  12  14
HETATM   14  C   UNL     1     -10.098  15.921  68.535  1.00  0.00    -0.217 C  
HETATM   15  C   UNL     1      -9.926  14.866  67.408  1.00  0.00    -0.223 C  
HETATM   16  C   UNL     1      -8.854  15.623  69.416  1.00  0.00    -0.257 C  
HETATM   17  C   UNL     1      -7.746  15.271  68.442  1.00  0.00    -0.124 C  
HETATM   18  C   UNL     1      -8.447  14.463  67.367  1.00  0.00    -0.216 C  
BRANCH  14  19
HETATM   19  C   UNL     1     -10.187  17.345  67.952  1.00  0.00    -0.348 A  
HETATM   20  C   UNL     1     -10.412  18.919  66.097  1.00  0.00    -0.521 A  
HETATM   21  C   UNL     1     -10.273  19.998  66.964  1.00  0.00    -0.587 A  
HETATM   22  C   UNL     1     -10.365  17.609  66.584  1.00  0.00    -0.333 A  
HETATM   23  C   UNL     1     -10.100  19.766  68.322  1.00  0.00    -0.575 A  
HETATM   24  C   UNL     1     -10.066  18.456  68.811  1.00  0.00    -0.393 A  
ENDBRANCH  14  19
ENDBRANCH  12  14
ENDBRANCH  11  12
ENDBRANCH  10  11
ENDBRANCH   9  10
ENDBRANCH   8   9
ENDBRANCH   7   8
ENDBRANCH   6   7
ENDBRANCH   3   6
ENDBRANCH   2   3
TORSDOF 11
ENDMDL
MODEL       15
REMARK 921   NORMALIZED FREE ENERGY PREDICTED BY IDOCK:   -5.40 KCAL/MOL
REMARK 922        TOTAL FREE ENERGY PREDICTED BY IDOCK:   -9.69 KCAL/MOL
REMARK 923 INTER-LIGAND FREE ENERGY PREDICTED BY IDOCK:   -8.08 KCAL/MOL
REMARK 924 INTRA-LIGAND FREE ENERGY PREDICTED BY IDOCK:   -1.61 KCAL/MOL
REMARK 927      BINDING AFFINITY PREDICTED BY RF-SCORE:    0.00 PKD
ROOT
HETATM    1  C   UNL     1      -8.564  19.184  68.527  1.00  0.00    -0.398 C  
HETATM    2  C   UNL     1     -10.036  18.779  68.561  1.00  0.00    -0.392 C  
ENDROOT
BRANCH   2   3
HETATM    3  N   UNL     1     -10.442  17.847  67.492  1.00  0.00    -0.383 NA 
BRANCH   3   4
HETATM    4  C   UNL     1      -9.443  17.697  66.423  1.00  0.00    -0.259 C  
HETATM    5  C   UNL     1      -8.929  16.285  66.171  1.00  0.00    -0.374 C  
ENDBRANCH   3   4
BRANCH   3   6
HETATM    6  C   UNL     1     -10.874  16.563  68.091  1.00  0.00    -0.345 C  
BRANCH   6   7
HETATM    7  C   UNL     1     -10.941  16.549  69.626  1.00  0.00    -0.287 C  
BRANCH   7   8
HETATM    8  O   UNL     1     -12.079  15.791  70.062  1.00  0.00    -0.365 OA 
BRANCH   8   9
HETATM    9  C   UNL     1     -11.662  14.670  70.845  1.00  0.00    -0.280 C  
BRANCH   9  10
HETATM   10  C   UNL     1     -12.239  13.377  70.274  1.00  0.00    -0.335 C  
BRANCH  10  11
HETATM   11  O   UNL     1     -12.097  13.327  68.842  1.00  0.00    -0.316 OA 
BRANCH  11  12
HETATM   12  C   UNL     1     -11.757  12.107  68.330  1.00  0.00    -0.332 C  
HETATM   13  O   UNL     1     -12.268  11.053  68.695  1.00  0.00    -0.571 OA 
BRANCH  12  14
HETATM   14  C   UNL     1     -10.613  12.197  67.302  1.00  0.00    -0.255 C  
HETATM   15  C   UNL     1      -9.781  10.888  67.208  1.00  0.00    -0.189 C  
HETATM   16  C   UNL     1      -9.569  13.173  67.909  1.00  0.00    -0.218 C  
HETATM   17  C   UNL     1      -8.245  12.792  67.274  1.00  0.00    -0.181 C  
HETATM   18  C   UNL     1      -8.298  11.278  67.199  1.00  0.00    -0.151 C  
BRANCH  14  19
HETATM   19  C   UNL     1     -11.184  12.589  65.925  1.00  0.00    -0.356 A  
HETATM   20  C   UNL     1     -12.104  14.201  64.337  1.00  0.00    -0.486 A  
HETATM   21  C   UNL     1     -12.286  13.200  63.388  1.00  0.00    -0.443 A  
HETATM   22  C   UNL     1     -11.564  13.898  65.590  1.00  0.00    -0.338 A  
HETATM   23  C   UNL     1     -11.916  11.896  63.690  1.00  0.00    -0.578 A  
HETATM   24  C   UNL     1     -11.363  11.596  64.940  1.00  0.00    -0.252 A  
ENDBRANCH  14  19
ENDBRANCH  12  14
ENDBRANCH  11  12
ENDBRANCH  10  11
ENDBRANCH   9  10
ENDBRANCH   8   9
ENDBRANCH   7   8
ENDBRANCH   6   7
ENDBRANCH   3   6
ENDBRANCH   2   3
TORSDOF 11
ENDMDL
MODEL       16
REMARK 921   NORMALIZED FREE ENERGY PREDICTED BY IDOCK:   -5.39 KCAL/MOL
REMARK 922        TOTAL FREE ENERGY PREDICTED BY IDOCK:   -9.68 KCAL/MOL
REMARK 923 INTER-LIGAND FREE ENERGY PREDICTED BY IDOCK:   -8.26 KCAL/MOL
REMARK 924 INTRA-LIGAND FREE ENERGY PREDICTED BY IDOCK:   -1.42 KCAL/MOL
REMARK 927      BINDING AFFINITY PREDICTED BY RF-SCORE:    0.00 PKD
ROOT
HETATM    1  C   UNL     1     -13.564   9.412  72.235  1.00  0.00    -0.532 C  
HETATM    2  C   UNL     1     -12.323   9.545  71.355  1.00  0.00    -0.364 C  
ENDROOT
BRANCH   2   3
HETATM    3  N   UNL     1     -11.167   8.742  71.797  1.00  0.00    -0.315 NA 
BRANCH   3   4
HETATM    4  C   UNL     1     -11.418   7.293  71.803  1.00  0.00    -0.267 C  
HETATM    5  C   UNL     1     -11.605   6.634  70.441  1.00  0.00    -0.457 C  
ENDBRANCH   3   4
BRANCH   3   6
HETATM    6  C   UNL     1      -9.965   9.138  71.028  1.00  0.00    -0.297 C  
BRANCH   6   7
HETATM    7  C   UNL     1     -10.233  10.057  69.826  1.00  0.00    -0.250 C  
BRANCH   7   8
HETATM    8  O   UNL     1     -10.295   9.282  68.619  1.00  0.00    -0.195 OA 
BRANCH   8   9
HETATM    9  C   UNL     1     -10.354  10.139  67.477  1.00  0.00    -0.230 C  
BRANCH   9  10
HETATM   10  C   UNL     1     -11.334  11.285  67.719  1.00  0.00    -0.285 C  
BRANCH  10  11
HETATM   11  O   UNL     1     -10.708  12.564  67.507  1.00  0.00    -0.219 OA 
BRANCH  11  12
HETATM   12  C   UNL     1     -11.540  13.643  67.594  1.00  0.00    -0.346 C  
HETATM   13  O   UNL     1     -12.493  13.827  66.843  1.00  0.00    -0.338 OA 
BRANCH  12  14
HETATM   14  C   UNL     1     -11.106  14.637  68.689  1.00  0.00    -0.276 C  
HETATM   15  C   UNL     1     -11.123  16.113  68.206  1.00  0.00    -0.348 C  
HETATM   16  C   UNL     1      -9.585  14.406  68.895  1.00  0.00    -0.123 C  
HETATM   17  C   UNL     1      -9.049  15.715  69.443  1.00  0.00    -0.278 C  
HETATM   18  C   UNL     1      -9.823  16.774  68.681  1.00  0.00    -0.261 C  
BRANCH  14  19
HETATM   19  C   UNL     1     -11.992  14.453  69.936  1.00  0.00    -0.391 A  
HETATM   20  C   UNL     1     -13.058  13.086  71.658  1.00  0.00    -0.440 A  
HETATM   21  C   UNL     1     -13.692  14.205  72.188  1.00  0.00    -0.587 A  
HETATM   22  C   UNL     1     -12.222  13.208  70.544  1.00  0.00    -0.405 A  
HETATM   23  C   UNL     1     -13.480  15.450  71.610  1.00  0.00    -0.593 A  
HETATM   24  C   UNL     1     -12.633  15.574  70.503  1.00  0.00    -0.462 A  
ENDBRANCH  14  19
ENDBRANCH  12  14
ENDBRANCH  11  12
ENDBRANCH  10  11
ENDBRANCH   9  10
ENDBRANCH   8   9
ENDBRANCH   7   8
ENDBRANCH   6   7
ENDBRANCH   3   6
ENDBRANCH   2   3
TORSDOF 11
ENDMDL
MODEL       17
REMARK 921   NORMALIZED FREE ENERGY PREDICTED BY IDOCK:   -5.39 KCAL/MOL
REMARK 922        TOTAL FREE ENERGY PREDICTED BY IDOCK:   -9.67 KCAL/MOL
REMARK 923 INTER-LIGAND FREE ENERGY PREDICTED BY IDOCK:   -8.12 KCAL/MOL
REMARK 924 INTRA-LIGAND FREE ENERGY PREDICTED BY IDOCK:   -1.55 KCAL/MOL
REMARK 927      BINDING AFFINITY PREDICTED BY RF-SCORE:    0.00 PKD
ROOT
HETATM    1  C   UNL     1      -9.969  20.121  66.479  1.00  0.00    -0.586 C  
HETATM    2  C   UNL     1     -10.520  18.738  66.140  1.00  0.00    -0.446 C  
ENDROOT
BRANCH   2   3
HETATM    3  N   UNL     1      -9.491  17.713  65.879  1.00  0.00    -0.522 NA 
BRANCH   3   4
HETATM    4  C   UNL     1      -8.319  17.810  66.762  1.00  0.00    -0.248 C  
HETATM    5  C   UNL     1      -6.959  17.876  66.077  1.00  0.00    -0.346 C  
ENDBRANCH   3   4
BRANCH   3   6
HETATM    6  C   UNL     1     -10.119  16.372  65.864  1.00  0.00    -0.347 C  
BRANCH   6   7
HETATM    7  C   UNL     1     -11.184  16.163  64.776  1.00  0.00    -0.304 C  
BRANCH   7   8
HETATM    8  O   UNL     1     -11.303  14.767  64.466  1.00  0.00    -0.364 OA 
BRANCH   8   9
HETATM    9  C   UNL     1     -12.490  14.225  65.050  1.00  0.00    -0.400 C  
BRANCH   9  10
HETATM   10  C   UNL     1     -12.478  12.701  64.963  1.00  0.00    -0.487 C  
BRANCH  10  11
HETATM   11  O   UNL     1     -12.213  12.104  66.247  1.00  0.00    -0.604 OA 
BRANCH  11  12
HETATM   12  C   UNL     1     -10.904  12.113  66.637  1.00  0.00    -0.268 C  
HETATM   13  O   UNL     1      -9.963  12.054  65.852  1.00  0.00    -0.226 OA 
BRANCH  12  14
HETATM   14  C   UNL     1     -10.745  12.133  68.169  1.00  0.00    -0.238 C  
HETATM   15  C   UNL     1      -9.535  11.291  68.661  1.00  0.00    -0.179 C  
HETATM   16  C   UNL     1     -11.933  11.308  68.732  1.00  0.00    -0.350 C  
HETATM   17  C   UNL     1     -11.466  10.797  70.082  1.00  0.00    -0.415 C  
HETATM   18  C   UNL     1     -10.006  10.454  69.857  1.00  0.00    -0.096 C  
BRANCH  14  19
HETATM   19  C   UNL     1     -10.640  13.590  68.660  1.00  0.00    -0.259 A  
HETATM   20  C   UNL     1      -9.373  15.562  69.349  1.00  0.00    -0.279 A  
HETATM   21  C   UNL     1     -10.549  16.250  69.628  1.00  0.00    -0.320 A  
HETATM   22  C   UNL     1      -9.418  14.247  68.875  1.00  0.00    -0.071 A  
HETATM   23  C   UNL     1     -11.773  15.627  69.421  1.00  0.00    -0.395 A  
HETATM   24  C   UNL     1     -11.818  14.316  68.934  1.00  0.00    -0.372 A  
ENDBRANCH  14  19
ENDBRANCH  12  14
ENDBRANCH  11  12
ENDBRANCH  10  11
ENDBRANCH   9  10
ENDBRANCH   8   9
ENDBRANCH   7   8
ENDBRANCH   6   7
ENDBRANCH   3   6
ENDBRANCH   2   3
TORSDOF 11
ENDMDL
MODEL       18
REMARK 921   NORMALIZED FREE ENERGY PREDICTED BY IDOCK:   -5.37 KCAL/MOL
REMARK 922        TOTAL FREE ENERGY PREDICTED BY IDOCK:   -9.64 KCAL/MOL
REMARK 923 INTER-LIGAND FREE ENERGY PREDICTED BY IDOCK:   -8.15 KCAL/MOL
REMARK 924 INTRA-LIGAND FREE ENERGY PREDICTED BY IDOCK:   -1.48 KCAL/MOL
REMARK 927      BINDING AFFINITY PREDICTED BY RF-SCORE:    0.00 PKD
ROOT
HETATM    1  C   UNL     1     -11.739  14.599  64.974  1.00  0.00    -0.385 C  
HETATM    2  C   UNL     1     -12.244  13.954  66.263  1.00  0.00    -0.461 C  
ENDROOT
BRANCH   2   3
HETATM    3  N   UNL     1     -11.907  12.525  66.408  1.00  0.00    -0.516 NA 
BRANCH   3   4
HETATM    4  C   UNL     1     -10.867  12.062  65.477  1.00  0.00    -0.292 C  
HETATM    5  C   UNL     1      -9.552  11.611  66.103  1.00  0.00    -0.252 C  
ENDBRANCH   3   4
BRANCH   3   6
HETATM    6  C   UNL     1     -11.614  12.226  67.828  1.00  0.00    -0.351 C  
BRANCH   6   7
HETATM    7  C   UNL     1     -11.684  13.434  68.777  1.00  0.00    -0.340 C  
BRANCH   7   8
HETATM    8  O   UNL     1     -11.939  12.992  70.118  1.00  0.00    -0.336 OA 
BRANCH   8   9
HETATM    9  C   UNL     1     -12.087  11.571  70.157  1.00  0.00    -0.351 C  
BRANCH   9  10
HETATM   10  C   UNL     1     -12.904  11.153  71.377  1.00  0.00    -0.439 C  
BRANCH  10  11
HETATM   11  O   UNL     1     -12.311  10.023  72.044  1.00  0.00    -0.328 OA 
BRANCH  11  12
HETATM   12  C   UNL     1     -12.709   8.800  71.588  1.00  0.00    -0.348 C  
HETATM   13  O   UNL     1     -13.876   8.517  71.335  1.00  0.00    -0.330 OA 
BRANCH  12  14
HETATM   14  C   UNL     1     -11.544   7.796  71.497  1.00  0.00    -0.303 C  
HETATM   15  C   UNL     1     -11.873   6.427  72.154  1.00  0.00    -0.361 C  
HETATM   16  C   UNL     1     -10.444   8.330  72.453  1.00  0.00    -0.404 C  
HETATM   17  C   UNL     1      -9.631   7.114  72.852  1.00  0.00    -0.188 C  
HETATM   18  C   UNL     1     -10.666   6.016  73.006  1.00  0.00    -0.279 C  
BRANCH  14  19
HETATM   19  C   UNL     1     -11.129   7.616  70.023  1.00  0.00    -0.201 A  
HETATM   20  C   UNL     1     -10.243   8.444  67.902  1.00  0.00    -0.273 A  
HETATM   21  C   UNL     1     -10.459   7.208  67.302  1.00  0.00    -0.372 A  
HETATM   22  C   UNL     1     -10.578   8.647  69.245  1.00  0.00    -0.204 A  
HETATM   23  C   UNL     1     -10.998   6.169  68.049  1.00  0.00    -0.399 A  
HETATM   24  C   UNL     1     -11.321   6.368  69.396  1.00  0.00    -0.443 A  
ENDBRANCH  14  19
ENDBRANCH  12  14
ENDBRANCH  11  12
ENDBRANCH  10  11
ENDBRANCH   9  10
ENDBRANCH   8   9
ENDBRANCH   7   8
ENDBRANCH   6   7
ENDBRANCH   3   6
ENDBRANCH   2   3
TORSDOF 11
ENDMDL
MODEL       19
REMARK 921   NORMALIZED FREE ENERGY PREDICTED BY IDOCK:   -5.35 KCAL/MOL
REMARK 922        TOTAL FREE ENERGY PREDICTED BY IDOCK:   -9.61 KCAL/MOL
REMARK 923 INTER-LIGAND FREE ENERGY PREDICTED BY IDOCK:   -8.58 KCAL/MOL
REMARK 924 INTRA-LIGAND FREE ENERGY PREDICTED BY IDOCK:   -1.03 KCAL/MOL
REMARK 927      BINDING AFFINITY PREDICTED BY RF-SCORE:    0.00 PKD
ROOT
HETATM    1  C   UNL     1     -12.067  10.538  70.307  1.00  0.00    -0.402 C  
HETATM    2  C   UNL     1     -10.626  10.254  69.889  1.00  0.00    -0.276 C  
ENDROOT
BRANCH   2   3
HETATM    3  N   UNL     1     -10.314  10.596  68.489  1.00  0.00    -0.174 NA 
BRANCH   3   4
HETATM    4  C   UNL     1      -9.629   9.521  67.754  1.00  0.00    -0.133 C  
HETATM    5  C   UNL     1      -8.258   9.861  67.182  1.00  0.00    -0.121 C  
ENDBRANCH   3   4
BRANCH   3   6
HETATM    6  C   UNL     1     -11.535  11.096  67.816  1.00  0.00    -0.272 C  
BRANCH   6   7
HETATM    7  C   UNL     1     -11.309  12.253  66.831  1.00  0.00    -0.333 C  
BRANCH   7   8
HETATM    8  O   UNL     1     -12.281  12.198  65.776  1.00  0.00    -0.586 OA 
BRANCH   8   9
HETATM    9  C   UNL     1     -12.720  13.514  65.432  1.00  0.00    -0.442 C  
BRANCH   9  10
HETATM   10  C   UNL     1     -11.895  14.066  64.272  1.00  0.00    -0.410 C  
BRANCH  10  11
HETATM   11  O   UNL     1     -10.676  14.674  64.738  1.00  0.00    -0.412 OA 
BRANCH  11  12
HETATM   12  C   UNL     1     -10.785  15.978  65.129  1.00  0.00    -0.409 C  
HETATM   13  O   UNL     1     -11.290  16.854  64.434  1.00  0.00    -1.133 OA 
BRANCH  12  14
HETATM   14  C   UNL     1     -10.141  16.238  66.505  1.00  0.00    -0.301 C  
HETATM   15  C   UNL     1      -8.929  15.309  66.789  1.00  0.00    -0.291 C  
HETATM   16  C   UNL     1     -11.162  15.728  67.557  1.00  0.00    -0.218 C  
HETATM   17  C   UNL     1     -10.340  15.391  68.786  1.00  0.00    -0.229 C  
HETATM   18  C   UNL     1      -9.072  14.781  68.222  1.00  0.00    -0.183 C  
BRANCH  14  19
HETATM   19  C   UNL     1      -9.740  17.722  66.616  1.00  0.00    -0.314 A  
HETATM   20  C   UNL     1     -10.227  20.073  67.065  1.00  0.00    -0.587 A  
HETATM   21  C   UNL     1      -8.926  20.432  66.729  1.00  0.00    -0.338 A  
HETATM   22  C   UNL     1     -10.630  18.735  67.005  1.00  0.00    -0.483 A  
HETATM   23  C   UNL     1      -8.023  19.450  66.345  1.00  0.00    -0.318 A  
HETATM   24  C   UNL     1      -8.422  18.110  66.298  1.00  0.00    -0.213 A  
ENDBRANCH  14  19
ENDBRANCH  12  14
ENDBRANCH  11  12
ENDBRANCH  10  11
ENDBRANCH   9  10
ENDBRANCH   8   9
ENDBRANCH   7   8
ENDBRANCH   6   7
ENDBRANCH   3   6
ENDBRANCH   2   3
TORSDOF 11
ENDMDL
MODEL       20
REMARK 921   NORMALIZED FREE ENERGY PREDICTED BY IDOCK:   -5.34 KCAL/MOL
REMARK 922        TOTAL FREE ENERGY PREDICTED BY IDOCK:   -9.60 KCAL/MOL
REMARK 923 INTER-LIGAND FREE ENERGY PREDICTED BY IDOCK:   -8.61 KCAL/MOL
REMARK 924 INTRA-LIGAND FREE ENERGY PREDICTED BY IDOCK:   -0.99 KCAL/MOL
REMARK 927      BINDING AFFINITY PREDICTED BY RF-SCORE:    0.00 PKD
ROOT
HETATM    1  C   UNL     1     -13.065  10.222  72.014  1.00  0.00    -0.529 C  
HETATM    2  C   UNL     1     -12.722  11.315  71.004  1.00  0.00    -0.359 C  
ENDROOT
BRANCH   2   3
HETATM    3  N   UNL     1     -11.433  11.128  70.311  1.00  0.00    -0.279 NA 
BRANCH   3   4
HETATM    4  C   UNL     1     -10.691   9.935  70.748  1.00  0.00    -0.280 C  
HETATM    5  C   UNL     1      -9.358   9.677  70.056  1.00  0.00    -0.276 C  
ENDBRANCH   3   4
BRANCH   3   6
HETATM    6  C   UNL     1     -11.642  11.199  68.847  1.00  0.00    -0.317 C  
BRANCH   6   7
HETATM    7  C   UNL     1     -11.422  12.586  68.223  1.00  0.00    -0.308 C  
BRANCH   7   8
HETATM    8  O   UNL     1     -12.041  12.649  66.930  1.00  0.00    -0.490 OA 
BRANCH   8   9
HETATM    9  C   UNL     1     -12.036  13.990  66.438  1.00  0.00    -0.455 C  
BRANCH   9  10
HETATM   10  C   UNL     1     -10.712  14.675  66.765  1.00  0.00    -0.301 C  
BRANCH  10  11
HETATM   11  O   UNL     1     -10.904  16.066  67.082  1.00  0.00    -0.310 OA 
BRANCH  11  12
HETATM   12  C   UNL     1     -10.392  16.949  66.175  1.00  0.00    -0.320 C  
HETATM   13  O   UNL     1     -10.521  16.824  64.960  1.00  0.00    -0.675 OA 
BRANCH  12  14
HETATM   14  C   UNL     1      -9.577  18.074  66.840  1.00  0.00    -0.295 C  
HETATM   15  C   UNL     1      -9.866  18.211  68.361  1.00  0.00    -0.380 C  
HETATM   16  C   UNL     1     -10.169  19.404  66.302  1.00  0.00    -0.566 C  
HETATM   17  C   UNL     1      -9.852  20.444  67.360  1.00  0.00    -0.587 C  
HETATM   18  C   UNL     1     -10.042  19.703  68.670  1.00  0.00    -0.547 C  
BRANCH  14  19
HETATM   19  C   UNL     1      -8.075  17.848  66.581  1.00  0.00    -0.281 A  
HETATM   20  C   UNL     1      -5.962  16.676  66.945  1.00  0.00    -0.152 A  
HETATM   21  C   UNL     1      -5.301  17.553  66.092  1.00  0.00    -0.217 A  
HETATM   22  C   UNL     1      -7.331  16.825  67.190  1.00  0.00    -0.222 A  
HETATM   23  C   UNL     1      -6.012  18.573  65.472  1.00  0.00    -0.272 A  
HETATM   24  C   UNL     1      -7.384  18.713  65.707  1.00  0.00    -0.191 A  
ENDBRANCH  14  19
ENDBRANCH  12  14
ENDBRANCH  11  12
ENDBRANCH  10  11
ENDBRANCH   9  10
ENDBRANCH   8   9
ENDBRANCH   7   8
ENDBRANCH   6   7
ENDBRANCH   3   6
ENDBRANCH   2   3
TORSDOF 11
ENDMDL
MODEL       21
REMARK 921   NORMALIZED FREE ENERGY PREDICTED BY IDOCK:   -5.34 KCAL/MOL
REMARK 922        TOTAL FREE ENERGY PREDICTED BY IDOCK:   -9.59 KCAL/MOL
REMARK 923 INTER-LIGAND FREE ENERGY PREDICTED BY IDOCK:   -8.36 KCAL/MOL
REMARK 924 INTRA-LIGAND FREE ENERGY PREDICTED BY IDOCK:   -1.24 KCAL/MOL
REMARK 927      BINDING AFFINITY PREDICTED BY RF-SCORE:    0.00 PKD
ROOT
HETATM    1  C   UNL     1     -12.542  12.065  63.469  1.00  0.00    -0.625 C  
HETATM    2  C   UNL     1     -11.030  12.095  63.682  1.00  0.00    -0.461 C  
ENDROOT
BRANCH   2   3
HETATM    3  N   UNL     1     -10.491  10.941  64.426  1.00  0.00    -0.361 NA 
BRANCH   3   4
HETATM    4  C   UNL     1      -9.465  10.186  63.690  1.00  0.00    -0.267 C  
HETATM    5  C   UNL     1      -8.536   9.315  64.527  1.00  0.00    -0.217 C  
ENDBRANCH   3   4
BRANCH   3   6
HETATM    6  C   UNL     1     -10.060  11.377  65.774  1.00  0.00    -0.246 C  
BRANCH   6   7
HETATM    7  C   UNL     1     -11.097  11.171  66.889  1.00  0.00    -0.247 C  
BRANCH   7   8
HETATM    8  O   UNL     1     -11.949  12.321  66.987  1.00  0.00    -0.576 OA 
BRANCH   8   9
HETATM    9  C   UNL     1     -11.214  13.448  67.469  1.00  0.00    -0.284 C  
BRANCH   9  10
HETATM   10  C   UNL     1     -11.514  14.682  66.622  1.00  0.00    -0.357 C  
BRANCH  10  11
HETATM   11  O   UNL     1     -10.950  15.871  67.208  1.00  0.00    -0.310 OA 
BRANCH  11  12
HETATM   12  C   UNL     1     -10.476  16.792  66.319  1.00  0.00    -0.261 C  
HETATM   13  O   UNL     1     -10.599  16.687  65.102  1.00  0.00    -0.645 OA 
BRANCH  12  14
HETATM   14  C   UNL     1      -9.709  17.938  67.008  1.00  0.00    -0.298 C  
HETATM   15  C   UNL     1     -10.366  18.387  68.342  1.00  0.00    -0.357 C  
HETATM   16  C   UNL     1      -9.935  19.194  66.125  1.00  0.00    -0.441 C  
HETATM   17  C   UNL     1      -9.759  20.378  67.056  1.00  0.00    -0.588 C  
HETATM   18  C   UNL     1     -10.396  19.921  68.354  1.00  0.00    -0.507 C  
BRANCH  14  19
HETATM   19  C   UNL     1      -8.242  17.520  67.227  1.00  0.00    -0.222 A  
HETATM   20  C   UNL     1      -6.385  16.768  68.627  1.00  0.00    -0.154 A  
HETATM   21  C   UNL     1      -5.512  16.834  67.546  1.00  0.00    -0.164 A  
HETATM   22  C   UNL     1      -7.732  17.111  68.470  1.00  0.00    -0.248 A  
HETATM   23  C   UNL     1      -5.990  17.230  66.304  1.00  0.00    -0.176 A  
HETATM   24  C   UNL     1      -7.340  17.561  66.144  1.00  0.00    -0.347 A  
ENDBRANCH  14  19
ENDBRANCH  12  14
ENDBRANCH  11  12
ENDBRANCH  10  11
ENDBRANCH   9  10
ENDBRANCH   8   9
ENDBRANCH   7   8
ENDBRANCH   6   7
ENDBRANCH   3   6
ENDBRANCH   2   3
TORSDOF 11
ENDMDL
MODEL       22
REMARK 921   NORMALIZED FREE ENERGY PREDICTED BY IDOCK:   -5.33 KCAL/MOL
REMARK 922        TOTAL FREE ENERGY PREDICTED BY IDOCK:   -9.58 KCAL/MOL
REMARK 923 INTER-LIGAND FREE ENERGY PREDICTED BY IDOCK:   -7.98 KCAL/MOL
REMARK 924 INTRA-LIGAND FREE ENERGY PREDICTED BY IDOCK:   -1.59 KCAL/MOL
REMARK 927      BINDING AFFINITY PREDICTED BY RF-SCORE:    0.00 PKD
ROOT
HETATM    1  C   UNL     1      -7.002  19.843  65.452  1.00  0.00    -0.323 C  
HETATM    2  C   UNL     1      -8.116  19.861  66.496  1.00  0.00    -0.328 C  
ENDROOT
BRANCH   2   3
HETATM    3  N   UNL     1      -8.442  18.541  67.070  1.00  0.00    -0.258 NA 
BRANCH   3   4
HETATM    4  C   UNL     1      -7.711  18.237  68.310  1.00  0.00    -0.291 C  
HETATM    5  C   UNL     1      -6.694  17.104  68.235  1.00  0.00    -0.167 C  
ENDBRANCH   3   4
BRANCH   3   6
HETATM    6  C   UNL     1      -9.911  18.402  67.192  1.00  0.00    -0.320 C  
BRANCH   6   7
HETATM    7  C   UNL     1     -10.612  17.791  65.969  1.00  0.00    -0.229 C  
BRANCH   7   8
HETATM    8  O   UNL     1     -10.082  16.485  65.700  1.00  0.00    -0.483 OA 
BRANCH   8   9
HETATM    9  C   UNL     1     -11.014  15.713  64.940  1.00  0.00    -0.431 C  
BRANCH   9  10
HETATM   10  C   UNL     1     -10.554  14.261  64.847  1.00  0.00    -0.431 C  
BRANCH  10  11
HETATM   11  O   UNL     1     -10.206  13.737  66.143  1.00  0.00    -0.286 OA 
BRANCH  11  12
HETATM   12  C   UNL     1     -11.259  13.339  66.915  1.00  0.00    -0.305 C  
HETATM   13  O   UNL     1     -12.236  12.741  66.474  1.00  0.00    -0.494 OA 
BRANCH  12  14
HETATM   14  C   UNL     1     -11.118  13.787  68.383  1.00  0.00    -0.287 C  
HETATM   15  C   UNL     1     -11.984  15.033  68.720  1.00  0.00    -0.282 C  
HETATM   16  C   UNL     1      -9.687  14.373  68.514  1.00  0.00    -0.225 C  
HETATM   17  C   UNL     1      -9.754  15.345  69.677  1.00  0.00    -0.251 C  
HETATM   18  C   UNL     1     -11.111  16.003  69.526  1.00  0.00    -0.333 C  
BRANCH  14  19
HETATM   19  C   UNL     1     -11.455  12.610  69.319  1.00  0.00    -0.354 A  
HETATM   20  C   UNL     1     -12.539  11.641  71.282  1.00  0.00    -0.425 A  
HETATM   21  C   UNL     1     -11.963  10.402  71.018  1.00  0.00    -0.481 A  
HETATM   22  C   UNL     1     -12.284  12.732  70.445  1.00  0.00    -0.371 A  
HETATM   23  C   UNL     1     -11.143  10.251  69.908  1.00  0.00    -0.362 A  
HETATM   24  C   UNL     1     -10.899  11.340  69.063  1.00  0.00    -0.268 A  
ENDBRANCH  14  19
ENDBRANCH  12  14
ENDBRANCH  11  12
ENDBRANCH  10  11
ENDBRANCH   9  10
ENDBRANCH   8   9
ENDBRANCH   7   8
ENDBRANCH   6   7
ENDBRANCH   3   6
ENDBRANCH   2   3
TORSDOF 11
ENDMDL
MODEL       23
REMARK 921   NORMALIZED FREE ENERGY PREDICTED BY IDOCK:   -5.32 KCAL/MOL
REMARK 922        TOTAL FREE ENERGY PREDICTED BY IDOCK:   -9.57 KCAL/MOL
REMARK 923 INTER-LIGAND FREE ENERGY PREDICTED BY IDOCK:   -8.32 KCAL/MOL
REMARK 924 INTRA-LIGAND FREE ENERGY PREDICTED BY IDOCK:   -1.25 KCAL/MOL
REMARK 927      BINDING AFFINITY PREDICTED BY RF-SCORE:    0.00 PKD
ROOT
HETATM    1  C   UNL     1      -9.089   6.931  73.618  1.00  0.00    -0.182 C  
HETATM    2  C   UNL     1     -10.531   7.435  73.646  1.00  0.00    -0.299 C  
ENDROOT
BRANCH   2   3
HETATM    3  N   UNL     1     -11.115   7.698  72.318  1.00  0.00    -0.265 NA 
BRANCH   3   4
HETATM    4  C   UNL     1     -11.694   6.508  71.677  1.00  0.00    -0.324 C  
HETATM    5  C   UNL     1     -11.499   6.389  70.170  1.00  0.00    -0.484 C  
ENDBRANCH   3   4
BRANCH   3   6
HETATM    6  C   UNL     1     -12.050   8.844  72.406  1.00  0.00    -0.274 C  
BRANCH   6   7
HETATM    7  C   UNL     1     -11.856   9.928  71.334  1.00  0.00    -0.394 C  
BRANCH   7   8
HETATM    8  O   UNL     1     -10.527   9.856  70.796  1.00  0.00    -0.290 OA 
BRANCH   8   9
HETATM    9  C   UNL     1     -10.468  10.499  69.521  1.00  0.00    -0.235 C  
BRANCH   9  10
HETATM   10  C   UNL     1     -11.859  10.958  69.090  1.00  0.00    -0.317 C  
BRANCH  10  11
HETATM   11  O   UNL     1     -11.879  11.341  67.702  1.00  0.00    -0.614 OA 
BRANCH  11  12
HETATM   12  C   UNL     1     -11.853  12.685  67.466  1.00  0.00    -0.334 C  
HETATM   13  O   UNL     1     -12.273  13.521  68.260  1.00  0.00    -0.313 OA 
BRANCH  12  14
HETATM   14  C   UNL     1     -11.306  13.028  66.067  1.00  0.00    -0.343 C  
HETATM   15  C   UNL     1     -12.421  13.118  64.988  1.00  0.00    -0.516 C  
HETATM   16  C   UNL     1     -10.530  11.771  65.592  1.00  0.00    -0.308 C  
HETATM   17  C   UNL     1     -10.547  11.835  64.077  1.00  0.00    -0.425 C  
HETATM   18  C   UNL     1     -11.932  12.358  63.748  1.00  0.00    -0.600 C  
BRANCH  14  19
HETATM   19  C   UNL     1     -10.496  14.338  66.134  1.00  0.00    -0.294 A  
HETATM   20  C   UNL     1     -10.178  16.718  65.685  1.00  0.00    -0.258 A  
HETATM   21  C   UNL     1      -8.905  16.679  66.245  1.00  0.00    -0.348 A  
HETATM   22  C   UNL     1     -10.961  15.561  65.626  1.00  0.00    -0.307 A  
HETATM   23  C   UNL     1      -8.421  15.483  66.759  1.00  0.00    -0.314 A  
HETATM   24  C   UNL     1      -9.210  14.329  66.712  1.00  0.00    -0.282 A  
ENDBRANCH  14  19
ENDBRANCH  12  14
ENDBRANCH  11  12
ENDBRANCH  10  11
ENDBRANCH   9  10
ENDBRANCH   8   9
ENDBRANCH   7   8
ENDBRANCH   6   7
ENDBRANCH   3   6
ENDBRANCH   2   3
TORSDOF 11
ENDMDL
MODEL       24
REMARK 921   NORMALIZED FREE ENERGY PREDICTED BY IDOCK:   -5.32 KCAL/MOL
REMARK 922        TOTAL FREE ENERGY PREDICTED BY IDOCK:   -9.56 KCAL/MOL
REMARK 923 INTER-LIGAND FREE ENERGY PREDICTED BY IDOCK:   -8.34 KCAL/MOL
REMARK 924 INTRA-LIGAND FREE ENERGY PREDICTED BY IDOCK:   -1.23 KCAL/MOL
REMARK 927      BINDING AFFINITY PREDICTED BY RF-SCORE:    0.00 PKD
ROOT
HETATM    1  C   UNL     1     -10.932   6.359  68.946  1.00  0.00    -0.412 C  
HETATM    2  C   UNL     1     -10.939   7.090  70.287  1.00  0.00    -0.271 C  
ENDROOT
BRANCH   2   3
HETATM    3  N   UNL     1     -11.827   6.496  71.305  1.00  0.00    -0.337 NA 
BRANCH   3   4
HETATM    4  C   UNL     1     -11.113   5.764  72.362  1.00  0.00    -0.281 C  
HETATM    5  C   UNL     1      -9.632   6.087  72.527  1.00  0.00    -0.162 C  
ENDBRANCH   3   4
BRANCH   3   6
HETATM    6  C   UNL     1     -12.755   7.531  71.817  1.00  0.00    -0.331 C  
BRANCH   6   7
HETATM    7  C   UNL     1     -12.262   8.979  71.671  1.00  0.00    -0.348 C  
BRANCH   7   8
HETATM    8  O   UNL     1     -13.242   9.887  72.195  1.00  0.00    -0.438 OA 
BRANCH   8   9
HETATM    9  C   UNL     1     -13.100  11.177  71.595  1.00  0.00    -0.424 C  
BRANCH   9  10
HETATM   10  C   UNL     1     -11.826  11.237  70.755  1.00  0.00    -0.183 C  
BRANCH  10  11
HETATM   11  O   UNL     1     -11.931  12.226  69.713  1.00  0.00    -0.314 OA 
BRANCH  11  12
HETATM   12  C   UNL     1     -11.668  11.776  68.452  1.00  0.00    -0.325 C  
HETATM   13  O   UNL     1     -11.835  10.613  68.098  1.00  0.00    -0.482 OA 
BRANCH  12  14
HETATM   14  C   UNL     1     -11.071  12.871  67.547  1.00  0.00    -0.302 C  
HETATM   15  C   UNL     1      -9.602  13.222  67.913  1.00  0.00    -0.217 C  
HETATM   16  C   UNL     1     -11.799  14.187  67.933  1.00  0.00    -0.405 C  
HETATM   17  C   UNL     1     -10.842  15.302  67.557  1.00  0.00    -0.304 C  
HETATM   18  C   UNL     1      -9.477  14.751  67.921  1.00  0.00    -0.201 C  
BRANCH  14  19
HETATM   19  C   UNL     1     -11.186  12.443  66.071  1.00  0.00    -0.374 A  
HETATM   20  C   UNL     1     -10.308  11.417  64.035  1.00  0.00    -0.418 A  
HETATM   21  C   UNL     1     -11.463  11.756  63.337  1.00  0.00    -0.424 A  
HETATM   22  C   UNL     1     -10.170  11.761  65.383  1.00  0.00    -0.301 A  
HETATM   23  C   UNL     1     -12.487  12.427  63.993  1.00  0.00    -0.554 A  
HETATM   24  C   UNL     1     -12.353  12.759  65.346  1.00  0.00    -0.528 A  
ENDBRANCH  14  19
ENDBRANCH  12  14
ENDBRANCH  11  12
ENDBRANCH  10  11
ENDBRANCH   9  10
ENDBRANCH   8   9
ENDBRANCH   7   8
ENDBRANCH   6   7
ENDBRANCH   3   6
ENDBRANCH   2   3
TORSDOF 11
ENDMDL
MODEL       25
REMARK 921   NORMALIZED FREE ENERGY PREDICTED BY IDOCK:   -5.32 KCAL/MOL
REMARK 922        TOTAL FREE ENERGY PREDICTED BY IDOCK:   -9.55 KCAL/MOL
REMARK 923 INTER-LIGAND FREE ENERGY PREDICTED BY IDOCK:   -8.16 KCAL/MOL
REMARK 924 INTRA-LIGAND FREE ENERGY PREDICTED BY IDOCK:   -1.39 KCAL/MOL
REMARK 927      BINDING AFFINITY PREDICTED BY RF-SCORE:    0.00 PKD
ROOT
HETATM    1  C   UNL     1     -12.190  15.027  64.453  1.00  0.00    -0.353 C  
HETATM    2  C   UNL     1     -12.910  14.072  65.402  1.00  0.00    -0.410 C  
ENDROOT
BRANCH   2   3
HETATM    3  N   UNL     1     -12.441  12.675  65.339  1.00  0.00    -0.655 NA 
BRANCH   3   4
HETATM    4  C   UNL     1     -12.368  12.133  63.974  1.00  0.00    -0.451 C  
HETATM    5  C   UNL     1     -11.022  11.564  63.543  1.00  0.00    -0.453 C  
ENDBRANCH   3   4
BRANCH   3   6
HETATM    6  C   UNL     1     -11.179  12.540  66.103  1.00  0.00    -0.321 C  
BRANCH   6   7
HETATM    7  C   UNL     1     -11.337  12.000  67.533  1.00  0.00    -0.319 C  
BRANCH   7   8
HETATM    8  O   UNL     1     -11.605  10.590  67.499  1.00  0.00    -0.421 OA 
BRANCH   8   9
HETATM    9  C   UNL     1     -10.388   9.853  67.360  1.00  0.00    -0.246 C  
BRANCH   9  10
HETATM   10  C   UNL     1     -10.648   8.358  67.523  1.00  0.00    -0.215 C  
BRANCH  10  11
HETATM   11  O   UNL     1      -9.902   7.813  68.628  1.00  0.00    -0.161 OA 
BRANCH  11  12
HETATM   12  C   UNL     1     -10.653   7.265  69.628  1.00  0.00    -0.235 C  
HETATM   13  O   UNL     1     -11.501   6.398  69.441  1.00  0.00    -0.401 OA 
BRANCH  12  14
HETATM   14  C   UNL     1     -10.370   7.908  70.999  1.00  0.00    -0.221 C  
HETATM   15  C   UNL     1      -8.971   8.580  71.074  1.00  0.00    -0.219 C  
HETATM   16  C   UNL     1     -10.189   6.729  71.993  1.00  0.00    -0.209 C  
HETATM   17  C   UNL     1      -9.325   7.275  73.113  1.00  0.00    -0.216 C  
HETATM   18  C   UNL     1      -8.326   8.168  72.403  1.00  0.00    -0.227 C  
BRANCH  14  19
HETATM   19  C   UNL     1     -11.486   8.914  71.341  1.00  0.00    -0.381 A  
HETATM   20  C   UNL     1     -13.630   9.518  72.346  1.00  0.00    -0.459 A  
HETATM   21  C   UNL     1     -13.517  10.818  71.862  1.00  0.00    -0.327 A  
HETATM   22  C   UNL     1     -12.628   8.577  72.085  1.00  0.00    -0.431 A  
HETATM   23  C   UNL     1     -12.396  11.180  71.127  1.00  0.00    -0.451 A  
HETATM   24  C   UNL     1     -11.389  10.242  70.877  1.00  0.00    -0.376 A  
ENDBRANCH  14  19
ENDBRANCH  12  14
ENDBRANCH  11  12
ENDBRANCH  10  11
ENDBRANCH   9  10
ENDBRANCH   8   9
ENDBRANCH   7   8
ENDBRANCH   6   7
ENDBRANCH   3   6
ENDBRANCH   2   3
TORSDOF 11
ENDMDL
MODEL       26
REMARK 921   NORMALIZED FREE ENERGY PREDICTED BY IDOCK:   -5.31 KCAL/MOL
REMARK 922        TOTAL FREE ENERGY PREDICTED BY IDOCK:   -9.54 KCAL/MOL
REMARK 923 INTER-LIGAND FREE ENERGY PREDICTED BY IDOCK:   -8.44 KCAL/MOL
REMARK 924 INTRA-LIGAND FREE ENERGY PREDICTED BY IDOCK:   -1.10 KCAL/MOL
REMARK 927      BINDING AFFINITY PREDICTED BY RF-SCORE:    0.00 PKD
ROOT
HETATM    1  C   UNL     1     -14.359   7.904  71.560  1.00  0.00    -0.563 C  
HETATM    2  C   UNL     1     -12.899   7.465  71.468  1.00  0.00    -0.375 C  
ENDROOT
BRANCH   2   3
HETATM    3  N   UNL     1     -11.998   8.120  72.434  1.00  0.00    -0.371 NA 
BRANCH   3   4
HETATM    4  C   UNL     1     -11.027   7.207  73.056  1.00  0.00    -0.317 C  
HETATM    5  C   UNL     1     -11.020   5.773  72.538  1.00  0.00    -0.309 C  
ENDBRANCH   3   4
BRANCH   3   6
HETATM    6  C   UNL     1     -11.381   9.311  71.807  1.00  0.00    -0.367 C  
BRANCH   6   7
HETATM    7  C   UNL     1     -11.184   9.220  70.286  1.00  0.00    -0.231 C  
BRANCH   7   8
HETATM    8  O   UNL     1      -9.860   8.756  69.987  1.00  0.00    -0.171 OA 
BRANCH   8   9
HETATM    9  C   UNL     1      -9.562   8.949  68.603  1.00  0.00    -0.153 C  
BRANCH   9  10
HETATM   10  C   UNL     1     -10.744   9.598  67.888  1.00  0.00    -0.247 C  
BRANCH  10  11
HETATM   11  O   UNL     1     -10.323  10.720  67.089  1.00  0.00    -0.203 OA 
BRANCH  11  12
HETATM   12  C   UNL     1     -11.230  11.735  66.981  1.00  0.00    -0.322 C  
HETATM   13  O   UNL     1     -12.029  12.026  67.865  1.00  0.00    -0.526 OA 
BRANCH  12  14
HETATM   14  C   UNL     1     -11.185  12.423  65.603  1.00  0.00    -0.360 C  
HETATM   15  C   UNL     1     -12.587  12.545  64.944  1.00  0.00    -0.469 C  
HETATM   16  C   UNL     1     -10.491  11.416  64.646  1.00  0.00    -0.373 C  
HETATM   17  C   UNL     1     -10.992  11.769  63.259  1.00  0.00    -0.387 C  
HETATM   18  C   UNL     1     -12.450  12.125  63.475  1.00  0.00    -0.666 C  
BRANCH  14  19
HETATM   19  C   UNL     1     -10.514  13.803  65.735  1.00  0.00    -0.303 A  
HETATM   20  C   UNL     1      -8.779  15.300  66.584  1.00  0.00    -0.327 A  
HETATM   21  C   UNL     1      -9.389  16.392  65.974  1.00  0.00    -0.335 A  
HETATM   22  C   UNL     1      -9.337  14.023  66.469  1.00  0.00    -0.274 A  
HETATM   23  C   UNL     1     -10.552  16.204  65.239  1.00  0.00    -0.390 A  
HETATM   24  C   UNL     1     -11.103  14.923  65.113  1.00  0.00    -0.399 A  
ENDBRANCH  14  19
ENDBRANCH  12  14
ENDBRANCH  11  12
ENDBRANCH  10  11
ENDBRANCH   9  10
ENDBRANCH   8   9
ENDBRANCH   7   8
ENDBRANCH   6   7
ENDBRANCH   3   6
ENDBRANCH   2   3
TORSDOF 11
ENDMDL
MODEL       27
REMARK 921   NORMALIZED FREE ENERGY PREDICTED BY IDOCK:   -5.31 KCAL/MOL
REMARK 922        TOTAL FREE ENERGY PREDICTED BY IDOCK:   -9.54 KCAL/MOL
REMARK 923 INTER-LIGAND FREE ENERGY PREDICTED BY IDOCK:   -8.29 KCAL/MOL
REMARK 924 INTRA-LIGAND FREE ENERGY PREDICTED BY IDOCK:   -1.25 KCAL/MOL
REMARK 927      BINDING AFFINITY PREDICTED BY RF-SCORE:    0.00 PKD
ROOT
HETATM    1  C   UNL     1      -7.030  19.304  67.775  1.00  0.00    -0.253 C  
HETATM    2  C   UNL     1      -8.202  18.479  68.303  1.00  0.00    -0.314 C  
ENDROOT
BRANCH   2   3
HETATM    3  N   UNL     1      -9.527  19.095  68.100  1.00  0.00    -0.325 NA 
BRANCH   3   4
HETATM    4  C   UNL     1      -9.537  20.166  67.092  1.00  0.00    -0.420 C  
HETATM    5  C   UNL     1     -10.188  19.831  65.756  1.00  0.00    -0.478 C  
ENDBRANCH   3   4
BRANCH   3   6
HETATM    6  C   UNL     1     -10.533  18.036  67.856  1.00  0.00    -0.396 C  
BRANCH   6   7
HETATM    7  C   UNL     1     -10.565  16.913  68.905  1.00  0.00    -0.353 C  
BRANCH   7   8
HETATM    8  O   UNL     1     -11.800  16.188  68.811  1.00  0.00    -0.339 OA 
BRANCH   8   9
HETATM    9  C   UNL     1     -11.806  15.091  69.727  1.00  0.00    -0.321 C  
BRANCH   9  10
HETATM   10  C   UNL     1     -11.937  13.769  68.976  1.00  0.00    -0.360 C  
BRANCH  10  11
HETATM   11  O   UNL     1     -11.842  13.963  67.552  1.00  0.00    -0.356 OA 
BRANCH  11  12
HETATM   12  C   UNL     1     -10.700  13.490  66.972  1.00  0.00    -0.277 C  
HETATM   13  O   UNL     1      -9.573  13.821  67.327  1.00  0.00    -0.224 OA 
BRANCH  12  14
HETATM   14  C   UNL     1     -10.985  12.556  65.781  1.00  0.00    -0.327 C  
HETATM   15  C   UNL     1     -10.303  13.027  64.467  1.00  0.00    -0.386 C  
HETATM   16  C   UNL     1     -12.483  12.758  65.429  1.00  0.00    -0.478 C  
HETATM   17  C   UNL     1     -12.609  12.380  63.966  1.00  0.00    -0.510 C  
HETATM   18  C   UNL     1     -11.336  12.917  63.339  1.00  0.00    -0.314 C  
BRANCH  14  19
HETATM   19  C   UNL     1     -10.563  11.118  66.138  1.00  0.00    -0.305 A  
HETATM   20  C   UNL     1     -10.572   9.150  67.586  1.00  0.00    -0.307 A  
HETATM   21  C   UNL     1      -9.679   8.496  66.744  1.00  0.00    -0.303 A  
HETATM   22  C   UNL     1     -11.006  10.446  67.289  1.00  0.00    -0.306 A  
HETATM   23  C   UNL     1      -9.227   9.134  65.597  1.00  0.00    -0.296 A  
HETATM   24  C   UNL     1      -9.671  10.426  65.293  1.00  0.00    -0.339 A  
ENDBRANCH  14  19
ENDBRANCH  12  14
ENDBRANCH  11  12
ENDBRANCH  10  11
ENDBRANCH   9  10
ENDBRANCH   8   9
ENDBRANCH   7   8
ENDBRANCH   6   7
ENDBRANCH   3   6
ENDBRANCH   2   3
TORSDOF 11
ENDMDL
MODEL       28
REMARK 921   NORMALIZED FREE ENERGY PREDICTED BY IDOCK:   -5.28 KCAL/MOL
REMARK 922        TOTAL FREE ENERGY PREDICTED BY IDOCK:   -9.49 KCAL/MOL
REMARK 923 INTER-LIGAND FREE ENERGY PREDICTED BY IDOCK:   -8.22 KCAL/MOL
REMARK 924 INTRA-LIGAND FREE ENERGY PREDICTED BY IDOCK:   -1.27 KCAL/MOL
REMARK 927      BINDING AFFINITY PREDICTED BY RF-SCORE:    0.00 PKD
ROOT
HETATM    1  C   UNL     1     -10.631  19.830  65.739  1.00  0.00    -0.522 C  
HETATM    2  C   UNL     1      -9.462  19.135  66.433  1.00  0.00    -0.354 C  
ENDROOT
BRANCH   2   3
HETATM    3  N   UNL     1      -9.092  19.714  67.739  1.00  0.00    -0.318 NA 
BRANCH   3   4
HETATM    4  C   UNL     1      -9.935  19.257  68.853  1.00  0.00    -0.427 C  
HETATM    5  C   UNL     1     -10.372  17.797  68.815  1.00  0.00    -0.332 C  
ENDBRANCH   3   4
BRANCH   3   6
HETATM    6  C   UNL     1      -7.641  19.526  67.971  1.00  0.00    -0.296 C  
BRANCH   6   7
HETATM    7  C   UNL     1      -6.985  18.420  67.130  1.00  0.00    -0.198 C  
BRANCH   7   8
HETATM    8  O   UNL     1      -7.057  17.166  67.824  1.00  0.00    -0.149 OA 
BRANCH   8   9
HETATM    9  C   UNL     1      -7.258  16.094  66.900  1.00  0.00    -0.205 C  
BRANCH   9  10
HETATM   10  C   UNL     1      -8.682  15.554  67.011  1.00  0.00    -0.231 C  
BRANCH  10  11
HETATM   11  O   UNL     1      -9.054  14.810  65.835  1.00  0.00    -0.159 OA 
BRANCH  11  12
HETATM   12  C   UNL     1     -10.337  14.997  65.407  1.00  0.00    -0.383 C  
HETATM   13  O   UNL     1     -10.822  16.102  65.182  1.00  0.00    -0.435 OA 
BRANCH  12  14
HETATM   14  C   UNL     1     -11.125  13.677  65.308  1.00  0.00    -0.307 C  
HETATM   15  C   UNL     1     -10.401  12.605  64.446  1.00  0.00    -0.386 C  
HETATM   16  C   UNL     1     -12.364  13.985  64.424  1.00  0.00    -0.401 C  
HETATM   17  C   UNL     1     -12.765  12.655  63.815  1.00  0.00    -0.341 C  
HETATM   18  C   UNL     1     -11.443  11.978  63.511  1.00  0.00    -0.536 C  
BRANCH  14  19
HETATM   19  C   UNL     1     -11.420  13.142  66.723  1.00  0.00    -0.386 A  
HETATM   20  C   UNL     1     -12.089  13.429  69.055  1.00  0.00    -0.299 A  
HETATM   21  C   UNL     1     -11.873  12.079  69.308  1.00  0.00    -0.377 A  
HETATM   22  C   UNL     1     -11.861  13.955  67.779  1.00  0.00    -0.415 A  
HETATM   23  C   UNL     1     -11.442  11.250  68.281  1.00  0.00    -0.378 A  
HETATM   24  C   UNL     1     -11.226  11.774  67.002  1.00  0.00    -0.382 A  
ENDBRANCH  14  19
ENDBRANCH  12  14
ENDBRANCH  11  12
ENDBRANCH  10  11
ENDBRANCH   9  10
ENDBRANCH   8   9
ENDBRANCH   7   8
ENDBRANCH   6   7
ENDBRANCH   3   6
ENDBRANCH   2   3
TORSDOF 11
ENDMDL
MODEL       29
REMARK 921   NORMALIZED FREE ENERGY PREDICTED BY IDOCK:   -5.27 KCAL/MOL
REMARK 922        TOTAL FREE ENERGY PREDICTED BY IDOCK:   -9.48 KCAL/MOL
REMARK 923 INTER-LIGAND FREE ENERGY PREDICTED BY IDOCK:   -8.26 KCAL/MOL
REMARK 924 INTRA-LIGAND FREE ENERGY PREDICTED BY IDOCK:   -1.22 KCAL/MOL
REMARK 927      BINDING AFFINITY PREDICTED BY RF-SCORE:    0.00 PKD
ROOT
HETATM    1  C   UNL     1     -12.007  12.490  63.676  1.00  0.00    -0.621 C  
HETATM    2  C   UNL     1     -10.680  13.040  64.195  1.00  0.00    -0.402 C  
ENDROOT
BRANCH   2   3
HETATM    3  N   UNL     1     -10.536  13.015  65.663  1.00  0.00    -0.275 NA 
BRANCH   3   4
HETATM    4  C   UNL     1     -10.365  14.346  66.266  1.00  0.00    -0.295 C  
HETATM    5  C   UNL     1     -10.583  15.539  65.344  1.00  0.00    -0.428 C  
ENDBRANCH   3   4
BRANCH   3   6
HETATM    6  C   UNL     1     -11.641  12.227  66.256  1.00  0.00    -0.385 C  
BRANCH   6   7
HETATM    7  C   UNL     1     -11.226  11.266  67.381  1.00  0.00    -0.303 C  
BRANCH   7   8
HETATM    8  O   UNL     1     -12.229  11.248  68.407  1.00  0.00    -0.604 OA 
BRANCH   8   9
HETATM    9  C   UNL     1     -11.677  11.678  69.653  1.00  0.00    -0.350 C  
BRANCH   9  10
HETATM   10  C   UNL     1     -12.505  11.140  70.818  1.00  0.00    -0.384 C  
BRANCH  10  11
HETATM   11  O   UNL     1     -11.798  10.108  71.531  1.00  0.00    -0.362 OA 
BRANCH  11  12
HETATM   12  C   UNL     1     -12.406   8.885  71.544  1.00  0.00    -0.324 C  
HETATM   13  O   UNL     1     -13.622   8.733  71.610  1.00  0.00    -0.368 OA 
BRANCH  12  14
HETATM   14  C   UNL     1     -11.394   7.723  71.539  1.00  0.00    -0.289 C  
HETATM   15  C   UNL     1     -11.975   6.415  72.142  1.00  0.00    -0.346 C  
HETATM   16  C   UNL     1     -10.319   8.089  72.598  1.00  0.00    -0.398 C  
HETATM   17  C   UNL     1      -9.728   6.767  73.047  1.00  0.00    -0.182 C  
HETATM   18  C   UNL     1     -10.921   5.830  73.091  1.00  0.00    -0.309 C  
BRANCH  14  19
HETATM   19  C   UNL     1     -10.879   7.490  70.105  1.00  0.00    -0.259 A  
HETATM   20  C   UNL     1      -9.473   8.050  68.187  1.00  0.00    -0.152 A  
HETATM   21  C   UNL     1     -10.044   7.025  67.439  1.00  0.00    -0.252 A  
HETATM   22  C   UNL     1      -9.888   8.282  69.502  1.00  0.00    -0.181 A  
HETATM   23  C   UNL     1     -11.023   6.224  68.011  1.00  0.00    -0.418 A  
HETATM   24  C   UNL     1     -11.429   6.448  69.331  1.00  0.00    -0.374 A  
ENDBRANCH  14  19
ENDBRANCH  12  14
ENDBRANCH  11  12
ENDBRANCH  10  11
ENDBRANCH   9  10
ENDBRANCH   8   9
ENDBRANCH   7   8
ENDBRANCH   6   7
ENDBRANCH   3   6
ENDBRANCH   2   3
TORSDOF 11
ENDMDL
MODEL       30
REMARK 921   NORMALIZED FREE ENERGY PREDICTED BY IDOCK:   -5.27 KCAL/MOL
REMARK 922        TOTAL FREE ENERGY PREDICTED BY IDOCK:   -9.47 KCAL/MOL
REMARK 923 INTER-LIGAND FREE ENERGY PREDICTED BY IDOCK:   -7.90 KCAL/MOL
REMARK 924 INTRA-LIGAND FREE ENERGY PREDICTED BY IDOCK:   -1.57 KCAL/MOL
REMARK 927      BINDING AFFINITY PREDICTED BY RF-SCORE:    0.00 PKD
ROOT
HETATM    1  C   UNL     1     -11.120   7.281  72.908  1.00  0.00    -0.369 C  
HETATM    2  C   UNL     1     -11.527   7.349  71.437  1.00  0.00    -0.263 C  
ENDROOT
BRANCH   2   3
HETATM    3  N   UNL     1     -11.871   8.701  70.957  1.00  0.00    -0.284 NA 
BRANCH   3   4
HETATM    4  C   UNL     1     -13.082   9.262  71.574  1.00  0.00    -0.363 C  
HETATM    5  C   UNL     1     -13.113  10.775  71.752  1.00  0.00    -0.573 C  
ENDBRANCH   3   4
BRANCH   3   6
HETATM    6  C   UNL     1     -10.684   9.581  71.064  1.00  0.00    -0.340 C  
BRANCH   6   7
HETATM    7  C   UNL     1     -10.064  10.005  69.723  1.00  0.00    -0.248 C  
BRANCH   7   8
HETATM    8  O   UNL     1     -10.982   9.745  68.652  1.00  0.00    -0.213 OA 
BRANCH   8   9
HETATM    9  C   UNL     1     -10.274   9.455  67.445  1.00  0.00    -0.239 C  
BRANCH   9  10
HETATM   10  C   UNL     1      -9.136  10.452  67.241  1.00  0.00    -0.135 C  
BRANCH  10  11
HETATM   11  O   UNL     1      -9.423  11.363  66.164  1.00  0.00    -0.203 OA 
BRANCH  11  12
HETATM   12  C   UNL     1      -9.419  12.686  66.501  1.00  0.00    -0.247 C  
HETATM   13  O   UNL     1      -8.446  13.262  66.980  1.00  0.00    -0.195 OA 
BRANCH  12  14
HETATM   14  C   UNL     1     -10.790  13.355  66.282  1.00  0.00    -0.294 C  
HETATM   15  C   UNL     1     -11.865  12.369  65.748  1.00  0.00    -0.467 C  
HETATM   16  C   UNL     1     -10.614  14.298  65.061  1.00  0.00    -0.444 C  
HETATM   17  C   UNL     1     -12.001  14.449  64.466  1.00  0.00    -0.487 C  
HETATM   18  C   UNL     1     -12.611  13.068  64.605  1.00  0.00    -0.425 C  
BRANCH  14  19
HETATM   19  C   UNL     1     -11.255  14.024  67.591  1.00  0.00    -0.317 A  
HETATM   20  C   UNL     1     -12.184  13.959  69.850  1.00  0.00    -0.393 A  
HETATM   21  C   UNL     1     -12.148  15.347  69.930  1.00  0.00    -0.382 A  
HETATM   22  C   UNL     1     -11.746  13.306  68.693  1.00  0.00    -0.376 A  
HETATM   23  C   UNL     1     -11.662  16.083  68.857  1.00  0.00    -0.322 A  
HETATM   24  C   UNL     1     -11.212  15.429  67.705  1.00  0.00    -0.321 A  
ENDBRANCH  14  19
ENDBRANCH  12  14
ENDBRANCH  11  12
ENDBRANCH  10  11
ENDBRANCH   9  10
ENDBRANCH   8   9
ENDBRANCH   7   8
ENDBRANCH   6   7
ENDBRANCH   3   6
ENDBRANCH   2   3
TORSDOF 11
ENDMDL
MODEL       31
REMARK 921   NORMALIZED FREE ENERGY PREDICTED BY IDOCK:   -5.26 KCAL/MOL
REMARK 922        TOTAL FREE ENERGY PREDICTED BY IDOCK:   -9.45 KCAL/MOL
REMARK 923 INTER-LIGAND FREE ENERGY PREDICTED BY IDOCK:   -8.20 KCAL/MOL
REMARK 924 INTRA-LIGAND FREE ENERGY PREDICTED BY IDOCK:   -1.25 KCAL/MOL
REMARK 927      BINDING AFFINITY PREDICTED BY RF-SCORE:    0.00 PKD
ROOT
HETATM    1  C   UNL     1     -11.516  14.833  64.800  1.00  0.00    -0.410 C  
HETATM    2  C   UNL     1     -12.541  13.990  65.554  1.00  0.00    -0.516 C  
ENDROOT
BRANCH   2   3
HETATM    3  N   UNL     1     -12.414  12.535  65.344  1.00  0.00    -0.647 NA 
BRANCH   3   4
HETATM    4  C   UNL     1     -12.244  12.151  63.934  1.00  0.00    -0.489 C  
HETATM    5  C   UNL     1     -10.892  11.560  63.552  1.00  0.00    -0.473 C  
ENDBRANCH   3   4
BRANCH   3   6
HETATM    6  C   UNL     1     -11.367  11.994  66.241  1.00  0.00    -0.357 C  
BRANCH   6   7
HETATM    7  C   UNL     1     -11.496  12.405  67.716  1.00  0.00    -0.324 C  
BRANCH   7   8
HETATM    8  O   UNL     1     -10.194  12.558  68.300  1.00  0.00    -0.224 OA 
BRANCH   8   9
HETATM    9  C   UNL     1      -9.273  11.632  67.718  1.00  0.00    -0.178 C  
BRANCH   9  10
HETATM   10  C   UNL     1      -8.413  10.984  68.800  1.00  0.00    -0.144 C  
BRANCH  10  11
HETATM   11  O   UNL     1      -8.632   9.562  68.864  1.00  0.00    -0.122 OA 
BRANCH  11  12
HETATM   12  C   UNL     1      -8.821   9.056  70.117  1.00  0.00    -0.182 C  
HETATM   13  O   UNL     1      -8.067   9.278  71.059  1.00  0.00    -0.251 OA 
BRANCH  12  14
HETATM   14  C   UNL     1     -10.042   8.119  70.197  1.00  0.00    -0.194 C  
HETATM   15  C   UNL     1      -9.733   6.785  70.930  1.00  0.00    -0.186 C  
HETATM   16  C   UNL     1     -10.290   7.616  68.750  1.00  0.00    -0.218 C  
HETATM   17  C   UNL     1     -11.009   6.290  68.901  1.00  0.00    -0.435 C  
HETATM   18  C   UNL     1     -10.340   5.646  70.101  1.00  0.00    -0.341 C  
BRANCH  14  19
HETATM   19  C   UNL     1     -11.218   8.858  70.867  1.00  0.00    -0.334 A  
HETATM   20  C   UNL     1     -12.666  10.801  71.176  1.00  0.00    -0.532 A  
HETATM   21  C   UNL     1     -13.352  10.157  72.201  1.00  0.00    -0.431 A  
HETATM   22  C   UNL     1     -11.609  10.161  70.521  1.00  0.00    -0.411 A  
HETATM   23  C   UNL     1     -12.990   8.866  72.561  1.00  0.00    -0.415 A  
HETATM   24  C   UNL     1     -11.941   8.221  71.896  1.00  0.00    -0.383 A  
ENDBRANCH  14  19
ENDBRANCH  12  14
ENDBRANCH  11  12
ENDBRANCH  10  11
ENDBRANCH   9  10
ENDBRANCH   8   9
ENDBRANCH   7   8
ENDBRANCH   6   7
ENDBRANCH   3   6
ENDBRANCH   2   3
TORSDOF 11
ENDMDL
MODEL       32
REMARK 921   NORMALIZED FREE ENERGY PREDICTED BY IDOCK:   -5.25 KCAL/MOL
REMARK 922        TOTAL FREE ENERGY PREDICTED BY IDOCK:   -9.45 KCAL/MOL
REMARK 923 INTER-LIGAND FREE ENERGY PREDICTED BY IDOCK:   -8.20 KCAL/MOL
REMARK 924 INTRA-LIGAND FREE ENERGY PREDICTED BY IDOCK:   -1.25 KCAL/MOL
REMARK 927      BINDING AFFINITY PREDICTED BY RF-SCORE:    0.00 PKD
ROOT
HETATM    1  C   UNL     1      -7.288  19.882  67.971  1.00  0.00    -0.332 C  
HETATM    2  C   UNL     1      -8.224  18.769  68.436  1.00  0.00    -0.341 C  
ENDROOT
BRANCH   2   3
HETATM    3  N   UNL     1      -9.656  19.032  68.200  1.00  0.00    -0.323 NA 
BRANCH   3   4
HETATM    4  C   UNL     1      -9.911  20.093  67.213  1.00  0.00    -0.441 C  
HETATM    5  C   UNL     1     -10.709  19.691  65.979  1.00  0.00    -0.527 C  
ENDBRANCH   3   4
BRANCH   3   6
HETATM    6  C   UNL     1     -10.351  17.758  67.901  1.00  0.00    -0.386 C  
BRANCH   6   7
HETATM    7  C   UNL     1     -10.270  16.695  69.007  1.00  0.00    -0.301 C  
BRANCH   7   8
HETATM    8  O   UNL     1     -11.547  16.062  69.176  1.00  0.00    -0.356 OA 
BRANCH   8   9
HETATM    9  C   UNL     1     -11.484  15.077  70.210  1.00  0.00    -0.269 C  
BRANCH   9  10
HETATM   10  C   UNL     1     -12.143  13.779  69.751  1.00  0.00    -0.340 C  
BRANCH  10  11
HETATM   11  O   UNL     1     -12.269  13.733  68.317  1.00  0.00    -0.335 OA 
BRANCH  11  12
HETATM   12  C   UNL     1     -11.881  12.561  67.733  1.00  0.00    -0.313 C  
HETATM   13  O   UNL     1     -12.006  11.463  68.268  1.00  0.00    -0.566 OA 
BRANCH  12  14
HETATM   14  C   UNL     1     -11.204  12.778  66.366  1.00  0.00    -0.339 C  
HETATM   15  C   UNL     1     -10.651  14.219  66.188  1.00  0.00    -0.293 C  
HETATM   16  C   UNL     1     -12.349  12.765  65.318  1.00  0.00    -0.546 C  
HETATM   17  C   UNL     1     -11.829  13.571  64.143  1.00  0.00    -0.483 C  
HETATM   18  C   UNL     1     -11.057  14.705  64.791  1.00  0.00    -0.394 C  
BRANCH  14  19
HETATM   19  C   UNL     1     -10.093  11.730  66.166  1.00  0.00    -0.255 A  
HETATM   20  C   UNL     1      -7.790  10.941  66.381  1.00  0.00    -0.154 A  
HETATM   21  C   UNL     1      -8.101   9.772  65.694  1.00  0.00    -0.120 A  
HETATM   22  C   UNL     1      -8.773  11.909  66.611  1.00  0.00    -0.185 A  
HETATM   23  C   UNL     1      -9.399   9.566  65.247  1.00  0.00    -0.317 A  
HETATM   24  C   UNL     1     -10.385  10.529  65.488  1.00  0.00    -0.287 A  
ENDBRANCH  14  19
ENDBRANCH  12  14
ENDBRANCH  11  12
ENDBRANCH  10  11
ENDBRANCH   9  10
ENDBRANCH   8   9
ENDBRANCH   7   8
ENDBRANCH   6   7
ENDBRANCH   3   6
ENDBRANCH   2   3
TORSDOF 11
ENDMDL
MODEL       33
REMARK 921   NORMALIZED FREE ENERGY PREDICTED BY IDOCK:   -5.25 KCAL/MOL
REMARK 922        TOTAL FREE ENERGY PREDICTED BY IDOCK:   -9.44 KCAL/MOL
REMARK 923 INTER-LIGAND FREE ENERGY PREDICTED BY IDOCK:   -8.10 KCAL/MOL
REMARK 924 INTRA-LIGAND FREE ENERGY PREDICTED BY IDOCK:   -1.34 KCAL/MOL
REMARK 927      BINDING AFFINITY PREDICTED BY RF-SCORE:    0.00 PKD
ROOT
HETATM    1  C   UNL     1     -12.754  13.306  71.390  1.00  0.00    -0.401 C  
HETATM    2  C   UNL     1     -12.146  12.516  70.233  1.00  0.00    -0.294 C  
ENDROOT
BRANCH   2   3
HETATM    3  N   UNL     1     -11.979  13.285  68.985  1.00  0.00    -0.311 NA 
BRANCH   3   4
HETATM    4  C   UNL     1     -11.109  14.463  69.124  1.00  0.00    -0.265 C  
HETATM    5  C   UNL     1     -11.778  15.822  68.953  1.00  0.00    -0.404 C  
ENDBRANCH   3   4
BRANCH   3   6
HETATM    6  C   UNL     1     -11.579  12.372  67.890  1.00  0.00    -0.356 C  
BRANCH   6   7
HETATM    7  C   UNL     1     -11.170  13.064  66.580  1.00  0.00    -0.307 C  
BRANCH   7   8
HETATM    8  O   UNL     1     -12.303  13.728  66.000  1.00  0.00    -0.434 OA 
BRANCH   8   9
HETATM    9  C   UNL     1     -11.879  14.834  65.200  1.00  0.00    -0.313 C  
BRANCH   9  10
HETATM   10  C   UNL     1     -10.355  14.922  65.176  1.00  0.00    -0.401 C  
BRANCH  10  11
HETATM   11  O   UNL     1      -9.903  16.268  65.413  1.00  0.00    -0.496 OA 
BRANCH  11  12
HETATM   12  C   UNL     1      -9.070  16.426  66.483  1.00  0.00    -0.276 C  
HETATM   13  O   UNL     1      -8.520  15.492  67.057  1.00  0.00    -0.196 OA 
BRANCH  12  14
HETATM   14  C   UNL     1      -8.956  17.896  66.931  1.00  0.00    -0.265 C  
HETATM   15  C   UNL     1      -8.978  18.060  68.476  1.00  0.00    -0.297 C  
HETATM   16  C   UNL     1     -10.300  18.567  66.539  1.00  0.00    -0.447 C  
HETATM   17  C   UNL     1     -10.456  19.741  67.486  1.00  0.00    -0.569 C  
HETATM   18  C   UNL     1      -9.929  19.217  68.808  1.00  0.00    -0.493 C  
BRANCH  14  19
HETATM   19  C   UNL     1      -7.685  18.525  66.326  1.00  0.00    -0.283 A  
HETATM   20  C   UNL     1      -5.337  18.452  65.654  1.00  0.00    -0.207 A  
HETATM   21  C   UNL     1      -5.383  19.787  65.264  1.00  0.00    -0.189 A  
HETATM   22  C   UNL     1      -6.473  17.831  66.182  1.00  0.00    -0.295 A  
HETATM   23  C   UNL     1      -6.570  20.497  65.390  1.00  0.00    -0.280 A  
HETATM   24  C   UNL     1      -7.709  19.871  65.907  1.00  0.00    -0.327 A  
ENDBRANCH  14  19
ENDBRANCH  12  14
ENDBRANCH  11  12
ENDBRANCH  10  11
ENDBRANCH   9  10
ENDBRANCH   8   9
ENDBRANCH   7   8
ENDBRANCH   6   7
ENDBRANCH   3   6
ENDBRANCH   2   3
TORSDOF 11
ENDMDL
MODEL       34
REMARK 921   NORMALIZED FREE ENERGY PREDICTED BY IDOCK:   -5.24 KCAL/MOL
REMARK 922        TOTAL FREE ENERGY PREDICTED BY IDOCK:   -9.42 KCAL/MOL
REMARK 923 INTER-LIGAND FREE ENERGY PREDICTED BY IDOCK:   -8.18 KCAL/MOL
REMARK 924 INTRA-LIGAND FREE ENERGY PREDICTED BY IDOCK:   -1.24 KCAL/MOL
REMARK 927      BINDING AFFINITY PREDICTED BY RF-SCORE:    0.00 PKD
ROOT
HETATM    1  C   UNL     1     -13.259   9.602  71.270  1.00  0.00    -0.429 C  
HETATM    2  C   UNL     1     -11.764   9.644  71.578  1.00  0.00    -0.400 C  
ENDROOT
BRANCH   2   3
HETATM    3  N   UNL     1     -10.942  10.304  70.546  1.00  0.00    -0.307 NA 
BRANCH   3   4
HETATM    4  C   UNL     1      -9.928   9.425  69.942  1.00  0.00    -0.212 C  
HETATM    5  C   UNL     1      -8.639   9.236  70.734  1.00  0.00    -0.254 C  
ENDBRANCH   3   4
BRANCH   3   6
HETATM    6  C   UNL     1     -11.824  10.965  69.558  1.00  0.00    -0.332 C  
BRANCH   6   7
HETATM    7  C   UNL     1     -11.150  11.340  68.229  1.00  0.00    -0.240 C  
BRANCH   7   8
HETATM    8  O   UNL     1     -12.112  11.914  67.333  1.00  0.00    -0.577 OA 
BRANCH   8   9
HETATM    9  C   UNL     1     -11.494  12.269  66.094  1.00  0.00    -0.374 C  
BRANCH   9  10
HETATM   10  C   UNL     1     -12.156  13.512  65.505  1.00  0.00    -0.419 C  
BRANCH  10  11
HETATM   11  O   UNL     1     -11.864  14.684  66.289  1.00  0.00    -0.364 OA 
BRANCH  11  12
HETATM   12  C   UNL     1     -10.897  15.502  65.780  1.00  0.00    -0.331 C  
HETATM   13  O   UNL     1     -10.838  15.830  64.599  1.00  0.00    -0.488 OA 
BRANCH  12  14
HETATM   14  C   UNL     1      -9.851  15.908  66.836  1.00  0.00    -0.251 C  
HETATM   15  C   UNL     1      -8.472  15.228  66.613  1.00  0.00    -0.264 C  
HETATM   16  C   UNL     1     -10.303  15.241  68.163  1.00  0.00    -0.242 C  
HETATM   17  C   UNL     1      -9.040  15.090  68.989  1.00  0.00    -0.205 C  
HETATM   18  C   UNL     1      -7.980  14.714  67.972  1.00  0.00    -0.137 C  
BRANCH  14  19
HETATM   19  C   UNL     1      -9.712  17.443  66.864  1.00  0.00    -0.286 A  
HETATM   20  C   UNL     1     -10.560  19.690  67.311  1.00  0.00    -0.598 A  
HETATM   21  C   UNL     1      -9.389  20.256  66.816  1.00  0.00    -0.489 A  
HETATM   22  C   UNL     1     -10.720  18.301  67.331  1.00  0.00    -0.377 A  
HETATM   23  C   UNL     1      -8.373  19.431  66.352  1.00  0.00    -0.342 A  
HETATM   24  C   UNL     1      -8.529  18.041  66.384  1.00  0.00    -0.262 A  
ENDBRANCH  14  19
ENDBRANCH  12  14
ENDBRANCH  11  12
ENDBRANCH  10  11
ENDBRANCH   9  10
ENDBRANCH   8   9
ENDBRANCH   7   8
ENDBRANCH   6   7
ENDBRANCH   3   6
ENDBRANCH   2   3
TORSDOF 11
ENDMDL
MODEL       35
REMARK 921   NORMALIZED FREE ENERGY PREDICTED BY IDOCK:   -5.23 KCAL/MOL
REMARK 922        TOTAL FREE ENERGY PREDICTED BY IDOCK:   -9.41 KCAL/MOL
REMARK 923 INTER-LIGAND FREE ENERGY PREDICTED BY IDOCK:   -7.83 KCAL/MOL
REMARK 924 INTRA-LIGAND FREE ENERGY PREDICTED BY IDOCK:   -1.58 KCAL/MOL
REMARK 927      BINDING AFFINITY PREDICTED BY RF-SCORE:    0.00 PKD
ROOT
HETATM    1  C   UNL     1     -12.564  13.624  65.245  1.00  0.00    -0.512 C  
HETATM    2  C   UNL     1     -12.378  12.451  64.286  1.00  0.00    -0.455 C  
ENDROOT
BRANCH   2   3
HETATM    3  N   UNL     1     -11.116  11.707  64.462  1.00  0.00    -0.319 NA 
BRANCH   3   4
HETATM    4  C   UNL     1     -10.248  11.720  63.275  1.00  0.00    -0.416 C  
HETATM    5  C   UNL     1      -9.575  10.401  62.916  1.00  0.00    -0.331 C  
ENDBRANCH   3   4
BRANCH   3   6
HETATM    6  C   UNL     1     -10.442  12.161  65.700  1.00  0.00    -0.255 C  
BRANCH   6   7
HETATM    7  C   UNL     1     -10.070  11.044  66.688  1.00  0.00    -0.220 C  
BRANCH   7   8
HETATM    8  O   UNL     1     -10.250  11.499  68.037  1.00  0.00    -0.182 OA 
BRANCH   8   9
HETATM    9  C   UNL     1     -11.624  11.809  68.280  1.00  0.00    -0.308 C  
BRANCH   9  10
HETATM   10  C   UNL     1     -11.742  13.029  69.191  1.00  0.00    -0.326 C  
BRANCH  10  11
HETATM   11  O   UNL     1     -10.601  13.897  69.056  1.00  0.00    -0.233 OA 
BRANCH  11  12
HETATM   12  C   UNL     1     -10.852  15.106  68.473  1.00  0.00    -0.247 C  
HETATM   13  O   UNL     1     -11.982  15.530  68.249  1.00  0.00    -0.262 OA 
BRANCH  12  14
HETATM   14  C   UNL     1      -9.562  15.842  68.062  1.00  0.00    -0.211 C  
HETATM   15  C   UNL     1      -8.785  15.114  66.931  1.00  0.00    -0.289 C  
HETATM   16  C   UNL     1      -8.581  15.679  69.254  1.00  0.00    -0.262 C  
HETATM   17  C   UNL     1      -7.194  15.813  68.654  1.00  0.00    -0.135 C  
HETATM   18  C   UNL     1      -7.301  15.098  67.321  1.00  0.00    -0.216 C  
BRANCH  14  19
HETATM   19  C   UNL     1      -9.900  17.291  67.657  1.00  0.00    -0.279 A  
HETATM   20  C   UNL     1     -10.424  19.017  66.010  1.00  0.00    -0.530 A  
HETATM   21  C   UNL     1     -10.447  19.991  67.003  1.00  0.00    -0.513 A  
HETATM   22  C   UNL     1     -10.149  17.684  66.333  1.00  0.00    -0.356 A  
HETATM   23  C   UNL     1     -10.208  19.630  68.322  1.00  0.00    -0.567 A  
HETATM   24  C   UNL     1      -9.946  18.295  68.647  1.00  0.00    -0.410 A  
ENDBRANCH  14  19
ENDBRANCH  12  14
ENDBRANCH  11  12
ENDBRANCH  10  11
ENDBRANCH   9  10
ENDBRANCH   8   9
ENDBRANCH   7   8
ENDBRANCH   6   7
ENDBRANCH   3   6
ENDBRANCH   2   3
TORSDOF 11
ENDMDL
MODEL       36
REMARK 921   NORMALIZED FREE ENERGY PREDICTED BY IDOCK:   -5.23 KCAL/MOL
REMARK 922        TOTAL FREE ENERGY PREDICTED BY IDOCK:   -9.41 KCAL/MOL
REMARK 923 INTER-LIGAND FREE ENERGY PREDICTED BY IDOCK:   -8.40 KCAL/MOL
REMARK 924 INTRA-LIGAND FREE ENERGY PREDICTED BY IDOCK:   -1.01 KCAL/MOL
REMARK 927      BINDING AFFINITY PREDICTED BY RF-SCORE:    0.00 PKD
ROOT
HETATM    1  C   UNL     1     -12.795   9.817  71.509  1.00  0.00    -0.502 C  
HETATM    2  C   UNL     1     -11.308   9.473  71.461  1.00  0.00    -0.385 C  
ENDROOT
BRANCH   2   3
HETATM    3  N   UNL     1     -10.549  10.173  70.407  1.00  0.00    -0.275 NA 
BRANCH   3   4
HETATM    4  C   UNL     1      -9.302   9.493  70.022  1.00  0.00    -0.234 C  
HETATM    5  C   UNL     1      -8.481   8.893  71.156  1.00  0.00    -0.250 C  
ENDBRANCH   3   4
BRANCH   3   6
HETATM    6  C   UNL     1     -11.445  10.470  69.266  1.00  0.00    -0.256 C  
BRANCH   6   7
HETATM    7  C   UNL     1     -11.037  11.683  68.415  1.00  0.00    -0.234 C  
BRANCH   7   8
HETATM    8  O   UNL     1     -11.989  11.888  67.361  1.00  0.00    -0.603 OA 
BRANCH   8   9
HETATM    9  C   UNL     1     -11.330  11.927  66.093  1.00  0.00    -0.324 C  
BRANCH   9  10
HETATM   10  C   UNL     1     -10.135  12.876  66.142  1.00  0.00    -0.276 C  
BRANCH  10  11
HETATM   11  O   UNL     1     -10.558  14.250  66.216  1.00  0.00    -0.283 OA 
BRANCH  11  12
HETATM   12  C   UNL     1      -9.674  15.103  66.811  1.00  0.00    -0.242 C  
HETATM   13  O   UNL     1      -8.492  15.185  66.493  1.00  0.00    -0.244 OA 
BRANCH  12  14
HETATM   14  C   UNL     1     -10.307  15.895  67.971  1.00  0.00    -0.262 C  
HETATM   15  C   UNL     1      -9.634  15.603  69.340  1.00  0.00    -0.287 C  
HETATM   16  C   UNL     1     -11.714  15.277  68.191  1.00  0.00    -0.297 C  
HETATM   17  C   UNL     1     -12.063  15.573  69.638  1.00  0.00    -0.352 C  
HETATM   18  C   UNL     1     -10.748  15.397  70.374  1.00  0.00    -0.312 C  
BRANCH  14  19
HETATM   19  C   UNL     1     -10.274  17.402  67.649  1.00  0.00    -0.342 A  
HETATM   20  C   UNL     1     -10.415  19.296  66.111  1.00  0.00    -0.577 A  
HETATM   21  C   UNL     1     -10.127  20.185  67.142  1.00  0.00    -0.590 A  
HETATM   22  C   UNL     1     -10.484  17.921  66.361  1.00  0.00    -0.318 A  
HETATM   23  C   UNL     1      -9.919  19.700  68.426  1.00  0.00    -0.543 A  
HETATM   24  C   UNL     1     -10.000  18.326  68.678  1.00  0.00    -0.410 A  
ENDBRANCH  14  19
ENDBRANCH  12  14
ENDBRANCH  11  12
ENDBRANCH  10  11
ENDBRANCH   9  10
ENDBRANCH   8   9
ENDBRANCH   7   8
ENDBRANCH   6   7
ENDBRANCH   3   6
ENDBRANCH   2   3
TORSDOF 11
ENDMDL
MODEL       37
REMARK 921   NORMALIZED FREE ENERGY PREDICTED BY IDOCK:   -5.23 KCAL/MOL
REMARK 922        TOTAL FREE ENERGY PREDICTED BY IDOCK:   -9.40 KCAL/MOL
REMARK 923 INTER-LIGAND FREE ENERGY PREDICTED BY IDOCK:   -8.39 KCAL/MOL
REMARK 924 INTRA-LIGAND FREE ENERGY PREDICTED BY IDOCK:   -1.01 KCAL/MOL
REMARK 927      BINDING AFFINITY PREDICTED BY RF-SCORE:    0.00 PKD
ROOT
HETATM    1  C   UNL     1     -12.637  15.731  73.911  1.00  0.00    -0.754 C  
HETATM    2  C   UNL     1     -13.592  15.627  72.724  1.00  0.00    -0.593 C  
ENDROOT
BRANCH   2   3
HETATM    3  N   UNL     1     -13.207  14.624  71.712  1.00  0.00    -0.329 NA 
BRANCH   3   4
HETATM    4  C   UNL     1     -11.821  14.758  71.239  1.00  0.00    -0.335 C  
HETATM    5  C   UNL     1     -11.511  15.989  70.395  1.00  0.00    -0.392 C  
ENDBRANCH   3   4
BRANCH   3   6
HETATM    6  C   UNL     1     -13.542  13.268  72.207  1.00  0.00    -0.605 C  
BRANCH   6   7
HETATM    7  C   UNL     1     -12.888  12.112  71.433  1.00  0.00    -0.276 C  
BRANCH   7   8
HETATM    8  O   UNL     1     -13.208  10.860  72.056  1.00  0.00    -0.492 OA 
BRANCH   8   9
HETATM    9  C   UNL     1     -13.222   9.809  71.088  1.00  0.00    -0.331 C  
BRANCH   9  10
HETATM   10  C   UNL     1     -13.631   8.490  71.739  1.00  0.00    -0.388 C  
BRANCH  10  11
HETATM   11  O   UNL     1     -12.749   7.418  71.354  1.00  0.00    -0.352 OA 
BRANCH  11  12
HETATM   12  C   UNL     1     -11.576   7.349  72.049  1.00  0.00    -0.284 C  
HETATM   13  O   UNL     1     -11.402   7.881  73.141  1.00  0.00    -0.361 OA 
BRANCH  12  14
HETATM   14  C   UNL     1     -10.476   6.595  71.277  1.00  0.00    -0.244 C  
HETATM   15  C   UNL     1     -10.526   5.058  71.503  1.00  0.00    -0.225 C  
HETATM   16  C   UNL     1      -9.139   6.957  71.977  1.00  0.00    -0.141 C  
HETATM   17  C   UNL     1      -8.202   5.803  71.678  1.00  0.00    -0.119 C  
HETATM   18  C   UNL     1      -9.092   4.578  71.760  1.00  0.00    -0.164 C  
BRANCH  14  19
HETATM   19  C   UNL     1     -10.569   6.936  69.777  1.00  0.00    -0.261 A  
HETATM   20  C   UNL     1     -10.909   6.338  67.433  1.00  0.00    -0.448 A  
HETATM   21  C   UNL     1     -10.652   7.646  67.036  1.00  0.00    -0.406 A  
HETATM   22  C   UNL     1     -10.864   5.987  68.785  1.00  0.00    -0.391 A  
HETATM   23  C   UNL     1     -10.362   8.607  67.996  1.00  0.00    -0.277 A  
HETATM   24  C   UNL     1     -10.330   8.258  69.350  1.00  0.00    -0.223 A  
ENDBRANCH  14  19
ENDBRANCH  12  14
ENDBRANCH  11  12
ENDBRANCH  10  11
ENDBRANCH   9  10
ENDBRANCH   8   9
ENDBRANCH   7   8
ENDBRANCH   6   7
ENDBRANCH   3   6
ENDBRANCH   2   3
TORSDOF 11
ENDMDL
MODEL       38
REMARK 921   NORMALIZED FREE ENERGY PREDICTED BY IDOCK:   -5.22 KCAL/MOL
REMARK 922        TOTAL FREE ENERGY PREDICTED BY IDOCK:   -9.40 KCAL/MOL
REMARK 923 INTER-LIGAND FREE ENERGY PREDICTED BY IDOCK:   -8.26 KCAL/MOL
REMARK 924 INTRA-LIGAND FREE ENERGY PREDICTED BY IDOCK:   -1.13 KCAL/MOL
REMARK 927      BINDING AFFINITY PREDICTED BY RF-SCORE:    0.00 PKD
ROOT
HETATM    1  C   UNL     1     -11.702   6.570  70.320  1.00  0.00    -0.430 C  
HETATM    2  C   UNL     1     -12.458   6.769  71.632  1.00  0.00    -0.351 C  
ENDROOT
BRANCH   2   3
HETATM    3  N   UNL     1     -11.846   7.747  72.551  1.00  0.00    -0.327 NA 
BRANCH   3   4
HETATM    4  C   UNL     1     -10.623   7.260  73.208  1.00  0.00    -0.382 C  
HETATM    5  C   UNL     1      -9.368   8.102  73.011  1.00  0.00    -0.335 C  
ENDBRANCH   3   4
BRANCH   3   6
HETATM    6  C   UNL     1     -11.674   9.042  71.854  1.00  0.00    -0.374 C  
BRANCH   6   7
HETATM    7  C   UNL     1     -12.923   9.937  71.822  1.00  0.00    -0.449 C  
BRANCH   7   8
HETATM    8  O   UNL     1     -12.663  11.118  71.050  1.00  0.00    -0.368 OA 
BRANCH   8   9
HETATM    9  C   UNL     1     -13.055  12.286  71.775  1.00  0.00    -0.344 C  
BRANCH   9  10
HETATM   10  C   UNL     1     -12.640  13.547  71.021  1.00  0.00    -0.359 C  
BRANCH  10  11
HETATM   11  O   UNL     1     -12.061  13.226  69.742  1.00  0.00    -0.316 OA 
BRANCH  11  12
HETATM   12  C   UNL     1     -11.838  14.291  68.918  1.00  0.00    -0.336 C  
HETATM   13  O   UNL     1     -12.125  15.448  69.212  1.00  0.00    -0.315 OA 
BRANCH  12  14
HETATM   14  C   UNL     1     -11.254  13.872  67.555  1.00  0.00    -0.323 C  
HETATM   15  C   UNL     1     -12.257  14.064  66.384  1.00  0.00    -0.492 C  
HETATM   16  C   UNL     1     -11.138  12.325  67.599  1.00  0.00    -0.318 C  
HETATM   17  C   UNL     1     -11.187  11.875  66.152  1.00  0.00    -0.387 C  
HETATM   18  C   UNL     1     -12.208  12.800  65.516  1.00  0.00    -0.519 C  
BRANCH  14  19
HETATM   19  C   UNL     1      -9.944  14.641  67.294  1.00  0.00    -0.235 A  
HETATM   20  C   UNL     1      -7.557  15.038  67.631  1.00  0.00    -0.198 A  
HETATM   21  C   UNL     1      -7.602  16.156  66.804  1.00  0.00    -0.268 A  
HETATM   22  C   UNL     1      -8.715  14.293  67.875  1.00  0.00    -0.178 A  
HETATM   23  C   UNL     1      -8.804  16.521  66.211  1.00  0.00    -0.364 A  
HETATM   24  C   UNL     1      -9.959  15.768  66.446  1.00  0.00    -0.294 A  
ENDBRANCH  14  19
ENDBRANCH  12  14
ENDBRANCH  11  12
ENDBRANCH  10  11
ENDBRANCH   9  10
ENDBRANCH   8   9
ENDBRANCH   7   8
ENDBRANCH   6   7
ENDBRANCH   3   6
ENDBRANCH   2   3
TORSDOF 11
ENDMDL
MODEL       39
REMARK 921   NORMALIZED FREE ENERGY PREDICTED BY IDOCK:   -5.22 KCAL/MOL
REMARK 922        TOTAL FREE ENERGY PREDICTED BY IDOCK:   -9.39 KCAL/MOL
REMARK 923 INTER-LIGAND FREE ENERGY PREDICTED BY IDOCK:   -9.53 KCAL/MOL
REMARK 924 INTRA-LIGAND FREE ENERGY PREDICTED BY IDOCK:    0.14 KCAL/MOL
REMARK 927      BINDING AFFINITY PREDICTED BY RF-SCORE:    0.00 PKD
ROOT
HETATM    1  C   UNL     1     -10.725  19.650  67.061  1.00  0.00    -0.575 C  
HETATM    2  C   UNL     1      -9.385  19.535  66.337  1.00  0.00    -0.379 C  
ENDROOT
BRANCH   2   3
HETATM    3  N   UNL     1      -8.924  18.152  66.112  1.00  0.00    -0.498 NA 
BRANCH   3   4
HETATM    4  C   UNL     1      -7.469  17.983  66.236  1.00  0.00    -0.277 C  
HETATM    5  C   UNL     1      -6.614  19.189  65.864  1.00  0.00    -0.267 C  
ENDBRANCH   3   4
BRANCH   3   6
HETATM    6  C   UNL     1      -9.708  17.225  66.961  1.00  0.00    -0.267 C  
BRANCH   6   7
HETATM    7  C   UNL     1     -10.329  16.030  66.221  1.00  0.00    -0.321 C  
BRANCH   7   8
HETATM    8  O   UNL     1      -9.685  14.813  66.622  1.00  0.00    -0.245 OA 
BRANCH   8   9
HETATM    9  C   UNL     1     -10.647  13.768  66.785  1.00  0.00    -0.273 C  
BRANCH   9  10
HETATM   10  C   UNL     1     -11.972  14.336  67.285  1.00  0.00    -0.405 C  
BRANCH  10  11
HETATM   11  O   UNL     1     -12.210  13.981  68.661  1.00  0.00    -0.332 OA 
BRANCH  11  12
HETATM   12  C   UNL     1     -12.101  15.005  69.556  1.00  0.00    -0.276 C  
HETATM   13  O   UNL     1     -11.715  16.131  69.256  1.00  0.00    -0.313 OA 
BRANCH  12  14
HETATM   14  C   UNL     1     -12.445  14.572  70.994  1.00  0.00    -0.412 C  
HETATM   15  C   UNL     1     -13.754  15.220  71.523  1.00  0.00    -0.610 C  
HETATM   16  C   UNL     1     -11.386  15.246  71.908  1.00  0.00    -0.447 C  
HETATM   17  C   UNL     1     -12.045  15.364  73.269  1.00  0.00    -0.591 C  
HETATM   18  C   UNL     1     -13.485  15.718  72.949  1.00  0.00    -0.666 C  
BRANCH  14  19
HETATM   19  C   UNL     1     -12.521  13.034  71.068  1.00  0.00    -0.385 A  
HETATM   20  C   UNL     1     -13.396  10.946  71.987  1.00  0.00    -0.394 A  
HETATM   21  C   UNL     1     -12.542  10.204  71.178  1.00  0.00    -0.486 A  
HETATM   22  C   UNL     1     -13.383  12.344  71.935  1.00  0.00    -0.450 A  
HETATM   23  C   UNL     1     -11.682  10.860  70.307  1.00  0.00    -0.437 A  
HETATM   24  C   UNL     1     -11.678  12.258  70.246  1.00  0.00    -0.223 A  
ENDBRANCH  14  19
ENDBRANCH  12  14
ENDBRANCH  11  12
ENDBRANCH  10  11
ENDBRANCH   9  10
ENDBRANCH   8   9
ENDBRANCH   7   8
ENDBRANCH   6   7
ENDBRANCH   3   6
ENDBRANCH   2   3
TORSDOF 11
ENDMDL
MODEL       40
REMARK 921   NORMALIZED FREE ENERGY PREDICTED BY IDOCK:   -5.21 KCAL/MOL
REMARK 922        TOTAL FREE ENERGY PREDICTED BY IDOCK:   -9.39 KCAL/MOL
REMARK 923 INTER-LIGAND FREE ENERGY PREDICTED BY IDOCK:   -7.71 KCAL/MOL
REMARK 924 INTRA-LIGAND FREE ENERGY PREDICTED BY IDOCK:   -1.67 KCAL/MOL
REMARK 927      BINDING AFFINITY PREDICTED BY RF-SCORE:    0.00 PKD
ROOT
HETATM    1  C   UNL     1     -10.571  19.623  66.109  1.00  0.00    -0.584 C  
HETATM    2  C   UNL     1     -10.243  18.283  66.764  1.00  0.00    -0.378 C  
ENDROOT
BRANCH   2   3
HETATM    3  N   UNL     1     -10.039  18.347  68.223  1.00  0.00    -0.366 NA 
BRANCH   3   4
HETATM    4  C   UNL     1     -10.427  17.118  68.932  1.00  0.00    -0.346 C  
HETATM    5  C   UNL     1     -11.176  16.073  68.113  1.00  0.00    -0.325 C  
ENDBRANCH   3   4
BRANCH   3   6
HETATM    6  C   UNL     1      -8.656  18.791  68.512  1.00  0.00    -0.344 C  
BRANCH   6   7
HETATM    7  C   UNL     1      -7.577  18.213  67.582  1.00  0.00    -0.219 C  
BRANCH   7   8
HETATM    8  O   UNL     1      -7.065  16.988  68.125  1.00  0.00    -0.167 OA 
BRANCH   8   9
HETATM    9  C   UNL     1      -7.225  15.920  67.189  1.00  0.00    -0.219 C  
BRANCH   9  10
HETATM   10  C   UNL     1      -7.755  14.672  67.890  1.00  0.00    -0.141 C  
BRANCH  10  11
HETATM   11  O   UNL     1      -8.681  13.954  67.053  1.00  0.00    -0.221 OA 
BRANCH  11  12
HETATM   12  C   UNL     1      -8.601  12.593  67.125  1.00  0.00    -0.199 C  
HETATM   13  O   UNL     1      -7.549  11.969  67.020  1.00  0.00    -0.149 OA 
BRANCH  12  14
HETATM   14  C   UNL     1      -9.982  11.927  67.280  1.00  0.00    -0.200 C  
HETATM   15  C   UNL     1     -10.797  12.497  68.473  1.00  0.00    -0.271 C  
HETATM   16  C   UNL     1      -9.705  10.480  67.769  1.00  0.00    -0.180 C  
HETATM   17  C   UNL     1     -10.963  10.056  68.503  1.00  0.00    -0.255 C  
HETATM   18  C   UNL     1     -11.400  11.310  69.235  1.00  0.00    -0.354 C  
BRANCH  14  19
HETATM   19  C   UNL     1     -10.770  12.056  65.961  1.00  0.00    -0.317 A  
HETATM   20  C   UNL     1     -11.111  11.602  63.585  1.00  0.00    -0.506 A  
HETATM   21  C   UNL     1     -12.247  12.405  63.570  1.00  0.00    -0.661 A  
HETATM   22  C   UNL     1     -10.380  11.433  64.765  1.00  0.00    -0.349 A  
HETATM   23  C   UNL     1     -12.659  13.030  64.740  1.00  0.00    -0.460 A  
HETATM   24  C   UNL     1     -11.934  12.850  65.923  1.00  0.00    -0.504 A  
ENDBRANCH  14  19
ENDBRANCH  12  14
ENDBRANCH  11  12
ENDBRANCH  10  11
ENDBRANCH   9  10
ENDBRANCH   8   9
ENDBRANCH   7   8
ENDBRANCH   6   7
ENDBRANCH   3   6
ENDBRANCH   2   3
TORSDOF 11
ENDMDL
MODEL       41
REMARK 921   NORMALIZED FREE ENERGY PREDICTED BY IDOCK:   -5.18 KCAL/MOL
REMARK 922        TOTAL FREE ENERGY PREDICTED BY IDOCK:   -9.33 KCAL/MOL
REMARK 923 INTER-LIGAND FREE ENERGY PREDICTED BY IDOCK:   -7.76 KCAL/MOL
REMARK 924 INTRA-LIGAND FREE ENERGY PREDICTED BY IDOCK:   -1.57 KCAL/MOL
REMARK 927      BINDING AFFINITY PREDICTED BY RF-SCORE:    0.00 PKD
ROOT
HETATM    1  C   UNL     1     -10.501  19.530  67.732  1.00  0.00    -0.574 C  
HETATM    2  C   UNL     1     -10.529  19.097  66.268  1.00  0.00    -0.467 C  
ENDROOT
BRANCH   2   3
HETATM    3  N   UNL     1      -9.638  17.967  65.944  1.00  0.00    -0.516 NA 
BRANCH   3   4
HETATM    4  C   UNL     1      -8.253  18.151  66.405  1.00  0.00    -0.253 C  
HETATM    5  C   UNL     1      -7.691  17.061  67.309  1.00  0.00    -0.196 C  
ENDBRANCH   3   4
BRANCH   3   6
HETATM    6  C   UNL     1     -10.257  16.702  66.401  1.00  0.00    -0.315 C  
BRANCH   6   7
HETATM    7  C   UNL     1     -10.441  15.635  65.310  1.00  0.00    -0.412 C  
BRANCH   7   8
HETATM    8  O   UNL     1     -11.652  14.901  65.539  1.00  0.00    -0.336 OA 
BRANCH   8   9
HETATM    9  C   UNL     1     -11.997  14.132  64.384  1.00  0.00    -0.457 C  
BRANCH   9  10
HETATM   10  C   UNL     1     -12.465  12.737  64.793  1.00  0.00    -0.472 C  
BRANCH  10  11
HETATM   11  O   UNL     1     -12.362  12.545  66.216  1.00  0.00    -0.570 OA 
BRANCH  11  12
HETATM   12  C   UNL     1     -11.311  11.777  66.628  1.00  0.00    -0.316 C  
HETATM   13  O   UNL     1     -10.710  11.000  65.892  1.00  0.00    -0.234 OA 
BRANCH  12  14
HETATM   14  C   UNL     1     -11.013  11.939  68.131  1.00  0.00    -0.272 C  
HETATM   15  C   UNL     1     -11.609  10.792  68.992  1.00  0.00    -0.370 C  
HETATM   16  C   UNL     1     -11.866  13.146  68.606  1.00  0.00    -0.363 C  
HETATM   17  C   UNL     1     -12.081  12.927  70.092  1.00  0.00    -0.373 C  
HETATM   18  C   UNL     1     -12.282  11.429  70.215  1.00  0.00    -0.433 C  
BRANCH  14  19
HETATM   19  C   UNL     1      -9.492  12.060  68.347  1.00  0.00    -0.181 A  
HETATM   20  C   UNL     1      -7.325  11.183  69.056  1.00  0.00    -0.120 A  
HETATM   21  C   UNL     1      -6.712  12.399  68.772  1.00  0.00    -0.092 A  
HETATM   22  C   UNL     1      -8.698  11.017  68.850  1.00  0.00    -0.122 A  
HETATM   23  C   UNL     1      -7.472  13.447  68.269  1.00  0.00    -0.129 A  
HETATM   24  C   UNL     1      -8.844  13.277  68.051  1.00  0.00    -0.190 A  
ENDBRANCH  14  19
ENDBRANCH  12  14
ENDBRANCH  11  12
ENDBRANCH  10  11
ENDBRANCH   9  10
ENDBRANCH   8   9
ENDBRANCH   7   8
ENDBRANCH   6   7
ENDBRANCH   3   6
ENDBRANCH   2   3
TORSDOF 11
ENDMDL
MODEL       42
REMARK 921   NORMALIZED FREE ENERGY PREDICTED BY IDOCK:   -5.18 KCAL/MOL
REMARK 922        TOTAL FREE ENERGY PREDICTED BY IDOCK:   -9.32 KCAL/MOL
REMARK 923 INTER-LIGAND FREE ENERGY PREDICTED BY IDOCK:   -7.73 KCAL/MOL
REMARK 924 INTRA-LIGAND FREE ENERGY PREDICTED BY IDOCK:   -1.59 KCAL/MOL
REMARK 927      BINDING AFFINITY PREDICTED BY RF-SCORE:    0.00 PKD
ROOT
HETATM    1  C   UNL     1     -10.431  19.989  67.949  1.00  0.00    -0.459 C  
HETATM    2  C   UNL     1      -9.047  19.464  68.325  1.00  0.00    -0.345 C  
ENDROOT
BRANCH   2   3
HETATM    3  N   UNL     1      -7.966  19.871  67.407  1.00  0.00    -0.278 NA 
BRANCH   3   4
HETATM    4  C   UNL     1      -6.704  20.203  68.085  1.00  0.00    -0.294 C  
HETATM    5  C   UNL     1      -6.601  19.807  69.553  1.00  0.00    -0.388 C  
ENDBRANCH   3   4
BRANCH   3   6
HETATM    6  C   UNL     1      -7.821  18.861  66.334  1.00  0.00    -0.280 C  
BRANCH   6   7
HETATM    7  C   UNL     1      -8.255  17.437  66.715  1.00  0.00    -0.249 C  
BRANCH   7   8
HETATM    8  O   UNL     1      -8.974  16.834  65.629  1.00  0.00    -0.475 OA 
BRANCH   8   9
HETATM    9  C   UNL     1     -10.384  16.951  65.837  1.00  0.00    -0.315 C  
BRANCH   9  10
HETATM   10  C   UNL     1     -11.130  15.884  65.040  1.00  0.00    -0.360 C  
BRANCH  10  11
HETATM   11  O   UNL     1     -10.580  14.574  65.273  1.00  0.00    -0.331 OA 
BRANCH  11  12
HETATM   12  C   UNL     1     -11.302  13.778  66.114  1.00  0.00    -0.314 C  
HETATM   13  O   UNL     1     -12.463  13.441  65.899  1.00  0.00    -0.439 OA 
BRANCH  12  14
HETATM   14  C   UNL     1     -10.525  13.410  67.393  1.00  0.00    -0.243 C  
HETATM   15  C   UNL     1      -8.996  13.653  67.261  1.00  0.00    -0.226 C  
HETATM   16  C   UNL     1     -10.575  11.862  67.492  1.00  0.00    -0.250 C  
HETATM   17  C   UNL     1      -9.357  11.471  68.307  1.00  0.00    -0.190 C  
HETATM   18  C   UNL     1      -8.278  12.424  67.833  1.00  0.00    -0.163 C  
BRANCH  14  19
HETATM   19  C   UNL     1     -11.106  14.184  68.593  1.00  0.00    -0.283 A  
HETATM   20  C   UNL     1     -11.200  16.110  70.092  1.00  0.00    -0.374 A  
HETATM   21  C   UNL     1     -12.191  15.500  70.854  1.00  0.00    -0.450 A  
HETATM   22  C   UNL     1     -10.662  15.458  68.978  1.00  0.00    -0.242 A  
HETATM   23  C   UNL     1     -12.653  14.241  70.493  1.00  0.00    -0.418 A  
HETATM   24  C   UNL     1     -12.124  13.595  69.371  1.00  0.00    -0.364 A  
ENDBRANCH  14  19
ENDBRANCH  12  14
ENDBRANCH  11  12
ENDBRANCH  10  11
ENDBRANCH   9  10
ENDBRANCH   8   9
ENDBRANCH   7   8
ENDBRANCH   6   7
ENDBRANCH   3   6
ENDBRANCH   2   3
TORSDOF 11
ENDMDL
MODEL       43
REMARK 921   NORMALIZED FREE ENERGY PREDICTED BY IDOCK:   -5.18 KCAL/MOL
REMARK 922        TOTAL FREE ENERGY PREDICTED BY IDOCK:   -9.32 KCAL/MOL
REMARK 923 INTER-LIGAND FREE ENERGY PREDICTED BY IDOCK:   -8.31 KCAL/MOL
REMARK 924 INTRA-LIGAND FREE ENERGY PREDICTED BY IDOCK:   -1.02 KCAL/MOL
REMARK 927      BINDING AFFINITY PREDICTED BY RF-SCORE:    0.00 PKD
ROOT
HETATM    1  C   UNL     1     -10.684  19.812  65.598  1.00  0.00    -0.418 C  
HETATM    2  C   UNL     1      -9.384  20.012  66.374  1.00  0.00    -0.378 C  
ENDROOT
BRANCH   2   3
HETATM    3  N   UNL     1      -8.333  19.021  66.078  1.00  0.00    -0.473 NA 
BRANCH   3   4
HETATM    4  C   UNL     1      -6.966  19.531  66.264  1.00  0.00    -0.232 C  
HETATM    5  C   UNL     1      -6.789  20.626  67.309  1.00  0.00    -0.376 C  
ENDBRANCH   3   4
BRANCH   3   6
HETATM    6  C   UNL     1      -8.609  17.769  66.819  1.00  0.00    -0.252 C  
BRANCH   6   7
HETATM    7  C   UNL     1      -9.202  17.960  68.224  1.00  0.00    -0.282 C  
BRANCH   7   8
HETATM    8  O   UNL     1     -10.569  17.526  68.245  1.00  0.00    -0.372 OA 
BRANCH   8   9
HETATM    9  C   UNL     1     -10.699  16.317  68.996  1.00  0.00    -0.300 C  
BRANCH   9  10
HETATM   10  C   UNL     1     -11.629  15.341  68.280  1.00  0.00    -0.341 C  
BRANCH  10  11
HETATM   11  O   UNL     1     -11.291  15.222  66.885  1.00  0.00    -0.307 OA 
BRANCH  11  12
HETATM   12  C   UNL     1     -10.405  14.229  66.581  1.00  0.00    -0.279 C  
HETATM   13  O   UNL     1      -9.193  14.327  66.753  1.00  0.00    -0.248 OA 
BRANCH  12  14
HETATM   14  C   UNL     1     -11.084  13.008  65.933  1.00  0.00    -0.303 C  
HETATM   15  C   UNL     1     -10.445  12.611  64.574  1.00  0.00    -0.379 C  
HETATM   16  C   UNL     1     -12.486  13.493  65.475  1.00  0.00    -0.538 C  
HETATM   17  C   UNL     1     -12.881  12.569  64.339  1.00  0.00    -0.366 C  
HETATM   18  C   UNL     1     -11.585  12.346  63.582  1.00  0.00    -0.580 C  
BRANCH  14  19
HETATM   19  C   UNL     1     -11.068  11.823  66.919  1.00  0.00    -0.361 A  
HETATM   20  C   UNL     1     -11.496  10.808  69.100  1.00  0.00    -0.368 A  
HETATM   21  C   UNL     1     -10.933   9.608  68.679  1.00  0.00    -0.152 A  
HETATM   22  C   UNL     1     -11.559  11.903  68.232  1.00  0.00    -0.390 A  
HETATM   23  C   UNL     1     -10.444   9.498  67.384  1.00  0.00    -0.336 A  
HETATM   24  C   UNL     1     -10.518  10.590  66.511  1.00  0.00    -0.276 A  
ENDBRANCH  14  19
ENDBRANCH  12  14
ENDBRANCH  11  12
ENDBRANCH  10  11
ENDBRANCH   9  10
ENDBRANCH   8   9
ENDBRANCH   7   8
ENDBRANCH   6   7
ENDBRANCH   3   6
ENDBRANCH   2   3
TORSDOF 11
ENDMDL
MODEL       44
REMARK 921   NORMALIZED FREE ENERGY PREDICTED BY IDOCK:   -5.17 KCAL/MOL
REMARK 922        TOTAL FREE ENERGY PREDICTED BY IDOCK:   -9.32 KCAL/MOL
REMARK 923 INTER-LIGAND FREE ENERGY PREDICTED BY IDOCK:   -7.96 KCAL/MOL
REMARK 924 INTRA-LIGAND FREE ENERGY PREDICTED BY IDOCK:   -1.36 KCAL/MOL
REMARK 927      BINDING AFFINITY PREDICTED BY RF-SCORE:    0.00 PKD
ROOT
HETATM    1  C   UNL     1     -13.536   7.648  71.544  1.00  0.00    -0.394 C  
HETATM    2  C   UNL     1     -13.662   8.985  72.272  1.00  0.00    -0.492 C  
ENDROOT
BRANCH   2   3
HETATM    3  N   UNL     1     -12.510   9.890  72.097  1.00  0.00    -0.260 NA 
BRANCH   3   4
HETATM    4  C   UNL     1     -11.279   9.210  71.666  1.00  0.00    -0.377 C  
HETATM    5  C   UNL     1     -10.595   9.773  70.426  1.00  0.00    -0.365 C  
ENDBRANCH   3   4
BRANCH   3   6
HETATM    6  C   UNL     1     -12.900  11.026  71.231  1.00  0.00    -0.425 C  
BRANCH   6   7
HETATM    7  C   UNL     1     -12.940  12.395  71.928  1.00  0.00    -0.302 C  
BRANCH   7   8
HETATM    8  O   UNL     1     -13.644  13.343  71.112  1.00  0.00    -0.054 OA 
BRANCH   8   9
HETATM    9  C   UNL     1     -12.964  14.600  71.107  1.00  0.00    -0.350 C  
BRANCH   9  10
HETATM   10  C   UNL     1     -11.695  14.517  70.263  1.00  0.00    -0.293 C  
BRANCH  10  11
HETATM   11  O   UNL     1     -11.988  14.654  68.860  1.00  0.00    -0.307 OA 
BRANCH  11  12
HETATM   12  C   UNL     1     -11.594  13.609  68.075  1.00  0.00    -0.333 C  
HETATM   13  O   UNL     1     -11.894  12.440  68.302  1.00  0.00    -0.326 OA 
BRANCH  12  14
HETATM   14  C   UNL     1     -10.674  14.051  66.921  1.00  0.00    -0.285 C  
HETATM   15  C   UNL     1      -9.167  13.847  67.238  1.00  0.00    -0.235 C  
HETATM   16  C   UNL     1     -10.764  15.599  66.873  1.00  0.00    -0.307 C  
HETATM   17  C   UNL     1      -9.467  16.059  66.235  1.00  0.00    -0.347 C  
HETATM   18  C   UNL     1      -8.424  15.118  66.808  1.00  0.00    -0.272 C  
BRANCH  14  19
HETATM   19  C   UNL     1     -11.073  13.311  65.629  1.00  0.00    -0.299 A  
HETATM   20  C   UNL     1     -10.602  11.830  63.743  1.00  0.00    -0.470 A  
HETATM   21  C   UNL     1     -11.875  12.045  63.226  1.00  0.00    -0.450 A  
HETATM   22  C   UNL     1     -10.205  12.458  64.928  1.00  0.00    -0.301 A  
HETATM   23  C   UNL     1     -12.757  12.879  63.900  1.00  0.00    -0.223 A  
HETATM   24  C   UNL     1     -12.363  13.498  65.092  1.00  0.00    -0.488 A  
ENDBRANCH  14  19
ENDBRANCH  12  14
ENDBRANCH  11  12
ENDBRANCH  10  11
ENDBRANCH   9  10
ENDBRANCH   8   9
ENDBRANCH   7   8
ENDBRANCH   6   7
ENDBRANCH   3   6
ENDBRANCH   2   3
TORSDOF 11
ENDMDL
MODEL       45
REMARK 921   NORMALIZED FREE ENERGY PREDICTED BY IDOCK:   -5.17 KCAL/MOL
REMARK 922        TOTAL FREE ENERGY PREDICTED BY IDOCK:   -9.31 KCAL/MOL
REMARK 923 INTER-LIGAND FREE ENERGY PREDICTED BY IDOCK:   -8.08 KCAL/MOL
REMARK 924 INTRA-LIGAND FREE ENERGY PREDICTED BY IDOCK:   -1.23 KCAL/MOL
REMARK 927      BINDING AFFINITY PREDICTED BY RF-SCORE:    0.00 PKD
ROOT
HETATM    1  C   UNL     1     -13.884   7.548  71.522  1.00  0.00    -0.487 C  
HETATM    2  C   UNL     1     -12.414   7.136  71.579  1.00  0.00    -0.381 C  
ENDROOT
BRANCH   2   3
HETATM    3  N   UNL     1     -11.589   7.929  72.510  1.00  0.00    -0.377 NA 
BRANCH   3   4
HETATM    4  C   UNL     1     -10.646   7.124  73.301  1.00  0.00    -0.364 C  
HETATM    5  C   UNL     1      -9.285   7.754  73.575  1.00  0.00    -0.350 C  
ENDBRANCH   3   4
BRANCH   3   6
HETATM    6  C   UNL     1     -10.954   9.048  71.779  1.00  0.00    -0.372 C  
BRANCH   6   7
HETATM    7  C   UNL     1     -10.666   8.778  70.293  1.00  0.00    -0.227 C  
BRANCH   7   8
HETATM    8  O   UNL     1     -11.201   9.838  69.488  1.00  0.00    -0.218 OA 
BRANCH   8   9
HETATM    9  C   UNL     1     -10.195  10.361  68.617  1.00  0.00    -0.181 C  
BRANCH   9  10
HETATM   10  C   UNL     1     -10.834  11.133  67.466  1.00  0.00    -0.254 C  
BRANCH  10  11
HETATM   11  O   UNL     1     -10.492  12.531  67.517  1.00  0.00    -0.216 OA 
BRANCH  11  12
HETATM   12  C   UNL     1     -11.544  13.385  67.682  1.00  0.00    -0.340 C  
HETATM   13  O   UNL     1     -12.597  13.291  67.059  1.00  0.00    -0.152 OA 
BRANCH  12  14
HETATM   14  C   UNL     1     -11.235  14.517  68.680  1.00  0.00    -0.281 C  
HETATM   15  C   UNL     1     -11.398  15.932  68.058  1.00  0.00    -0.284 C  
HETATM   16  C   UNL     1      -9.701  14.470  68.917  1.00  0.00    -0.169 C  
HETATM   17  C   UNL     1      -9.315  15.874  69.341  1.00  0.00    -0.250 C  
HETATM   18  C   UNL     1     -10.182  16.769  68.476  1.00  0.00    -0.298 C  
BRANCH  14  19
HETATM   19  C   UNL     1     -12.118  14.359  69.933  1.00  0.00    -0.398 A  
HETATM   20  C   UNL     1     -13.535  15.246  71.714  1.00  0.00    -0.558 A  
HETATM   21  C   UNL     1     -13.668  13.979  72.272  1.00  0.00    -0.646 A  
HETATM   22  C   UNL     1     -12.766  15.434  70.561  1.00  0.00    -0.455 A  
HETATM   23  C   UNL     1     -13.042  12.896  71.669  1.00  0.00    -0.430 A  
HETATM   24  C   UNL     1     -12.283  13.083  70.508  1.00  0.00    -0.392 A  
ENDBRANCH  14  19
ENDBRANCH  12  14
ENDBRANCH  11  12
ENDBRANCH  10  11
ENDBRANCH   9  10
ENDBRANCH   8   9
ENDBRANCH   7   8
ENDBRANCH   6   7
ENDBRANCH   3   6
ENDBRANCH   2   3
TORSDOF 11
ENDMDL
MODEL       46
REMARK 921   NORMALIZED FREE ENERGY PREDICTED BY IDOCK:   -5.17 KCAL/MOL
REMARK 922        TOTAL FREE ENERGY PREDICTED BY IDOCK:   -9.31 KCAL/MOL
REMARK 923 INTER-LIGAND FREE ENERGY PREDICTED BY IDOCK:   -8.29 KCAL/MOL
REMARK 924 INTRA-LIGAND FREE ENERGY PREDICTED BY IDOCK:   -1.02 KCAL/MOL
REMARK 927      BINDING AFFINITY PREDICTED BY RF-SCORE:    0.00 PKD
ROOT
HETATM    1  C   UNL     1     -12.686  15.650  73.804  1.00  0.00    -0.742 C  
HETATM    2  C   UNL     1     -13.189  14.510  72.921  1.00  0.00    -0.515 C  
ENDROOT
BRANCH   2   3
HETATM    3  N   UNL     1     -13.146  14.789  71.473  1.00  0.00    -0.331 NA 
BRANCH   3   4
HETATM    4  C   UNL     1     -12.276  15.919  71.111  1.00  0.00    -0.399 C  
HETATM    5  C   UNL     1     -11.333  15.696  69.935  1.00  0.00    -0.340 C  
ENDBRANCH   3   4
BRANCH   3   6
HETATM    6  C   UNL     1     -12.842  13.541  70.737  1.00  0.00    -0.173 C  
BRANCH   6   7
HETATM    7  C   UNL     1     -12.955  12.251  71.565  1.00  0.00    -0.289 C  
BRANCH   7   8
HETATM    8  O   UNL     1     -12.092  11.241  71.022  1.00  0.00    -0.319 OA 
BRANCH   8   9
HETATM    9  C   UNL     1     -12.663  10.679  69.838  1.00  0.00    -0.015 C  
BRANCH   9  10
HETATM   10  C   UNL     1     -11.636  10.660  68.708  1.00  0.00    -0.239 C  
BRANCH  10  11
HETATM   11  O   UNL     1     -11.921  11.671  67.723  1.00  0.00    -0.608 OA 
BRANCH  11  12
HETATM   12  C   UNL     1     -10.919  12.571  67.502  1.00  0.00    -0.251 C  
HETATM   13  O   UNL     1     -10.199  13.016  68.391  1.00  0.00    -0.242 OA 
BRANCH  12  14
HETATM   14  C   UNL     1     -10.841  13.019  66.030  1.00  0.00    -0.290 C  
HETATM   15  C   UNL     1     -10.092  14.368  65.848  1.00  0.00    -0.344 C  
HETATM   16  C   UNL     1     -12.286  13.422  65.630  1.00  0.00    -0.510 C  
HETATM   17  C   UNL     1     -12.127  14.410  64.490  1.00  0.00    -0.498 C  
HETATM   18  C   UNL     1     -10.915  15.232  64.884  1.00  0.00    -0.445 C  
BRANCH  14  19
HETATM   19  C   UNL     1     -10.191  11.907  65.184  1.00  0.00    -0.314 A  
HETATM   20  C   UNL     1      -8.606  10.076  64.856  1.00  0.00    -0.184 A  
HETATM   21  C   UNL     1      -9.008   9.933  63.533  1.00  0.00    -0.277 A  
HETATM   22  C   UNL     1      -9.187  11.054  65.671  1.00  0.00    -0.231 A  
HETATM   23  C   UNL     1     -10.002  10.760  63.026  1.00  0.00    -0.291 A  
HETATM   24  C   UNL     1     -10.593  11.729  63.845  1.00  0.00    -0.445 A  
ENDBRANCH  14  19
ENDBRANCH  12  14
ENDBRANCH  11  12
ENDBRANCH  10  11
ENDBRANCH   9  10
ENDBRANCH   8   9
ENDBRANCH   7   8
ENDBRANCH   6   7
ENDBRANCH   3   6
ENDBRANCH   2   3
TORSDOF 11
ENDMDL
MODEL       47
REMARK 921   NORMALIZED FREE ENERGY PREDICTED BY IDOCK:   -5.17 KCAL/MOL
REMARK 922        TOTAL FREE ENERGY PREDICTED BY IDOCK:   -9.31 KCAL/MOL
REMARK 923 INTER-LIGAND FREE ENERGY PREDICTED BY IDOCK:   -8.01 KCAL/MOL
REMARK 924 INTRA-LIGAND FREE ENERGY PREDICTED BY IDOCK:   -1.30 KCAL/MOL
REMARK 927      BINDING AFFINITY PREDICTED BY RF-SCORE:    0.00 PKD
ROOT
HETATM    1  C   UNL     1     -13.775  13.247  72.220  1.00  0.00    -0.686 C  
HETATM    2  C   UNL     1     -12.595  13.758  71.396  1.00  0.00    -0.348 C  
ENDROOT
BRANCH   2   3
HETATM    3  N   UNL     1     -12.491  15.228  71.317  1.00  0.00    -0.336 NA 
BRANCH   3   4
HETATM    4  C   UNL     1     -11.802  15.837  72.464  1.00  0.00    -0.499 C  
HETATM    5  C   UNL     1     -12.666  16.165  73.676  1.00  0.00    -0.690 C  
ENDBRANCH   3   4
BRANCH   3   6
HETATM    6  C   UNL     1     -11.925  15.615  70.005  1.00  0.00    -0.368 C  
BRANCH   6   7
HETATM    7  C   UNL     1     -11.893  14.495  68.952  1.00  0.00    -0.324 C  
BRANCH   7   8
HETATM    8  O   UNL     1     -11.592  15.043  67.660  1.00  0.00    -0.339 OA 
BRANCH   8   9
HETATM    9  C   UNL     1     -11.919  14.107  66.631  1.00  0.00    -0.444 C  
BRANCH   9  10
HETATM   10  C   UNL     1     -11.848  12.679  67.167  1.00  0.00    -0.330 C  
BRANCH  10  11
HETATM   11  O   UNL     1     -10.644  12.016  66.737  1.00  0.00    -0.217 OA 
BRANCH  11  12
HETATM   12  C   UNL     1      -9.772  11.682  67.732  1.00  0.00    -0.173 C  
HETATM   13  O   UNL     1      -9.052  12.495  68.304  1.00  0.00    -0.199 OA 
BRANCH  12  14
HETATM   14  C   UNL     1      -9.741  10.166  68.007  1.00  0.00    -0.161 C  
HETATM   15  C   UNL     1      -8.309   9.569  67.937  1.00  0.00    -0.115 C  
HETATM   16  C   UNL     1     -10.406   9.496  66.775  1.00  0.00    -0.298 C  
HETATM   17  C   UNL     1      -9.835   8.091  66.723  1.00  0.00    -0.327 C  
HETATM   18  C   UNL     1      -8.383   8.271  67.123  1.00  0.00    -0.123 C  
BRANCH  14  19
HETATM   19  C   UNL     1     -10.396   9.873  69.371  1.00  0.00    -0.238 A  
HETATM   20  C   UNL     1     -12.185  10.121  71.017  1.00  0.00    -0.474 A  
HETATM   21  C   UNL     1     -11.489   9.332  71.927  1.00  0.00    -0.382 A  
HETATM   22  C   UNL     1     -11.643  10.392  69.757  1.00  0.00    -0.339 A  
HETATM   23  C   UNL     1     -10.256   8.802  71.571  1.00  0.00    -0.371 A  
HETATM   24  C   UNL     1      -9.720   9.062  70.305  1.00  0.00    -0.229 A  
ENDBRANCH  14  19
ENDBRANCH  12  14
ENDBRANCH  11  12
ENDBRANCH  10  11
ENDBRANCH   9  10
ENDBRANCH   8   9
ENDBRANCH   7   8
ENDBRANCH   6   7
ENDBRANCH   3   6
ENDBRANCH   2   3
TORSDOF 11
ENDMDL
MODEL       48
REMARK 921   NORMALIZED FREE ENERGY PREDICTED BY IDOCK:   -5.17 KCAL/MOL
REMARK 922        TOTAL FREE ENERGY PREDICTED BY IDOCK:   -9.31 KCAL/MOL
REMARK 923 INTER-LIGAND FREE ENERGY PREDICTED BY IDOCK:   -8.19 KCAL/MOL
REMARK 924 INTRA-LIGAND FREE ENERGY PREDICTED BY IDOCK:   -1.12 KCAL/MOL
REMARK 927      BINDING AFFINITY PREDICTED BY RF-SCORE:    0.00 PKD
ROOT
HETATM    1  C   UNL     1     -13.640   9.122  72.048  1.00  0.00    -0.520 C  
HETATM    2  C   UNL     1     -12.988   7.830  71.564  1.00  0.00    -0.325 C  
ENDROOT
BRANCH   2   3
HETATM    3  N   UNL     1     -11.841   7.378  72.375  1.00  0.00    -0.265 NA 
BRANCH   3   4
HETATM    4  C   UNL     1     -11.468   5.974  72.147  1.00  0.00    -0.302 C  
HETATM    5  C   UNL     1     -11.068   5.173  73.380  1.00  0.00    -0.385 C  
ENDBRANCH   3   4
BRANCH   3   6
HETATM    6  C   UNL     1     -10.717   8.329  72.216  1.00  0.00    -0.329 C  
BRANCH   6   7
HETATM    7  C   UNL     1     -10.260   8.562  70.768  1.00  0.00    -0.198 C  
BRANCH   7   8
HETATM    8  O   UNL     1     -10.257   9.967  70.473  1.00  0.00    -0.278 OA 
BRANCH   8   9
HETATM    9  C   UNL     1     -10.762  10.202  69.157  1.00  0.00    -0.226 C  
BRANCH   9  10
HETATM   10  C   UNL     1     -12.019  11.067  69.215  1.00  0.00    -0.339 C  
BRANCH  10  11
HETATM   11  O   UNL     1     -12.139  11.898  68.045  1.00  0.00    -0.541 OA 
BRANCH  11  12
HETATM   12  C   UNL     1     -11.805  13.210  68.223  1.00  0.00    -0.349 C  
HETATM   13  O   UNL     1     -12.282  13.917  69.106  1.00  0.00    -0.356 OA 
BRANCH  12  14
HETATM   14  C   UNL     1     -10.822  13.720  67.152  1.00  0.00    -0.288 C  
HETATM   15  C   UNL     1      -9.335  13.579  67.581  1.00  0.00    -0.216 C  
HETATM   16  C   UNL     1     -10.982  15.263  67.126  1.00  0.00    -0.331 C  
HETATM   17  C   UNL     1      -9.663  15.797  66.600  1.00  0.00    -0.266 C  
HETATM   18  C   UNL     1      -8.623  14.893  67.234  1.00  0.00    -0.232 C  
BRANCH  14  19
HETATM   19  C   UNL     1     -11.084  12.991  65.820  1.00  0.00    -0.302 A  
HETATM   20  C   UNL     1     -10.468  11.432  64.042  1.00  0.00    -0.435 A  
HETATM   21  C   UNL     1     -11.620  11.750  63.330  1.00  0.00    -0.419 A  
HETATM   22  C   UNL     1     -10.201  12.048  65.269  1.00  0.00    -0.304 A  
HETATM   23  C   UNL     1     -12.513  12.676  63.853  1.00  0.00    -0.498 A  
HETATM   24  C   UNL     1     -12.253  13.282  65.087  1.00  0.00    -0.487 A  
ENDBRANCH  14  19
ENDBRANCH  12  14
ENDBRANCH  11  12
ENDBRANCH  10  11
ENDBRANCH   9  10
ENDBRANCH   8   9
ENDBRANCH   7   8
ENDBRANCH   6   7
ENDBRANCH   3   6
ENDBRANCH   2   3
TORSDOF 11
ENDMDL
MODEL       49
REMARK 921   NORMALIZED FREE ENERGY PREDICTED BY IDOCK:   -5.16 KCAL/MOL
REMARK 922        TOTAL FREE ENERGY PREDICTED BY IDOCK:   -9.30 KCAL/MOL
REMARK 923 INTER-LIGAND FREE ENERGY PREDICTED BY IDOCK:   -8.02 KCAL/MOL
REMARK 924 INTRA-LIGAND FREE ENERGY PREDICTED BY IDOCK:   -1.28 KCAL/MOL
REMARK 927      BINDING AFFINITY PREDICTED BY RF-SCORE:    0.00 PKD
ROOT
HETATM    1  C   UNL     1     -12.943  11.165  71.635  1.00  0.00    -0.548 C  
HETATM    2  C   UNL     1     -12.219  10.034  70.908  1.00  0.00    -0.346 C  
ENDROOT
BRANCH   2   3
HETATM    3  N   UNL     1     -11.831   8.900  71.769  1.00  0.00    -0.334 NA 
BRANCH   3   4
HETATM    4  C   UNL     1     -12.502   7.637  71.425  1.00  0.00    -0.333 C  
HETATM    5  C   UNL     1     -11.892   6.368  72.006  1.00  0.00    -0.382 C  
ENDBRANCH   3   4
BRANCH   3   6
HETATM    6  C   UNL     1     -10.355   8.798  71.819  1.00  0.00    -0.343 C  
BRANCH   6   7
HETATM    7  C   UNL     1      -9.642   8.974  70.468  1.00  0.00    -0.219 C  
BRANCH   7   8
HETATM    8  O   UNL     1      -8.481   9.802  70.629  1.00  0.00    -0.200 OA 
BRANCH   8   9
HETATM    9  C   UNL     1      -8.150  10.442  69.395  1.00  0.00    -0.155 C  
BRANCH   9  10
HETATM   10  C   UNL     1      -9.339  10.405  68.438  1.00  0.00    -0.150 C  
BRANCH  10  11
HETATM   11  O   UNL     1      -9.677  11.725  67.969  1.00  0.00    -0.174 OA 
BRANCH  11  12
HETATM   12  C   UNL     1     -10.927  11.854  67.437  1.00  0.00    -0.263 C  
HETATM   13  O   UNL     1     -11.720  10.923  67.336  1.00  0.00    -0.510 OA 
BRANCH  12  14
HETATM   14  C   UNL     1     -11.202  13.277  66.915  1.00  0.00    -0.332 C  
HETATM   15  C   UNL     1     -12.456  13.352  66.000  1.00  0.00    -0.431 C  
HETATM   16  C   UNL     1     -10.070  13.585  65.899  1.00  0.00    -0.311 C  
HETATM   17  C   UNL     1     -10.645  14.627  64.958  1.00  0.00    -0.461 C  
HETATM   18  C   UNL     1     -12.087  14.197  64.773  1.00  0.00    -0.454 C  
BRANCH  14  19
HETATM   19  C   UNL     1     -11.327  14.250  68.104  1.00  0.00    -0.313 A  
HETATM   20  C   UNL     1     -10.798  16.333  69.267  1.00  0.00    -0.318 A  
HETATM   21  C   UNL     1     -11.564  15.943  70.362  1.00  0.00    -0.387 A  
HETATM   22  C   UNL     1     -10.678  15.495  68.154  1.00  0.00    -0.282 A  
HETATM   23  C   UNL     1     -12.220  14.720  70.338  1.00  0.00    -0.395 A  
HETATM   24  C   UNL     1     -12.110  13.887  69.218  1.00  0.00    -0.383 A  
ENDBRANCH  14  19
ENDBRANCH  12  14
ENDBRANCH  11  12
ENDBRANCH  10  11
ENDBRANCH   9  10
ENDBRANCH   8   9
ENDBRANCH   7   8
ENDBRANCH   6   7
ENDBRANCH   3   6
ENDBRANCH   2   3
TORSDOF 11
ENDMDL
MODEL       50
REMARK 921   NORMALIZED FREE ENERGY PREDICTED BY IDOCK:   -5.16 KCAL/MOL
REMARK 922        TOTAL FREE ENERGY PREDICTED BY IDOCK:   -9.29 KCAL/MOL
REMARK 923 INTER-LIGAND FREE ENERGY PREDICTED BY IDOCK:   -8.26 KCAL/MOL
REMARK 924 INTRA-LIGAND FREE ENERGY PREDICTED BY IDOCK:   -1.03 KCAL/MOL
REMARK 927      BINDING AFFINITY PREDICTED BY RF-SCORE:    0.00 PKD
ROOT
HETATM    1  C   UNL     1     -10.818   5.318  73.076  1.00  0.00    -0.332 C  
HETATM    2  C   UNL     1     -11.262   6.674  72.533  1.00  0.00    -0.266 C  
ENDROOT
BRANCH   2   3
HETATM    3  N   UNL     1     -12.285   6.605  71.472  1.00  0.00    -0.354 NA 
BRANCH   3   4
HETATM    4  C   UNL     1     -13.347   7.614  71.604  1.00  0.00    -0.350 C  
HETATM    5  C   UNL     1     -12.957   8.922  72.281  1.00  0.00    -0.479 C  
ENDBRANCH   3   4
BRANCH   3   6
HETATM    6  C   UNL     1     -11.625   6.603  70.146  1.00  0.00    -0.386 C  
BRANCH   6   7
HETATM    7  C   UNL     1     -10.359   7.469  70.046  1.00  0.00    -0.221 C  
BRANCH   7   8
HETATM    8  O   UNL     1     -10.086   7.785  68.673  1.00  0.00    -0.188 OA 
BRANCH   8   9
HETATM    9  C   UNL     1      -9.481   9.075  68.568  1.00  0.00    -0.143 C  
BRANCH   9  10
HETATM   10  C   UNL     1     -10.217  10.083  69.446  1.00  0.00    -0.222 C  
BRANCH  10  11
HETATM   11  O   UNL     1     -10.117  11.417  68.912  1.00  0.00    -0.204 OA 
BRANCH  11  12
HETATM   12  C   UNL     1     -11.298  11.981  68.523  1.00  0.00    -0.272 C  
HETATM   13  O   UNL     1     -12.185  11.364  67.941  1.00  0.00    -0.592 OA 
BRANCH  12  14
HETATM   14  C   UNL     1     -11.361  13.490  68.830  1.00  0.00    -0.329 C  
HETATM   15  C   UNL     1     -11.869  14.330  67.626  1.00  0.00    -0.420 C  
HETATM   16  C   UNL     1      -9.887  13.967  68.927  1.00  0.00    -0.077 C  
HETATM   17  C   UNL     1      -9.919  15.447  68.596  1.00  0.00    -0.210 C  
HETATM   18  C   UNL     1     -10.950  15.551  67.488  1.00  0.00    -0.316 C  
BRANCH  14  19
HETATM   19  C   UNL     1     -12.233  13.729  70.078  1.00  0.00    -0.407 A  
HETATM   20  C   UNL     1     -13.307  12.996  72.147  1.00  0.00    -0.622 A  
HETATM   21  C   UNL     1     -13.904  14.243  72.306  1.00  0.00    -0.622 A  
HETATM   22  C   UNL     1     -12.485  12.742  71.044  1.00  0.00    -0.369 A  
HETATM   23  C   UNL     1     -13.668  15.239  71.368  1.00  0.00    -0.602 A  
HETATM   24  C   UNL     1     -12.836  14.988  70.272  1.00  0.00    -0.270 A  
ENDBRANCH  14  19
ENDBRANCH  12  14
ENDBRANCH  11  12
ENDBRANCH  10  11
ENDBRANCH   9  10
ENDBRANCH   8   9
ENDBRANCH   7   8
ENDBRANCH   6   7
ENDBRANCH   3   6
ENDBRANCH   2   3
TORSDOF 11
ENDMDL
MODEL       51
REMARK 921   NORMALIZED FREE ENERGY PREDICTED BY IDOCK:   -5.15 KCAL/MOL
REMARK 922        TOTAL FREE ENERGY PREDICTED BY IDOCK:   -9.29 KCAL/MOL
REMARK 923 INTER-LIGAND FREE ENERGY PREDICTED BY IDOCK:   -7.93 KCAL/MOL
REMARK 924 INTRA-LIGAND FREE ENERGY PREDICTED BY IDOCK:   -1.35 KCAL/MOL
REMARK 927      BINDING AFFINITY PREDICTED BY RF-SCORE:    0.00 PKD
ROOT
HETATM    1  C   UNL     1     -10.079  10.872  63.587  1.00  0.00    -0.414 C  
HETATM    2  C   UNL     1      -9.455  10.255  64.837  1.00  0.00    -0.279 C  
ENDROOT
BRANCH   2   3
HETATM    3  N   UNL     1     -10.354  10.189  66.004  1.00  0.00    -0.205 NA 
BRANCH   3   4
HETATM    4  C   UNL     1     -10.257   8.931  66.760  1.00  0.00    -0.278 C  
HETATM    5  C   UNL     1      -9.232   7.919  66.260  1.00  0.00    -0.231 C  
ENDBRANCH   3   4
BRANCH   3   6
HETATM    6  C   UNL     1     -10.175  11.401  66.836  1.00  0.00    -0.219 C  
BRANCH   6   7
HETATM    7  C   UNL     1     -11.441  12.247  67.039  1.00  0.00    -0.354 C  
BRANCH   7   8
HETATM    8  O   UNL     1     -12.176  12.334  65.809  1.00  0.00    -0.622 OA 
BRANCH   8   9
HETATM    9  C   UNL     1     -12.363  13.700  65.433  1.00  0.00    -0.476 C  
BRANCH   9  10
HETATM   10  C   UNL     1     -11.041  14.314  64.979  1.00  0.00    -0.373 C  
BRANCH  10  11
HETATM   11  O   UNL     1     -10.751  15.528  65.698  1.00  0.00    -0.330 OA 
BRANCH  11  12
HETATM   12  C   UNL     1      -9.755  15.434  66.627  1.00  0.00    -0.253 C  
HETATM   13  O   UNL     1      -8.732  14.776  66.460  1.00  0.00    -0.232 OA 
BRANCH  12  14
HETATM   14  C   UNL     1     -10.091  16.183  67.931  1.00  0.00    -0.244 C  
HETATM   15  C   UNL     1      -9.380  15.579  69.174  1.00  0.00    -0.250 C  
HETATM   16  C   UNL     1     -11.574  15.851  68.243  1.00  0.00    -0.274 C  
HETATM   17  C   UNL     1     -11.718  16.022  69.744  1.00  0.00    -0.267 C  
HETATM   18  C   UNL     1     -10.416  15.478  70.300  1.00  0.00    -0.282 C  
BRANCH  14  19
HETATM   19  C   UNL     1      -9.751  17.677  67.772  1.00  0.00    -0.280 A  
HETATM   20  C   UNL     1      -8.223  19.580  67.888  1.00  0.00    -0.345 A  
HETATM   21  C   UNL     1      -9.241  20.452  67.515  1.00  0.00    -0.475 A  
HETATM   22  C   UNL     1      -8.476  18.211  68.018  1.00  0.00    -0.268 A  
HETATM   23  C   UNL     1     -10.511  19.951  67.260  1.00  0.00    -0.557 A  
HETATM   24  C   UNL     1     -10.761  18.580  67.378  1.00  0.00    -0.424 A  
ENDBRANCH  14  19
ENDBRANCH  12  14
ENDBRANCH  11  12
ENDBRANCH  10  11
ENDBRANCH   9  10
ENDBRANCH   8   9
ENDBRANCH   7   8
ENDBRANCH   6   7
ENDBRANCH   3   6
ENDBRANCH   2   3
TORSDOF 11
ENDMDL
MODEL       52
REMARK 921   NORMALIZED FREE ENERGY PREDICTED BY IDOCK:   -5.15 KCAL/MOL
REMARK 922        TOTAL FREE ENERGY PREDICTED BY IDOCK:   -9.28 KCAL/MOL
REMARK 923 INTER-LIGAND FREE ENERGY PREDICTED BY IDOCK:   -7.98 KCAL/MOL
REMARK 924 INTRA-LIGAND FREE ENERGY PREDICTED BY IDOCK:   -1.30 KCAL/MOL
REMARK 927      BINDING AFFINITY PREDICTED BY RF-SCORE:    0.00 PKD
ROOT
HETATM    1  C   UNL     1     -10.876  19.378  67.102  1.00  0.00    -0.561 C  
HETATM    2  C   UNL     1      -9.659  20.300  67.074  1.00  0.00    -0.435 C  
ENDROOT
BRANCH   2   3
HETATM    3  N   UNL     1      -8.361  19.607  67.183  1.00  0.00    -0.288 NA 
BRANCH   3   4
HETATM    4  C   UNL     1      -7.217  20.413  66.728  1.00  0.00    -0.279 C  
HETATM    5  C   UNL     1      -6.331  21.004  67.818  1.00  0.00    -0.410 C  
ENDBRANCH   3   4
BRANCH   3   6
HETATM    6  C   UNL     1      -8.202  19.063  68.551  1.00  0.00    -0.355 C  
BRANCH   6   7
HETATM    7  C   UNL     1      -7.861  17.566  68.621  1.00  0.00    -0.272 C  
BRANCH   7   8
HETATM    8  O   UNL     1      -8.648  16.836  67.669  1.00  0.00    -0.201 OA 
BRANCH   8   9
HETATM    9  C   UNL     1      -7.819  15.960  66.902  1.00  0.00    -0.247 C  
BRANCH   9  10
HETATM   10  C   UNL     1      -7.485  14.704  67.703  1.00  0.00    -0.186 C  
BRANCH  10  11
HETATM   11  O   UNL     1      -8.678  14.037  68.155  1.00  0.00    -0.165 OA 
BRANCH  11  12
HETATM   12  C   UNL     1      -9.230  13.160  67.266  1.00  0.00    -0.221 C  
HETATM   13  O   UNL     1      -8.576  12.341  66.627  1.00  0.00    -0.179 OA 
BRANCH  12  14
HETATM   14  C   UNL     1     -10.748  13.361  67.102  1.00  0.00    -0.268 C  
HETATM   15  C   UNL     1     -11.456  12.129  66.473  1.00  0.00    -0.430 C  
HETATM   16  C   UNL     1     -10.920  14.413  65.974  1.00  0.00    -0.316 C  
HETATM   17  C   UNL     1     -12.295  14.156  65.388  1.00  0.00    -0.475 C  
HETATM   18  C   UNL     1     -12.418  12.644  65.395  1.00  0.00    -0.421 C  
BRANCH  14  19
HETATM   19  C   UNL     1     -11.373  13.722  68.464  1.00  0.00    -0.318 A  
HETATM   20  C   UNL     1     -12.341  13.139  70.630  1.00  0.00    -0.405 A  
HETATM   21  C   UNL     1     -12.575  14.481  70.914  1.00  0.00    -0.414 A  
HETATM   22  C   UNL     1     -11.751  12.765  69.419  1.00  0.00    -0.380 A  
HETATM   23  C   UNL     1     -12.207  15.450  69.990  1.00  0.00    -0.392 A  
HETATM   24  C   UNL     1     -11.605  15.076  68.783  1.00  0.00    -0.357 A  
ENDBRANCH  14  19
ENDBRANCH  12  14
ENDBRANCH  11  12
ENDBRANCH  10  11
ENDBRANCH   9  10
ENDBRANCH   8   9
ENDBRANCH   7   8
ENDBRANCH   6   7
ENDBRANCH   3   6
ENDBRANCH   2   3
TORSDOF 11
ENDMDL
MODEL       53
REMARK 921   NORMALIZED FREE ENERGY PREDICTED BY IDOCK:   -5.14 KCAL/MOL
REMARK 922        TOTAL FREE ENERGY PREDICTED BY IDOCK:   -9.27 KCAL/MOL
REMARK 923 INTER-LIGAND FREE ENERGY PREDICTED BY IDOCK:   -7.76 KCAL/MOL
REMARK 924 INTRA-LIGAND FREE ENERGY PREDICTED BY IDOCK:   -1.51 KCAL/MOL
REMARK 927      BINDING AFFINITY PREDICTED BY RF-SCORE:    0.00 PKD
ROOT
HETATM    1  C   UNL     1     -10.778  16.700  65.226  1.00  0.00    -0.219 C  
HETATM    2  C   UNL     1     -10.340  17.929  66.020  1.00  0.00    -0.318 C  
ENDROOT
BRANCH   2   3
HETATM    3  N   UNL     1      -8.907  18.256  65.903  1.00  0.00    -0.467 NA 
BRANCH   3   4
HETATM    4  C   UNL     1      -8.531  19.520  66.556  1.00  0.00    -0.342 C  
HETATM    5  C   UNL     1      -9.664  20.315  67.193  1.00  0.00    -0.592 C  
ENDBRANCH   3   4
BRANCH   3   6
HETATM    6  C   UNL     1      -8.096  17.095  66.336  1.00  0.00    -0.302 C  
BRANCH   6   7
HETATM    7  C   UNL     1      -7.795  17.034  67.842  1.00  0.00    -0.184 C  
BRANCH   7   8
HETATM    8  O   UNL     1      -8.723  16.154  68.493  1.00  0.00    -0.183 OA 
BRANCH   8   9
HETATM    9  C   UNL     1      -8.076  14.937  68.870  1.00  0.00    -0.165 C  
BRANCH   9  10
HETATM   10  C   UNL     1      -8.895  13.733  68.412  1.00  0.00    -0.165 C  
BRANCH  10  11
HETATM   11  O   UNL     1      -9.367  13.903  67.062  1.00  0.00    -0.232 OA 
BRANCH  11  12
HETATM   12  C   UNL     1     -10.712  13.744  66.888  1.00  0.00    -0.280 C  
HETATM   13  O   UNL     1     -11.556  14.376  67.516  1.00  0.00    -0.336 OA 
BRANCH  12  14
HETATM   14  C   UNL     1     -11.049  12.637  65.871  1.00  0.00    -0.323 C  
HETATM   15  C   UNL     1     -10.287  12.799  64.527  1.00  0.00    -0.373 C  
HETATM   16  C   UNL     1     -12.511  12.903  65.420  1.00  0.00    -0.511 C  
HETATM   17  C   UNL     1     -12.628  12.277  64.044  1.00  0.00    -0.521 C  
HETATM   18  C   UNL     1     -11.293  12.577  63.390  1.00  0.00    -0.489 C  
BRANCH  14  19
HETATM   19  C   UNL     1     -10.776  11.256  66.498  1.00  0.00    -0.323 A  
HETATM   20  C   UNL     1      -9.802   9.015  66.472  1.00  0.00    -0.338 A  
HETATM   21  C   UNL     1     -10.383   8.722  67.702  1.00  0.00    -0.317 A  
HETATM   22  C   UNL     1     -10.000  10.265  65.876  1.00  0.00    -0.321 A  
HETATM   23  C   UNL     1     -11.152   9.685  68.342  1.00  0.00    -0.090 A  
HETATM   24  C   UNL     1     -11.338  10.940  67.752  1.00  0.00    -0.366 A  
ENDBRANCH  14  19
ENDBRANCH  12  14
ENDBRANCH  11  12
ENDBRANCH  10  11
ENDBRANCH   9  10
ENDBRANCH   8   9
ENDBRANCH   7   8
ENDBRANCH   6   7
ENDBRANCH   3   6
ENDBRANCH   2   3
TORSDOF 11
ENDMDL
MODEL       54
REMARK 921   NORMALIZED FREE ENERGY PREDICTED BY IDOCK:   -5.14 KCAL/MOL
REMARK 922        TOTAL FREE ENERGY PREDICTED BY IDOCK:   -9.26 KCAL/MOL
REMARK 923 INTER-LIGAND FREE ENERGY PREDICTED BY IDOCK:   -7.99 KCAL/MOL
REMARK 924 INTRA-LIGAND FREE ENERGY PREDICTED BY IDOCK:   -1.28 KCAL/MOL
REMARK 927      BINDING AFFINITY PREDICTED BY RF-SCORE:    0.00 PKD
ROOT
HETATM    1  C   UNL     1     -10.581  15.836  67.310  1.00  0.00    -0.313 C  
HETATM    2  C   UNL     1     -10.544  14.315  67.175  1.00  0.00    -0.279 C  
ENDROOT
BRANCH   2   3
HETATM    3  N   UNL     1     -11.857  13.687  66.938  1.00  0.00    -0.390 NA 
BRANCH   3   4
HETATM    4  C   UNL     1     -12.413  13.958  65.603  1.00  0.00    -0.505 C  
HETATM    5  C   UNL     1     -12.300  12.832  64.583  1.00  0.00    -0.524 C  
ENDBRANCH   3   4
BRANCH   3   6
HETATM    6  C   UNL     1     -11.786  12.247  67.275  1.00  0.00    -0.324 C  
BRANCH   6   7
HETATM    7  C   UNL     1     -11.477  11.936  68.748  1.00  0.00    -0.290 C  
BRANCH   7   8
HETATM    8  O   UNL     1     -12.498  11.090  69.296  1.00  0.00    -0.400 OA 
BRANCH   8   9
HETATM    9  C   UNL     1     -12.468  11.132  70.725  1.00  0.00    -0.384 C  
BRANCH   9  10
HETATM   10  C   UNL     1     -13.372  10.049  71.309  1.00  0.00    -0.330 C  
BRANCH  10  11
HETATM   11  O   UNL     1     -12.639   9.171  72.185  1.00  0.00    -0.369 OA 
BRANCH  11  12
HETATM   12  C   UNL     1     -12.533   7.877  71.761  1.00  0.00    -0.323 C  
HETATM   13  O   UNL     1     -13.493   7.121  71.645  1.00  0.00    -0.379 OA 
BRANCH  12  14
HETATM   14  C   UNL     1     -11.072   7.454  71.516  1.00  0.00    -0.266 C  
HETATM   15  C   UNL     1     -10.702   6.122  72.224  1.00  0.00    -0.268 C  
HETATM   16  C   UNL     1     -10.197   8.466  72.303  1.00  0.00    -0.396 C  
HETATM   17  C   UNL     1      -8.900   7.735  72.595  1.00  0.00    -0.213 C  
HETATM   18  C   UNL     1      -9.340   6.317  72.902  1.00  0.00    -0.140 C  
BRANCH  14  19
HETATM   19  C   UNL     1     -10.806   7.367  70.000  1.00  0.00    -0.266 A  
HETATM   20  C   UNL     1     -10.700   6.153  67.882  1.00  0.00    -0.374 A  
HETATM   21  C   UNL     1     -10.227   7.286  67.229  1.00  0.00    -0.323 A  
HETATM   22  C   UNL     1     -10.982   6.192  69.252  1.00  0.00    -0.450 A  
HETATM   23  C   UNL     1     -10.048   8.463  67.943  1.00  0.00    -0.254 A  
HETATM   24  C   UNL     1     -10.342   8.506  69.310  1.00  0.00    -0.227 A  
ENDBRANCH  14  19
ENDBRANCH  12  14
ENDBRANCH  11  12
ENDBRANCH  10  11
ENDBRANCH   9  10
ENDBRANCH   8   9
ENDBRANCH   7   8
ENDBRANCH   6   7
ENDBRANCH   3   6
ENDBRANCH   2   3
TORSDOF 11
ENDMDL
MODEL       55
REMARK 921   NORMALIZED FREE ENERGY PREDICTED BY IDOCK:   -5.14 KCAL/MOL
REMARK 922        TOTAL FREE ENERGY PREDICTED BY IDOCK:   -9.26 KCAL/MOL
REMARK 923 INTER-LIGAND FREE ENERGY PREDICTED BY IDOCK:   -8.18 KCAL/MOL
REMARK 924 INTRA-LIGAND FREE ENERGY PREDICTED BY IDOCK:   -1.07 KCAL/MOL
REMARK 927      BINDING AFFINITY PREDICTED BY RF-SCORE:    0.00 PKD
ROOT
HETATM    1  C   UNL     1     -14.283   8.108  71.836  1.00  0.00    -0.530 C  
HETATM    2  C   UNL     1     -12.764   8.156  71.985  1.00  0.00    -0.323 C  
ENDROOT
BRANCH   2   3
HETATM    3  N   UNL     1     -12.167   9.485  71.758  1.00  0.00    -0.382 NA 
BRANCH   3   4
HETATM    4  C   UNL     1     -11.013   9.470  70.845  1.00  0.00    -0.337 C  
HETATM    5  C   UNL     1      -9.894   8.494  71.186  1.00  0.00    -0.263 C  
ENDBRANCH   3   4
BRANCH   3   6
HETATM    6  C   UNL     1     -13.225  10.445  71.367  1.00  0.00    -0.364 C  
BRANCH   6   7
HETATM    7  C   UNL     1     -12.720  11.820  70.902  1.00  0.00    -0.235 C  
BRANCH   7   8
HETATM    8  O   UNL     1     -13.026  12.815  71.889  1.00  0.00    -0.347 OA 
BRANCH   8   9
HETATM    9  C   UNL     1     -12.642  14.112  71.427  1.00  0.00    -0.368 C  
BRANCH   9  10
HETATM   10  C   UNL     1     -12.403  14.092  69.919  1.00  0.00    -0.310 C  
BRANCH  10  11
HETATM   11  O   UNL     1     -11.154  14.724  69.578  1.00  0.00    -0.261 OA 
BRANCH  11  12
HETATM   12  C   UNL     1     -10.990  15.015  68.254  1.00  0.00    -0.271 C  
HETATM   13  O   UNL     1     -11.771  14.657  67.378  1.00  0.00    -0.379 OA 
BRANCH  12  14
HETATM   14  C   UNL     1      -9.681  15.779  67.976  1.00  0.00    -0.212 C  
HETATM   15  C   UNL     1      -8.804  15.099  66.890  1.00  0.00    -0.284 C  
HETATM   16  C   UNL     1      -8.798  15.586  69.238  1.00  0.00    -0.256 C  
HETATM   17  C   UNL     1      -7.368  15.754  68.760  1.00  0.00    -0.141 C  
HETATM   18  C   UNL     1      -7.357  15.085  67.399  1.00  0.00    -0.231 C  
BRANCH  14  19
HETATM   19  C   UNL     1     -10.003  17.237  67.594  1.00  0.00    -0.297 A  
HETATM   20  C   UNL     1     -10.453  19.005  65.968  1.00  0.00    -0.530 A  
HETATM   21  C   UNL     1     -10.527  19.953  66.984  1.00  0.00    -0.570 A  
HETATM   22  C   UNL     1     -10.190  17.665  66.270  1.00  0.00    -0.362 A  
HETATM   23  C   UNL     1     -10.351  19.557  68.303  1.00  0.00    -0.524 A  
HETATM   24  C   UNL     1     -10.101  18.214  68.605  1.00  0.00    -0.406 A  
ENDBRANCH  14  19
ENDBRANCH  12  14
ENDBRANCH  11  12
ENDBRANCH  10  11
ENDBRANCH   9  10
ENDBRANCH   8   9
ENDBRANCH   7   8
ENDBRANCH   6   7
ENDBRANCH   3   6
ENDBRANCH   2   3
TORSDOF 11
ENDMDL
MODEL       56
REMARK 921   NORMALIZED FREE ENERGY PREDICTED BY IDOCK:   -5.12 KCAL/MOL
REMARK 922        TOTAL FREE ENERGY PREDICTED BY IDOCK:   -9.23 KCAL/MOL
REMARK 923 INTER-LIGAND FREE ENERGY PREDICTED BY IDOCK:   -7.97 KCAL/MOL
REMARK 924 INTRA-LIGAND FREE ENERGY PREDICTED BY IDOCK:   -1.26 KCAL/MOL
REMARK 927      BINDING AFFINITY PREDICTED BY RF-SCORE:    0.00 PKD
ROOT
HETATM    1  C   UNL     1     -13.192  10.075  72.001  1.00  0.00    -0.545 C  
HETATM    2  C   UNL     1     -11.952   9.846  71.138  1.00  0.00    -0.384 C  
ENDROOT
BRANCH   2   3
HETATM    3  N   UNL     1     -10.881   9.074  71.795  1.00  0.00    -0.357 NA 
BRANCH   3   4
HETATM    4  C   UNL     1     -11.354   7.858  72.474  1.00  0.00    -0.390 C  
HETATM    5  C   UNL     1     -10.446   7.292  73.559  1.00  0.00    -0.421 C  
ENDBRANCH   3   4
BRANCH   3   6
HETATM    6  C   UNL     1      -9.783   8.831  70.832  1.00  0.00    -0.222 C  
BRANCH   6   7
HETATM    7  C   UNL     1      -9.872   9.634  69.525  1.00  0.00    -0.206 C  
BRANCH   7   8
HETATM    8  O   UNL     1      -9.930   8.742  68.402  1.00  0.00    -0.167 OA 
BRANCH   8   9
HETATM    9  C   UNL     1      -9.713   9.456  67.184  1.00  0.00    -0.173 C  
BRANCH   9  10
HETATM   10  C   UNL     1     -10.898  10.371  66.883  1.00  0.00    -0.161 C  
BRANCH  10  11
HETATM   11  O   UNL     1     -10.469  11.601  66.269  1.00  0.00    -0.230 OA 
BRANCH  11  12
HETATM   12  C   UNL     1     -11.380  12.617  66.296  1.00  0.00    -0.329 C  
HETATM   13  O   UNL     1     -12.523  12.515  65.861  1.00  0.00    -0.596 OA 
BRANCH  12  14
HETATM   14  C   UNL     1     -10.791  13.923  66.864  1.00  0.00    -0.286 C  
HETATM   15  C   UNL     1     -10.991  15.138  65.917  1.00  0.00    -0.339 C  
HETATM   16  C   UNL     1      -9.249  13.753  66.812  1.00  0.00    -0.255 C  
HETATM   17  C   UNL     1      -8.690  15.162  66.750  1.00  0.00    -0.307 C  
HETATM   18  C   UNL     1      -9.662  15.901  65.850  1.00  0.00    -0.386 C  
BRANCH  14  19
HETATM   19  C   UNL     1     -11.394  14.201  68.255  1.00  0.00    -0.319 A  
HETATM   20  C   UNL     1     -12.217  15.695  70.004  1.00  0.00    -0.351 A  
HETATM   21  C   UNL     1     -12.441  14.617  70.854  1.00  0.00    -0.406 A  
HETATM   22  C   UNL     1     -11.697  15.490  68.722  1.00  0.00    -0.372 A  
HETATM   23  C   UNL     1     -12.155  13.330  70.416  1.00  0.00    -0.401 A  
HETATM   24  C   UNL     1     -11.646  13.124  69.129  1.00  0.00    -0.368 A  
ENDBRANCH  14  19
ENDBRANCH  12  14
ENDBRANCH  11  12
ENDBRANCH  10  11
ENDBRANCH   9  10
ENDBRANCH   8   9
ENDBRANCH   7   8
ENDBRANCH   6   7
ENDBRANCH   3   6
ENDBRANCH   2   3
TORSDOF 11
ENDMDL
MODEL       57
REMARK 921   NORMALIZED FREE ENERGY PREDICTED BY IDOCK:   -5.12 KCAL/MOL
REMARK 922        TOTAL FREE ENERGY PREDICTED BY IDOCK:   -9.23 KCAL/MOL
REMARK 923 INTER-LIGAND FREE ENERGY PREDICTED BY IDOCK:   -8.18 KCAL/MOL
REMARK 924 INTRA-LIGAND FREE ENERGY PREDICTED BY IDOCK:   -1.05 KCAL/MOL
REMARK 927      BINDING AFFINITY PREDICTED BY RF-SCORE:    0.00 PKD
ROOT
HETATM    1  C   UNL     1      -6.825  19.571  68.974  1.00  0.00    -0.384 C  
HETATM    2  C   UNL     1      -8.082  18.972  68.348  1.00  0.00    -0.346 C  
ENDROOT
BRANCH   2   3
HETATM    3  N   UNL     1      -8.123  19.030  66.875  1.00  0.00    -0.258 NA 
BRANCH   3   4
HETATM    4  C   UNL     1      -7.079  18.227  66.219  1.00  0.00    -0.258 C  
HETATM    5  C   UNL     1      -7.019  16.753  66.603  1.00  0.00    -0.268 C  
ENDBRANCH   3   4
BRANCH   3   6
HETATM    6  C   UNL     1      -9.494  18.728  66.404  1.00  0.00    -0.322 C  
BRANCH   6   7
HETATM    7  C   UNL     1     -10.464  18.240  67.492  1.00  0.00    -0.411 C  
BRANCH   7   8
HETATM    8  O   UNL     1     -10.783  16.857  67.283  1.00  0.00    -0.297 OA 
BRANCH   8   9
HETATM    9  C   UNL     1     -10.379  16.442  65.976  1.00  0.00    -0.352 C  
BRANCH   9  10
HETATM   10  C   UNL     1     -11.028  15.108  65.615  1.00  0.00    -0.355 C  
BRANCH  10  11
HETATM   11  O   UNL     1     -11.730  14.545  66.740  1.00  0.00    -0.373 OA 
BRANCH  11  12
HETATM   12  C   UNL     1     -11.708  13.182  66.819  1.00  0.00    -0.385 C  
HETATM   13  O   UNL     1     -12.389  12.450  66.107  1.00  0.00    -0.606 OA 
BRANCH  12  14
HETATM   14  C   UNL     1     -10.791  12.672  67.947  1.00  0.00    -0.244 C  
HETATM   15  C   UNL     1      -9.517  13.542  68.131  1.00  0.00    -0.214 C  
HETATM   16  C   UNL     1     -10.174  11.345  67.428  1.00  0.00    -0.221 C  
HETATM   17  C   UNL     1      -8.870  11.183  68.185  1.00  0.00    -0.148 C  
HETATM   18  C   UNL     1      -8.320  12.594  68.272  1.00  0.00    -0.165 C  
BRANCH  14  19
HETATM   19  C   UNL     1     -11.590  12.576  69.262  1.00  0.00    -0.378 A  
HETATM   20  C   UNL     1     -12.713  13.563  71.195  1.00  0.00    -0.425 A  
HETATM   21  C   UNL     1     -12.999  12.300  71.703  1.00  0.00    -0.416 A  
HETATM   22  C   UNL     1     -12.014  13.699  69.991  1.00  0.00    -0.413 A  
HETATM   23  C   UNL     1     -12.596  11.172  71.001  1.00  0.00    -0.503 A  
HETATM   24  C   UNL     1     -11.908  11.308  69.790  1.00  0.00    -0.437 A  
ENDBRANCH  14  19
ENDBRANCH  12  14
ENDBRANCH  11  12
ENDBRANCH  10  11
ENDBRANCH   9  10
ENDBRANCH   8   9
ENDBRANCH   7   8
ENDBRANCH   6   7
ENDBRANCH   3   6
ENDBRANCH   2   3
TORSDOF 11
ENDMDL
MODEL       58
REMARK 921   NORMALIZED FREE ENERGY PREDICTED BY IDOCK:   -5.12 KCAL/MOL
REMARK 922        TOTAL FREE ENERGY PREDICTED BY IDOCK:   -9.22 KCAL/MOL
REMARK 923 INTER-LIGAND FREE ENERGY PREDICTED BY IDOCK:   -7.88 KCAL/MOL
REMARK 924 INTRA-LIGAND FREE ENERGY PREDICTED BY IDOCK:   -1.35 KCAL/MOL
REMARK 927      BINDING AFFINITY PREDICTED BY RF-SCORE:    0.00 PKD
ROOT
HETATM    1  C   UNL     1     -10.669   7.392  72.949  1.00  0.00    -0.387 C  
HETATM    2  C   UNL     1     -10.168   8.670  72.279  1.00  0.00    -0.301 C  
ENDROOT
BRANCH   2   3
HETATM    3  N   UNL     1     -11.025   9.168  71.188  1.00  0.00    -0.290 NA 
BRANCH   3   4
HETATM    4  C   UNL     1     -10.974   8.346  69.969  1.00  0.00    -0.194 C  
HETATM    5  C   UNL     1     -10.245   8.951  68.775  1.00  0.00    -0.224 C  
ENDBRANCH   3   4
BRANCH   3   6
HETATM    6  C   UNL     1     -12.397   9.395  71.699  1.00  0.00    -0.385 C  
BRANCH   6   7
HETATM    7  C   UNL     1     -12.965  10.799  71.441  1.00  0.00    -0.432 C  
BRANCH   7   8
HETATM    8  O   UNL     1     -11.990  11.608  70.768  1.00  0.00    -0.334 OA 
BRANCH   8   9
HETATM    9  C   UNL     1     -12.317  12.994  70.895  1.00  0.00    -0.288 C  
BRANCH   9  10
HETATM   10  C   UNL     1     -12.092  13.719  69.571  1.00  0.00    -0.334 C  
BRANCH  10  11
HETATM   11  O   UNL     1     -11.009  13.130  68.827  1.00  0.00    -0.251 OA 
BRANCH  11  12
HETATM   12  C   UNL     1     -11.344  12.635  67.600  1.00  0.00    -0.310 C  
HETATM   13  O   UNL     1     -12.095  11.677  67.437  1.00  0.00    -0.605 OA 
BRANCH  12  14
HETATM   14  C   UNL     1     -10.620  13.363  66.451  1.00  0.00    -0.285 C  
HETATM   15  C   UNL     1      -9.392  14.182  66.935  1.00  0.00    -0.274 C  
HETATM   16  C   UNL     1     -11.577  14.497  65.995  1.00  0.00    -0.356 C  
HETATM   17  C   UNL     1     -10.683  15.551  65.370  1.00  0.00    -0.422 C  
HETATM   18  C   UNL     1      -9.450  15.555  66.253  1.00  0.00    -0.356 C  
BRANCH  14  19
HETATM   19  C   UNL     1     -10.213  12.345  65.368  1.00  0.00    -0.302 A  
HETATM   20  C   UNL     1     -10.403  11.351  63.143  1.00  0.00    -0.357 A  
HETATM   21  C   UNL     1      -9.446  10.393  63.464  1.00  0.00    -0.356 A  
HETATM   22  C   UNL     1     -10.784  12.313  64.085  1.00  0.00    -0.412 A  
HETATM   23  C   UNL     1      -8.861  10.404  64.723  1.00  0.00    -0.211 A  
HETATM   24  C   UNL     1      -9.234  11.374  65.661  1.00  0.00    -0.209 A  
ENDBRANCH  14  19
ENDBRANCH  12  14
ENDBRANCH  11  12
ENDBRANCH  10  11
ENDBRANCH   9  10
ENDBRANCH   8   9
ENDBRANCH   7   8
ENDBRANCH   6   7
ENDBRANCH   3   6
ENDBRANCH   2   3
TORSDOF 11
ENDMDL
MODEL       59
REMARK 921   NORMALIZED FREE ENERGY PREDICTED BY IDOCK:   -5.11 KCAL/MOL
REMARK 922        TOTAL FREE ENERGY PREDICTED BY IDOCK:   -9.21 KCAL/MOL
REMARK 923 INTER-LIGAND FREE ENERGY PREDICTED BY IDOCK:   -7.74 KCAL/MOL
REMARK 924 INTRA-LIGAND FREE ENERGY PREDICTED BY IDOCK:   -1.47 KCAL/MOL
REMARK 927      BINDING AFFINITY PREDICTED BY RF-SCORE:    0.00 PKD
ROOT
HETATM    1  C   UNL     1      -7.227  19.670  68.495  1.00  0.00    -0.363 C  
HETATM    2  C   UNL     1      -8.526  18.869  68.426  1.00  0.00    -0.350 C  
ENDROOT
BRANCH   2   3
HETATM    3  N   UNL     1      -8.745  18.163  67.149  1.00  0.00    -0.244 NA 
BRANCH   3   4
HETATM    4  C   UNL     1      -7.627  17.295  66.750  1.00  0.00    -0.235 C  
HETATM    5  C   UNL     1      -7.771  15.813  67.078  1.00  0.00    -0.267 C  
ENDBRANCH   3   4
BRANCH   3   6
HETATM    6  C   UNL     1     -10.055  17.473  67.182  1.00  0.00    -0.321 C  
BRANCH   6   7
HETATM    7  C   UNL     1     -10.685  17.336  68.578  1.00  0.00    -0.305 C  
BRANCH   7   8
HETATM    8  O   UNL     1     -11.417  16.105  68.668  1.00  0.00    -0.373 OA 
BRANCH   8   9
HETATM    9  C   UNL     1     -10.751  15.190  69.541  1.00  0.00    -0.266 C  
BRANCH   9  10
HETATM   10  C   UNL     1     -11.303  13.778  69.354  1.00  0.00    -0.250 C  
BRANCH  10  11
HETATM   11  O   UNL     1     -12.064  13.669  68.136  1.00  0.00    -0.359 OA 
BRANCH  11  12
HETATM   12  C   UNL     1     -11.906  12.499  67.451  1.00  0.00    -0.312 C  
HETATM   13  O   UNL     1     -12.149  11.395  67.930  1.00  0.00    -0.646 OA 
BRANCH  12  14
HETATM   14  C   UNL     1     -11.322  12.714  66.042  1.00  0.00    -0.369 C  
HETATM   15  C   UNL     1     -10.841  14.171  65.804  1.00  0.00    -0.297 C  
HETATM   16  C   UNL     1     -12.526  12.632  65.065  1.00  0.00    -0.556 C  
HETATM   17  C   UNL     1     -12.111  13.434  63.846  1.00  0.00    -0.514 C  
HETATM   18  C   UNL     1     -11.349  14.611  64.425  1.00  0.00    -0.238 C  
BRANCH  14  19
HETATM   19  C   UNL     1     -10.182  11.707  65.794  1.00  0.00    -0.281 A  
HETATM   20  C   UNL     1      -9.221   9.741  64.707  1.00  0.00    -0.319 A  
HETATM   21  C   UNL     1      -8.055   9.867  65.456  1.00  0.00    -0.127 A  
HETATM   22  C   UNL     1     -10.272  10.648  64.877  1.00  0.00    -0.395 A  
HETATM   23  C   UNL     1      -7.937  10.908  66.368  1.00  0.00    -0.157 A  
HETATM   24  C   UNL     1      -8.984  11.822  66.528  1.00  0.00    -0.196 A  
ENDBRANCH  14  19
ENDBRANCH  12  14
ENDBRANCH  11  12
ENDBRANCH  10  11
ENDBRANCH   9  10
ENDBRANCH   8   9
ENDBRANCH   7   8
ENDBRANCH   6   7
ENDBRANCH   3   6
ENDBRANCH   2   3
TORSDOF 11
ENDMDL
MODEL       60
REMARK 921   NORMALIZED FREE ENERGY PREDICTED BY IDOCK:   -5.08 KCAL/MOL
REMARK 922        TOTAL FREE ENERGY PREDICTED BY IDOCK:   -9.16 KCAL/MOL
REMARK 923 INTER-LIGAND FREE ENERGY PREDICTED BY IDOCK:   -7.55 KCAL/MOL
REMARK 924 INTRA-LIGAND FREE ENERGY PREDICTED BY IDOCK:   -1.61 KCAL/MOL
REMARK 927      BINDING AFFINITY PREDICTED BY RF-SCORE:    0.00 PKD
ROOT
HETATM    1  C   UNL     1      -7.853  11.276  67.275  1.00  0.00    -0.141 C  
HETATM    2  C   UNL     1      -9.093  11.852  67.956  1.00  0.00    -0.189 C  
ENDROOT
BRANCH   2   3
HETATM    3  N   UNL     1     -10.241  10.928  68.027  1.00  0.00    -0.173 NA 
BRANCH   3   4
HETATM    4  C   UNL     1     -10.507  10.414  69.379  1.00  0.00    -0.238 C  
HETATM    5  C   UNL     1     -11.872  10.745  69.971  1.00  0.00    -0.424 C  
ENDBRANCH   3   4
BRANCH   3   6
HETATM    6  C   UNL     1     -11.419  11.551  67.381  1.00  0.00    -0.274 C  
BRANCH   6   7
HETATM    7  C   UNL     1     -11.256  11.857  65.884  1.00  0.00    -0.322 C  
BRANCH   7   8
HETATM    8  O   UNL     1     -12.398  12.582  65.403  1.00  0.00    -0.579 OA 
BRANCH   8   9
HETATM    9  C   UNL     1     -12.014  13.488  64.366  1.00  0.00    -0.422 C  
BRANCH   9  10
HETATM   10  C   UNL     1     -12.140  14.931  64.845  1.00  0.00    -0.274 C  
BRANCH  10  11
HETATM   11  O   UNL     1     -10.908  15.402  65.422  1.00  0.00    -0.346 OA 
BRANCH  11  12
HETATM   12  C   UNL     1     -10.870  15.419  66.787  1.00  0.00    -0.306 C  
HETATM   13  O   UNL     1     -11.802  15.052  67.496  1.00  0.00    -0.320 OA 
BRANCH  12  14
HETATM   14  C   UNL     1      -9.558  16.014  67.334  1.00  0.00    -0.225 C  
HETATM   15  C   UNL     1      -8.293  15.379  66.694  1.00  0.00    -0.255 C  
HETATM   16  C   UNL     1      -9.439  15.511  68.797  1.00  0.00    -0.210 C  
HETATM   17  C   UNL     1      -7.956  15.535  69.113  1.00  0.00    -0.222 C  
HETATM   18  C   UNL     1      -7.300  15.078  67.824  1.00  0.00    -0.183 C  
BRANCH  14  19
HETATM   19  C   UNL     1      -9.565  17.544  67.144  1.00  0.00    -0.262 A  
HETATM   20  C   UNL     1      -8.565  19.641  66.388  1.00  0.00    -0.390 A  
HETATM   21  C   UNL     1      -9.636  20.365  66.900  1.00  0.00    -0.546 A  
HETATM   22  C   UNL     1      -8.528  18.248  66.512  1.00  0.00    -0.287 A  
HETATM   23  C   UNL     1     -10.679  19.694  67.527  1.00  0.00    -0.537 A  
HETATM   24  C   UNL     1     -10.648  18.300  67.639  1.00  0.00    -0.427 A  
ENDBRANCH  14  19
ENDBRANCH  12  14
ENDBRANCH  11  12
ENDBRANCH  10  11
ENDBRANCH   9  10
ENDBRANCH   8   9
ENDBRANCH   7   8
ENDBRANCH   6   7
ENDBRANCH   3   6
ENDBRANCH   2   3
TORSDOF 11
ENDMDL
MODEL       61
REMARK 921   NORMALIZED FREE ENERGY PREDICTED BY IDOCK:   -5.08 KCAL/MOL
REMARK 922        TOTAL FREE ENERGY PREDICTED BY IDOCK:   -9.16 KCAL/MOL
REMARK 923 INTER-LIGAND FREE ENERGY PREDICTED BY IDOCK:   -7.81 KCAL/MOL
REMARK 924 INTRA-LIGAND FREE ENERGY PREDICTED BY IDOCK:   -1.36 KCAL/MOL
REMARK 927      BINDING AFFINITY PREDICTED BY RF-SCORE:    0.00 PKD
ROOT
HETATM    1  C   UNL     1     -11.283   5.195  73.020  1.00  0.00    -0.390 C  
HETATM    2  C   UNL     1     -10.901   6.674  72.998  1.00  0.00    -0.267 C  
ENDROOT
BRANCH   2   3
HETATM    3  N   UNL     1     -11.307   7.394  71.776  1.00  0.00    -0.249 NA 
BRANCH   3   4
HETATM    4  C   UNL     1     -10.438   7.135  70.618  1.00  0.00    -0.210 C  
HETATM    5  C   UNL     1     -11.124   6.605  69.364  1.00  0.00    -0.365 C  
ENDBRANCH   3   4
BRANCH   3   6
HETATM    6  C   UNL     1     -12.744   7.153  71.512  1.00  0.00    -0.393 C  
BRANCH   6   7
HETATM    7  C   UNL     1     -13.648   8.389  71.644  1.00  0.00    -0.349 C  
BRANCH   7   8
HETATM    8  O   UNL     1     -12.907   9.483  72.206  1.00  0.00    -0.380 OA 
BRANCH   8   9
HETATM    9  C   UNL     1     -12.959  10.619  71.340  1.00  0.00    -0.443 C  
BRANCH   9  10
HETATM   10  C   UNL     1     -11.746  10.640  70.415  1.00  0.00    -0.353 C  
BRANCH  10  11
HETATM   11  O   UNL     1     -12.122  10.971  69.064  1.00  0.00    -0.426 OA 
BRANCH  11  12
HETATM   12  C   UNL     1     -11.682  12.183  68.615  1.00  0.00    -0.330 C  
HETATM   13  O   UNL     1     -12.066  13.256  69.072  1.00  0.00    -0.307 OA 
BRANCH  12  14
HETATM   14  C   UNL     1     -10.710  12.055  67.427  1.00  0.00    -0.266 C  
HETATM   15  C   UNL     1     -10.647  10.614  66.851  1.00  0.00    -0.311 C  
HETATM   16  C   UNL     1      -9.285  12.202  68.024  1.00  0.00    -0.194 C  
HETATM   17  C   UNL     1      -8.366  11.477  67.059  1.00  0.00    -0.165 C  
HETATM   18  C   UNL     1      -9.169  10.263  66.632  1.00  0.00    -0.179 C  
BRANCH  14  19
HETATM   19  C   UNL     1     -11.092  13.071  66.333  1.00  0.00    -0.313 A  
HETATM   20  C   UNL     1     -10.792  15.172  65.122  1.00  0.00    -0.437 A  
HETATM   21  C   UNL     1     -11.912  14.909  64.340  1.00  0.00    -0.408 A  
HETATM   22  C   UNL     1     -10.390  14.266  66.109  1.00  0.00    -0.305 A  
HETATM   23  C   UNL     1     -12.623  13.733  64.536  1.00  0.00    -0.249 A  
HETATM   24  C   UNL     1     -12.213  12.821  65.515  1.00  0.00    -0.519 A  
ENDBRANCH  14  19
ENDBRANCH  12  14
ENDBRANCH  11  12
ENDBRANCH  10  11
ENDBRANCH   9  10
ENDBRANCH   8   9
ENDBRANCH   7   8
ENDBRANCH   6   7
ENDBRANCH   3   6
ENDBRANCH   2   3
TORSDOF 11
ENDMDL
MODEL       62
REMARK 921   NORMALIZED FREE ENERGY PREDICTED BY IDOCK:   -5.08 KCAL/MOL
REMARK 922        TOTAL FREE ENERGY PREDICTED BY IDOCK:   -9.16 KCAL/MOL
REMARK 923 INTER-LIGAND FREE ENERGY PREDICTED BY IDOCK:   -7.61 KCAL/MOL
REMARK 924 INTRA-LIGAND FREE ENERGY PREDICTED BY IDOCK:   -1.55 KCAL/MOL
REMARK 927      BINDING AFFINITY PREDICTED BY RF-SCORE:    0.00 PKD
ROOT
HETATM    1  C   UNL     1     -10.553  16.694  68.651  1.00  0.00    -0.337 C  
HETATM    2  C   UNL     1      -9.929  16.927  67.276  1.00  0.00    -0.277 C  
ENDROOT
BRANCH   2   3
HETATM    3  N   UNL     1     -10.753  17.735  66.357  1.00  0.00    -0.185 NA 
BRANCH   3   4
HETATM    4  C   UNL     1     -10.293  19.125  66.212  1.00  0.00    -0.474 C  
HETATM    5  C   UNL     1      -8.810  19.376  66.460  1.00  0.00    -0.382 C  
ENDBRANCH   3   4
BRANCH   3   6
HETATM    6  C   UNL     1     -10.906  17.019  65.070  1.00  0.00    -0.006 C  
BRANCH   6   7
HETATM    7  C   UNL     1     -10.536  15.528  65.105  1.00  0.00    -0.431 C  
BRANCH   7   8
HETATM    8  O   UNL     1     -11.553  14.754  64.453  1.00  0.00    -0.364 OA 
BRANCH   8   9
HETATM    9  C   UNL     1     -12.413  14.143  65.417  1.00  0.00    -0.472 C  
BRANCH   9  10
HETATM   10  C   UNL     1     -12.382  12.623  65.273  1.00  0.00    -0.466 C  
BRANCH  10  11
HETATM   11  O   UNL     1     -12.137  11.981  66.538  1.00  0.00    -0.617 OA 
BRANCH  11  12
HETATM   12  C   UNL     1     -10.921  11.373  66.659  1.00  0.00    -0.285 C  
HETATM   13  O   UNL     1     -10.520  10.501  65.895  1.00  0.00    -0.228 OA 
BRANCH  12  14
HETATM   14  C   UNL     1     -10.143  11.850  67.901  1.00  0.00    -0.199 C  
HETATM   15  C   UNL     1      -9.576  13.288  67.741  1.00  0.00    -0.214 C  
HETATM   16  C   UNL     1      -8.835  11.015  67.932  1.00  0.00    -0.134 C  
HETATM   17  C   UNL     1      -7.835  11.859  68.698  1.00  0.00    -0.104 C  
HETATM   18  C   UNL     1      -8.126  13.276  68.240  1.00  0.00    -0.156 C  
BRANCH  14  19
HETATM   19  C   UNL     1     -11.042  11.745  69.148  1.00  0.00    -0.294 A  
HETATM   20  C   UNL     1     -12.205  10.479  70.884  1.00  0.00    -0.490 A  
HETATM   21  C   UNL     1     -12.759  11.647  71.399  1.00  0.00    -0.445 A  
HETATM   22  C   UNL     1     -11.361  10.528  69.770  1.00  0.00    -0.367 A  
HETATM   23  C   UNL     1     -12.457  12.866  70.806  1.00  0.00    -0.370 A  
HETATM   24  C   UNL     1     -11.603  12.916  69.699  1.00  0.00    -0.318 A  
ENDBRANCH  14  19
ENDBRANCH  12  14
ENDBRANCH  11  12
ENDBRANCH  10  11
ENDBRANCH   9  10
ENDBRANCH   8   9
ENDBRANCH   7   8
ENDBRANCH   6   7
ENDBRANCH   3   6
ENDBRANCH   2   3
TORSDOF 11
ENDMDL
MODEL       63
REMARK 921   NORMALIZED FREE ENERGY PREDICTED BY IDOCK:   -5.08 KCAL/MOL
REMARK 922        TOTAL FREE ENERGY PREDICTED BY IDOCK:   -9.16 KCAL/MOL
REMARK 923 INTER-LIGAND FREE ENERGY PREDICTED BY IDOCK:   -7.70 KCAL/MOL
REMARK 924 INTRA-LIGAND FREE ENERGY PREDICTED BY IDOCK:   -1.46 KCAL/MOL
REMARK 927      BINDING AFFINITY PREDICTED BY RF-SCORE:    0.00 PKD
ROOT
HETATM    1  C   UNL     1     -10.938  16.252  68.892  1.00  0.00    -0.334 C  
HETATM    2  C   UNL     1     -12.084  15.507  69.572  1.00  0.00    -0.302 C  
ENDROOT
BRANCH   2   3
HETATM    3  N   UNL     1     -12.307  14.136  69.073  1.00  0.00    -0.226 NA 
BRANCH   3   4
HETATM    4  C   UNL     1     -11.519  13.804  67.876  1.00  0.00    -0.314 C  
HETATM    5  C   UNL     1     -11.119  12.343  67.714  1.00  0.00    -0.292 C  
ENDBRANCH   3   4
BRANCH   3   6
HETATM    6  C   UNL     1     -12.142  13.171  70.184  1.00  0.00    -0.321 C  
BRANCH   6   7
HETATM    7  C   UNL     1     -12.884  13.535  71.479  1.00  0.00    -0.352 C  
BRANCH   7   8
HETATM    8  O   UNL     1     -13.319  12.342  72.148  1.00  0.00    -0.528 OA 
BRANCH   8   9
HETATM    9  C   UNL     1     -12.980  11.186  71.380  1.00  0.00    -0.403 C  
BRANCH   9  10
HETATM   10  C   UNL     1     -13.655   9.944  71.958  1.00  0.00    -0.306 C  
BRANCH  10  11
HETATM   11  O   UNL     1     -12.685   8.952  72.345  1.00  0.00    -0.388 OA 
BRANCH  11  12
HETATM   12  C   UNL     1     -12.685   7.811  71.596  1.00  0.00    -0.335 C  
HETATM   13  O   UNL     1     -13.709   7.248  71.218  1.00  0.00    -0.361 OA 
BRANCH  12  14
HETATM   14  C   UNL     1     -11.265   7.272  71.340  1.00  0.00    -0.274 C  
HETATM   15  C   UNL     1     -11.049   5.844  71.911  1.00  0.00    -0.325 C  
HETATM   16  C   UNL     1     -10.323   8.104  72.250  1.00  0.00    -0.361 C  
HETATM   17  C   UNL     1      -9.112   7.223  72.491  1.00  0.00    -0.161 C  
HETATM   18  C   UNL     1      -9.697   5.831  72.637  1.00  0.00    -0.168 C  
BRANCH  14  19
HETATM   19  C   UNL     1     -10.958   7.316  69.830  1.00  0.00    -0.262 A  
HETATM   20  C   UNL     1     -10.690   6.268  67.639  1.00  0.00    -0.391 A  
HETATM   21  C   UNL     1     -10.315   7.484  67.077  1.00  0.00    -0.395 A  
HETATM   22  C   UNL     1     -11.004   6.185  69.000  1.00  0.00    -0.436 A  
HETATM   23  C   UNL     1     -10.266   8.620  67.874  1.00  0.00    -0.273 A  
HETATM   24  C   UNL     1     -10.592   8.539  69.232  1.00  0.00    -0.193 A  
ENDBRANCH  14  19
ENDBRANCH  12  14
ENDBRANCH  11  12
ENDBRANCH  10  11
ENDBRANCH   9  10
ENDBRANCH   8   9
ENDBRANCH   7   8
ENDBRANCH   6   7
ENDBRANCH   3   6
ENDBRANCH   2   3
TORSDOF 11
ENDMDL
MODEL       64
REMARK 921   NORMALIZED FREE ENERGY PREDICTED BY IDOCK:   -5.06 KCAL/MOL
REMARK 922        TOTAL FREE ENERGY PREDICTED BY IDOCK:   -9.13 KCAL/MOL
REMARK 923 INTER-LIGAND FREE ENERGY PREDICTED BY IDOCK:   -7.92 KCAL/MOL
REMARK 924 INTRA-LIGAND FREE ENERGY PREDICTED BY IDOCK:   -1.21 KCAL/MOL
REMARK 927      BINDING AFFINITY PREDICTED BY RF-SCORE:    0.00 PKD
ROOT
HETATM    1  C   UNL     1      -9.216  10.205  62.765  1.00  0.00    -0.322 C  
HETATM    2  C   UNL     1     -10.002  11.391  63.321  1.00  0.00    -0.401 C  
ENDROOT
BRANCH   2   3
HETATM    3  N   UNL     1     -10.889  11.063  64.453  1.00  0.00    -0.287 NA 
BRANCH   3   4
HETATM    4  C   UNL     1     -10.194  10.978  65.747  1.00  0.00    -0.260 C  
HETATM    5  C   UNL     1      -9.706   9.596  66.163  1.00  0.00    -0.317 C  
ENDBRANCH   3   4
BRANCH   3   6
HETATM    6  C   UNL     1     -12.049  11.983  64.457  1.00  0.00    -0.255 C  
BRANCH   6   7
HETATM    7  C   UNL     1     -12.176  12.877  63.214  1.00  0.00    -0.397 C  
BRANCH   7   8
HETATM    8  O   UNL     1     -12.604  14.193  63.596  1.00  0.00    -0.831 OA 
BRANCH   8   9
HETATM    9  C   UNL     1     -11.846  14.661  64.714  1.00  0.00    -0.440 C  
BRANCH   9  10
HETATM   10  C   UNL     1     -11.563  16.155  64.578  1.00  0.00    -0.164 C  
BRANCH  10  11
HETATM   11  O   UNL     1     -10.239  16.482  65.040  1.00  0.00    -0.564 OA 
BRANCH  11  12
HETATM   12  C   UNL     1     -10.162  17.549  65.888  1.00  0.00    -0.242 C  
HETATM   13  O   UNL     1     -10.611  18.660  65.622  1.00  0.00    -0.610 OA 
BRANCH  12  14
HETATM   14  C   UNL     1      -9.388  17.222  67.180  1.00  0.00    -0.245 C  
HETATM   15  C   UNL     1      -9.060  18.485  68.023  1.00  0.00    -0.319 C  
HETATM   16  C   UNL     1      -7.969  16.787  66.728  1.00  0.00    -0.275 C  
HETATM   17  C   UNL     1      -7.063  17.076  67.909  1.00  0.00    -0.166 C  
HETATM   18  C   UNL     1      -7.596  18.381  68.468  1.00  0.00    -0.319 C  
BRANCH  14  19
HETATM   19  C   UNL     1     -10.179  16.192  68.010  1.00  0.00    -0.252 A  
HETATM   20  C   UNL     1     -12.052  15.530  69.433  1.00  0.00    -0.302 A  
HETATM   21  C   UNL     1     -11.526  14.249  69.570  1.00  0.00    -0.336 A  
HETATM   22  C   UNL     1     -11.384  16.490  68.666  1.00  0.00    -0.237 A  
HETATM   23  C   UNL     1     -10.338  13.925  68.929  1.00  0.00    -0.163 A  
HETATM   24  C   UNL     1      -9.677  14.882  68.151  1.00  0.00    -0.214 A  
ENDBRANCH  14  19
ENDBRANCH  12  14
ENDBRANCH  11  12
ENDBRANCH  10  11
ENDBRANCH   9  10
ENDBRANCH   8   9
ENDBRANCH   7   8
ENDBRANCH   6   7
ENDBRANCH   3   6
ENDBRANCH   2   3
TORSDOF 11
ENDMDL
MODEL       65
REMARK 921   NORMALIZED FREE ENERGY PREDICTED BY IDOCK:   -5.05 KCAL/MOL
REMARK 922        TOTAL FREE ENERGY PREDICTED BY IDOCK:   -9.11 KCAL/MOL
REMARK 923 INTER-LIGAND FREE ENERGY PREDICTED BY IDOCK:   -7.60 KCAL/MOL
REMARK 924 INTRA-LIGAND FREE ENERGY PREDICTED BY IDOCK:   -1.51 KCAL/MOL
REMARK 927      BINDING AFFINITY PREDICTED BY RF-SCORE:    0.00 PKD
ROOT
HETATM    1  C   UNL     1      -9.257   8.801  71.554  1.00  0.00    -0.332 C  
HETATM    2  C   UNL     1     -10.548   8.473  72.302  1.00  0.00    -0.338 C  
ENDROOT
BRANCH   2   3
HETATM    3  N   UNL     1     -11.738   8.333  71.441  1.00  0.00    -0.279 NA 
BRANCH   3   4
HETATM    4  C   UNL     1     -12.336   6.990  71.467  1.00  0.00    -0.379 C  
HETATM    5  C   UNL     1     -11.517   5.898  72.146  1.00  0.00    -0.333 C  
ENDBRANCH   3   4
BRANCH   3   6
HETATM    6  C   UNL     1     -12.697   9.421  71.742  1.00  0.00    -0.390 C  
BRANCH   6   7
HETATM    7  C   UNL     1     -12.894  10.447  70.615  1.00  0.00    -0.313 C  
BRANCH   7   8
HETATM    8  O   UNL     1     -12.021  11.568  70.813  1.00  0.00    -0.344 OA 
BRANCH   8   9
HETATM    9  C   UNL     1     -12.738  12.667  71.380  1.00  0.00    -0.247 C  
BRANCH   9  10
HETATM   10  C   UNL     1     -12.435  13.953  70.617  1.00  0.00    -0.366 C  
BRANCH  10  11
HETATM   11  O   UNL     1     -12.495  13.745  69.193  1.00  0.00    -0.216 OA 
BRANCH  11  12
HETATM   12  C   UNL     1     -11.724  14.589  68.446  1.00  0.00    -0.333 C  
HETATM   13  O   UNL     1     -11.506  15.758  68.751  1.00  0.00    -0.347 OA 
BRANCH  12  14
HETATM   14  C   UNL     1     -11.220  13.933  67.146  1.00  0.00    -0.328 C  
HETATM   15  C   UNL     1     -10.182  14.808  66.392  1.00  0.00    -0.299 C  
HETATM   16  C   UNL     1     -12.417  13.970  66.158  1.00  0.00    -0.467 C  
HETATM   17  C   UNL     1     -11.798  13.938  64.774  1.00  0.00    -0.414 C  
HETATM   18  C   UNL     1     -10.562  14.807  64.906  1.00  0.00    -0.431 C  
BRANCH  14  19
HETATM   19  C   UNL     1     -10.645  12.538  67.459  1.00  0.00    -0.238 A  
HETATM   20  C   UNL     1     -10.794  10.101  67.556  1.00  0.00    -0.349 A  
HETATM   21  C   UNL     1      -9.528  10.022  68.128  1.00  0.00    -0.148 A  
HETATM   22  C   UNL     1     -11.346  11.344  67.229  1.00  0.00    -0.347 A  
HETATM   23  C   UNL     1      -8.809  11.187  68.362  1.00  0.00    -0.157 A  
HETATM   24  C   UNL     1      -9.357  12.429  68.023  1.00  0.00    -0.204 A  
ENDBRANCH  14  19
ENDBRANCH  12  14
ENDBRANCH  11  12
ENDBRANCH  10  11
ENDBRANCH   9  10
ENDBRANCH   8   9
ENDBRANCH   7   8
ENDBRANCH   6   7
ENDBRANCH   3   6
ENDBRANCH   2   3
TORSDOF 11
ENDMDL
MODEL       66
REMARK 921   NORMALIZED FREE ENERGY PREDICTED BY IDOCK:   -5.04 KCAL/MOL
REMARK 922        TOTAL FREE ENERGY PREDICTED BY IDOCK:   -9.10 KCAL/MOL
REMARK 923 INTER-LIGAND FREE ENERGY PREDICTED BY IDOCK:   -7.92 KCAL/MOL
REMARK 924 INTRA-LIGAND FREE ENERGY PREDICTED BY IDOCK:   -1.18 KCAL/MOL
REMARK 927      BINDING AFFINITY PREDICTED BY RF-SCORE:    0.00 PKD
ROOT
HETATM    1  C   UNL     1     -10.525  15.154  69.549  1.00  0.00    -0.268 C  
HETATM    2  C   UNL     1     -11.912  14.522  69.645  1.00  0.00    -0.328 C  
ENDROOT
BRANCH   2   3
HETATM    3  N   UNL     1     -12.445  14.415  71.016  1.00  0.00    -0.330 NA 
BRANCH   3   4
HETATM    4  C   UNL     1     -13.602  15.285  71.274  1.00  0.00    -0.507 C  
HETATM    5  C   UNL     1     -13.852  15.665  72.729  1.00  0.00    -0.628 C  
ENDBRANCH   3   4
BRANCH   3   6
HETATM    6  C   UNL     1     -12.683  12.990  71.346  1.00  0.00    -0.281 C  
BRANCH   6   7
HETATM    7  C   UNL     1     -12.132  11.983  70.324  1.00  0.00    -0.312 C  
BRANCH   7   8
HETATM    8  O   UNL     1     -12.738  10.698  70.524  1.00  0.00    -0.340 OA 
BRANCH   8   9
HETATM    9  C   UNL     1     -13.404  10.650  71.788  1.00  0.00    -0.334 C  
BRANCH   9  10
HETATM   10  C   UNL     1     -13.727   9.206  72.165  1.00  0.00    -0.471 C  
BRANCH  10  11
HETATM   11  O   UNL     1     -12.544   8.494  72.574  1.00  0.00    -0.376 OA 
BRANCH  11  12
HETATM   12  C   UNL     1     -12.267   7.363  71.862  1.00  0.00    -0.310 C  
HETATM   13  O   UNL     1     -13.089   6.476  71.650  1.00  0.00    -0.188 OA 
BRANCH  12  14
HETATM   14  C   UNL     1     -10.794   7.290  71.418  1.00  0.00    -0.251 C  
HETATM   15  C   UNL     1     -10.069   6.018  71.936  1.00  0.00    -0.223 C  
HETATM   16  C   UNL     1     -10.054   8.401  72.211  1.00  0.00    -0.382 C  
HETATM   17  C   UNL     1      -8.607   7.950  72.282  1.00  0.00    -0.193 C  
HETATM   18  C   UNL     1      -8.701   6.449  72.481  1.00  0.00    -0.123 C  
BRANCH  14  19
HETATM   19  C   UNL     1     -10.710   7.388  69.882  1.00  0.00    -0.254 A  
HETATM   20  C   UNL     1     -10.352   8.618  67.802  1.00  0.00    -0.303 A  
HETATM   21  C   UNL     1     -10.646   7.484  67.052  1.00  0.00    -0.409 A  
HETATM   22  C   UNL     1     -10.388   8.571  69.199  1.00  0.00    -0.227 A  
HETATM   23  C   UNL     1     -10.965   6.298  67.700  1.00  0.00    -0.438 A  
HETATM   24  C   UNL     1     -10.988   6.248  69.099  1.00  0.00    -0.442 A  
ENDBRANCH  14  19
ENDBRANCH  12  14
ENDBRANCH  11  12
ENDBRANCH  10  11
ENDBRANCH   9  10
ENDBRANCH   8   9
ENDBRANCH   7   8
ENDBRANCH   6   7
ENDBRANCH   3   6
ENDBRANCH   2   3
TORSDOF 11
ENDMDL
MODEL       67
REMARK 921   NORMALIZED FREE ENERGY PREDICTED BY IDOCK:   -5.04 KCAL/MOL
REMARK 922        TOTAL FREE ENERGY PREDICTED BY IDOCK:   -9.10 KCAL/MOL
REMARK 923 INTER-LIGAND FREE ENERGY PREDICTED BY IDOCK:   -8.27 KCAL/MOL
REMARK 924 INTRA-LIGAND FREE ENERGY PREDICTED BY IDOCK:   -0.83 KCAL/MOL
REMARK 927      BINDING AFFINITY PREDICTED BY RF-SCORE:    0.00 PKD
ROOT
HETATM    1  C   UNL     1     -11.628   6.474  70.337  1.00  0.00    -0.470 C  
HETATM    2  C   UNL     1     -12.132   6.488  71.778  1.00  0.00    -0.342 C  
ENDROOT
BRANCH   2   3
HETATM    3  N   UNL     1     -11.702   7.658  72.567  1.00  0.00    -0.320 NA 
BRANCH   3   4
HETATM    4  C   UNL     1     -10.369   7.510  73.171  1.00  0.00    -0.347 C  
HETATM    5  C   UNL     1      -9.231   8.260  72.490  1.00  0.00    -0.339 C  
ENDBRANCH   3   4
BRANCH   3   6
HETATM    6  C   UNL     1     -11.858   8.887  71.757  1.00  0.00    -0.358 C  
BRANCH   6   7
HETATM    7  C   UNL     1     -13.077   9.753  72.112  1.00  0.00    -0.422 C  
BRANCH   7   8
HETATM    8  O   UNL     1     -13.048  10.975  71.361  1.00  0.00    -0.395 OA 
BRANCH   8   9
HETATM    9  C   UNL     1     -12.631  10.727  70.017  1.00  0.00    -0.181 C  
BRANCH   9  10
HETATM   10  C   UNL     1     -11.720  11.849  69.525  1.00  0.00    -0.345 C  
BRANCH  10  11
HETATM   11  O   UNL     1     -12.095  12.289  68.205  1.00  0.00    -0.363 OA 
BRANCH  11  12
HETATM   12  C   UNL     1     -11.787  13.586  67.912  1.00  0.00    -0.362 C  
HETATM   13  O   UNL     1     -11.927  14.512  68.705  1.00  0.00    -0.313 OA 
BRANCH  12  14
HETATM   14  C   UNL     1     -11.316  13.767  66.456  1.00  0.00    -0.336 C  
HETATM   15  C   UNL     1     -10.511  15.078  66.241  1.00  0.00    -0.309 C  
HETATM   16  C   UNL     1     -12.595  14.060  65.627  1.00  0.00    -0.542 C  
HETATM   17  C   UNL     1     -12.118  14.834  64.412  1.00  0.00    -0.457 C  
HETATM   18  C   UNL     1     -11.031  15.739  64.958  1.00  0.00    -0.431 C  
BRANCH  14  19
HETATM   19  C   UNL     1     -10.496  12.536  66.021  1.00  0.00    -0.282 A  
HETATM   20  C   UNL     1      -8.557  11.057  66.172  1.00  0.00    -0.175 A  
HETATM   21  C   UNL     1      -9.026  10.294  65.108  1.00  0.00    -0.220 A  
HETATM   22  C   UNL     1      -9.281  12.167  66.620  1.00  0.00    -0.206 A  
HETATM   23  C   UNL     1     -10.227  10.634  64.499  1.00  0.00    -0.399 A  
HETATM   24  C   UNL     1     -10.958  11.736  64.956  1.00  0.00    -0.357 A  
ENDBRANCH  14  19
ENDBRANCH  12  14
ENDBRANCH  11  12
ENDBRANCH  10  11
ENDBRANCH   9  10
ENDBRANCH   8   9
ENDBRANCH   7   8
ENDBRANCH   6   7
ENDBRANCH   3   6
ENDBRANCH   2   3
TORSDOF 11
ENDMDL
MODEL       68
REMARK 921   NORMALIZED FREE ENERGY PREDICTED BY IDOCK:   -5.04 KCAL/MOL
REMARK 922        TOTAL FREE ENERGY PREDICTED BY IDOCK:   -9.09 KCAL/MOL
REMARK 923 INTER-LIGAND FREE ENERGY PREDICTED BY IDOCK:   -7.86 KCAL/MOL
REMARK 924 INTRA-LIGAND FREE ENERGY PREDICTED BY IDOCK:   -1.23 KCAL/MOL
REMARK 927      BINDING AFFINITY PREDICTED BY RF-SCORE:    0.00 PKD
ROOT
HETATM    1  C   UNL     1     -10.980   7.131  70.221  1.00  0.00    -0.288 C  
HETATM    2  C   UNL     1     -10.820   8.439  70.994  1.00  0.00    -0.238 C  
ENDROOT
BRANCH   2   3
HETATM    3  N   UNL     1     -11.635   9.558  70.483  1.00  0.00    -0.267 NA 
BRANCH   3   4
HETATM    4  C   UNL     1     -12.521  10.156  71.493  1.00  0.00    -0.427 C  
HETATM    5  C   UNL     1     -13.285   9.183  72.384  1.00  0.00    -0.512 C  
ENDBRANCH   3   4
BRANCH   3   6
HETATM    6  C   UNL     1     -10.759  10.538  69.801  1.00  0.00    -0.264 C  
BRANCH   6   7
HETATM    7  C   UNL     1     -11.472  11.792  69.271  1.00  0.00    -0.306 C  
BRANCH   7   8
HETATM    8  O   UNL     1     -10.851  12.234  68.056  1.00  0.00    -0.204 OA 
BRANCH   8   9
HETATM    9  C   UNL     1     -11.825  12.377  67.019  1.00  0.00    -0.297 C  
BRANCH   9  10
HETATM   10  C   UNL     1     -11.300  13.294  65.917  1.00  0.00    -0.311 C  
BRANCH  10  11
HETATM   11  O   UNL     1     -11.474  14.681  66.261  1.00  0.00    -0.355 OA 
BRANCH  11  12
HETATM   12  C   UNL     1     -10.323  15.371  66.508  1.00  0.00    -0.289 C  
HETATM   13  O   UNL     1      -9.347  15.351  65.763  1.00  0.00    -0.325 OA 
BRANCH  12  14
HETATM   14  C   UNL     1     -10.358  16.116  67.856  1.00  0.00    -0.277 C  
HETATM   15  C   UNL     1      -9.426  15.478  68.923  1.00  0.00    -0.223 C  
HETATM   16  C   UNL     1     -11.755  15.827  68.467  1.00  0.00    -0.328 C  
HETATM   17  C   UNL     1     -11.581  15.986  69.965  1.00  0.00    -0.316 C  
HETATM   18  C   UNL     1     -10.210  15.397  70.239  1.00  0.00    -0.134 C  
BRANCH  14  19
HETATM   19  C   UNL     1     -10.011  17.602  67.636  1.00  0.00    -0.323 A  
HETATM   20  C   UNL     1     -10.252  19.737  66.474  1.00  0.00    -0.606 A  
HETATM   21  C   UNL     1      -9.258  20.307  67.264  1.00  0.00    -0.523 A  
HETATM   22  C   UNL     1     -10.620  18.400  66.655  1.00  0.00    -0.359 A  
HETATM   23  C   UNL     1      -8.642  19.542  68.245  1.00  0.00    -0.380 A  
HETATM   24  C   UNL     1      -9.020  18.208  68.435  1.00  0.00    -0.305 A  
ENDBRANCH  14  19
ENDBRANCH  12  14
ENDBRANCH  11  12
ENDBRANCH  10  11
ENDBRANCH   9  10
ENDBRANCH   8   9
ENDBRANCH   7   8
ENDBRANCH   6   7
ENDBRANCH   3   6
ENDBRANCH   2   3
TORSDOF 11
ENDMDL
MODEL       69
REMARK 921   NORMALIZED FREE ENERGY PREDICTED BY IDOCK:   -5.03 KCAL/MOL
REMARK 922        TOTAL FREE ENERGY PREDICTED BY IDOCK:   -9.08 KCAL/MOL
REMARK 923 INTER-LIGAND FREE ENERGY PREDICTED BY IDOCK:   -7.75 KCAL/MOL
REMARK 924 INTRA-LIGAND FREE ENERGY PREDICTED BY IDOCK:   -1.33 KCAL/MOL
REMARK 927      BINDING AFFINITY PREDICTED BY RF-SCORE:    0.00 PKD
ROOT
HETATM    1  C   UNL     1     -10.927   6.479  67.430  1.00  0.00    -0.458 C  
HETATM    2  C   UNL     1     -10.733   7.037  68.839  1.00  0.00    -0.200 C  
ENDROOT
BRANCH   2   3
HETATM    3  N   UNL     1     -11.318   6.211  69.912  1.00  0.00    -0.421 NA 
BRANCH   3   4
HETATM    4  C   UNL     1     -10.390   5.214  70.467  1.00  0.00    -0.243 C  
HETATM    5  C   UNL     1     -10.408   5.044  71.982  1.00  0.00    -0.276 C  
ENDBRANCH   3   4
BRANCH   3   6
HETATM    6  C   UNL     1     -11.934   7.089  70.933  1.00  0.00    -0.364 C  
BRANCH   6   7
HETATM    7  C   UNL     1     -11.611   8.585  70.788  1.00  0.00    -0.231 C  
BRANCH   7   8
HETATM    8  O   UNL     1     -12.708   9.374  71.270  1.00  0.00    -0.318 OA 
BRANCH   8   9
HETATM    9  C   UNL     1     -12.855  10.559  70.485  1.00  0.00    -0.264 C  
BRANCH   9  10
HETATM   10  C   UNL     1     -11.671  10.719  69.534  1.00  0.00    -0.312 C  
BRANCH  10  11
HETATM   11  O   UNL     1     -12.071  11.341  68.298  1.00  0.00    -0.619 OA 
BRANCH  11  12
HETATM   12  C   UNL     1     -11.255  11.098  67.231  1.00  0.00    -0.277 C  
HETATM   13  O   UNL     1     -10.622  10.057  67.085  1.00  0.00    -0.241 OA 
BRANCH  12  14
HETATM   14  C   UNL     1     -11.162  12.301  66.273  1.00  0.00    -0.367 C  
HETATM   15  C   UNL     1     -12.481  12.553  65.491  1.00  0.00    -0.228 C  
HETATM   16  C   UNL     1     -10.214  11.860  65.125  1.00  0.00    -0.314 C  
HETATM   17  C   UNL     1     -10.602  12.712  63.932  1.00  0.00    -0.460 C  
HETATM   18  C   UNL     1     -12.113  12.803  64.023  1.00  0.00    -0.533 C  
BRANCH  14  19
HETATM   19  C   UNL     1     -10.736  13.557  67.057  1.00  0.00    -0.278 A  
HETATM   20  C   UNL     1     -11.124  15.806  67.931  1.00  0.00    -0.326 A  
HETATM   21  C   UNL     1      -9.838  15.848  68.460  1.00  0.00    -0.210 A  
HETATM   22  C   UNL     1     -11.565  14.676  67.235  1.00  0.00    -0.404 A  
HETATM   23  C   UNL     1      -8.997  14.754  68.303  1.00  0.00    -0.181 A  
HETATM   24  C   UNL     1      -9.444  13.619  67.618  1.00  0.00    -0.221 A  
ENDBRANCH  14  19
ENDBRANCH  12  14
ENDBRANCH  11  12
ENDBRANCH  10  11
ENDBRANCH   9  10
ENDBRANCH   8   9
ENDBRANCH   7   8
ENDBRANCH   6   7
ENDBRANCH   3   6
ENDBRANCH   2   3
TORSDOF 11
ENDMDL
MODEL       70
REMARK 921   NORMALIZED FREE ENERGY PREDICTED BY IDOCK:   -5.03 KCAL/MOL
REMARK 922        TOTAL FREE ENERGY PREDICTED BY IDOCK:   -9.08 KCAL/MOL
REMARK 923 INTER-LIGAND FREE ENERGY PREDICTED BY IDOCK:   -7.33 KCAL/MOL
REMARK 924 INTRA-LIGAND FREE ENERGY PREDICTED BY IDOCK:   -1.76 KCAL/MOL
REMARK 927      BINDING AFFINITY PREDICTED BY RF-SCORE:    0.00 PKD
ROOT
HETATM    1  C   UNL     1     -10.656  16.004  69.575  1.00  0.00    -0.290 C  
HETATM    2  C   UNL     1      -9.715  16.869  68.739  1.00  0.00    -0.265 C  
ENDROOT
BRANCH   2   3
HETATM    3  N   UNL     1     -10.351  18.046  68.118  1.00  0.00    -0.383 NA 
BRANCH   3   4
HETATM    4  C   UNL     1      -9.761  19.328  68.532  1.00  0.00    -0.414 C  
HETATM    5  C   UNL     1      -9.461  20.324  67.418  1.00  0.00    -0.547 C  
ENDBRANCH   3   4
BRANCH   3   6
HETATM    6  C   UNL     1     -10.410  17.861  66.650  1.00  0.00    -0.361 C  
BRANCH   6   7
HETATM    7  C   UNL     1      -9.482  16.770  66.092  1.00  0.00    -0.264 C  
BRANCH   7   8
HETATM    8  O   UNL     1     -10.147  16.044  65.049  1.00  0.00    -0.463 OA 
BRANCH   8   9
HETATM    9  C   UNL     1     -11.285  15.351  65.568  1.00  0.00    -0.234 C  
BRANCH   9  10
HETATM   10  C   UNL     1     -11.571  14.100  64.741  1.00  0.00    -0.396 C  
BRANCH  10  11
HETATM   11  O   UNL     1     -12.069  13.029  65.565  1.00  0.00    -0.400 OA 
BRANCH  11  12
HETATM   12  C   UNL     1     -11.232  11.960  65.703  1.00  0.00    -0.306 C  
HETATM   13  O   UNL     1     -10.942  11.202  64.782  1.00  0.00    -0.260 OA 
BRANCH  12  14
HETATM   14  C   UNL     1     -10.752  11.768  67.155  1.00  0.00    -0.283 C  
HETATM   15  C   UNL     1     -11.029  10.340  67.699  1.00  0.00    -0.356 C  
HETATM   16  C   UNL     1     -11.710  12.615  68.035  1.00  0.00    -0.402 C  
HETATM   17  C   UNL     1     -11.673  11.969  69.407  1.00  0.00    -0.402 C  
HETATM   18  C   UNL     1     -11.613  10.483  69.110  1.00  0.00    -0.295 C  
BRANCH  14  19
HETATM   19  C   UNL     1      -9.255  12.118  67.256  1.00  0.00    -0.185 A  
HETATM   20  C   UNL     1      -7.411  13.670  67.661  1.00  0.00    -0.191 A  
HETATM   21  C   UNL     1      -6.481  12.683  67.351  1.00  0.00    -0.150 A  
HETATM   22  C   UNL     1      -8.781  13.391  67.610  1.00  0.00    -0.198 A  
HETATM   23  C   UNL     1      -6.921  11.413  67.001  1.00  0.00    -0.135 A  
HETATM   24  C   UNL     1      -8.291  11.132  66.963  1.00  0.00    -0.144 A  
ENDBRANCH  14  19
ENDBRANCH  12  14
ENDBRANCH  11  12
ENDBRANCH  10  11
ENDBRANCH   9  10
ENDBRANCH   8   9
ENDBRANCH   7   8
ENDBRANCH   6   7
ENDBRANCH   3   6
ENDBRANCH   2   3
TORSDOF 11
ENDMDL
MODEL       71
REMARK 921   NORMALIZED FREE ENERGY PREDICTED BY IDOCK:   -5.03 KCAL/MOL
REMARK 922        TOTAL FREE ENERGY PREDICTED BY IDOCK:   -9.08 KCAL/MOL
REMARK 923 INTER-LIGAND FREE ENERGY PREDICTED BY IDOCK:   -8.00 KCAL/MOL
REMARK 924 INTRA-LIGAND FREE ENERGY PREDICTED BY IDOCK:   -1.08 KCAL/MOL
REMARK 927      BINDING AFFINITY PREDICTED BY RF-SCORE:    0.00 PKD
ROOT
HETATM    1  C   UNL     1      -8.416  19.374  67.984  1.00  0.00    -0.355 C  
HETATM    2  C   UNL     1      -8.874  19.181  66.540  1.00  0.00    -0.334 C  
ENDROOT
BRANCH   2   3
HETATM    3  N   UNL     1      -8.245  18.043  65.843  1.00  0.00    -0.526 NA 
BRANCH   3   4
HETATM    4  C   UNL     1      -6.775  18.059  65.886  1.00  0.00    -0.288 C  
HETATM    5  C   UNL     1      -6.082  19.060  64.969  1.00  0.00    -0.323 C  
ENDBRANCH   3   4
BRANCH   3   6
HETATM    6  C   UNL     1      -8.844  16.777  66.322  1.00  0.00    -0.299 C  
BRANCH   6   7
HETATM    7  C   UNL     1     -10.362  16.655  66.120  1.00  0.00    -0.330 C  
BRANCH   7   8
HETATM    8  O   UNL     1     -10.643  16.028  64.861  1.00  0.00    -0.587 OA 
BRANCH   8   9
HETATM    9  C   UNL     1     -10.965  14.648  65.050  1.00  0.00    -0.405 C  
BRANCH   9  10
HETATM   10  C   UNL     1     -11.811  14.466  66.307  1.00  0.00    -0.379 C  
BRANCH  10  11
HETATM   11  O   UNL     1     -11.724  13.117  66.807  1.00  0.00    -0.346 OA 
BRANCH  11  12
HETATM   12  C   UNL     1     -10.872  12.937  67.858  1.00  0.00    -0.227 C  
HETATM   13  O   UNL     1     -10.507  13.846  68.598  1.00  0.00    -0.241 OA 
BRANCH  12  14
HETATM   14  C   UNL     1     -10.365  11.486  67.965  1.00  0.00    -0.208 C  
HETATM   15  C   UNL     1      -8.814  11.388  67.970  1.00  0.00    -0.155 C  
HETATM   16  C   UNL     1     -10.703  10.815  66.607  1.00  0.00    -0.268 C  
HETATM   17  C   UNL     1      -9.705   9.683  66.457  1.00  0.00    -0.272 C  
HETATM   18  C   UNL     1      -8.416  10.256  67.014  1.00  0.00    -0.129 C  
BRANCH  14  19
HETATM   19  C   UNL     1     -10.966  10.819  69.217  1.00  0.00    -0.292 A  
HETATM   20  C   UNL     1     -12.767  10.449  70.826  1.00  0.00    -0.460 A  
HETATM   21  C   UNL     1     -11.960   9.595  71.570  1.00  0.00    -0.485 A  
HETATM   22  C   UNL     1     -12.275  11.056  69.667  1.00  0.00    -0.370 A  
HETATM   23  C   UNL     1     -10.662   9.338  71.147  1.00  0.00    -0.403 A  
HETATM   24  C   UNL     1     -10.174   9.936  69.980  1.00  0.00    -0.319 A  
ENDBRANCH  14  19
ENDBRANCH  12  14
ENDBRANCH  11  12
ENDBRANCH  10  11
ENDBRANCH   9  10
ENDBRANCH   8   9
ENDBRANCH   7   8
ENDBRANCH   6   7
ENDBRANCH   3   6
ENDBRANCH   2   3
TORSDOF 11
ENDMDL
MODEL       72
REMARK 921   NORMALIZED FREE ENERGY PREDICTED BY IDOCK:   -5.02 KCAL/MOL
REMARK 922        TOTAL FREE ENERGY PREDICTED BY IDOCK:   -9.07 KCAL/MOL
REMARK 923 INTER-LIGAND FREE ENERGY PREDICTED BY IDOCK:   -7.37 KCAL/MOL
REMARK 924 INTRA-LIGAND FREE ENERGY PREDICTED BY IDOCK:   -1.70 KCAL/MOL
REMARK 927      BINDING AFFINITY PREDICTED BY RF-SCORE:    0.00 PKD
ROOT
HETATM    1  C   UNL     1     -10.281  17.237  66.320  1.00  0.00    -0.347 C  
HETATM    2  C   UNL     1     -10.477  15.818  65.791  1.00  0.00    -0.367 C  
ENDROOT
BRANCH   2   3
HETATM    3  N   UNL     1     -11.173  14.907  66.719  1.00  0.00    -0.340 NA 
BRANCH   3   4
HETATM    4  C   UNL     1     -11.624  15.553  67.961  1.00  0.00    -0.268 C  
HETATM    5  C   UNL     1     -10.991  15.051  69.253  1.00  0.00    -0.269 C  
ENDBRANCH   3   4
BRANCH   3   6
HETATM    6  C   UNL     1     -12.247  14.188  65.995  1.00  0.00    -0.443 C  
BRANCH   6   7
HETATM    7  C   UNL     1     -12.140  14.225  64.463  1.00  0.00    -0.480 C  
BRANCH   7   8
HETATM    8  O   UNL     1     -12.014  12.893  63.946  1.00  0.00    -0.408 OA 
BRANCH   8   9
HETATM    9  C   UNL     1     -10.650  12.468  63.985  1.00  0.00    -0.421 C  
BRANCH   9  10
HETATM   10  C   UNL     1     -10.543  11.075  64.601  1.00  0.00    -0.299 C  
BRANCH  10  11
HETATM   11  O   UNL     1     -10.853  11.097  66.007  1.00  0.00    -0.243 OA 
BRANCH  11  12
HETATM   12  C   UNL     1     -10.258  10.121  66.753  1.00  0.00    -0.228 C  
HETATM   13  O   UNL     1     -10.314   8.926  66.476  1.00  0.00    -0.276 OA 
BRANCH  12  14
HETATM   14  C   UNL     1      -9.571  10.678  68.014  1.00  0.00    -0.167 C  
HETATM   15  C   UNL     1      -9.145  12.164  67.864  1.00  0.00    -0.185 C  
HETATM   16  C   UNL     1      -8.188   9.977  68.092  1.00  0.00    -0.109 C  
HETATM   17  C   UNL     1      -7.302  10.919  68.884  1.00  0.00    -0.111 C  
HETATM   18  C   UNL     1      -7.717  12.298  68.408  1.00  0.00    -0.141 C  
BRANCH  14  19
HETATM   19  C   UNL     1     -10.495  10.488  69.233  1.00  0.00    -0.258 A  
HETATM   20  C   UNL     1     -11.267   9.262  71.200  1.00  0.00    -0.413 A  
HETATM   21  C   UNL     1     -12.283  10.189  71.410  1.00  0.00    -0.492 A  
HETATM   22  C   UNL     1     -10.387   9.407  70.123  1.00  0.00    -0.273 A  
HETATM   23  C   UNL     1     -12.410  11.271  70.548  1.00  0.00    -0.446 A  
HETATM   24  C   UNL     1     -11.521  11.423  69.478  1.00  0.00    -0.381 A  
ENDBRANCH  14  19
ENDBRANCH  12  14
ENDBRANCH  11  12
ENDBRANCH  10  11
ENDBRANCH   9  10
ENDBRANCH   8   9
ENDBRANCH   7   8
ENDBRANCH   6   7
ENDBRANCH   3   6
ENDBRANCH   2   3
TORSDOF 11
ENDMDL
MODEL       73
REMARK 921   NORMALIZED FREE ENERGY PREDICTED BY IDOCK:   -5.01 KCAL/MOL
REMARK 922        TOTAL FREE ENERGY PREDICTED BY IDOCK:   -9.05 KCAL/MOL
REMARK 923 INTER-LIGAND FREE ENERGY PREDICTED BY IDOCK:   -7.35 KCAL/MOL
REMARK 924 INTRA-LIGAND FREE ENERGY PREDICTED BY IDOCK:   -1.69 KCAL/MOL
REMARK 927      BINDING AFFINITY PREDICTED BY RF-SCORE:    0.00 PKD
ROOT
HETATM    1  C   UNL     1     -12.090  13.803  64.103  1.00  0.00    -0.478 C  
HETATM    2  C   UNL     1     -11.529  12.516  63.503  1.00  0.00    -0.496 C  
ENDROOT
BRANCH   2   3
HETATM    3  N   UNL     1     -11.061  11.529  64.495  1.00  0.00    -0.304 NA 
BRANCH   3   4
HETATM    4  C   UNL     1      -9.839  10.815  64.092  1.00  0.00    -0.326 C  
HETATM    5  C   UNL     1      -9.340  11.075  62.676  1.00  0.00    -0.348 C  
ENDBRANCH   3   4
BRANCH   3   6
HETATM    6  C   UNL     1     -10.967  12.170  65.826  1.00  0.00    -0.297 C  
BRANCH   6   7
HETATM    7  C   UNL     1      -9.584  12.094  66.492  1.00  0.00    -0.228 C  
BRANCH   7   8
HETATM    8  O   UNL     1      -9.015  13.407  66.597  1.00  0.00    -0.213 OA 
BRANCH   8   9
HETATM    9  C   UNL     1      -8.092  13.466  67.686  1.00  0.00    -0.175 C  
BRANCH   9  10
HETATM   10  C   UNL     1      -7.099  14.607  67.482  1.00  0.00    -0.178 C  
BRANCH  10  11
HETATM   11  O   UNL     1      -7.749  15.784  66.965  1.00  0.00    -0.200 OA 
BRANCH  11  12
HETATM   12  C   UNL     1      -7.964  16.780  67.873  1.00  0.00    -0.177 C  
HETATM   13  O   UNL     1      -7.122  17.148  68.687  1.00  0.00    -0.195 OA 
BRANCH  12  14
HETATM   14  C   UNL     1      -9.399  17.337  67.810  1.00  0.00    -0.250 C  
HETATM   15  C   UNL     1      -9.852  17.674  66.363  1.00  0.00    -0.315 C  
HETATM   16  C   UNL     1      -9.334  18.754  68.441  1.00  0.00    -0.382 C  
HETATM   17  C   UNL     1     -10.496  19.518  67.837  1.00  0.00    -0.552 C  
HETATM   18  C   UNL     1     -10.533  19.049  66.395  1.00  0.00    -0.524 C  
BRANCH  14  19
HETATM   19  C   UNL     1     -10.370  16.344  68.477  1.00  0.00    -0.270 A  
HETATM   20  C   UNL     1     -12.117  14.638  68.404  1.00  0.00    -0.223 A  
HETATM   21  C   UNL     1     -12.169  14.597  69.794  1.00  0.00    -0.347 A  
HETATM   22  C   UNL     1     -11.232  15.503  67.754  1.00  0.00    -0.302 A  
HETATM   23  C   UNL     1     -11.326  15.415  70.534  1.00  0.00    -0.351 A  
HETATM   24  C   UNL     1     -10.431  16.271  69.884  1.00  0.00    -0.222 A  
ENDBRANCH  14  19
ENDBRANCH  12  14
ENDBRANCH  11  12
ENDBRANCH  10  11
ENDBRANCH   9  10
ENDBRANCH   8   9
ENDBRANCH   7   8
ENDBRANCH   6   7
ENDBRANCH   3   6
ENDBRANCH   2   3
TORSDOF 11
ENDMDL
MODEL       74
REMARK 921   NORMALIZED FREE ENERGY PREDICTED BY IDOCK:   -5.00 KCAL/MOL
REMARK 922        TOTAL FREE ENERGY PREDICTED BY IDOCK:   -9.04 KCAL/MOL
REMARK 923 INTER-LIGAND FREE ENERGY PREDICTED BY IDOCK:   -8.02 KCAL/MOL
REMARK 924 INTRA-LIGAND FREE ENERGY PREDICTED BY IDOCK:   -1.02 KCAL/MOL
REMARK 927      BINDING AFFINITY PREDICTED BY RF-SCORE:    0.00 PKD
ROOT
HETATM    1  C   UNL     1     -11.451   6.550  70.221  1.00  0.00    -0.474 C  
HETATM    2  C   UNL     1     -11.511   6.223  71.711  1.00  0.00    -0.301 C  
ENDROOT
BRANCH   2   3
HETATM    3  N   UNL     1     -11.363   7.389  72.602  1.00  0.00    -0.314 NA 
BRANCH   3   4
HETATM    4  C   UNL     1     -10.132   7.370  73.407  1.00  0.00    -0.338 C  
HETATM    5  C   UNL     1     -10.041   6.291  74.479  1.00  0.00    -0.353 C  
ENDBRANCH   3   4
BRANCH   3   6
HETATM    6  C   UNL     1     -11.549   8.635  71.824  1.00  0.00    -0.332 C  
BRANCH   6   7
HETATM    7  C   UNL     1     -12.920   9.310  71.991  1.00  0.00    -0.425 C  
BRANCH   7   8
HETATM    8  O   UNL     1     -13.219  10.109  70.837  1.00  0.00    -0.395 OA 
BRANCH   8   9
HETATM    9  C   UNL     1     -12.189  11.076  70.618  1.00  0.00    -0.385 C  
BRANCH   9  10
HETATM   10  C   UNL     1     -12.083  11.415  69.133  1.00  0.00    -0.264 C  
BRANCH  10  11
HETATM   11  O   UNL     1     -11.004  12.335  68.880  1.00  0.00    -0.221 OA 
BRANCH  11  12
HETATM   12  C   UNL     1     -11.355  13.482  68.228  1.00  0.00    -0.294 C  
HETATM   13  O   UNL     1     -12.390  14.102  68.456  1.00  0.00    -0.244 OA 
BRANCH  12  14
HETATM   14  C   UNL     1     -10.346  13.869  67.130  1.00  0.00    -0.265 C  
HETATM   15  C   UNL     1      -8.875  13.569  67.529  1.00  0.00    -0.209 C  
HETATM   16  C   UNL     1     -10.335  15.421  67.089  1.00  0.00    -0.271 C  
HETATM   17  C   UNL     1      -8.978  15.800  66.528  1.00  0.00    -0.341 C  
HETATM   18  C   UNL     1      -8.031  14.793  67.151  1.00  0.00    -0.205 C  
BRANCH  14  19
HETATM   19  C   UNL     1     -10.718  13.161  65.813  1.00  0.00    -0.292 A  
HETATM   20  C   UNL     1     -11.997  12.966  63.740  1.00  0.00    -0.582 A  
HETATM   21  C   UNL     1     -11.381  11.754  63.446  1.00  0.00    -0.437 A  
HETATM   22  C   UNL     1     -11.672  13.658  64.911  1.00  0.00    -0.379 A  
HETATM   23  C   UNL     1     -10.430  11.240  64.318  1.00  0.00    -0.419 A  
HETATM   24  C   UNL     1     -10.096  11.940  65.482  1.00  0.00    -0.277 A  
ENDBRANCH  14  19
ENDBRANCH  12  14
ENDBRANCH  11  12
ENDBRANCH  10  11
ENDBRANCH   9  10
ENDBRANCH   8   9
ENDBRANCH   7   8
ENDBRANCH   6   7
ENDBRANCH   3   6
ENDBRANCH   2   3
TORSDOF 11
ENDMDL
MODEL       75
REMARK 921   NORMALIZED FREE ENERGY PREDICTED BY IDOCK:   -5.00 KCAL/MOL
REMARK 922        TOTAL FREE ENERGY PREDICTED BY IDOCK:   -9.03 KCAL/MOL
REMARK 923 INTER-LIGAND FREE ENERGY PREDICTED BY IDOCK:   -7.96 KCAL/MOL
REMARK 924 INTRA-LIGAND FREE ENERGY PREDICTED BY IDOCK:   -1.07 KCAL/MOL
REMARK 927      BINDING AFFINITY PREDICTED BY RF-SCORE:    0.00 PKD
ROOT
HETATM    1  C   UNL     1     -10.473   7.278  73.416  1.00  0.00    -0.423 C  
HETATM    2  C   UNL     1     -11.289   7.869  72.268  1.00  0.00    -0.337 C  
ENDROOT
BRANCH   2   3
HETATM    3  N   UNL     1     -12.186   6.910  71.595  1.00  0.00    -0.345 NA 
BRANCH   3   4
HETATM    4  C   UNL     1     -13.557   7.408  71.407  1.00  0.00    -0.325 C  
HETATM    5  C   UNL     1     -13.848   8.803  71.947  1.00  0.00    -0.491 C  
ENDBRANCH   3   4
BRANCH   3   6
HETATM    6  C   UNL     1     -11.549   6.428  70.348  1.00  0.00    -0.373 C  
BRANCH   6   7
HETATM    7  C   UNL     1     -10.301   7.210  69.908  1.00  0.00    -0.213 C  
BRANCH   7   8
HETATM    8  O   UNL     1     -10.421   7.593  68.530  1.00  0.00    -0.200 OA 
BRANCH   8   9
HETATM    9  C   UNL     1      -9.784   8.853  68.305  1.00  0.00    -0.157 C  
BRANCH   9  10
HETATM   10  C   UNL     1     -10.188   9.855  69.383  1.00  0.00    -0.216 C  
BRANCH  10  11
HETATM   11  O   UNL     1     -10.072  11.210  68.910  1.00  0.00    -0.200 OA 
BRANCH  11  12
HETATM   12  C   UNL     1     -11.200  11.729  68.341  1.00  0.00    -0.251 C  
HETATM   13  O   UNL     1     -12.279  11.145  68.321  1.00  0.00    -0.613 OA 
BRANCH  12  14
HETATM   14  C   UNL     1     -10.948  13.091  67.666  1.00  0.00    -0.277 C  
HETATM   15  C   UNL     1      -9.549  13.680  67.999  1.00  0.00    -0.216 C  
HETATM   16  C   UNL     1     -11.878  14.103  68.388  1.00  0.00    -0.388 C  
HETATM   17  C   UNL     1     -11.219  15.457  68.207  1.00  0.00    -0.325 C  
HETATM   18  C   UNL     1      -9.738  15.163  68.342  1.00  0.00    -0.212 C  
BRANCH  14  19
HETATM   19  C   UNL     1     -11.145  12.959  66.143  1.00  0.00    -0.314 A  
HETATM   20  C   UNL     1     -12.515  13.001  64.121  1.00  0.00    -0.374 A  
HETATM   21  C   UNL     1     -11.423  12.630  63.344  1.00  0.00    -0.499 A  
HETATM   22  C   UNL     1     -12.379  13.160  65.504  1.00  0.00    -0.529 A  
HETATM   23  C   UNL     1     -10.189  12.429  63.949  1.00  0.00    -0.409 A  
HETATM   24  C   UNL     1     -10.050  12.601  65.331  1.00  0.00    -0.277 A  
ENDBRANCH  14  19
ENDBRANCH  12  14
ENDBRANCH  11  12
ENDBRANCH  10  11
ENDBRANCH   9  10
ENDBRANCH   8   9
ENDBRANCH   7   8
ENDBRANCH   6   7
ENDBRANCH   3   6
ENDBRANCH   2   3
TORSDOF 11
ENDMDL
MODEL       76
REMARK 921   NORMALIZED FREE ENERGY PREDICTED BY IDOCK:   -5.00 KCAL/MOL
REMARK 922        TOTAL FREE ENERGY PREDICTED BY IDOCK:   -9.03 KCAL/MOL
REMARK 923 INTER-LIGAND FREE ENERGY PREDICTED BY IDOCK:   -7.80 KCAL/MOL
REMARK 924 INTRA-LIGAND FREE ENERGY PREDICTED BY IDOCK:   -1.22 KCAL/MOL
REMARK 927      BINDING AFFINITY PREDICTED BY RF-SCORE:    0.00 PKD
ROOT
HETATM    1  C   UNL     1      -6.464  18.386  65.516  1.00  0.00    -0.303 C  
HETATM    2  C   UNL     1      -6.215  18.962  66.908  1.00  0.00    -0.181 C  
ENDROOT
BRANCH   2   3
HETATM    3  N   UNL     1      -7.053  18.378  67.973  1.00  0.00    -0.226 NA 
BRANCH   3   4
HETATM    4  C   UNL     1      -7.517  19.358  68.967  1.00  0.00    -0.349 C  
HETATM    5  C   UNL     1      -6.485  19.827  69.987  1.00  0.00    -0.328 C  
ENDBRANCH   3   4
BRANCH   3   6
HETATM    6  C   UNL     1      -8.143  17.581  67.365  1.00  0.00    -0.202 C  
BRANCH   6   7
HETATM    7  C   UNL     1      -9.367  17.356  68.266  1.00  0.00    -0.278 C  
BRANCH   7   8
HETATM    8  O   UNL     1     -10.565  17.355  67.477  1.00  0.00    -0.356 OA 
BRANCH   8   9
HETATM    9  C   UNL     1     -10.261  17.610  66.104  1.00  0.00    -0.343 C  
BRANCH   9  10
HETATM   10  C   UNL     1     -10.734  16.453  65.229  1.00  0.00    -0.295 C  
BRANCH  10  11
HETATM   11  O   UNL     1     -11.183  15.341  66.026  1.00  0.00    -0.321 OA 
BRANCH  11  12
HETATM   12  C   UNL     1     -10.340  14.268  66.061  1.00  0.00    -0.309 C  
HETATM   13  O   UNL     1      -9.152  14.348  66.359  1.00  0.00    -0.243 OA 
BRANCH  12  14
HETATM   14  C   UNL     1     -11.027  12.963  65.615  1.00  0.00    -0.297 C  
HETATM   15  C   UNL     1     -10.349  12.317  64.375  1.00  0.00    -0.358 C  
HETATM   16  C   UNL     1     -12.398  13.384  65.022  1.00  0.00    -0.481 C  
HETATM   17  C   UNL     1     -12.775  12.279  64.054  1.00  0.00    -0.457 C  
HETATM   18  C   UNL     1     -11.459  11.899  63.402  1.00  0.00    -0.470 C  
BRANCH  14  19
HETATM   19  C   UNL     1     -11.076  11.974  66.796  1.00  0.00    -0.353 A  
HETATM   20  C   UNL     1     -11.723  11.331  69.063  1.00  0.00    -0.410 A  
HETATM   21  C   UNL     1     -11.056  10.118  68.935  1.00  0.00    -0.251 A  
HETATM   22  C   UNL     1     -11.730  12.249  68.008  1.00  0.00    -0.417 A  
HETATM   23  C   UNL     1     -10.404   9.816  67.747  1.00  0.00    -0.274 A  
HETATM   24  C   UNL     1     -10.422  10.730  66.687  1.00  0.00    -0.302 A  
ENDBRANCH  14  19
ENDBRANCH  12  14
ENDBRANCH  11  12
ENDBRANCH  10  11
ENDBRANCH   9  10
ENDBRANCH   8   9
ENDBRANCH   7   8
ENDBRANCH   6   7
ENDBRANCH   3   6
ENDBRANCH   2   3
TORSDOF 11
ENDMDL
MODEL       77
REMARK 921   NORMALIZED FREE ENERGY PREDICTED BY IDOCK:   -4.99 KCAL/MOL
REMARK 922        TOTAL FREE ENERGY PREDICTED BY IDOCK:   -9.02 KCAL/MOL
REMARK 923 INTER-LIGAND FREE ENERGY PREDICTED BY IDOCK:   -7.73 KCAL/MOL
REMARK 924 INTRA-LIGAND FREE ENERGY PREDICTED BY IDOCK:   -1.29 KCAL/MOL
REMARK 927      BINDING AFFINITY PREDICTED BY RF-SCORE:    0.00 PKD
ROOT
HETATM    1  C   UNL     1     -11.934   6.654  72.188  1.00  0.00    -0.320 C  
HETATM    2  C   UNL     1     -12.551   7.928  71.615  1.00  0.00    -0.321 C  
ENDROOT
BRANCH   2   3
HETATM    3  N   UNL     1     -11.684   9.119  71.690  1.00  0.00    -0.353 NA 
BRANCH   3   4
HETATM    4  C   UNL     1     -10.280   8.813  72.007  1.00  0.00    -0.331 C  
HETATM    5  C   UNL     1      -9.274   9.010  70.880  1.00  0.00    -0.320 C  
ENDBRANCH   3   4
BRANCH   3   6
HETATM    6  C   UNL     1     -11.855   9.935  70.467  1.00  0.00    -0.270 C  
BRANCH   6   7
HETATM    7  C   UNL     1     -12.304  11.385  70.707  1.00  0.00    -0.386 C  
BRANCH   7   8
HETATM    8  O   UNL     1     -11.659  12.262  69.772  1.00  0.00    -0.288 OA 
BRANCH   8   9
HETATM    9  C   UNL     1     -12.069  13.614  69.988  1.00  0.00    -0.348 C  
BRANCH   9  10
HETATM   10  C   UNL     1     -11.699  14.482  68.788  1.00  0.00    -0.327 C  
BRANCH  10  11
HETATM   11  O   UNL     1     -11.883  13.771  67.549  1.00  0.00    -0.351 OA 
BRANCH  11  12
HETATM   12  C   UNL     1     -10.738  13.491  66.860  1.00  0.00    -0.274 C  
HETATM   13  O   UNL     1      -9.642  13.962  67.147  1.00  0.00    -0.231 OA 
BRANCH  12  14
HETATM   14  C   UNL     1     -10.989  12.580  65.643  1.00  0.00    -0.323 C  
HETATM   15  C   UNL     1     -10.371  13.139  64.332  1.00  0.00    -0.390 C  
HETATM   16  C   UNL     1     -12.506  12.692  65.332  1.00  0.00    -0.421 C  
HETATM   17  C   UNL     1     -12.641  12.356  63.859  1.00  0.00    -0.528 C  
HETATM   18  C   UNL     1     -11.422  12.998  63.224  1.00  0.00    -0.142 C  
BRANCH  14  19
HETATM   19  C   UNL     1     -10.463  11.162  65.941  1.00  0.00    -0.310 A  
HETATM   20  C   UNL     1     -10.289   9.160  67.331  1.00  0.00    -0.330 A  
HETATM   21  C   UNL     1      -9.393   8.586  66.434  1.00  0.00    -0.273 A  
HETATM   22  C   UNL     1     -10.814  10.433  67.089  1.00  0.00    -0.301 A  
HETATM   23  C   UNL     1      -9.032   9.282  65.288  1.00  0.00    -0.260 A  
HETATM   24  C   UNL     1      -9.568  10.551  65.040  1.00  0.00    -0.331 A  
ENDBRANCH  14  19
ENDBRANCH  12  14
ENDBRANCH  11  12
ENDBRANCH  10  11
ENDBRANCH   9  10
ENDBRANCH   8   9
ENDBRANCH   7   8
ENDBRANCH   6   7
ENDBRANCH   3   6
ENDBRANCH   2   3
TORSDOF 11
ENDMDL
MODEL       78
REMARK 921   NORMALIZED FREE ENERGY PREDICTED BY IDOCK:   -4.98 KCAL/MOL
REMARK 922        TOTAL FREE ENERGY PREDICTED BY IDOCK:   -9.01 KCAL/MOL
REMARK 923 INTER-LIGAND FREE ENERGY PREDICTED BY IDOCK:   -7.74 KCAL/MOL
REMARK 924 INTRA-LIGAND FREE ENERGY PREDICTED BY IDOCK:   -1.27 KCAL/MOL
REMARK 927      BINDING AFFINITY PREDICTED BY RF-SCORE:    0.00 PKD
ROOT
HETATM    1  C   UNL     1     -10.358  11.018  67.034  1.00  0.00    -0.269 C  
HETATM    2  C   UNL     1      -9.865  11.611  65.716  1.00  0.00    -0.239 C  
ENDROOT
BRANCH   2   3
HETATM    3  N   UNL     1     -10.829  12.506  65.046  1.00  0.00    -0.281 NA 
BRANCH   3   4
HETATM    4  C   UNL     1     -11.125  12.127  63.656  1.00  0.00    -0.457 C  
HETATM    5  C   UNL     1     -12.593  11.909  63.313  1.00  0.00    -0.473 C  
ENDBRANCH   3   4
BRANCH   3   6
HETATM    6  C   UNL     1     -12.033  12.659  65.894  1.00  0.00    -0.438 C  
BRANCH   6   7
HETATM    7  C   UNL     1     -12.304  14.088  66.391  1.00  0.00    -0.431 C  
BRANCH   7   8
HETATM    8  O   UNL     1     -12.149  14.151  67.816  1.00  0.00    -0.367 OA 
BRANCH   8   9
HETATM    9  C   UNL     1     -10.932  14.817  68.158  1.00  0.00    -0.268 C  
BRANCH   9  10
HETATM   10  C   UNL     1     -10.717  16.031  67.257  1.00  0.00    -0.295 C  
BRANCH  10  11
HETATM   11  O   UNL     1      -9.364  16.516  67.345  1.00  0.00    -0.219 OA 
BRANCH  11  12
HETATM   12  C   UNL     1      -9.216  17.733  67.946  1.00  0.00    -0.265 C  
HETATM   13  O   UNL     1     -10.051  18.221  68.703  1.00  0.00    -0.370 OA 
BRANCH  12  14
HETATM   14  C   UNL     1      -7.924  18.453  67.514  1.00  0.00    -0.241 C  
HETATM   15  C   UNL     1      -8.195  19.827  66.843  1.00  0.00    -0.342 C  
HETATM   16  C   UNL     1      -7.364  17.640  66.316  1.00  0.00    -0.345 C  
HETATM   17  C   UNL     1      -6.527  18.622  65.519  1.00  0.00    -0.321 C  
HETATM   18  C   UNL     1      -7.316  19.915  65.589  1.00  0.00    -0.316 C  
BRANCH  14  19
HETATM   19  C   UNL     1      -6.986  18.605  68.727  1.00  0.00    -0.311 A  
HETATM   20  C   UNL     1      -5.495  17.708  70.442  1.00  0.00    -0.260 A  
HETATM   21  C   UNL     1      -5.331  18.974  70.995  1.00  0.00    -0.270 A  
HETATM   22  C   UNL     1      -6.315  17.526  69.325  1.00  0.00    -0.244 A  
HETATM   23  C   UNL     1      -5.978  20.061  70.422  1.00  0.00    -0.378 A  
HETATM   24  C   UNL     1      -6.788  19.880  69.296  1.00  0.00    -0.336 A  
ENDBRANCH  14  19
ENDBRANCH  12  14
ENDBRANCH  11  12
ENDBRANCH  10  11
ENDBRANCH   9  10
ENDBRANCH   8   9
ENDBRANCH   7   8
ENDBRANCH   6   7
ENDBRANCH   3   6
ENDBRANCH   2   3
TORSDOF 11
ENDMDL
MODEL       79
REMARK 921   NORMALIZED FREE ENERGY PREDICTED BY IDOCK:   -4.98 KCAL/MOL
REMARK 922        TOTAL FREE ENERGY PREDICTED BY IDOCK:   -9.00 KCAL/MOL
REMARK 923 INTER-LIGAND FREE ENERGY PREDICTED BY IDOCK:   -8.00 KCAL/MOL
REMARK 924 INTRA-LIGAND FREE ENERGY PREDICTED BY IDOCK:   -1.00 KCAL/MOL
REMARK 927      BINDING AFFINITY PREDICTED BY RF-SCORE:    0.00 PKD
ROOT
HETATM    1  C   UNL     1     -11.080  15.415  64.895  1.00  0.00    -0.435 C  
HETATM    2  C   UNL     1     -12.226  14.408  64.826  1.00  0.00    -0.446 C  
ENDROOT
BRANCH   2   3
HETATM    3  N   UNL     1     -11.998  13.166  65.589  1.00  0.00    -0.390 NA 
BRANCH   3   4
HETATM    4  C   UNL     1     -11.459  12.062  64.781  1.00  0.00    -0.298 C  
HETATM    5  C   UNL     1     -11.952  11.974  63.342  1.00  0.00    -0.571 C  
ENDBRANCH   3   4
BRANCH   3   6
HETATM    6  C   UNL     1     -11.198  13.467  66.799  1.00  0.00    -0.310 C  
BRANCH   6   7
HETATM    7  C   UNL     1     -12.005  13.592  68.101  1.00  0.00    -0.355 C  
BRANCH   7   8
HETATM    8  O   UNL     1     -11.802  12.432  68.919  1.00  0.00    -0.305 OA 
BRANCH   8   9
HETATM    9  C   UNL     1     -12.073  12.733  70.290  1.00  0.00    -0.297 C  
BRANCH   9  10
HETATM   10  C   UNL     1     -12.649  11.511  71.001  1.00  0.00    -0.357 C  
BRANCH  10  11
HETATM   11  O   UNL     1     -11.669  10.461  71.118  1.00  0.00    -0.352 OA 
BRANCH  11  12
HETATM   12  C   UNL     1     -12.153   9.254  71.532  1.00  0.00    -0.361 C  
HETATM   13  O   UNL     1     -13.186   9.124  72.181  1.00  0.00    -0.390 OA 
BRANCH  12  14
HETATM   14  C   UNL     1     -11.222   8.085  71.157  1.00  0.00    -0.287 C  
HETATM   15  C   UNL     1     -10.407   8.354  69.862  1.00  0.00    -0.210 C  
HETATM   16  C   UNL     1     -12.151   6.932  70.692  1.00  0.00    -0.363 C  
HETATM   17  C   UNL     1     -11.304   6.079  69.768  1.00  0.00    -0.344 C  
HETATM   18  C   UNL     1     -10.473   7.088  68.998  1.00  0.00    -0.219 C  
BRANCH  14  19
HETATM   19  C   UNL     1     -10.289   7.766  72.341  1.00  0.00    -0.311 A  
HETATM   20  C   UNL     1      -9.661   6.485  74.326  1.00  0.00    -0.309 A  
HETATM   21  C   UNL     1      -8.550   7.297  74.528  1.00  0.00    -0.230 A  
HETATM   22  C   UNL     1     -10.522   6.719  73.248  1.00  0.00    -0.321 A  
HETATM   23  C   UNL     1      -8.292   8.337  73.644  1.00  0.00    -0.259 A  
HETATM   24  C   UNL     1      -9.146   8.563  72.559  1.00  0.00    -0.284 A  
ENDBRANCH  14  19
ENDBRANCH  12  14
ENDBRANCH  11  12
ENDBRANCH  10  11
ENDBRANCH   9  10
ENDBRANCH   8   9
ENDBRANCH   7   8
ENDBRANCH   6   7
ENDBRANCH   3   6
ENDBRANCH   2   3
TORSDOF 11
ENDMDL
MODEL       80
REMARK 921   NORMALIZED FREE ENERGY PREDICTED BY IDOCK:   -4.98 KCAL/MOL
REMARK 922        TOTAL FREE ENERGY PREDICTED BY IDOCK:   -9.00 KCAL/MOL
REMARK 923 INTER-LIGAND FREE ENERGY PREDICTED BY IDOCK:   -7.80 KCAL/MOL
REMARK 924 INTRA-LIGAND FREE ENERGY PREDICTED BY IDOCK:   -1.19 KCAL/MOL
REMARK 927      BINDING AFFINITY PREDICTED BY RF-SCORE:    0.00 PKD
ROOT
HETATM    1  C   UNL     1     -12.514  15.700  74.050  1.00  0.00    -0.785 C  
HETATM    2  C   UNL     1     -13.586  15.937  72.988  1.00  0.00    -0.536 C  
ENDROOT
BRANCH   2   3
HETATM    3  N   UNL     1     -13.515  15.027  71.830  1.00  0.00    -0.373 NA 
BRANCH   3   4
HETATM    4  C   UNL     1     -12.188  14.968  71.200  1.00  0.00    -0.320 C  
HETATM    5  C   UNL     1     -12.101  15.456  69.758  1.00  0.00    -0.373 C  
ENDBRANCH   3   4
BRANCH   3   6
HETATM    6  C   UNL     1     -14.057  13.701  72.208  1.00  0.00    -0.505 C  
BRANCH   6   7
HETATM    7  C   UNL     1     -13.049  12.542  72.142  1.00  0.00    -0.323 C  
BRANCH   7   8
HETATM    8  O   UNL     1     -13.736  11.306  71.903  1.00  0.00    -0.121 OA 
BRANCH   8   9
HETATM    9  C   UNL     1     -12.808  10.276  71.555  1.00  0.00    -0.452 C  
BRANCH   9  10
HETATM   10  C   UNL     1     -13.173   8.970  72.256  1.00  0.00    -0.460 C  
BRANCH  10  11
HETATM   11  O   UNL     1     -12.577   7.837  71.596  1.00  0.00    -0.314 OA 
BRANCH  11  12
HETATM   12  C   UNL     1     -11.293   7.555  71.963  1.00  0.00    -0.273 C  
HETATM   13  O   UNL     1     -10.861   7.718  73.101  1.00  0.00    -0.389 OA 
BRANCH  12  14
HETATM   14  C   UNL     1     -10.430   7.080  70.778  1.00  0.00    -0.231 C  
HETATM   15  C   UNL     1     -11.061   5.883  70.014  1.00  0.00    -0.411 C  
HETATM   16  C   UNL     1      -9.178   6.409  71.404  1.00  0.00    -0.150 C  
HETATM   17  C   UNL     1      -8.682   5.428  70.359  1.00  0.00    -0.136 C  
HETATM   18  C   UNL     1      -9.953   4.853  69.764  1.00  0.00    -0.314 C  
BRANCH  14  19
HETATM   19  C   UNL     1     -10.159   8.262  69.828  1.00  0.00    -0.197 A  
HETATM   20  C   UNL     1      -9.382  10.529  69.351  1.00  0.00    -0.139 A  
HETATM   21  C   UNL     1      -9.761  10.405  68.019  1.00  0.00    -0.166 A  
HETATM   22  C   UNL     1      -9.582   9.472  70.245  1.00  0.00    -0.314 A  
HETATM   23  C   UNL     1     -10.329   9.218  67.577  1.00  0.00    -0.323 A  
HETATM   24  C   UNL     1     -10.518   8.156  68.468  1.00  0.00    -0.199 A  
ENDBRANCH  14  19
ENDBRANCH  12  14
ENDBRANCH  11  12
ENDBRANCH  10  11
ENDBRANCH   9  10
ENDBRANCH   8   9
ENDBRANCH   7   8
ENDBRANCH   6   7
ENDBRANCH   3   6
ENDBRANCH   2   3
TORSDOF 11
ENDMDL
MODEL       81
REMARK 921   NORMALIZED FREE ENERGY PREDICTED BY IDOCK:   -4.97 KCAL/MOL
REMARK 922        TOTAL FREE ENERGY PREDICTED BY IDOCK:   -8.99 KCAL/MOL
REMARK 923 INTER-LIGAND FREE ENERGY PREDICTED BY IDOCK:   -7.44 KCAL/MOL
REMARK 924 INTRA-LIGAND FREE ENERGY PREDICTED BY IDOCK:   -1.55 KCAL/MOL
REMARK 927      BINDING AFFINITY PREDICTED BY RF-SCORE:    0.00 PKD
ROOT
HETATM    1  C   UNL     1     -11.396  14.898  69.270  1.00  0.00    -0.315 C  
HETATM    2  C   UNL     1     -11.045  13.547  68.650  1.00  0.00    -0.269 C  
ENDROOT
BRANCH   2   3
HETATM    3  N   UNL     1     -11.881  13.165  67.496  1.00  0.00    -0.367 NA 
BRANCH   3   4
HETATM    4  C   UNL     1     -11.796  14.101  66.365  1.00  0.00    -0.423 C  
HETATM    5  C   UNL     1     -12.807  13.897  65.242  1.00  0.00    -0.437 C  
ENDBRANCH   3   4
BRANCH   3   6
HETATM    6  C   UNL     1     -11.605  11.757  67.129  1.00  0.00    -0.266 C  
BRANCH   6   7
HETATM    7  C   UNL     1     -10.260  11.517  66.427  1.00  0.00    -0.224 C  
BRANCH   7   8
HETATM    8  O   UNL     1      -9.545  10.458  67.079  1.00  0.00    -0.161 OA 
BRANCH   8   9
HETATM    9  C   UNL     1      -8.280  10.925  67.552  1.00  0.00    -0.116 C  
BRANCH   9  10
HETATM   10  C   UNL     1      -8.109  10.594  69.033  1.00  0.00    -0.148 C  
BRANCH  10  11
HETATM   11  O   UNL     1      -8.271   9.184  69.277  1.00  0.00    -0.111 OA 
BRANCH  11  12
HETATM   12  C   UNL     1      -8.759   8.856  70.509  1.00  0.00    -0.186 C  
HETATM   13  O   UNL     1      -8.184   9.123  71.560  1.00  0.00    -0.334 OA 
BRANCH  12  14
HETATM   14  C   UNL     1     -10.072   8.053  70.430  1.00  0.00    -0.194 C  
HETATM   15  C   UNL     1      -9.992   6.691  71.171  1.00  0.00    -0.198 C  
HETATM   16  C   UNL     1     -10.197   7.585  68.955  1.00  0.00    -0.214 C  
HETATM   17  C   UNL     1     -11.063   6.341  68.999  1.00  0.00    -0.446 C  
HETATM   18  C   UNL     1     -10.612   5.625  70.258  1.00  0.00    -0.370 C  
BRANCH  14  19
HETATM   19  C   UNL     1     -11.236   8.909  70.968  1.00  0.00    -0.342 A  
HETATM   20  C   UNL     1     -13.238   9.238  72.328  1.00  0.00    -0.535 A  
HETATM   21  C   UNL     1     -13.379  10.536  71.849  1.00  0.00    -0.461 A  
HETATM   22  C   UNL     1     -12.182   8.433  71.889  1.00  0.00    -0.395 A  
HETATM   23  C   UNL     1     -12.455  11.035  70.940  1.00  0.00    -0.509 A  
HETATM   24  C   UNL     1     -11.391  10.234  70.512  1.00  0.00    -0.422 A  
ENDBRANCH  14  19
ENDBRANCH  12  14
ENDBRANCH  11  12
ENDBRANCH  10  11
ENDBRANCH   9  10
ENDBRANCH   8   9
ENDBRANCH   7   8
ENDBRANCH   6   7
ENDBRANCH   3   6
ENDBRANCH   2   3
TORSDOF 11
ENDMDL
MODEL       82
REMARK 921   NORMALIZED FREE ENERGY PREDICTED BY IDOCK:   -4.96 KCAL/MOL
REMARK 922        TOTAL FREE ENERGY PREDICTED BY IDOCK:   -8.97 KCAL/MOL
REMARK 923 INTER-LIGAND FREE ENERGY PREDICTED BY IDOCK:   -7.66 KCAL/MOL
REMARK 924 INTRA-LIGAND FREE ENERGY PREDICTED BY IDOCK:   -1.31 KCAL/MOL
REMARK 927      BINDING AFFINITY PREDICTED BY RF-SCORE:    0.00 PKD
ROOT
HETATM    1  C   UNL     1     -10.787   6.459  72.993  1.00  0.00    -0.287 C  
HETATM    2  C   UNL     1     -11.923   6.703  72.001  1.00  0.00    -0.319 C  
ENDROOT
BRANCH   2   3
HETATM    3  N   UNL     1     -12.036   8.095  71.527  1.00  0.00    -0.290 NA 
BRANCH   3   4
HETATM    4  C   UNL     1     -13.130   8.850  72.158  1.00  0.00    -0.421 C  
HETATM    5  C   UNL     1     -13.201  10.337  71.831  1.00  0.00    -0.550 C  
ENDBRANCH   3   4
BRANCH   3   6
HETATM    6  C   UNL     1     -10.717   8.761  71.624  1.00  0.00    -0.327 C  
BRANCH   6   7
HETATM    7  C   UNL     1      -9.838   8.653  70.368  1.00  0.00    -0.183 C  
BRANCH   7   8
HETATM    8  O   UNL     1     -10.625   8.208  69.254  1.00  0.00    -0.222 OA 
BRANCH   8   9
HETATM    9  C   UNL     1      -9.911   8.396  68.030  1.00  0.00    -0.182 C  
BRANCH   9  10
HETATM   10  C   UNL     1      -9.579   9.872  67.827  1.00  0.00    -0.141 C  
BRANCH  10  11
HETATM   11  O   UNL     1     -10.449  10.477  66.852  1.00  0.00    -0.231 OA 
BRANCH  11  12
HETATM   12  C   UNL     1     -11.311  11.416  67.339  1.00  0.00    -0.288 C  
HETATM   13  O   UNL     1     -12.106  11.200  68.249  1.00  0.00    -0.620 OA 
BRANCH  12  14
HETATM   14  C   UNL     1     -11.225  12.751  66.574  1.00  0.00    -0.349 C  
HETATM   15  C   UNL     1     -12.534  13.095  65.812  1.00  0.00    -0.441 C  
HETATM   16  C   UNL     1     -10.247  12.503  65.394  1.00  0.00    -0.303 C  
HETATM   17  C   UNL     1     -10.630  13.518  64.334  1.00  0.00    -0.394 C  
HETATM   18  C   UNL     1     -12.144  13.569  64.406  1.00  0.00    -0.468 C  
BRANCH  14  19
HETATM   19  C   UNL     1     -10.837  13.881  67.547  1.00  0.00    -0.274 A  
HETATM   20  C   UNL     1     -11.370  15.777  68.994  1.00  0.00    -0.354 A  
HETATM   21  C   UNL     1     -10.022  15.974  69.273  1.00  0.00    -0.252 A  
HETATM   22  C   UNL     1     -11.772  14.746  68.138  1.00  0.00    -0.353 A  
HETATM   23  C   UNL     1      -9.075  15.131  68.705  1.00  0.00    -0.200 A  
HETATM   24  C   UNL     1      -9.479  14.092  67.860  1.00  0.00    -0.210 A  
ENDBRANCH  14  19
ENDBRANCH  12  14
ENDBRANCH  11  12
ENDBRANCH  10  11
ENDBRANCH   9  10
ENDBRANCH   8   9
ENDBRANCH   7   8
ENDBRANCH   6   7
ENDBRANCH   3   6
ENDBRANCH   2   3
TORSDOF 11
ENDMDL
MODEL       83
REMARK 921   NORMALIZED FREE ENERGY PREDICTED BY IDOCK:   -4.95 KCAL/MOL
REMARK 922        TOTAL FREE ENERGY PREDICTED BY IDOCK:   -8.94 KCAL/MOL
REMARK 923 INTER-LIGAND FREE ENERGY PREDICTED BY IDOCK:   -7.74 KCAL/MOL
REMARK 924 INTRA-LIGAND FREE ENERGY PREDICTED BY IDOCK:   -1.20 KCAL/MOL
REMARK 927      BINDING AFFINITY PREDICTED BY RF-SCORE:    0.00 PKD
ROOT
HETATM    1  C   UNL     1     -13.463   8.902  72.317  1.00  0.00    -0.503 C  
HETATM    2  C   UNL     1     -13.209   7.635  71.502  1.00  0.00    -0.334 C  
ENDROOT
BRANCH   2   3
HETATM    3  N   UNL     1     -11.820   7.142  71.552  1.00  0.00    -0.295 NA 
BRANCH   3   4
HETATM    4  C   UNL     1     -11.629   5.994  72.452  1.00  0.00    -0.300 C  
HETATM    5  C   UNL     1     -10.285   5.911  73.165  1.00  0.00    -0.212 C  
ENDBRANCH   3   4
BRANCH   3   6
HETATM    6  C   UNL     1     -11.327   6.910  70.175  1.00  0.00    -0.314 C  
BRANCH   6   7
HETATM    7  C   UNL     1     -10.200   7.850  69.718  1.00  0.00    -0.212 C  
BRANCH   7   8
HETATM    8  O   UNL     1     -10.729   8.870  68.858  1.00  0.00    -0.197 OA 
BRANCH   8   9
HETATM    9  C   UNL     1     -10.635  10.151  69.483  1.00  0.00    -0.245 C  
BRANCH   9  10
HETATM   10  C   UNL     1     -11.933  10.932  69.297  1.00  0.00    -0.310 C  
BRANCH  10  11
HETATM   11  O   UNL     1     -12.107  11.344  67.928  1.00  0.00    -0.646 OA 
BRANCH  11  12
HETATM   12  C   UNL     1     -11.826  12.655  67.672  1.00  0.00    -0.329 C  
HETATM   13  O   UNL     1     -12.060  13.565  68.461  1.00  0.00    -0.359 OA 
BRANCH  12  14
HETATM   14  C   UNL     1     -11.253  12.871  66.258  1.00  0.00    -0.337 C  
HETATM   15  C   UNL     1     -10.704  14.308  66.042  1.00  0.00    -0.304 C  
HETATM   16  C   UNL     1     -12.473  12.869  65.298  1.00  0.00    -0.552 C  
HETATM   17  C   UNL     1     -12.037  13.675  64.090  1.00  0.00    -0.484 C  
HETATM   18  C   UNL     1     -11.210  14.801  64.680  1.00  0.00    -0.350 C  
BRANCH  14  19
HETATM   19  C   UNL     1     -10.167  11.815  65.973  1.00  0.00    -0.265 A  
HETATM   20  C   UNL     1      -7.950  10.840  66.298  1.00  0.00    -0.160 A  
HETATM   21  C   UNL     1      -8.208   9.872  65.334  1.00  0.00    -0.139 A  
HETATM   22  C   UNL     1      -8.916  11.802  66.611  1.00  0.00    -0.195 A  
HETATM   23  C   UNL     1      -9.438   9.858  64.689  1.00  0.00    -0.343 A  
HETATM   24  C   UNL     1     -10.409  10.813  65.012  1.00  0.00    -0.357 A  
ENDBRANCH  14  19
ENDBRANCH  12  14
ENDBRANCH  11  12
ENDBRANCH  10  11
ENDBRANCH   9  10
ENDBRANCH   8   9
ENDBRANCH   7   8
ENDBRANCH   6   7
ENDBRANCH   3   6
ENDBRANCH   2   3
TORSDOF 11
ENDMDL
MODEL       84
REMARK 921   NORMALIZED FREE ENERGY PREDICTED BY IDOCK:   -4.94 KCAL/MOL
REMARK 922        TOTAL FREE ENERGY PREDICTED BY IDOCK:   -8.94 KCAL/MOL
REMARK 923 INTER-LIGAND FREE ENERGY PREDICTED BY IDOCK:   -7.44 KCAL/MOL
REMARK 924 INTRA-LIGAND FREE ENERGY PREDICTED BY IDOCK:   -1.50 KCAL/MOL
REMARK 927      BINDING AFFINITY PREDICTED BY RF-SCORE:    0.00 PKD
ROOT
HETATM    1  C   UNL     1     -11.385   6.071  72.254  1.00  0.00    -0.353 C  
HETATM    2  C   UNL     1     -12.275   6.844  71.283  1.00  0.00    -0.380 C  
ENDROOT
BRANCH   2   3
HETATM    3  N   UNL     1     -12.047   8.302  71.269  1.00  0.00    -0.288 NA 
BRANCH   3   4
HETATM    4  C   UNL     1     -13.208   9.089  71.713  1.00  0.00    -0.389 C  
HETATM    5  C   UNL     1     -13.010  10.597  71.797  1.00  0.00    -0.577 C  
ENDBRANCH   3   4
BRANCH   3   6
HETATM    6  C   UNL     1     -10.798   8.616  72.000  1.00  0.00    -0.360 C  
BRANCH   6   7
HETATM    7  C   UNL     1      -9.618   9.052  71.118  1.00  0.00    -0.286 C  
BRANCH   7   8
HETATM    8  O   UNL     1     -10.102   9.715  69.941  1.00  0.00    -0.213 OA 
BRANCH   8   9
HETATM    9  C   UNL     1      -9.311   9.361  68.805  1.00  0.00    -0.146 C  
BRANCH   9  10
HETATM   10  C   UNL     1      -8.790  10.614  68.106  1.00  0.00    -0.134 C  
BRANCH  10  11
HETATM   11  O   UNL     1      -9.237  11.811  68.771  1.00  0.00    -0.124 OA 
BRANCH  11  12
HETATM   12  C   UNL     1      -9.227  12.943  68.009  1.00  0.00    -0.212 C  
HETATM   13  O   UNL     1      -8.223  13.374  67.448  1.00  0.00    -0.171 OA 
BRANCH  12  14
HETATM   14  C   UNL     1     -10.593  13.655  67.989  1.00  0.00    -0.256 C  
HETATM   15  C   UNL     1     -10.519  15.117  68.508  1.00  0.00    -0.233 C  
HETATM   16  C   UNL     1     -11.439  12.984  69.105  1.00  0.00    -0.353 C  
HETATM   17  C   UNL     1     -12.463  14.025  69.515  1.00  0.00    -0.159 C  
HETATM   18  C   UNL     1     -11.695  15.332  69.469  1.00  0.00    -0.359 C  
BRANCH  14  19
HETATM   19  C   UNL     1     -11.185  13.601  66.567  1.00  0.00    -0.321 A  
HETATM   20  C   UNL     1     -12.075  12.405  64.631  1.00  0.00    -0.487 A  
HETATM   21  C   UNL     1     -12.203  13.597  63.924  1.00  0.00    -0.429 A  
HETATM   22  C   UNL     1     -11.568  12.407  65.935  1.00  0.00    -0.449 A  
HETATM   23  C   UNL     1     -11.836  14.793  64.527  1.00  0.00    -0.428 A  
HETATM   24  C   UNL     1     -11.342  14.796  65.836  1.00  0.00    -0.331 A  
ENDBRANCH  14  19
ENDBRANCH  12  14
ENDBRANCH  11  12
ENDBRANCH  10  11
ENDBRANCH   9  10
ENDBRANCH   8   9
ENDBRANCH   7   8
ENDBRANCH   6   7
ENDBRANCH   3   6
ENDBRANCH   2   3
TORSDOF 11
ENDMDL
MODEL       85
REMARK 921   NORMALIZED FREE ENERGY PREDICTED BY IDOCK:   -4.92 KCAL/MOL
REMARK 922        TOTAL FREE ENERGY PREDICTED BY IDOCK:   -8.91 KCAL/MOL
REMARK 923 INTER-LIGAND FREE ENERGY PREDICTED BY IDOCK:   -7.39 KCAL/MOL
REMARK 924 INTRA-LIGAND FREE ENERGY PREDICTED BY IDOCK:   -1.52 KCAL/MOL
REMARK 927      BINDING AFFINITY PREDICTED BY RF-SCORE:    0.00 PKD
ROOT
HETATM    1  C   UNL     1     -10.777  15.658  69.443  1.00  0.00    -0.252 C  
HETATM    2  C   UNL     1     -11.787  14.533  69.655  1.00  0.00    -0.318 C  
ENDROOT
BRANCH   2   3
HETATM    3  N   UNL     1     -12.292  14.412  71.036  1.00  0.00    -0.334 NA 
BRANCH   3   4
HETATM    4  C   UNL     1     -13.306  15.417  71.388  1.00  0.00    -0.519 C  
HETATM    5  C   UNL     1     -13.725  15.471  72.852  1.00  0.00    -0.599 C  
ENDBRANCH   3   4
BRANCH   3   6
HETATM    6  C   UNL     1     -12.721  13.017  71.286  1.00  0.00    -0.293 C  
BRANCH   6   7
HETATM    7  C   UNL     1     -12.142  11.972  70.320  1.00  0.00    -0.312 C  
BRANCH   7   8
HETATM    8  O   UNL     1     -12.753  10.695  70.551  1.00  0.00    -0.340 OA 
BRANCH   8   9
HETATM    9  C   UNL     1     -13.143  10.568  71.920  1.00  0.00    -0.462 C  
BRANCH   9  10
HETATM   10  C   UNL     1     -13.413   9.105  72.265  1.00  0.00    -0.486 C  
BRANCH  10  11
HETATM   11  O   UNL     1     -12.694   8.218  71.386  1.00  0.00    -0.308 OA 
BRANCH  11  12
HETATM   12  C   UNL     1     -11.487   7.784  71.853  1.00  0.00    -0.275 C  
HETATM   13  O   UNL     1     -11.156   7.841  73.034  1.00  0.00    -0.398 OA 
BRANCH  12  14
HETATM   14  C   UNL     1     -10.562   7.286  70.726  1.00  0.00    -0.237 C  
HETATM   15  C   UNL     1     -11.204   6.155  69.875  1.00  0.00    -0.484 C  
HETATM   16  C   UNL     1      -9.411   6.516  71.428  1.00  0.00    -0.164 C  
HETATM   17  C   UNL     1      -8.894   5.534  70.394  1.00  0.00    -0.141 C  
HETATM   18  C   UNL     1     -10.146   5.060  69.682  1.00  0.00    -0.321 C  
BRANCH  14  19
HETATM   19  C   UNL     1     -10.140   8.473  69.839  1.00  0.00    -0.195 A  
HETATM   20  C   UNL     1      -8.920  10.550  69.431  1.00  0.00    -0.111 A  
HETATM   21  C   UNL     1      -9.474  10.654  68.159  1.00  0.00    -0.158 A  
HETATM   22  C   UNL     1      -9.253   9.475  70.261  1.00  0.00    -0.303 A  
HETATM   23  C   UNL     1     -10.351   9.674  67.712  1.00  0.00    -0.286 A  
HETATM   24  C   UNL     1     -10.673   8.592  68.539  1.00  0.00    -0.091 A  
ENDBRANCH  14  19
ENDBRANCH  12  14
ENDBRANCH  11  12
ENDBRANCH  10  11
ENDBRANCH   9  10
ENDBRANCH   8   9
ENDBRANCH   7   8
ENDBRANCH   6   7
ENDBRANCH   3   6
ENDBRANCH   2   3
TORSDOF 11
ENDMDL
MODEL       86
REMARK 921   NORMALIZED FREE ENERGY PREDICTED BY IDOCK:   -4.92 KCAL/MOL
REMARK 922        TOTAL FREE ENERGY PREDICTED BY IDOCK:   -8.90 KCAL/MOL
REMARK 923 INTER-LIGAND FREE ENERGY PREDICTED BY IDOCK:   -7.49 KCAL/MOL
REMARK 924 INTRA-LIGAND FREE ENERGY PREDICTED BY IDOCK:   -1.41 KCAL/MOL
REMARK 927      BINDING AFFINITY PREDICTED BY RF-SCORE:    0.00 PKD
ROOT
HETATM    1  C   UNL     1     -10.335   8.749  67.419  1.00  0.00    -0.349 C  
HETATM    2  C   UNL     1      -9.644   9.271  66.161  1.00  0.00    -0.260 C  
ENDROOT
BRANCH   2   3
HETATM    3  N   UNL     1      -9.915  10.689  65.855  1.00  0.00    -0.243 NA 
BRANCH   3   4
HETATM    4  C   UNL     1      -8.752  11.570  66.044  1.00  0.00    -0.095 C  
HETATM    5  C   UNL     1      -8.300  11.793  67.482  1.00  0.00    -0.154 C  
ENDBRANCH   3   4
BRANCH   3   6
HETATM    6  C   UNL     1     -10.535  10.797  64.515  1.00  0.00    -0.281 C  
BRANCH   6   7
HETATM    7  C   UNL     1     -10.363  12.159  63.824  1.00  0.00    -0.437 C  
BRANCH   7   8
HETATM    8  O   UNL     1     -11.644  12.689  63.453  1.00  0.00    -0.490 OA 
BRANCH   8   9
HETATM    9  C   UNL     1     -12.486  12.811  64.601  1.00  0.00    -0.456 C  
BRANCH   9  10
HETATM   10  C   UNL     1     -12.622  14.275  65.010  1.00  0.00    -0.347 C  
BRANCH  10  11
HETATM   11  O   UNL     1     -12.077  14.507  66.322  1.00  0.00    -0.377 OA 
BRANCH  11  12
HETATM   12  C   UNL     1     -10.851  15.107  66.348  1.00  0.00    -0.326 C  
HETATM   13  O   UNL     1     -10.117  15.194  65.368  1.00  0.00    -0.339 OA 
BRANCH  12  14
HETATM   14  C   UNL     1     -10.462  15.596  67.757  1.00  0.00    -0.273 C  
HETATM   15  C   UNL     1     -10.741  17.110  67.968  1.00  0.00    -0.372 C  
HETATM   16  C   UNL     1      -8.911  15.567  67.805  1.00  0.00    -0.173 C  
HETATM   17  C   UNL     1      -8.521  16.588  68.857  1.00  0.00    -0.235 C  
HETATM   18  C   UNL     1      -9.511  17.719  68.654  1.00  0.00    -0.283 C  
BRANCH  14  19
HETATM   19  C   UNL     1     -11.188  14.747  68.818  1.00  0.00    -0.286 A  
HETATM   20  C   UNL     1     -11.709  12.627  69.915  1.00  0.00    -0.320 A  
HETATM   21  C   UNL     1     -12.617  13.259  70.759  1.00  0.00    -0.357 A  
HETATM   22  C   UNL     1     -11.007  13.361  68.955  1.00  0.00    -0.284 A  
HETATM   23  C   UNL     1     -12.813  14.629  70.650  1.00  0.00    -0.399 A  
HETATM   24  C   UNL     1     -12.100  15.366  69.697  1.00  0.00    -0.354 A  
ENDBRANCH  14  19
ENDBRANCH  12  14
ENDBRANCH  11  12
ENDBRANCH  10  11
ENDBRANCH   9  10
ENDBRANCH   8   9
ENDBRANCH   7   8
ENDBRANCH   6   7
ENDBRANCH   3   6
ENDBRANCH   2   3
TORSDOF 11
ENDMDL
MODEL       87
REMARK 921   NORMALIZED FREE ENERGY PREDICTED BY IDOCK:   -4.91 KCAL/MOL
REMARK 922        TOTAL FREE ENERGY PREDICTED BY IDOCK:   -8.88 KCAL/MOL
REMARK 923 INTER-LIGAND FREE ENERGY PREDICTED BY IDOCK:   -7.76 KCAL/MOL
REMARK 924 INTRA-LIGAND FREE ENERGY PREDICTED BY IDOCK:   -1.11 KCAL/MOL
REMARK 927      BINDING AFFINITY PREDICTED BY RF-SCORE:    0.00 PKD
ROOT
HETATM    1  C   UNL     1     -10.446  16.704  65.382  1.00  0.00    -0.253 C  
HETATM    2  C   UNL     1     -10.175  17.893  66.301  1.00  0.00    -0.363 C  
ENDROOT
BRANCH   2   3
HETATM    3  N   UNL     1      -8.896  18.585  66.049  1.00  0.00    -0.489 NA 
BRANCH   3   4
HETATM    4  C   UNL     1      -8.807  19.915  66.670  1.00  0.00    -0.358 C  
HETATM    5  C   UNL     1      -9.980  20.330  67.551  1.00  0.00    -0.557 C  
ENDBRANCH   3   4
BRANCH   3   6
HETATM    6  C   UNL     1      -7.770  17.687  66.394  1.00  0.00    -0.290 C  
BRANCH   6   7
HETATM    7  C   UNL     1      -7.063  18.009  67.720  1.00  0.00    -0.206 C  
BRANCH   7   8
HETATM    8  O   UNL     1      -7.809  17.469  68.820  1.00  0.00    -0.267 OA 
BRANCH   8   9
HETATM    9  C   UNL     1      -7.282  16.199  69.207  1.00  0.00    -0.225 C  
BRANCH   9  10
HETATM   10  C   UNL     1      -8.007  15.074  68.473  1.00  0.00    -0.144 C  
BRANCH  10  11
HETATM   11  O   UNL     1      -9.049  14.502  69.288  1.00  0.00    -0.040 OA 
BRANCH  11  12
HETATM   12  C   UNL     1     -10.322  14.843  68.933  1.00  0.00    -0.244 C  
HETATM   13  O   UNL     1     -10.790  15.968  69.086  1.00  0.00    -0.242 OA 
BRANCH  12  14
HETATM   14  C   UNL     1     -11.125  13.646  68.390  1.00  0.00    -0.289 C  
HETATM   15  C   UNL     1     -10.269  12.692  67.514  1.00  0.00    -0.215 C  
HETATM   16  C   UNL     1     -12.100  14.231  67.333  1.00  0.00    -0.371 C  
HETATM   17  C   UNL     1     -12.407  13.084  66.389  1.00  0.00    -0.227 C  
HETATM   18  C   UNL     1     -11.084  12.354  66.259  1.00  0.00    -0.344 C  
BRANCH  14  19
HETATM   19  C   UNL     1     -11.777  12.885  69.562  1.00  0.00    -0.387 A  
HETATM   20  C   UNL     1     -12.417  10.837  70.730  1.00  0.00    -0.481 A  
HETATM   21  C   UNL     1     -13.057  11.574  71.721  1.00  0.00    -0.503 A  
HETATM   22  C   UNL     1     -11.789  11.485  69.662  1.00  0.00    -0.421 A  
HETATM   23  C   UNL     1     -13.057  12.961  71.651  1.00  0.00    -0.430 A  
HETATM   24  C   UNL     1     -12.417  13.609  70.588  1.00  0.00    -0.417 A  
ENDBRANCH  14  19
ENDBRANCH  12  14
ENDBRANCH  11  12
ENDBRANCH  10  11
ENDBRANCH   9  10
ENDBRANCH   8   9
ENDBRANCH   7   8
ENDBRANCH   6   7
ENDBRANCH   3   6
ENDBRANCH   2   3
TORSDOF 11
ENDMDL
MODEL       88
REMARK 921   NORMALIZED FREE ENERGY PREDICTED BY IDOCK:   -4.91 KCAL/MOL
REMARK 922        TOTAL FREE ENERGY PREDICTED BY IDOCK:   -8.88 KCAL/MOL
REMARK 923 INTER-LIGAND FREE ENERGY PREDICTED BY IDOCK:   -7.64 KCAL/MOL
REMARK 924 INTRA-LIGAND FREE ENERGY PREDICTED BY IDOCK:   -1.24 KCAL/MOL
REMARK 927      BINDING AFFINITY PREDICTED BY RF-SCORE:    0.00 PKD
ROOT
HETATM    1  C   UNL     1     -10.080   6.829  74.020  1.00  0.00    -0.389 C  
HETATM    2  C   UNL     1     -10.711   7.708  72.942  1.00  0.00    -0.371 C  
ENDROOT
BRANCH   2   3
HETATM    3  N   UNL     1     -11.896   7.121  72.287  1.00  0.00    -0.267 NA 
BRANCH   3   4
HETATM    4  C   UNL     1     -12.904   8.113  71.883  1.00  0.00    -0.335 C  
HETATM    5  C   UNL     1     -14.279   7.569  71.515  1.00  0.00    -0.580 C  
ENDBRANCH   3   4
BRANCH   3   6
HETATM    6  C   UNL     1     -11.463   6.228  71.188  1.00  0.00    -0.299 C  
BRANCH   6   7
HETATM    7  C   UNL     1     -10.168   6.651  70.475  1.00  0.00    -0.189 C  
BRANCH   7   8
HETATM    8  O   UNL     1     -10.461   7.613  69.452  1.00  0.00    -0.215 OA 
BRANCH   8   9
HETATM    9  C   UNL     1      -9.543   8.706  69.516  1.00  0.00    -0.170 C  
BRANCH   9  10
HETATM   10  C   UNL     1     -10.259   9.979  69.960  1.00  0.00    -0.255 C  
BRANCH  10  11
HETATM   11  O   UNL     1     -10.053  11.052  69.021  1.00  0.00    -0.205 OA 
BRANCH  11  12
HETATM   12  C   UNL     1     -10.915  11.075  67.962  1.00  0.00    -0.258 C  
HETATM   13  O   UNL     1     -12.136  11.098  68.082  1.00  0.00    -0.633 OA 
BRANCH  12  14
HETATM   14  C   UNL     1     -10.186  10.997  66.607  1.00  0.00    -0.280 C  
HETATM   15  C   UNL     1     -10.140   9.556  66.028  1.00  0.00    -0.319 C  
HETATM   16  C   UNL     1      -8.685  11.244  66.914  1.00  0.00    -0.157 C  
HETATM   17  C   UNL     1      -7.926  10.570  65.788  1.00  0.00    -0.158 C  
HETATM   18  C   UNL     1      -8.714   9.301  65.525  1.00  0.00    -0.204 C  
BRANCH  14  19
HETATM   19  C   UNL     1     -10.842  11.972  65.609  1.00  0.00    -0.325 A  
HETATM   20  C   UNL     1     -11.677  14.174  64.959  1.00  0.00    -0.376 A  
HETATM   21  C   UNL     1     -12.115  13.674  63.737  1.00  0.00    -0.435 A  
HETATM   22  C   UNL     1     -11.052  13.333  65.885  1.00  0.00    -0.301 A  
HETATM   23  C   UNL     1     -11.916  12.333  63.436  1.00  0.00    -0.588 A  
HETATM   24  C   UNL     1     -11.279  11.494  64.357  1.00  0.00    -0.327 A  
ENDBRANCH  14  19
ENDBRANCH  12  14
ENDBRANCH  11  12
ENDBRANCH  10  11
ENDBRANCH   9  10
ENDBRANCH   8   9
ENDBRANCH   7   8
ENDBRANCH   6   7
ENDBRANCH   3   6
ENDBRANCH   2   3
TORSDOF 11
ENDMDL
MODEL       89
REMARK 921   NORMALIZED FREE ENERGY PREDICTED BY IDOCK:   -4.89 KCAL/MOL
REMARK 922        TOTAL FREE ENERGY PREDICTED BY IDOCK:   -8.86 KCAL/MOL
REMARK 923 INTER-LIGAND FREE ENERGY PREDICTED BY IDOCK:   -7.02 KCAL/MOL
REMARK 924 INTRA-LIGAND FREE ENERGY PREDICTED BY IDOCK:   -1.84 KCAL/MOL
REMARK 927      BINDING AFFINITY PREDICTED BY RF-SCORE:    0.00 PKD
ROOT
HETATM    1  C   UNL     1     -11.575   9.349  71.472  1.00  0.00    -0.467 C  
HETATM    2  C   UNL     1     -10.323   9.566  70.625  1.00  0.00    -0.302 C  
ENDROOT
BRANCH   2   3
HETATM    3  N   UNL     1      -9.774   8.339  70.016  1.00  0.00    -0.175 NA 
BRANCH   3   4
HETATM    4  C   UNL     1     -10.402   7.978  68.736  1.00  0.00    -0.206 C  
HETATM    5  C   UNL     1     -10.430   9.065  67.667  1.00  0.00    -0.324 C  
ENDBRANCH   3   4
BRANCH   3   6
HETATM    6  C   UNL     1      -8.298   8.436  69.951  1.00  0.00    -0.124 C  
BRANCH   6   7
HETATM    7  C   UNL     1      -7.730   9.856  70.101  1.00  0.00    -0.175 C  
BRANCH   7   8
HETATM    8  O   UNL     1      -7.230  10.322  68.840  1.00  0.00    -0.076 OA 
BRANCH   8   9
HETATM    9  C   UNL     1      -7.478  11.722  68.690  1.00  0.00    -0.120 C  
BRANCH   9  10
HETATM   10  C   UNL     1      -7.509  12.103  67.212  1.00  0.00    -0.152 C  
BRANCH  10  11
HETATM   11  O   UNL     1      -8.861  12.264  66.740  1.00  0.00    -0.202 OA 
BRANCH  11  12
HETATM   12  C   UNL     1      -9.344  13.540  66.777  1.00  0.00    -0.257 C  
HETATM   13  O   UNL     1      -8.630  14.534  66.873  1.00  0.00    -0.216 OA 
BRANCH  12  14
HETATM   14  C   UNL     1     -10.884  13.589  66.756  1.00  0.00    -0.284 C  
HETATM   15  C   UNL     1     -11.520  12.327  66.111  1.00  0.00    -0.429 C  
HETATM   16  C   UNL     1     -11.262  14.679  65.717  1.00  0.00    -0.336 C  
HETATM   17  C   UNL     1     -12.652  14.311  65.235  1.00  0.00    -0.405 C  
HETATM   18  C   UNL     1     -12.623  12.797  65.154  1.00  0.00    -0.513 C  
BRANCH  14  19
HETATM   19  C   UNL     1     -11.415  13.806  68.187  1.00  0.00    -0.348 A  
HETATM   20  C   UNL     1     -12.212  12.999  70.351  1.00  0.00    -0.386 A  
HETATM   21  C   UNL     1     -12.449  14.302  70.776  1.00  0.00    -0.428 A  
HETATM   22  C   UNL     1     -11.705  12.754  69.070  1.00  0.00    -0.371 A  
HETATM   23  C   UNL     1     -12.166  15.362  69.925  1.00  0.00    -0.363 A  
HETATM   24  C   UNL     1     -11.647  15.118  68.649  1.00  0.00    -0.358 A  
ENDBRANCH  14  19
ENDBRANCH  12  14
ENDBRANCH  11  12
ENDBRANCH  10  11
ENDBRANCH   9  10
ENDBRANCH   8   9
ENDBRANCH   7   8
ENDBRANCH   6   7
ENDBRANCH   3   6
ENDBRANCH   2   3
TORSDOF 11
ENDMDL
MODEL       90
REMARK 921   NORMALIZED FREE ENERGY PREDICTED BY IDOCK:   -4.89 KCAL/MOL
REMARK 922        TOTAL FREE ENERGY PREDICTED BY IDOCK:   -8.86 KCAL/MOL
REMARK 923 INTER-LIGAND FREE ENERGY PREDICTED BY IDOCK:   -7.51 KCAL/MOL
REMARK 924 INTRA-LIGAND FREE ENERGY PREDICTED BY IDOCK:   -1.35 KCAL/MOL
REMARK 927      BINDING AFFINITY PREDICTED BY RF-SCORE:    0.00 PKD
ROOT
HETATM    1  C   UNL     1      -8.684   9.392  70.177  1.00  0.00    -0.245 C  
HETATM    2  C   UNL     1      -9.621   8.424  69.456  1.00  0.00    -0.170 C  
ENDROOT
BRANCH   2   3
HETATM    3  N   UNL     1     -10.980   8.348  70.023  1.00  0.00    -0.228 NA 
BRANCH   3   4
HETATM    4  C   UNL     1     -11.351   7.006  70.498  1.00  0.00    -0.312 C  
HETATM    5  C   UNL     1     -11.433   6.822  72.008  1.00  0.00    -0.317 C  
ENDBRANCH   3   4
BRANCH   3   6
HETATM    6  C   UNL     1     -11.154   9.411  71.040  1.00  0.00    -0.344 C  
BRANCH   6   7
HETATM    7  C   UNL     1     -12.251  10.440  70.727  1.00  0.00    -0.359 C  
BRANCH   7   8
HETATM    8  O   UNL     1     -12.211  10.794  69.337  1.00  0.00    -0.303 OA 
BRANCH   8   9
HETATM    9  C   UNL     1     -11.298  11.872  69.122  1.00  0.00    -0.279 C  
BRANCH   9  10
HETATM   10  C   UNL     1     -11.985  13.212  69.371  1.00  0.00    -0.291 C  
BRANCH  10  11
HETATM   11  O   UNL     1     -12.120  13.968  68.152  1.00  0.00    -0.355 OA 
BRANCH  11  12
HETATM   12  C   UNL     1     -11.384  15.116  68.092  1.00  0.00    -0.335 C  
HETATM   13  O   UNL     1     -11.647  16.125  68.740  1.00  0.00    -0.368 OA 
BRANCH  12  14
HETATM   14  C   UNL     1     -10.236  15.029  67.069  1.00  0.00    -0.257 C  
HETATM   15  C   UNL     1      -8.918  14.485  67.686  1.00  0.00    -0.193 C  
HETATM   16  C   UNL     1      -9.836  16.494  66.750  1.00  0.00    -0.274 C  
HETATM   17  C   UNL     1      -8.391  16.428  66.294  1.00  0.00    -0.362 C  
HETATM   18  C   UNL     1      -7.770  15.378  67.195  1.00  0.00    -0.246 C  
BRANCH  14  19
HETATM   19  C   UNL     1     -10.677  14.172  65.866  1.00  0.00    -0.298 A  
HETATM   20  C   UNL     1     -12.079  13.732  63.913  1.00  0.00    -0.423 A  
HETATM   21  C   UNL     1     -11.466  12.498  63.721  1.00  0.00    -0.542 A  
HETATM   22  C   UNL     1     -11.692  14.557  64.975  1.00  0.00    -0.392 A  
HETATM   23  C   UNL     1     -10.456  12.094  64.585  1.00  0.00    -0.336 A  
HETATM   24  C   UNL     1     -10.061  12.925  65.639  1.00  0.00    -0.282 A  
ENDBRANCH  14  19
ENDBRANCH  12  14
ENDBRANCH  11  12
ENDBRANCH  10  11
ENDBRANCH   9  10
ENDBRANCH   8   9
ENDBRANCH   7   8
ENDBRANCH   6   7
ENDBRANCH   3   6
ENDBRANCH   2   3
TORSDOF 11
ENDMDL
MODEL       91
REMARK 921   NORMALIZED FREE ENERGY PREDICTED BY IDOCK:   -4.89 KCAL/MOL
REMARK 922        TOTAL FREE ENERGY PREDICTED BY IDOCK:   -8.84 KCAL/MOL
REMARK 923 INTER-LIGAND FREE ENERGY PREDICTED BY IDOCK:   -7.90 KCAL/MOL
REMARK 924 INTRA-LIGAND FREE ENERGY PREDICTED BY IDOCK:   -0.94 KCAL/MOL
REMARK 927      BINDING AFFINITY PREDICTED BY RF-SCORE:    0.00 PKD
ROOT
HETATM    1  C   UNL     1      -7.624  17.730  68.122  1.00  0.00    -0.250 C  
HETATM    2  C   UNL     1      -8.862  16.836  68.134  1.00  0.00    -0.223 C  
ENDROOT
BRANCH   2   3
HETATM    3  N   UNL     1      -9.803  17.075  67.024  1.00  0.00    -0.261 NA 
BRANCH   3   4
HETATM    4  C   UNL     1      -9.805  18.462  66.535  1.00  0.00    -0.359 C  
HETATM    5  C   UNL     1     -10.886  19.377  67.100  1.00  0.00    -0.561 C  
ENDBRANCH   3   4
BRANCH   3   6
HETATM    6  C   UNL     1      -9.583  16.067  65.962  1.00  0.00    -0.350 C  
BRANCH   6   7
HETATM    7  C   UNL     1     -10.840  15.660  65.178  1.00  0.00    -0.431 C  
BRANCH   7   8
HETATM    8  O   UNL     1     -11.678  14.824  65.990  1.00  0.00    -0.337 OA 
BRANCH   8   9
HETATM    9  C   UNL     1     -12.585  14.081  65.174  1.00  0.00    -0.428 C  
BRANCH   9  10
HETATM   10  C   UNL     1     -12.265  12.590  65.241  1.00  0.00    -0.433 C  
BRANCH  10  11
HETATM   11  O   UNL     1     -11.987  12.173  66.591  1.00  0.00    -0.616 OA 
BRANCH  11  12
HETATM   12  C   UNL     1     -10.881  11.388  66.745  1.00  0.00    -0.286 C  
HETATM   13  O   UNL     1     -10.353  10.772  65.824  1.00  0.00    -0.251 OA 
BRANCH  12  14
HETATM   14  C   UNL     1     -10.415  11.305  68.212  1.00  0.00    -0.220 C  
HETATM   15  C   UNL     1      -8.870  11.372  68.359  1.00  0.00    -0.167 C  
HETATM   16  C   UNL     1     -10.697   9.847  68.666  1.00  0.00    -0.256 C  
HETATM   17  C   UNL     1      -9.719   9.581  69.795  1.00  0.00    -0.234 C  
HETATM   18  C   UNL     1      -8.448  10.280  69.351  1.00  0.00    -0.170 C  
BRANCH  14  19
HETATM   19  C   UNL     1     -11.098  12.414  69.036  1.00  0.00    -0.288 A  
HETATM   20  C   UNL     1     -11.461  14.751  69.648  1.00  0.00    -0.327 A  
HETATM   21  C   UNL     1     -12.355  14.376  70.645  1.00  0.00    -0.422 A  
HETATM   22  C   UNL     1     -10.837  13.781  68.856  1.00  0.00    -0.268 A  
HETATM   23  C   UNL     1     -12.635  13.031  70.843  1.00  0.00    -0.364 A  
HETATM   24  C   UNL     1     -12.021  12.062  70.042  1.00  0.00    -0.400 A  
ENDBRANCH  14  19
ENDBRANCH  12  14
ENDBRANCH  11  12
ENDBRANCH  10  11
ENDBRANCH   9  10
ENDBRANCH   8   9
ENDBRANCH   7   8
ENDBRANCH   6   7
ENDBRANCH   3   6
ENDBRANCH   2   3
TORSDOF 11
ENDMDL
MODEL       92
REMARK 921   NORMALIZED FREE ENERGY PREDICTED BY IDOCK:   -4.88 KCAL/MOL
REMARK 922        TOTAL FREE ENERGY PREDICTED BY IDOCK:   -8.84 KCAL/MOL
REMARK 923 INTER-LIGAND FREE ENERGY PREDICTED BY IDOCK:   -7.93 KCAL/MOL
REMARK 924 INTRA-LIGAND FREE ENERGY PREDICTED BY IDOCK:   -0.90 KCAL/MOL
REMARK 927      BINDING AFFINITY PREDICTED BY RF-SCORE:    0.00 PKD
ROOT
HETATM    1  C   UNL     1      -9.354  19.473  66.558  1.00  0.00    -0.437 C  
HETATM    2  C   UNL     1     -10.510  18.501  66.333  1.00  0.00    -0.406 C  
ENDROOT
BRANCH   2   3
HETATM    3  N   UNL     1     -10.139  17.075  66.413  1.00  0.00    -0.306 NA 
BRANCH   3   4
HETATM    4  C   UNL     1      -8.702  16.824  66.226  1.00  0.00    -0.307 C  
HETATM    5  C   UNL     1      -8.124  15.623  66.964  1.00  0.00    -0.276 C  
ENDBRANCH   3   4
BRANCH   3   6
HETATM    6  C   UNL     1     -10.691  16.488  67.655  1.00  0.00    -0.311 C  
BRANCH   6   7
HETATM    7  C   UNL     1     -11.656  15.310  67.447  1.00  0.00    -0.188 C  
BRANCH   7   8
HETATM    8  O   UNL     1     -11.589  14.854  66.088  1.00  0.00    -0.324 OA 
BRANCH   8   9
HETATM    9  C   UNL     1     -12.630  13.910  65.826  1.00  0.00    -0.494 C  
BRANCH   9  10
HETATM   10  C   UNL     1     -12.046  12.513  65.626  1.00  0.00    -0.400 C  
BRANCH  10  11
HETATM   11  O   UNL     1     -11.945  11.803  66.875  1.00  0.00    -0.605 OA 
BRANCH  11  12
HETATM   12  C   UNL     1     -10.692  11.746  67.415  1.00  0.00    -0.236 C  
HETATM   13  O   UNL     1      -9.744  12.406  67.001  1.00  0.00    -0.203 OA 
BRANCH  12  14
HETATM   14  C   UNL     1     -10.586  10.710  68.551  1.00  0.00    -0.229 C  
HETATM   15  C   UNL     1      -9.123  10.469  69.013  1.00  0.00    -0.188 C  
HETATM   16  C   UNL     1     -10.928   9.338  67.910  1.00  0.00    -0.076 C  
HETATM   17  C   UNL     1     -10.240   8.304  68.781  1.00  0.00    -0.226 C  
HETATM   18  C   UNL     1      -8.919   8.954  69.146  1.00  0.00    -0.140 C  
BRANCH  14  19
HETATM   19  C   UNL     1     -11.474  11.145  69.733  1.00  0.00    -0.388 A  
HETATM   20  C   UNL     1     -12.912  10.679  71.653  1.00  0.00    -0.582 A  
HETATM   21  C   UNL     1     -13.144  12.038  71.839  1.00  0.00    -0.475 A  
HETATM   22  C   UNL     1     -12.090  10.238  70.611  1.00  0.00    -0.433 A  
HETATM   23  C   UNL     1     -12.545  12.957  70.989  1.00  0.00    -0.376 A  
HETATM   24  C   UNL     1     -11.713  12.517  69.954  1.00  0.00    -0.327 A  
ENDBRANCH  14  19
ENDBRANCH  12  14
ENDBRANCH  11  12
ENDBRANCH  10  11
ENDBRANCH   9  10
ENDBRANCH   8   9
ENDBRANCH   7   8
ENDBRANCH   6   7
ENDBRANCH   3   6
ENDBRANCH   2   3
TORSDOF 11
ENDMDL
MODEL       93
REMARK 921   NORMALIZED FREE ENERGY PREDICTED BY IDOCK:   -4.87 KCAL/MOL
REMARK 922        TOTAL FREE ENERGY PREDICTED BY IDOCK:   -8.82 KCAL/MOL
REMARK 923 INTER-LIGAND FREE ENERGY PREDICTED BY IDOCK:   -7.64 KCAL/MOL
REMARK 924 INTRA-LIGAND FREE ENERGY PREDICTED BY IDOCK:   -1.18 KCAL/MOL
REMARK 927      BINDING AFFINITY PREDICTED BY RF-SCORE:    0.00 PKD
ROOT
HETATM    1  C   UNL     1      -9.809  20.062  67.435  1.00  0.00    -0.558 C  
HETATM    2  C   UNL     1     -10.759  18.866  67.432  1.00  0.00    -0.444 C  
ENDROOT
BRANCH   2   3
HETATM    3  N   UNL     1     -10.091  17.551  67.408  1.00  0.00    -0.313 NA 
BRANCH   3   4
HETATM    4  C   UNL     1      -8.626  17.627  67.507  1.00  0.00    -0.222 C  
HETATM    5  C   UNL     1      -7.846  16.463  66.906  1.00  0.00    -0.273 C  
ENDBRANCH   3   4
BRANCH   3   6
HETATM    6  C   UNL     1     -10.713  16.661  68.416  1.00  0.00    -0.353 C  
BRANCH   6   7
HETATM    7  C   UNL     1     -11.205  15.309  67.877  1.00  0.00    -0.331 C  
BRANCH   7   8
HETATM    8  O   UNL     1     -11.058  15.265  66.451  1.00  0.00    -0.329 OA 
BRANCH   8   9
HETATM    9  C   UNL     1     -10.816  13.925  66.014  1.00  0.00    -0.290 C  
BRANCH   9  10
HETATM   10  C   UNL     1     -11.977  13.017  66.411  1.00  0.00    -0.402 C  
BRANCH  10  11
HETATM   11  O   UNL     1     -11.596  11.629  66.367  1.00  0.00    -0.447 OA 
BRANCH  11  12
HETATM   12  C   UNL     1     -11.413  11.034  67.581  1.00  0.00    -0.224 C  
HETATM   13  O   UNL     1     -12.181  11.174  68.528  1.00  0.00    -0.600 OA 
BRANCH  12  14
HETATM   14  C   UNL     1     -10.101  10.229  67.653  1.00  0.00    -0.229 C  
HETATM   15  C   UNL     1      -9.048  10.873  68.597  1.00  0.00    -0.175 C  
HETATM   16  C   UNL     1      -9.414  10.409  66.272  1.00  0.00    -0.215 C  
HETATM   17  C   UNL     1      -7.935  10.194  66.526  1.00  0.00    -0.118 C  
HETATM   18  C   UNL     1      -7.696  10.849  67.873  1.00  0.00    -0.104 C  
BRANCH  14  19
HETATM   19  C   UNL     1     -10.406   8.778  68.072  1.00  0.00    -0.273 A  
HETATM   20  C   UNL     1     -10.901   6.436  67.582  1.00  0.00    -0.425 A  
HETATM   21  C   UNL     1     -11.027   6.154  68.938  1.00  0.00    -0.424 A  
HETATM   22  C   UNL     1     -10.598   7.733  67.155  1.00  0.00    -0.401 A  
HETATM   23  C   UNL     1     -10.838   7.167  69.869  1.00  0.00    -0.276 A  
HETATM   24  C   UNL     1     -10.522   8.461  69.441  1.00  0.00    -0.222 A  
ENDBRANCH  14  19
ENDBRANCH  12  14
ENDBRANCH  11  12
ENDBRANCH  10  11
ENDBRANCH   9  10
ENDBRANCH   8   9
ENDBRANCH   7   8
ENDBRANCH   6   7
ENDBRANCH   3   6
ENDBRANCH   2   3
TORSDOF 11
ENDMDL
MODEL       94
REMARK 921   NORMALIZED FREE ENERGY PREDICTED BY IDOCK:   -4.86 KCAL/MOL
REMARK 922        TOTAL FREE ENERGY PREDICTED BY IDOCK:   -8.80 KCAL/MOL
REMARK 923 INTER-LIGAND FREE ENERGY PREDICTED BY IDOCK:   -7.48 KCAL/MOL
REMARK 924 INTRA-LIGAND FREE ENERGY PREDICTED BY IDOCK:   -1.32 KCAL/MOL
REMARK 927      BINDING AFFINITY PREDICTED BY RF-SCORE:    0.00 PKD
ROOT
HETATM    1  C   UNL     1     -12.467  14.092  65.252  1.00  0.00    -0.495 C  
HETATM    2  C   UNL     1     -11.427  13.249  65.986  1.00  0.00    -0.330 C  
ENDROOT
BRANCH   2   3
HETATM    3  N   UNL     1     -10.684  13.968  67.038  1.00  0.00    -0.283 NA 
BRANCH   3   4
HETATM    4  C   UNL     1     -10.737  15.433  66.907  1.00  0.00    -0.314 C  
HETATM    5  C   UNL     1      -9.457  16.117  66.445  1.00  0.00    -0.323 C  
ENDBRANCH   3   4
BRANCH   3   6
HETATM    6  C   UNL     1     -11.104  13.472  68.369  1.00  0.00    -0.271 C  
BRANCH   6   7
HETATM    7  C   UNL     1     -10.900  11.966  68.597  1.00  0.00    -0.235 C  
BRANCH   7   8
HETATM    8  O   UNL     1     -12.043  11.410  69.263  1.00  0.00    -0.325 OA 
BRANCH   8   9
HETATM    9  C   UNL     1     -12.215  12.011  70.549  1.00  0.00    -0.325 C  
BRANCH   9  10
HETATM   10  C   UNL     1     -13.111  11.143  71.428  1.00  0.00    -0.321 C  
BRANCH  10  11
HETATM   11  O   UNL     1     -13.039   9.757  71.044  1.00  0.00    -0.348 OA 
BRANCH  11  12
HETATM   12  C   UNL     1     -12.564   8.908  72.001  1.00  0.00    -0.394 C  
HETATM   13  O   UNL     1     -13.120   8.723  73.080  1.00  0.00    -0.292 OA 
BRANCH  12  14
HETATM   14  C   UNL     1     -11.219   8.268  71.608  1.00  0.00    -0.330 C  
HETATM   15  C   UNL     1     -10.050   9.290  71.574  1.00  0.00    -0.306 C  
HETATM   16  C   UNL     1     -11.343   7.905  70.103  1.00  0.00    -0.099 C  
HETATM   17  C   UNL     1      -9.922   7.885  69.575  1.00  0.00    -0.189 C  
HETATM   18  C   UNL     1      -9.250   9.042  70.289  1.00  0.00    -0.229 C  
BRANCH  14  19
HETATM   19  C   UNL     1     -10.903   7.098  72.561  1.00  0.00    -0.299 A  
HETATM   20  C   UNL     1     -11.192   4.804  73.350  1.00  0.00    -0.425 A  
HETATM   21  C   UNL     1     -10.310   5.030  74.402  1.00  0.00    -0.321 A  
HETATM   22  C   UNL     1     -11.488   5.827  72.444  1.00  0.00    -0.343 A  
HETATM   23  C   UNL     1      -9.713   6.276  74.540  1.00  0.00    -0.309 A  
HETATM   24  C   UNL     1     -10.000   7.295  73.625  1.00  0.00    -0.377 A  
ENDBRANCH  14  19
ENDBRANCH  12  14
ENDBRANCH  11  12
ENDBRANCH  10  11
ENDBRANCH   9  10
ENDBRANCH   8   9
ENDBRANCH   7   8
ENDBRANCH   6   7
ENDBRANCH   3   6
ENDBRANCH   2   3
TORSDOF 11
ENDMDL
MODEL       95
REMARK 921   NORMALIZED FREE ENERGY PREDICTED BY IDOCK:   -4.86 KCAL/MOL
REMARK 922        TOTAL FREE ENERGY PREDICTED BY IDOCK:   -8.80 KCAL/MOL
REMARK 923 INTER-LIGAND FREE ENERGY PREDICTED BY IDOCK:   -7.43 KCAL/MOL
REMARK 924 INTRA-LIGAND FREE ENERGY PREDICTED BY IDOCK:   -1.36 KCAL/MOL
REMARK 927      BINDING AFFINITY PREDICTED BY RF-SCORE:    0.00 PKD
ROOT
HETATM    1  C   UNL     1     -12.908  10.723  71.482  1.00  0.00    -0.567 C  
HETATM    2  C   UNL     1     -12.391   9.302  71.702  1.00  0.00    -0.372 C  
ENDROOT
BRANCH   2   3
HETATM    3  N   UNL     1     -11.008   9.075  71.244  1.00  0.00    -0.285 NA 
BRANCH   3   4
HETATM    4  C   UNL     1     -10.120   8.530  72.283  1.00  0.00    -0.316 C  
HETATM    5  C   UNL     1     -10.709   7.441  73.172  1.00  0.00    -0.436 C  
ENDBRANCH   3   4
BRANCH   3   6
HETATM    6  C   UNL     1     -11.023   8.280  69.995  1.00  0.00    -0.197 C  
BRANCH   6   7
HETATM    7  C   UNL     1      -9.667   8.157  69.283  1.00  0.00    -0.170 C  
BRANCH   7   8
HETATM    8  O   UNL     1      -9.861   7.753  67.920  1.00  0.00    -0.149 OA 
BRANCH   8   9
HETATM    9  C   UNL     1     -10.431   8.819  67.158  1.00  0.00    -0.283 C  
BRANCH   9  10
HETATM   10  C   UNL     1      -9.483  10.015  67.122  1.00  0.00    -0.155 C  
BRANCH  10  11
HETATM   11  O   UNL     1     -10.117  11.204  67.631  1.00  0.00    -0.175 OA 
BRANCH  11  12
HETATM   12  C   UNL     1      -9.599  12.383  67.177  1.00  0.00    -0.206 C  
HETATM   13  O   UNL     1      -8.395  12.593  67.058  1.00  0.00    -0.178 OA 
BRANCH  12  14
HETATM   14  C   UNL     1     -10.686  13.439  66.903  1.00  0.00    -0.274 C  
HETATM   15  C   UNL     1     -11.974  12.833  66.281  1.00  0.00    -0.460 C  
HETATM   16  C   UNL     1     -10.158  14.298  65.723  1.00  0.00    -0.356 C  
HETATM   17  C   UNL     1     -11.394  14.871  65.057  1.00  0.00    -0.398 C  
HETATM   18  C   UNL     1     -12.402  13.739  65.119  1.00  0.00    -0.476 C  
BRANCH  14  19
HETATM   19  C   UNL     1     -11.006  14.202  68.203  1.00  0.00    -0.264 A  
HETATM   20  C   UNL     1     -12.251  14.521  70.281  1.00  0.00    -0.391 A  
HETATM   21  C   UNL     1     -11.571  15.708  70.535  1.00  0.00    -0.383 A  
HETATM   22  C   UNL     1     -11.975  13.780  69.128  1.00  0.00    -0.403 A  
HETATM   23  C   UNL     1     -10.605  16.148  69.640  1.00  0.00    -0.311 A  
HETATM   24  C   UNL     1     -10.319  15.399  68.493  1.00  0.00    -0.226 A  
ENDBRANCH  14  19
ENDBRANCH  12  14
ENDBRANCH  11  12
ENDBRANCH  10  11
ENDBRANCH   9  10
ENDBRANCH   8   9
ENDBRANCH   7   8
ENDBRANCH   6   7
ENDBRANCH   3   6
ENDBRANCH   2   3
TORSDOF 11
ENDMDL
MODEL       96
REMARK 921   NORMALIZED FREE ENERGY PREDICTED BY IDOCK:   -4.85 KCAL/MOL
REMARK 922        TOTAL FREE ENERGY PREDICTED BY IDOCK:   -8.79 KCAL/MOL
REMARK 923 INTER-LIGAND FREE ENERGY PREDICTED BY IDOCK:   -7.40 KCAL/MOL
REMARK 924 INTRA-LIGAND FREE ENERGY PREDICTED BY IDOCK:   -1.39 KCAL/MOL
REMARK 927      BINDING AFFINITY PREDICTED BY RF-SCORE:    0.00 PKD
ROOT
HETATM    1  C   UNL     1      -9.720   5.456  68.835  1.00  0.00    -0.205 C  
HETATM    2  C   UNL     1     -10.792   5.744  69.884  1.00  0.00    -0.347 C  
ENDROOT
BRANCH   2   3
HETATM    3  N   UNL     1     -10.655   7.048  70.560  1.00  0.00    -0.219 NA 
BRANCH   3   4
HETATM    4  C   UNL     1      -9.786   7.997  69.849  1.00  0.00    -0.180 C  
HETATM    5  C   UNL     1      -9.156   9.100  70.693  1.00  0.00    -0.307 C  
ENDBRANCH   3   4
BRANCH   3   6
HETATM    6  C   UNL     1     -11.999   7.587  70.873  1.00  0.00    -0.251 C  
BRANCH   6   7
HETATM    7  C   UNL     1     -12.152   8.178  72.283  1.00  0.00    -0.364 C  
BRANCH   7   8
HETATM    8  O   UNL     1     -12.449   9.580  72.199  1.00  0.00    -0.357 OA 
BRANCH   8   9
HETATM    9  C   UNL     1     -12.759   9.945  70.853  1.00  0.00    -0.290 C  
BRANCH   9  10
HETATM   10  C   UNL     1     -12.255  11.355  70.554  1.00  0.00    -0.386 C  
BRANCH  10  11
HETATM   11  O   UNL     1     -11.917  11.507  69.162  1.00  0.00    -0.321 OA 
BRANCH  11  12
HETATM   12  C   UNL     1     -11.626  12.781  68.766  1.00  0.00    -0.312 C  
HETATM   13  O   UNL     1     -12.272  13.764  69.117  1.00  0.00    -0.344 OA 
BRANCH  12  14
HETATM   14  C   UNL     1     -10.446  12.837  67.778  1.00  0.00    -0.228 C  
HETATM   15  C   UNL     1      -9.309  11.841  68.138  1.00  0.00    -0.190 C  
HETATM   16  C   UNL     1      -9.743  14.198  68.030  1.00  0.00    -0.226 C  
HETATM   17  C   UNL     1      -8.310  14.003  67.573  1.00  0.00    -0.200 C  
HETATM   18  C   UNL     1      -7.976  12.590  68.011  1.00  0.00    -0.153 C  
BRANCH  14  19
HETATM   19  C   UNL     1     -10.958  12.596  66.344  1.00  0.00    -0.304 A  
HETATM   20  C   UNL     1     -10.984  11.382  64.225  1.00  0.00    -0.390 A  
HETATM   21  C   UNL     1     -11.912  12.274  63.697  1.00  0.00    -0.633 A  
HETATM   22  C   UNL     1     -10.510  11.544  65.530  1.00  0.00    -0.327 A  
HETATM   23  C   UNL     1     -12.376  13.322  64.481  1.00  0.00    -0.428 A  
HETATM   24  C   UNL     1     -11.912  13.476  65.792  1.00  0.00    -0.439 A  
ENDBRANCH  14  19
ENDBRANCH  12  14
ENDBRANCH  11  12
ENDBRANCH  10  11
ENDBRANCH   9  10
ENDBRANCH   8   9
ENDBRANCH   7   8
ENDBRANCH   6   7
ENDBRANCH   3   6
ENDBRANCH   2   3
TORSDOF 11
ENDMDL
MODEL       97
REMARK 921   NORMALIZED FREE ENERGY PREDICTED BY IDOCK:   -4.85 KCAL/MOL
REMARK 922        TOTAL FREE ENERGY PREDICTED BY IDOCK:   -8.78 KCAL/MOL
REMARK 923 INTER-LIGAND FREE ENERGY PREDICTED BY IDOCK:   -7.34 KCAL/MOL
REMARK 924 INTRA-LIGAND FREE ENERGY PREDICTED BY IDOCK:   -1.44 KCAL/MOL
REMARK 927      BINDING AFFINITY PREDICTED BY RF-SCORE:    0.00 PKD
ROOT
HETATM    1  C   UNL     1     -10.413  19.525  67.264  1.00  0.00    -0.590 C  
HETATM    2  C   UNL     1     -10.507  18.722  65.968  1.00  0.00    -0.432 C  
ENDROOT
BRANCH   2   3
HETATM    3  N   UNL     1      -9.579  17.578  65.886  1.00  0.00    -0.532 NA 
BRANCH   3   4
HETATM    4  C   UNL     1      -8.265  17.833  66.495  1.00  0.00    -0.269 C  
HETATM    5  C   UNL     1      -7.767  16.791  67.489  1.00  0.00    -0.188 C  
ENDBRANCH   3   4
BRANCH   3   6
HETATM    6  C   UNL     1     -10.248  16.360  66.397  1.00  0.00    -0.316 C  
BRANCH   6   7
HETATM    7  C   UNL     1     -10.467  15.250  65.357  1.00  0.00    -0.398 C  
BRANCH   7   8
HETATM    8  O   UNL     1     -11.797  14.723  65.471  1.00  0.00    -0.324 OA 
BRANCH   8   9
HETATM    9  C   UNL     1     -12.200  14.113  64.243  1.00  0.00    -0.420 C  
BRANCH   9  10
HETATM   10  C   UNL     1     -12.566  12.649  64.469  1.00  0.00    -0.412 C  
BRANCH  10  11
HETATM   11  O   UNL     1     -11.816  12.083  65.561  1.00  0.00    -0.386 OA 
BRANCH  11  12
HETATM   12  C   UNL     1     -10.661  11.447  65.209  1.00  0.00    -0.277 C  
HETATM   13  O   UNL     1     -10.217  11.431  64.065  1.00  0.00    -0.282 OA 
BRANCH  12  14
HETATM   14  C   UNL     1     -10.018  10.694  66.389  1.00  0.00    -0.273 C  
HETATM   15  C   UNL     1      -9.890   9.167  66.133  1.00  0.00    -0.363 C  
HETATM   16  C   UNL     1     -11.067  10.718  67.533  1.00  0.00    -0.374 C  
HETATM   17  C   UNL     1     -10.750   9.513  68.398  1.00  0.00    -0.230 C  
HETATM   18  C   UNL     1     -10.359   8.440  67.400  1.00  0.00    -0.355 C  
BRANCH  14  19
HETATM   19  C   UNL     1      -8.647  11.317  66.717  1.00  0.00    -0.159 A  
HETATM   20  C   UNL     1      -7.229  13.105  67.588  1.00  0.00    -0.160 A  
HETATM   21  C   UNL     1      -6.082  12.409  67.218  1.00  0.00    -0.143 A  
HETATM   22  C   UNL     1      -8.495  12.567  67.336  1.00  0.00    -0.181 A  
HETATM   23  C   UNL     1      -6.203  11.168  66.608  1.00  0.00    -0.136 A  
HETATM   24  C   UNL     1      -7.469  10.624  66.368  1.00  0.00    -0.138 A  
ENDBRANCH  14  19
ENDBRANCH  12  14
ENDBRANCH  11  12
ENDBRANCH  10  11
ENDBRANCH   9  10
ENDBRANCH   8   9
ENDBRANCH   7   8
ENDBRANCH   6   7
ENDBRANCH   3   6
ENDBRANCH   2   3
TORSDOF 11
ENDMDL
MODEL       98
REMARK 921   NORMALIZED FREE ENERGY PREDICTED BY IDOCK:   -4.83 KCAL/MOL
REMARK 922        TOTAL FREE ENERGY PREDICTED BY IDOCK:   -8.76 KCAL/MOL
REMARK 923 INTER-LIGAND FREE ENERGY PREDICTED BY IDOCK:   -7.77 KCAL/MOL
REMARK 924 INTRA-LIGAND FREE ENERGY PREDICTED BY IDOCK:   -0.99 KCAL/MOL
REMARK 927      BINDING AFFINITY PREDICTED BY RF-SCORE:    0.00 PKD
ROOT
HETATM    1  C   UNL     1     -14.084   8.856  72.260  1.00  0.00    -0.512 C  
HETATM    2  C   UNL     1     -12.861   8.236  71.588  1.00  0.00    -0.329 C  
ENDROOT
BRANCH   2   3
HETATM    3  N   UNL     1     -11.579   8.521  72.261  1.00  0.00    -0.373 NA 
BRANCH   3   4
HETATM    4  C   UNL     1     -11.030   7.375  73.002  1.00  0.00    -0.374 C  
HETATM    5  C   UNL     1      -9.614   7.536  73.542  1.00  0.00    -0.339 C  
ENDBRANCH   3   4
BRANCH   3   6
HETATM    6  C   UNL     1     -10.632   9.116  71.291  1.00  0.00    -0.329 C  
BRANCH   6   7
HETATM    7  C   UNL     1     -11.262   9.599  69.975  1.00  0.00    -0.231 C  
BRANCH   7   8
HETATM    8  O   UNL     1     -10.405   9.276  68.871  1.00  0.00    -0.204 OA 
BRANCH   8   9
HETATM    9  C   UNL     1     -10.705  10.105  67.745  1.00  0.00    -0.277 C  
BRANCH   9  10
HETATM   10  C   UNL     1      -9.419  10.629  67.111  1.00  0.00    -0.156 C  
BRANCH  10  11
HETATM   11  O   UNL     1      -9.675  11.776  66.278  1.00  0.00    -0.210 OA 
BRANCH  11  12
HETATM   12  C   UNL     1      -9.549  12.986  66.897  1.00  0.00    -0.243 C  
HETATM   13  O   UNL     1      -8.772  13.197  67.823  1.00  0.00    -0.165 OA 
BRANCH  12  14
HETATM   14  C   UNL     1     -10.540  14.033  66.353  1.00  0.00    -0.280 C  
HETATM   15  C   UNL     1     -12.010  13.744  66.765  1.00  0.00    -0.465 C  
HETATM   16  C   UNL     1     -10.607  13.801  64.820  1.00  0.00    -0.444 C  
HETATM   17  C   UNL     1     -11.961  14.333  64.390  1.00  0.00    -0.476 C  
HETATM   18  C   UNL     1     -12.888  13.930  65.521  1.00  0.00    -0.471 C  
BRANCH  14  19
HETATM   19  C   UNL     1     -10.106  15.441  66.805  1.00  0.00    -0.266 A  
HETATM   20  C   UNL     1     -10.384  17.478  68.126  1.00  0.00    -0.375 A  
HETATM   21  C   UNL     1      -9.268  18.050  67.523  1.00  0.00    -0.253 A  
HETATM   22  C   UNL     1     -10.800  16.192  67.768  1.00  0.00    -0.318 A  
HETATM   23  C   UNL     1      -8.560  17.329  66.570  1.00  0.00    -0.298 A  
HETATM   24  C   UNL     1      -8.969  16.037  66.222  1.00  0.00    -0.380 A  
ENDBRANCH  14  19
ENDBRANCH  12  14
ENDBRANCH  11  12
ENDBRANCH  10  11
ENDBRANCH   9  10
ENDBRANCH   8   9
ENDBRANCH   7   8
ENDBRANCH   6   7
ENDBRANCH   3   6
ENDBRANCH   2   3
TORSDOF 11
ENDMDL
MODEL       99
REMARK 921   NORMALIZED FREE ENERGY PREDICTED BY IDOCK:   -4.80 KCAL/MOL
REMARK 922        TOTAL FREE ENERGY PREDICTED BY IDOCK:   -8.71 KCAL/MOL
REMARK 923 INTER-LIGAND FREE ENERGY PREDICTED BY IDOCK:   -7.49 KCAL/MOL
REMARK 924 INTRA-LIGAND FREE ENERGY PREDICTED BY IDOCK:   -1.22 KCAL/MOL
REMARK 927      BINDING AFFINITY PREDICTED BY RF-SCORE:    0.00 PKD
ROOT
HETATM    1  C   UNL     1     -10.929   9.511  71.064  1.00  0.00    -0.424 C  
HETATM    2  C   UNL     1     -12.027   9.657  70.013  1.00  0.00     0.120 C  
ENDROOT
BRANCH   2   3
HETATM    3  N   UNL     1     -12.186  11.022  69.477  1.00  0.00    -0.327 NA 
BRANCH   3   4
HETATM    4  C   UNL     1     -12.101  12.076  70.499  1.00  0.00    -0.311 C  
HETATM    5  C   UNL     1     -13.205  12.090  71.549  1.00  0.00    -0.276 C  
ENDBRANCH   3   4
BRANCH   3   6
HETATM    6  C   UNL     1     -11.262  11.218  68.337  1.00  0.00    -0.262 C  
BRANCH   6   7
HETATM    7  C   UNL     1     -11.588  12.415  67.431  1.00  0.00    -0.365 C  
BRANCH   7   8
HETATM    8  O   UNL     1     -10.381  12.955  66.874  1.00  0.00    -0.240 OA 
BRANCH   8   9
HETATM    9  C   UNL     1     -10.405  12.865  65.447  1.00  0.00    -0.296 C  
BRANCH   9  10
HETATM   10  C   UNL     1     -10.675  14.236  64.831  1.00  0.00    -0.432 C  
BRANCH  10  11
HETATM   11  O   UNL     1      -9.827  15.247  65.408  1.00  0.00    -0.332 OA 
BRANCH  11  12
HETATM   12  C   UNL     1     -10.314  16.521  65.351  1.00  0.00    -0.221 C  
HETATM   13  O   UNL     1     -10.977  16.952  64.412  1.00  0.00    -1.016 OA 
BRANCH  12  14
HETATM   14  C   UNL     1      -9.878  17.375  66.557  1.00  0.00    -0.310 C  
HETATM   15  C   UNL     1     -10.492  18.802  66.539  1.00  0.00    -0.484 C  
HETATM   16  C   UNL     1      -8.375  17.692  66.334  1.00  0.00    -0.288 C  
HETATM   17  C   UNL     1      -8.116  18.976  67.100  1.00  0.00    -0.280 C  
HETATM   18  C   UNL     1      -9.372  19.795  66.875  1.00  0.00    -0.469 C  
BRANCH  14  19
HETATM   19  C   UNL     1     -10.227  16.639  67.865  1.00  0.00    -0.284 A  
HETATM   20  C   UNL     1      -9.625  15.419  69.895  1.00  0.00    -0.109 A  
HETATM   21  C   UNL     1     -10.967  15.244  70.217  1.00  0.00    -0.313 A  
HETATM   22  C   UNL     1      -9.260  16.104  68.732  1.00  0.00    -0.224 A  
HETATM   23  C   UNL     1     -11.945  15.766  69.380  1.00  0.00    -0.321 A  
HETATM   24  C   UNL     1     -11.579  16.463  68.223  1.00  0.00    -0.030 A  
ENDBRANCH  14  19
ENDBRANCH  12  14
ENDBRANCH  11  12
ENDBRANCH  10  11
ENDBRANCH   9  10
ENDBRANCH   8   9
ENDBRANCH   7   8
ENDBRANCH   6   7
ENDBRANCH   3   6
ENDBRANCH   2   3
TORSDOF 11
ENDMDL
MODEL      100
REMARK 921   NORMALIZED FREE ENERGY PREDICTED BY IDOCK:   -4.80 KCAL/MOL
REMARK 922        TOTAL FREE ENERGY PREDICTED BY IDOCK:   -8.70 KCAL/MOL
REMARK 923 INTER-LIGAND FREE ENERGY PREDICTED BY IDOCK:   -7.56 KCAL/MOL
REMARK 924 INTRA-LIGAND FREE ENERGY PREDICTED BY IDOCK:   -1.14 KCAL/MOL
REMARK 927      BINDING AFFINITY PREDICTED BY RF-SCORE:    0.00 PKD
ROOT
HETATM    1  C   UNL     1     -12.242  14.792  64.370  1.00  0.00    -0.447 C  
HETATM    2  C   UNL     1     -11.022  13.900  64.586  1.00  0.00    -0.398 C  
ENDROOT
BRANCH   2   3
HETATM    3  N   UNL     1     -11.327  12.560  65.124  1.00  0.00    -0.303 NA 
BRANCH   3   4
HETATM    4  C   UNL     1     -11.096  11.468  64.167  1.00  0.00    -0.344 C  
HETATM    5  C   UNL     1      -9.959  11.671  63.171  1.00  0.00    -0.400 C  
ENDBRANCH   3   4
BRANCH   3   6
HETATM    6  C   UNL     1     -10.634  12.377  66.420  1.00  0.00    -0.244 C  
BRANCH   6   7
HETATM    7  C   UNL     1     -11.135  13.275  67.561  1.00  0.00    -0.270 C  
BRANCH   7   8
HETATM    8  O   UNL     1     -10.059  14.080  68.063  1.00  0.00    -0.227 OA 
BRANCH   8   9
HETATM    9  C   UNL     1      -8.818  13.675  67.481  1.00  0.00    -0.205 C  
BRANCH   9  10
HETATM   10  C   UNL     1      -7.874  14.868  67.354  1.00  0.00    -0.199 C  
BRANCH  10  11
HETATM   11  O   UNL     1      -8.596  16.114  67.376  1.00  0.00    -0.173 OA 
BRANCH  11  12
HETATM   12  C   UNL     1      -7.933  17.183  66.847  1.00  0.00    -0.217 C  
HETATM   13  O   UNL     1      -6.972  17.079  66.091  1.00  0.00    -0.220 OA 
BRANCH  12  14
HETATM   14  C   UNL     1      -8.479  18.530  67.361  1.00  0.00    -0.265 C  
HETATM   15  C   UNL     1      -9.673  18.362  68.340  1.00  0.00    -0.379 C  
HETATM   16  C   UNL     1      -9.178  19.197  66.147  1.00  0.00    -0.250 C  
HETATM   17  C   UNL     1     -10.210  20.136  66.742  1.00  0.00    -0.562 C  
HETATM   18  C   UNL     1     -10.754  19.373  67.934  1.00  0.00    -0.427 C  
BRANCH  14  19
HETATM   19  C   UNL     1      -7.339  19.336  68.012  1.00  0.00    -0.297 A  
HETATM   20  C   UNL     1      -5.775  19.803  69.830  1.00  0.00    -0.304 A  
HETATM   21  C   UNL     1      -5.288  20.919  69.157  1.00  0.00    -0.397 A  
HETATM   22  C   UNL     1      -6.790  19.024  69.266  1.00  0.00    -0.318 A  
HETATM   23  C   UNL     1      -5.808  21.249  67.913  1.00  0.00    -0.395 A  
HETATM   24  C   UNL     1      -6.815  20.462  67.343  1.00  0.00    -0.322 A  
ENDBRANCH  14  19
ENDBRANCH  12  14
ENDBRANCH  11  12
ENDBRANCH  10  11
ENDBRANCH   9  10
ENDBRANCH   8   9
ENDBRANCH   7   8
ENDBRANCH   6   7
ENDBRANCH   3   6
ENDBRANCH   2   3
TORSDOF 11
ENDMDL
MODEL      101
REMARK 921   NORMALIZED FREE ENERGY PREDICTED BY IDOCK:   -4.79 KCAL/MOL
REMARK 922        TOTAL FREE ENERGY PREDICTED BY IDOCK:   -8.69 KCAL/MOL
REMARK 923 INTER-LIGAND FREE ENERGY PREDICTED BY IDOCK:   -7.53 KCAL/MOL
REMARK 924 INTRA-LIGAND FREE ENERGY PREDICTED BY IDOCK:   -1.16 KCAL/MOL
REMARK 927      BINDING AFFINITY PREDICTED BY RF-SCORE:    0.00 PKD
ROOT
HETATM    1  C   UNL     1     -13.527   9.101  72.219  1.00  0.00    -0.546 C  
HETATM    2  C   UNL     1     -12.050   9.032  71.834  1.00  0.00    -0.378 C  
ENDROOT
BRANCH   2   3
HETATM    3  N   UNL     1     -11.580  10.153  71.000  1.00  0.00    -0.372 NA 
BRANCH   3   4
HETATM    4  C   UNL     1     -11.077   9.742  69.680  1.00  0.00    -0.217 C  
HETATM    5  C   UNL     1      -9.613  10.048  69.388  1.00  0.00    -0.237 C  
ENDBRANCH   3   4
BRANCH   3   6
HETATM    6  C   UNL     1     -12.625  11.200  70.941  1.00  0.00    -0.386 C  
BRANCH   6   7
HETATM    7  C   UNL     1     -12.140  12.582  70.474  1.00  0.00    -0.274 C  
BRANCH   7   8
HETATM    8  O   UNL     1     -12.949  13.612  71.060  1.00  0.00    -0.297 OA 
BRANCH   8   9
HETATM    9  C   UNL     1     -12.126  14.632  71.630  1.00  0.00    -0.335 C  
BRANCH   9  10
HETATM   10  C   UNL     1     -12.088  15.857  70.719  1.00  0.00    -0.355 C  
BRANCH  10  11
HETATM   11  O   UNL     1     -11.656  15.510  69.390  1.00  0.00    -0.308 OA 
BRANCH  11  12
HETATM   12  C   UNL     1     -10.753  16.365  68.827  1.00  0.00    -0.321 C  
HETATM   13  O   UNL     1     -10.725  17.570  69.059  1.00  0.00    -0.232 OA 
BRANCH  12  14
HETATM   14  C   UNL     1      -9.824  15.663  67.818  1.00  0.00    -0.220 C  
HETATM   15  C   UNL     1      -8.512  15.142  68.466  1.00  0.00    -0.160 C  
HETATM   16  C   UNL     1      -9.277  16.783  66.892  1.00  0.00    -0.249 C  
HETATM   17  C   UNL     1      -7.959  16.256  66.358  1.00  0.00    -0.299 C  
HETATM   18  C   UNL     1      -7.350  15.528  67.541  1.00  0.00    -0.216 C  
BRANCH  14  19
HETATM   19  C   UNL     1     -10.588  14.521  67.119  1.00  0.00    -0.274 A  
HETATM   20  C   UNL     1     -10.992  12.161  66.632  1.00  0.00    -0.325 A  
HETATM   21  C   UNL     1     -12.005  12.495  65.738  1.00  0.00    -0.482 A  
HETATM   22  C   UNL     1     -10.290  13.163  67.310  1.00  0.00    -0.243 A  
HETATM   23  C   UNL     1     -12.324  13.830  65.532  1.00  0.00    -0.507 A  
HETATM   24  C   UNL     1     -11.630  14.831  66.221  1.00  0.00    -0.298 A  
ENDBRANCH  14  19
ENDBRANCH  12  14
ENDBRANCH  11  12
ENDBRANCH  10  11
ENDBRANCH   9  10
ENDBRANCH   8   9
ENDBRANCH   7   8
ENDBRANCH   6   7
ENDBRANCH   3   6
ENDBRANCH   2   3
TORSDOF 11
ENDMDL
MODEL      102
REMARK 921   NORMALIZED FREE ENERGY PREDICTED BY IDOCK:   -4.79 KCAL/MOL
REMARK 922        TOTAL FREE ENERGY PREDICTED BY IDOCK:   -8.68 KCAL/MOL
REMARK 923 INTER-LIGAND FREE ENERGY PREDICTED BY IDOCK:   -7.74 KCAL/MOL
REMARK 924 INTRA-LIGAND FREE ENERGY PREDICTED BY IDOCK:   -0.94 KCAL/MOL
REMARK 927      BINDING AFFINITY PREDICTED BY RF-SCORE:    0.00 PKD
ROOT
HETATM    1  C   UNL     1     -10.815   4.688  73.612  1.00  0.00    -0.375 C  
HETATM    2  C   UNL     1     -11.467   5.500  72.495  1.00  0.00    -0.244 C  
ENDROOT
BRANCH   2   3
HETATM    3  N   UNL     1     -11.165   6.943  72.529  1.00  0.00    -0.262 NA 
BRANCH   3   4
HETATM    4  C   UNL     1      -9.754   7.262  72.262  1.00  0.00    -0.149 C  
HETATM    5  C   UNL     1      -9.038   8.093  73.319  1.00  0.00    -0.327 C  
ENDBRANCH   3   4
BRANCH   3   6
HETATM    6  C   UNL     1     -12.117   7.669  71.657  1.00  0.00    -0.306 C  
BRANCH   6   7
HETATM    7  C   UNL     1     -12.843   8.848  72.323  1.00  0.00    -0.411 C  
BRANCH   7   8
HETATM    8  O   UNL     1     -13.085   9.885  71.360  1.00  0.00    -0.359 OA 
BRANCH   8   9
HETATM    9  C   UNL     1     -11.869  10.567  71.044  1.00  0.00    -0.340 C  
BRANCH   9  10
HETATM   10  C   UNL     1     -11.967  11.221  69.668  1.00  0.00    -0.353 C  
BRANCH  10  11
HETATM   11  O   UNL     1     -11.222  12.453  69.618  1.00  0.00    -0.166 OA 
BRANCH  11  12
HETATM   12  C   UNL     1     -11.740  13.418  68.804  1.00  0.00    -0.340 C  
HETATM   13  O   UNL     1     -12.372  13.173  67.780  1.00  0.00    -0.161 OA 
BRANCH  12  14
HETATM   14  C   UNL     1     -11.382  14.841  69.272  1.00  0.00    -0.317 C  
HETATM   15  C   UNL     1     -11.823  15.937  68.264  1.00  0.00    -0.065 C  
HETATM   16  C   UNL     1      -9.836  14.947  69.172  1.00  0.00    -0.200 C  
HETATM   17  C   UNL     1      -9.543  16.425  69.007  1.00  0.00    -0.264 C  
HETATM   18  C   UNL     1     -10.656  16.920  68.103  1.00  0.00    -0.360 C  
BRANCH  14  19
HETATM   19  C   UNL     1     -11.988  15.095  70.666  1.00  0.00    -0.371 A  
HETATM   20  C   UNL     1     -13.872  15.440  72.183  1.00  0.00    -0.636 A  
HETATM   21  C   UNL     1     -13.005  15.632  73.255  1.00  0.00    -0.664 A  
HETATM   22  C   UNL     1     -13.369  15.179  70.904  1.00  0.00    -0.463 A  
HETATM   23  C   UNL     1     -11.635  15.550  73.049  1.00  0.00    -0.372 A  
HETATM   24  C   UNL     1     -11.132  15.276  71.772  1.00  0.00    -0.235 A  
ENDBRANCH  14  19
ENDBRANCH  12  14
ENDBRANCH  11  12
ENDBRANCH  10  11
ENDBRANCH   9  10
ENDBRANCH   8   9
ENDBRANCH   7   8
ENDBRANCH   6   7
ENDBRANCH   3   6
ENDBRANCH   2   3
TORSDOF 11
ENDMDL
MODEL      103
REMARK 921   NORMALIZED FREE ENERGY PREDICTED BY IDOCK:   -4.79 KCAL/MOL
REMARK 922        TOTAL FREE ENERGY PREDICTED BY IDOCK:   -8.68 KCAL/MOL
REMARK 923 INTER-LIGAND FREE ENERGY PREDICTED BY IDOCK:   -7.52 KCAL/MOL
REMARK 924 INTRA-LIGAND FREE ENERGY PREDICTED BY IDOCK:   -1.17 KCAL/MOL
REMARK 927      BINDING AFFINITY PREDICTED BY RF-SCORE:    0.00 PKD
ROOT
HETATM    1  C   UNL     1      -9.184   9.999  64.489  1.00  0.00    -0.313 C  
HETATM    2  C   UNL     1      -9.276  11.154  65.483  1.00  0.00    -0.216 C  
ENDROOT
BRANCH   2   3
HETATM    3  N   UNL     1     -10.228  12.215  65.105  1.00  0.00    -0.274 NA 
BRANCH   3   4
HETATM    4  C   UNL     1     -10.620  12.186  63.688  1.00  0.00    -0.461 C  
HETATM    5  C   UNL     1     -11.948  12.848  63.339  1.00  0.00    -0.612 C  
ENDBRANCH   3   4
BRANCH   3   6
HETATM    6  C   UNL     1     -11.375  12.209  66.042  1.00  0.00    -0.358 C  
BRANCH   6   7
HETATM    7  C   UNL     1     -11.257  11.219  67.211  1.00  0.00    -0.296 C  
BRANCH   7   8
HETATM    8  O   UNL     1     -11.360  11.917  68.460  1.00  0.00    -0.228 OA 
BRANCH   8   9
HETATM    9  C   UNL     1     -11.790  13.264  68.246  1.00  0.00    -0.354 C  
BRANCH   9  10
HETATM   10  C   UNL     1     -10.905  14.236  69.022  1.00  0.00    -0.255 C  
BRANCH  10  11
HETATM   11  O   UNL     1     -10.470  15.328  68.190  1.00  0.00    -0.239 OA 
BRANCH  11  12
HETATM   12  C   UNL     1     -10.452  16.552  68.795  1.00  0.00    -0.309 C  
HETATM   13  O   UNL     1     -10.947  16.772  69.896  1.00  0.00    -0.293 OA 
BRANCH  12  14
HETATM   14  C   UNL     1      -9.806  17.637  67.912  1.00  0.00    -0.300 C  
HETATM   15  C   UNL     1     -10.121  19.078  68.400  1.00  0.00    -0.471 C  
HETATM   16  C   UNL     1     -10.574  17.602  66.564  1.00  0.00    -0.207 C  
HETATM   17  C   UNL     1     -10.412  18.989  65.971  1.00  0.00    -0.530 C  
HETATM   18  C   UNL     1     -10.506  19.913  67.171  1.00  0.00    -0.566 C  
BRANCH  14  19
HETATM   19  C   UNL     1      -8.285  17.401  67.830  1.00  0.00    -0.225 A  
HETATM   20  C   UNL     1      -6.231  16.890  66.610  1.00  0.00    -0.206 A  
HETATM   21  C   UNL     1      -5.495  16.916  67.790  1.00  0.00    -0.137 A  
HETATM   22  C   UNL     1      -7.610  17.125  66.631  1.00  0.00    -0.299 A  
HETATM   23  C   UNL     1      -6.136  17.192  68.990  1.00  0.00    -0.185 A  
HETATM   24  C   UNL     1      -7.513  17.440  69.009  1.00  0.00    -0.185 A  
ENDBRANCH  14  19
ENDBRANCH  12  14
ENDBRANCH  11  12
ENDBRANCH  10  11
ENDBRANCH   9  10
ENDBRANCH   8   9
ENDBRANCH   7   8
ENDBRANCH   6   7
ENDBRANCH   3   6
ENDBRANCH   2   3
TORSDOF 11
ENDMDL
MODEL      104
REMARK 921   NORMALIZED FREE ENERGY PREDICTED BY IDOCK:   -4.78 KCAL/MOL
REMARK 922        TOTAL FREE ENERGY PREDICTED BY IDOCK:   -8.67 KCAL/MOL
REMARK 923 INTER-LIGAND FREE ENERGY PREDICTED BY IDOCK:   -6.85 KCAL/MOL
REMARK 924 INTRA-LIGAND FREE ENERGY PREDICTED BY IDOCK:   -1.82 KCAL/MOL
REMARK 927      BINDING AFFINITY PREDICTED BY RF-SCORE:    0.00 PKD
ROOT
HETATM    1  C   UNL     1     -10.840  10.847  68.595  1.00  0.00    -0.258 C  
HETATM    2  C   UNL     1     -11.153  10.736  67.104  1.00  0.00    -0.227 C  
ENDROOT
BRANCH   2   3
HETATM    3  N   UNL     1     -10.285  11.551  66.233  1.00  0.00    -0.223 NA 
BRANCH   3   4
HETATM    4  C   UNL     1      -9.171  10.801  65.634  1.00  0.00    -0.199 C  
HETATM    5  C   UNL     1      -7.855  10.815  66.403  1.00  0.00    -0.148 C  
ENDBRANCH   3   4
BRANCH   3   6
HETATM    6  C   UNL     1     -11.116  12.277  65.245  1.00  0.00    -0.316 C  
BRANCH   6   7
HETATM    7  C   UNL     1     -12.374  12.948  65.818  1.00  0.00    -0.375 C  
BRANCH   7   8
HETATM    8  O   UNL     1     -12.862  13.941  64.905  1.00  0.00    -0.687 OA 
BRANCH   8   9
HETATM    9  C   UNL     1     -11.784  14.499  64.150  1.00  0.00    -0.201 C  
BRANCH   9  10
HETATM   10  C   UNL     1     -11.335  15.824  64.760  1.00  0.00    -0.314 C  
BRANCH  10  11
HETATM   11  O   UNL     1     -10.224  15.639  65.657  1.00  0.00    -0.321 OA 
BRANCH  11  12
HETATM   12  C   UNL     1     -10.218  16.450  66.756  1.00  0.00    -0.285 C  
HETATM   13  O   UNL     1     -10.636  17.604  66.749  1.00  0.00    -0.313 OA 
BRANCH  12  14
HETATM   14  C   UNL     1      -9.564  15.781  67.980  1.00  0.00    -0.210 C  
HETATM   15  C   UNL     1      -8.397  16.618  68.574  1.00  0.00    -0.228 C  
HETATM   16  C   UNL     1      -8.798  14.546  67.433  1.00  0.00    -0.207 C  
HETATM   17  C   UNL     1      -7.695  14.278  68.439  1.00  0.00    -0.134 C  
HETATM   18  C   UNL     1      -7.230  15.661  68.850  1.00  0.00    -0.146 C  
BRANCH  14  19
HETATM   19  C   UNL     1     -10.637  15.492  69.047  1.00  0.00    -0.246 A  
HETATM   20  C   UNL     1     -11.777  15.955  71.158  1.00  0.00    -0.490 A  
HETATM   21  C   UNL     1     -12.596  14.844  70.987  1.00  0.00    -0.402 A  
HETATM   22  C   UNL     1     -10.807  16.273  70.202  1.00  0.00    -0.299 A  
HETATM   23  C   UNL     1     -12.453  14.056  69.852  1.00  0.00    -0.301 A  
HETATM   24  C   UNL     1     -11.491  14.382  68.890  1.00  0.00    -0.319 A  
ENDBRANCH  14  19
ENDBRANCH  12  14
ENDBRANCH  11  12
ENDBRANCH  10  11
ENDBRANCH   9  10
ENDBRANCH   8   9
ENDBRANCH   7   8
ENDBRANCH   6   7
ENDBRANCH   3   6
ENDBRANCH   2   3
TORSDOF 11
ENDMDL
MODEL      105
REMARK 921   NORMALIZED FREE ENERGY PREDICTED BY IDOCK:   -4.78 KCAL/MOL
REMARK 922        TOTAL FREE ENERGY PREDICTED BY IDOCK:   -8.67 KCAL/MOL
REMARK 923 INTER-LIGAND FREE ENERGY PREDICTED BY IDOCK:   -7.31 KCAL/MOL
REMARK 924 INTRA-LIGAND FREE ENERGY PREDICTED BY IDOCK:   -1.35 KCAL/MOL
REMARK 927      BINDING AFFINITY PREDICTED BY RF-SCORE:    0.00 PKD
ROOT
HETATM    1  C   UNL     1     -12.792  10.177  71.472  1.00  0.00    -0.548 C  
HETATM    2  C   UNL     1     -11.399   9.708  71.057  1.00  0.00    -0.374 C  
ENDROOT
BRANCH   2   3
HETATM    3  N   UNL     1     -10.919  10.267  69.779  1.00  0.00    -0.269 NA 
BRANCH   3   4
HETATM    4  C   UNL     1     -11.338  11.657  69.543  1.00  0.00    -0.260 C  
HETATM    5  C   UNL     1     -11.909  11.967  68.164  1.00  0.00    -0.338 C  
ENDBRANCH   3   4
BRANCH   3   6
HETATM    6  C   UNL     1      -9.458  10.055  69.663  1.00  0.00    -0.223 C  
BRANCH   6   7
HETATM    7  C   UNL     1      -8.862  10.364  68.281  1.00  0.00    -0.135 C  
BRANCH   7   8
HETATM    8  O   UNL     1      -7.721  11.224  68.418  1.00  0.00    -0.109 OA 
BRANCH   8   9
HETATM    9  C   UNL     1      -7.523  11.987  67.226  1.00  0.00    -0.158 C  
BRANCH   9  10
HETATM   10  C   UNL     1      -8.704  12.924  66.990  1.00  0.00    -0.195 C  
BRANCH  10  11
HETATM   11  O   UNL     1      -8.369  14.285  67.321  1.00  0.00    -0.191 OA 
BRANCH  11  12
HETATM   12  C   UNL     1      -9.256  15.228  66.889  1.00  0.00    -0.234 C  
HETATM   13  O   UNL     1      -9.454  15.481  65.705  1.00  0.00    -0.320 OA 
BRANCH  12  14
HETATM   14  C   UNL     1      -9.926  15.985  68.052  1.00  0.00    -0.229 C  
HETATM   15  C   UNL     1      -9.417  15.524  69.446  1.00  0.00    -0.278 C  
HETATM   16  C   UNL     1     -11.397  15.491  68.092  1.00  0.00    -0.348 C  
HETATM   17  C   UNL     1     -11.856  15.706  69.522  1.00  0.00    -0.387 C  
HETATM   18  C   UNL     1     -10.640  15.347  70.354  1.00  0.00    -0.274 C  
BRANCH  14  19
HETATM   19  C   UNL     1      -9.727  17.502  67.865  1.00  0.00    -0.278 A  
HETATM   20  C   UNL     1     -10.416  19.695  67.036  1.00  0.00    -0.600 A  
HETATM   21  C   UNL     1      -9.243  20.270  67.513  1.00  0.00    -0.491 A  
HETATM   22  C   UNL     1     -10.653  18.327  67.207  1.00  0.00    -0.406 A  
HETATM   23  C   UNL     1      -8.311  19.479  68.171  1.00  0.00    -0.359 A  
HETATM   24  C   UNL     1      -8.554  18.113  68.353  1.00  0.00    -0.310 A  
ENDBRANCH  14  19
ENDBRANCH  12  14
ENDBRANCH  11  12
ENDBRANCH  10  11
ENDBRANCH   9  10
ENDBRANCH   8   9
ENDBRANCH   7   8
ENDBRANCH   6   7
ENDBRANCH   3   6
ENDBRANCH   2   3
TORSDOF 11
ENDMDL
MODEL      106
REMARK 921   NORMALIZED FREE ENERGY PREDICTED BY IDOCK:   -4.78 KCAL/MOL
REMARK 922        TOTAL FREE ENERGY PREDICTED BY IDOCK:   -8.66 KCAL/MOL
REMARK 923 INTER-LIGAND FREE ENERGY PREDICTED BY IDOCK:   -7.29 KCAL/MOL
REMARK 924 INTRA-LIGAND FREE ENERGY PREDICTED BY IDOCK:   -1.37 KCAL/MOL
REMARK 927      BINDING AFFINITY PREDICTED BY RF-SCORE:    0.00 PKD
ROOT
HETATM    1  C   UNL     1     -10.829  11.608  63.563  1.00  0.00    -0.497 C  
HETATM    2  C   UNL     1      -9.740  11.178  64.543  1.00  0.00    -0.265 C  
ENDROOT
BRANCH   2   3
HETATM    3  N   UNL     1     -10.239  10.505  65.758  1.00  0.00    -0.257 NA 
BRANCH   3   4
HETATM    4  C   UNL     1      -9.547   9.244  66.066  1.00  0.00    -0.270 C  
HETATM    5  C   UNL     1     -10.335   8.221  66.874  1.00  0.00    -0.391 C  
ENDBRANCH   3   4
BRANCH   3   6
HETATM    6  C   UNL     1     -10.257  11.467  66.884  1.00  0.00    -0.219 C  
BRANCH   6   7
HETATM    7  C   UNL     1     -11.651  11.783  67.449  1.00  0.00    -0.280 C  
BRANCH   7   8
HETATM    8  O   UNL     1     -11.943  13.179  67.287  1.00  0.00    -0.370 OA 
BRANCH   8   9
HETATM    9  C   UNL     1     -12.089  13.811  68.560  1.00  0.00    -0.292 C  
BRANCH   9  10
HETATM   10  C   UNL     1     -11.259  15.091  68.619  1.00  0.00    -0.278 C  
BRANCH  10  11
HETATM   11  O   UNL     1      -9.861  14.821  68.406  1.00  0.00    -0.208 OA 
BRANCH  11  12
HETATM   12  C   UNL     1      -9.302  15.448  67.330  1.00  0.00    -0.210 C  
HETATM   13  O   UNL     1      -9.572  15.168  66.166  1.00  0.00    -0.272 OA 
BRANCH  12  14
HETATM   14  C   UNL     1      -8.244  16.492  67.738  1.00  0.00    -0.173 C  
HETATM   15  C   UNL     1      -6.898  16.315  66.983  1.00  0.00    -0.235 C  
HETATM   16  C   UNL     1      -7.824  16.128  69.188  1.00  0.00    -0.232 C  
HETATM   17  C   UNL     1      -6.425  16.688  69.355  1.00  0.00    -0.220 C  
HETATM   18  C   UNL     1      -5.767  16.434  68.012  1.00  0.00    -0.121 C  
BRANCH  14  19
HETATM   19  C   UNL     1      -8.811  17.910  67.534  1.00  0.00    -0.248 A  
HETATM   20  C   UNL     1      -8.958  20.037  66.340  1.00  0.00    -0.408 A  
HETATM   21  C   UNL     1      -9.858  20.530  67.280  1.00  0.00    -0.581 A  
HETATM   22  C   UNL     1      -8.438  18.745  66.469  1.00  0.00    -0.310 A  
HETATM   23  C   UNL     1     -10.248  19.724  68.342  1.00  0.00    -0.568 A  
HETATM   24  C   UNL     1      -9.737  18.427  68.463  1.00  0.00    -0.386 A  
ENDBRANCH  14  19
ENDBRANCH  12  14
ENDBRANCH  11  12
ENDBRANCH  10  11
ENDBRANCH   9  10
ENDBRANCH   8   9
ENDBRANCH   7   8
ENDBRANCH   6   7
ENDBRANCH   3   6
ENDBRANCH   2   3
TORSDOF 11
ENDMDL
MODEL      107
REMARK 921   NORMALIZED FREE ENERGY PREDICTED BY IDOCK:   -4.75 KCAL/MOL
REMARK 922        TOTAL FREE ENERGY PREDICTED BY IDOCK:   -8.63 KCAL/MOL
REMARK 923 INTER-LIGAND FREE ENERGY PREDICTED BY IDOCK:   -7.56 KCAL/MOL
REMARK 924 INTRA-LIGAND FREE ENERGY PREDICTED BY IDOCK:   -1.07 KCAL/MOL
REMARK 927      BINDING AFFINITY PREDICTED BY RF-SCORE:    0.00 PKD
ROOT
HETATM    1  C   UNL     1     -12.520  15.947  74.157  1.00  0.00    -0.776 C  
HETATM    2  C   UNL     1     -13.578  15.757  73.072  1.00  0.00    -0.555 C  
ENDROOT
BRANCH   2   3
HETATM    3  N   UNL     1     -13.042  15.677  71.699  1.00  0.00    -0.476 NA 
BRANCH   3   4
HETATM    4  C   UNL     1     -11.599  15.948  71.608  1.00  0.00    -0.461 C  
HETATM    5  C   UNL     1     -10.923  15.574  70.294  1.00  0.00    -0.352 C  
ENDBRANCH   3   4
BRANCH   3   6
HETATM    6  C   UNL     1     -13.449  14.393  71.083  1.00  0.00    -0.306 C  
BRANCH   6   7
HETATM    7  C   UNL     1     -13.373  13.171  72.012  1.00  0.00    -0.493 C  
BRANCH   7   8
HETATM    8  O   UNL     1     -12.801  12.056  71.312  1.00  0.00    -0.365 OA 
BRANCH   8   9
HETATM    9  C   UNL     1     -13.208  10.825  71.915  1.00  0.00    -0.419 C  
BRANCH   9  10
HETATM   10  C   UNL     1     -12.130   9.760  71.731  1.00  0.00    -0.346 C  
BRANCH  10  11
HETATM   11  O   UNL     1     -11.386   9.970  70.516  1.00  0.00    -0.284 OA 
BRANCH  11  12
HETATM   12  C   UNL     1     -10.679   8.891  70.070  1.00  0.00    -0.228 C  
HETATM   13  O   UNL     1     -10.577   7.840  70.697  1.00  0.00    -0.215 OA 
BRANCH  12  14
HETATM   14  C   UNL     1      -9.967   9.164  68.731  1.00  0.00    -0.188 C  
HETATM   15  C   UNL     1      -8.662   9.990  68.899  1.00  0.00    -0.146 C  
HETATM   16  C   UNL     1     -10.865  10.174  67.969  1.00  0.00    -0.320 C  
HETATM   17  C   UNL     1      -9.935  10.906  67.020  1.00  0.00    -0.227 C  
HETATM   18  C   UNL     1      -8.660  11.083  67.823  1.00  0.00    -0.130 C  
BRANCH  14  19
HETATM   19  C   UNL     1      -9.688   7.830  68.011  1.00  0.00    -0.176 A  
HETATM   20  C   UNL     1      -8.195   6.083  67.183  1.00  0.00    -0.105 A  
HETATM   21  C   UNL     1      -9.267   5.404  66.612  1.00  0.00    -0.132 A  
HETATM   22  C   UNL     1      -8.403   7.283  67.870  1.00  0.00    -0.119 A  
HETATM   23  C   UNL     1     -10.550   5.919  66.741  1.00  0.00    -0.368 A  
HETATM   24  C   UNL     1     -10.759   7.113  67.439  1.00  0.00    -0.368 A  
ENDBRANCH  14  19
ENDBRANCH  12  14
ENDBRANCH  11  12
ENDBRANCH  10  11
ENDBRANCH   9  10
ENDBRANCH   8   9
ENDBRANCH   7   8
ENDBRANCH   6   7
ENDBRANCH   3   6
ENDBRANCH   2   3
TORSDOF 11
ENDMDL
MODEL      108
REMARK 921   NORMALIZED FREE ENERGY PREDICTED BY IDOCK:   -4.75 KCAL/MOL
REMARK 922        TOTAL FREE ENERGY PREDICTED BY IDOCK:   -8.62 KCAL/MOL
REMARK 923 INTER-LIGAND FREE ENERGY PREDICTED BY IDOCK:   -7.18 KCAL/MOL
REMARK 924 INTRA-LIGAND FREE ENERGY PREDICTED BY IDOCK:   -1.44 KCAL/MOL
REMARK 927      BINDING AFFINITY PREDICTED BY RF-SCORE:    0.00 PKD
ROOT
HETATM    1  C   UNL     1      -8.717   8.780  65.351  1.00  0.00    -0.217 C  
HETATM    2  C   UNL     1      -8.781   9.910  66.376  1.00  0.00    -0.132 C  
ENDROOT
BRANCH   2   3
HETATM    3  N   UNL     1      -9.588  11.073  65.960  1.00  0.00    -0.206 NA 
BRANCH   3   4
HETATM    4  C   UNL     1     -10.399  10.833  64.756  1.00  0.00    -0.310 C  
HETATM    5  C   UNL     1     -10.144  11.758  63.573  1.00  0.00    -0.463 C  
ENDBRANCH   3   4
BRANCH   3   6
HETATM    6  C   UNL     1     -10.366  11.575  67.115  1.00  0.00    -0.216 C  
BRANCH   6   7
HETATM    7  C   UNL     1     -10.114  10.841  68.441  1.00  0.00    -0.169 C  
BRANCH   7   8
HETATM    8  O   UNL     1     -11.040  11.294  69.439  1.00  0.00    -0.243 OA 
BRANCH   8   9
HETATM    9  C   UNL     1     -11.833  12.370  68.933  1.00  0.00    -0.301 C  
BRANCH   9  10
HETATM   10  C   UNL     1     -11.904  13.506  69.951  1.00  0.00    -0.316 C  
BRANCH  10  11
HETATM   11  O   UNL     1     -10.958  14.547  69.642  1.00  0.00    -0.246 OA 
BRANCH  11  12
HETATM   12  C   UNL     1     -11.460  15.602  68.936  1.00  0.00    -0.361 C  
HETATM   13  O   UNL     1     -12.525  16.151  69.201  1.00  0.00     0.065 OA 
BRANCH  12  14
HETATM   14  C   UNL     1     -10.578  15.978  67.729  1.00  0.00    -0.309 C  
HETATM   15  C   UNL     1     -11.116  15.409  66.387  1.00  0.00    -0.230 C  
HETATM   16  C   UNL     1      -9.264  15.167  67.893  1.00  0.00    -0.184 C  
HETATM   17  C   UNL     1      -8.702  15.024  66.491  1.00  0.00    -0.244 C  
HETATM   18  C   UNL     1      -9.928  14.808  65.625  1.00  0.00    -0.390 C  
BRANCH  14  19
HETATM   19  C   UNL     1     -10.423  17.509  67.658  1.00  0.00    -0.370 A  
HETATM   20  C   UNL     1     -10.009  19.697  68.664  1.00  0.00    -0.553 A  
HETATM   21  C   UNL     1     -10.223  20.326  67.442  1.00  0.00    -0.494 A  
HETATM   22  C   UNL     1     -10.112  18.307  68.771  1.00  0.00    -0.393 A  
HETATM   23  C   UNL     1     -10.528  19.563  66.323  1.00  0.00    -0.609 A  
HETATM   24  C   UNL     1     -10.618  18.170  66.428  1.00  0.00    -0.288 A  
ENDBRANCH  14  19
ENDBRANCH  12  14
ENDBRANCH  11  12
ENDBRANCH  10  11
ENDBRANCH   9  10
ENDBRANCH   8   9
ENDBRANCH   7   8
ENDBRANCH   6   7
ENDBRANCH   3   6
ENDBRANCH   2   3
TORSDOF 11
ENDMDL
MODEL      109
REMARK 921   NORMALIZED FREE ENERGY PREDICTED BY IDOCK:   -4.73 KCAL/MOL
REMARK 922        TOTAL FREE ENERGY PREDICTED BY IDOCK:   -8.60 KCAL/MOL
REMARK 923 INTER-LIGAND FREE ENERGY PREDICTED BY IDOCK:   -7.08 KCAL/MOL
REMARK 924 INTRA-LIGAND FREE ENERGY PREDICTED BY IDOCK:   -1.51 KCAL/MOL
REMARK 927      BINDING AFFINITY PREDICTED BY RF-SCORE:    0.00 PKD
ROOT
HETATM    1  C   UNL     1     -10.936  15.756  64.930  1.00  0.00    -0.443 C  
HETATM    2  C   UNL     1     -11.979  14.891  64.226  1.00  0.00    -0.338 C  
ENDROOT
BRANCH   2   3
HETATM    3  N   UNL     1     -12.585  13.848  65.075  1.00  0.00    -0.636 NA 
BRANCH   3   4
HETATM    4  C   UNL     1     -12.342  12.478  64.598  1.00  0.00    -0.474 C  
HETATM    5  C   UNL     1     -11.546  12.343  63.305  1.00  0.00    -0.450 C  
ENDBRANCH   3   4
BRANCH   3   6
HETATM    6  C   UNL     1     -12.194  14.068  66.486  1.00  0.00    -0.451 C  
BRANCH   6   7
HETATM    7  C   UNL     1     -11.480  12.883  67.157  1.00  0.00    -0.336 C  
BRANCH   7   8
HETATM    8  O   UNL     1     -11.287  13.153  68.554  1.00  0.00    -0.248 OA 
BRANCH   8   9
HETATM    9  C   UNL     1     -10.513  14.341  68.732  1.00  0.00    -0.249 C  
BRANCH   9  10
HETATM   10  C   UNL     1      -9.070  14.108  68.293  1.00  0.00    -0.190 C  
BRANCH  10  11
HETATM   11  O   UNL     1      -8.209  15.175  68.733  1.00  0.00    -0.147 OA 
BRANCH  11  12
HETATM   12  C   UNL     1      -7.450  15.755  67.757  1.00  0.00    -0.144 C  
HETATM   13  O   UNL     1      -6.942  15.129  66.831  1.00  0.00    -0.148 OA 
BRANCH  12  14
HETATM   14  C   UNL     1      -7.245  17.265  67.988  1.00  0.00    -0.192 C  
HETATM   15  C   UNL     1      -6.003  17.826  67.241  1.00  0.00    -0.157 C  
HETATM   16  C   UNL     1      -6.798  17.413  69.467  1.00  0.00    -0.075 C  
HETATM   17  C   UNL     1      -6.014  18.711  69.523  1.00  0.00    -0.267 C  
HETATM   18  C   UNL     1      -5.238  18.726  68.220  1.00  0.00    -0.180 C  
BRANCH  14  19
HETATM   19  C   UNL     1      -8.522  18.029  67.587  1.00  0.00    -0.239 A  
HETATM   20  C   UNL     1     -10.873  18.628  67.879  1.00  0.00    -0.253 A  
HETATM   21  C   UNL     1     -10.837  19.420  66.736  1.00  0.00    -0.490 A  
HETATM   22  C   UNL     1      -9.730  17.938  68.297  1.00  0.00    -0.327 A  
HETATM   23  C   UNL     1      -9.654  19.532  66.017  1.00  0.00    -0.347 A  
HETATM   24  C   UNL     1      -8.508  18.851  66.443  1.00  0.00    -0.302 A  
ENDBRANCH  14  19
ENDBRANCH  12  14
ENDBRANCH  11  12
ENDBRANCH  10  11
ENDBRANCH   9  10
ENDBRANCH   8   9
ENDBRANCH   7   8
ENDBRANCH   6   7
ENDBRANCH   3   6
ENDBRANCH   2   3
TORSDOF 11
ENDMDL
MODEL      110
REMARK 921   NORMALIZED FREE ENERGY PREDICTED BY IDOCK:   -4.73 KCAL/MOL
REMARK 922        TOTAL FREE ENERGY PREDICTED BY IDOCK:   -8.59 KCAL/MOL
REMARK 923 INTER-LIGAND FREE ENERGY PREDICTED BY IDOCK:   -6.84 KCAL/MOL
REMARK 924 INTRA-LIGAND FREE ENERGY PREDICTED BY IDOCK:   -1.75 KCAL/MOL
REMARK 927      BINDING AFFINITY PREDICTED BY RF-SCORE:    0.00 PKD
ROOT
HETATM    1  C   UNL     1     -10.608  14.708  68.740  1.00  0.00    -0.248 C  
HETATM    2  C   UNL     1     -10.340  13.934  67.451  1.00  0.00    -0.252 C  
ENDROOT
BRANCH   2   3
HETATM    3  N   UNL     1     -11.223  14.290  66.325  1.00  0.00    -0.330 NA 
BRANCH   3   4
HETATM    4  C   UNL     1     -10.526  14.940  65.205  1.00  0.00    -0.404 C  
HETATM    5  C   UNL     1     -11.213  16.155  64.594  1.00  0.00    -0.307 C  
ENDBRANCH   3   4
BRANCH   3   6
HETATM    6  C   UNL     1     -12.021  13.108  65.927  1.00  0.00    -0.427 C  
BRANCH   6   7
HETATM    7  C   UNL     1     -11.491  12.346  64.702  1.00  0.00    -0.331 C  
BRANCH   7   8
HETATM    8  O   UNL     1     -10.892  11.109  65.114  1.00  0.00    -0.248 OA 
BRANCH   8   9
HETATM    9  C   UNL     1      -9.593  10.965  64.534  1.00  0.00    -0.264 C  
BRANCH   9  10
HETATM   10  C   UNL     1      -8.550  10.709  65.620  1.00  0.00    -0.182 C  
BRANCH  10  11
HETATM   11  O   UNL     1      -8.724   9.411  66.219  1.00  0.00    -0.134 OA 
BRANCH  11  12
HETATM   12  C   UNL     1      -8.691   9.389  67.584  1.00  0.00    -0.116 C  
HETATM   13  O   UNL     1      -7.841   9.971  68.252  1.00  0.00    -0.088 OA 
BRANCH  12  14
HETATM   14  C   UNL     1      -9.792   8.495  68.187  1.00  0.00    -0.192 C  
HETATM   15  C   UNL     1      -9.224   7.257  68.934  1.00  0.00    -0.141 C  
HETATM   16  C   UNL     1     -10.500   7.820  66.982  1.00  0.00    -0.419 C  
HETATM   17  C   UNL     1     -11.096   6.538  67.531  1.00  0.00    -0.396 C  
HETATM   18  C   UNL     1     -10.048   6.036  68.507  1.00  0.00    -0.197 C  
BRANCH  14  19
HETATM   19  C   UNL     1     -10.692   9.336  69.114  1.00  0.00    -0.202 A  
HETATM   20  C   UNL     1     -11.824   9.761  71.237  1.00  0.00    -0.481 A  
HETATM   21  C   UNL     1     -12.410  10.912  70.722  1.00  0.00    -0.487 A  
HETATM   22  C   UNL     1     -10.978   8.981  70.442  1.00  0.00    -0.283 A  
HETATM   23  C   UNL     1     -12.140  11.291  69.413  1.00  0.00    -0.384 A  
HETATM   24  C   UNL     1     -11.285  10.517  68.622  1.00  0.00    -0.328 A  
ENDBRANCH  14  19
ENDBRANCH  12  14
ENDBRANCH  11  12
ENDBRANCH  10  11
ENDBRANCH   9  10
ENDBRANCH   8   9
ENDBRANCH   7   8
ENDBRANCH   6   7
ENDBRANCH   3   6
ENDBRANCH   2   3
TORSDOF 11
ENDMDL
MODEL      111
REMARK 921   NORMALIZED FREE ENERGY PREDICTED BY IDOCK:   -4.73 KCAL/MOL
REMARK 922        TOTAL FREE ENERGY PREDICTED BY IDOCK:   -8.59 KCAL/MOL
REMARK 923 INTER-LIGAND FREE ENERGY PREDICTED BY IDOCK:   -7.21 KCAL/MOL
REMARK 924 INTRA-LIGAND FREE ENERGY PREDICTED BY IDOCK:   -1.38 KCAL/MOL
REMARK 927      BINDING AFFINITY PREDICTED BY RF-SCORE:    0.00 PKD
ROOT
HETATM    1  C   UNL     1      -7.005  19.469  69.228  1.00  0.00    -0.385 C  
HETATM    2  C   UNL     1      -8.274  19.076  68.476  1.00  0.00    -0.355 C  
ENDROOT
BRANCH   2   3
HETATM    3  N   UNL     1      -8.308  19.502  67.064  1.00  0.00    -0.277 NA 
BRANCH   3   4
HETATM    4  C   UNL     1      -7.173  19.011  66.268  1.00  0.00    -0.248 C  
HETATM    5  C   UNL     1      -6.649  19.949  65.186  1.00  0.00    -0.327 C  
ENDBRANCH   3   4
BRANCH   3   6
HETATM    6  C   UNL     1      -9.631  19.181  66.480  1.00  0.00    -0.355 C  
BRANCH   6   7
HETATM    7  C   UNL     1     -10.647  18.575  67.461  1.00  0.00    -0.423 C  
BRANCH   7   8
HETATM    8  O   UNL     1     -10.705  17.151  67.292  1.00  0.00    -0.302 OA 
BRANCH   8   9
HETATM    9  C   UNL     1     -10.402  16.795  65.942  1.00  0.00    -0.328 C  
BRANCH   9  10
HETATM   10  C   UNL     1     -10.824  15.354  65.663  1.00  0.00    -0.355 C  
BRANCH  10  11
HETATM   11  O   UNL     1     -11.744  14.874  66.661  1.00  0.00    -0.325 OA 
BRANCH  11  12
HETATM   12  C   UNL     1     -11.673  13.537  66.928  1.00  0.00    -0.384 C  
HETATM   13  O   UNL     1     -11.983  12.667  66.119  1.00  0.00    -0.433 OA 
BRANCH  12  14
HETATM   14  C   UNL     1     -11.230  13.247  68.375  1.00  0.00    -0.314 C  
HETATM   15  C   UNL     1     -11.475  11.771  68.796  1.00  0.00    -0.350 C  
HETATM   16  C   UNL     1     -12.242  13.990  69.287  1.00  0.00    -0.319 C  
HETATM   17  C   UNL     1     -12.224  13.239  70.605  1.00  0.00    -0.417 C  
HETATM   18  C   UNL     1     -12.105  11.783  70.194  1.00  0.00    -0.398 C  
BRANCH  14  19
HETATM   19  C   UNL     1      -9.749  13.634  68.551  1.00  0.00    -0.184 A  
HETATM   20  C   UNL     1      -7.974  15.152  69.268  1.00  0.00    -0.213 A  
HETATM   21  C   UNL     1      -7.003  14.289  68.771  1.00  0.00    -0.102 A  
HETATM   22  C   UNL     1      -9.330  14.830  69.156  1.00  0.00    -0.102 A  
HETATM   23  C   UNL     1      -7.388  13.097  68.172  1.00  0.00    -0.119 A  
HETATM   24  C   UNL     1      -8.744  12.769  68.071  1.00  0.00    -0.194 A  
ENDBRANCH  14  19
ENDBRANCH  12  14
ENDBRANCH  11  12
ENDBRANCH  10  11
ENDBRANCH   9  10
ENDBRANCH   8   9
ENDBRANCH   7   8
ENDBRANCH   6   7
ENDBRANCH   3   6
ENDBRANCH   2   3
TORSDOF 11
ENDMDL
MODEL      112
REMARK 921   NORMALIZED FREE ENERGY PREDICTED BY IDOCK:   -4.73 KCAL/MOL
REMARK 922        TOTAL FREE ENERGY PREDICTED BY IDOCK:   -8.58 KCAL/MOL
REMARK 923 INTER-LIGAND FREE ENERGY PREDICTED BY IDOCK:   -7.27 KCAL/MOL
REMARK 924 INTRA-LIGAND FREE ENERGY PREDICTED BY IDOCK:   -1.32 KCAL/MOL
REMARK 927      BINDING AFFINITY PREDICTED BY RF-SCORE:    0.00 PKD
ROOT
HETATM    1  C   UNL     1      -6.653  19.264  67.491  1.00  0.00    -0.217 C  
HETATM    2  C   UNL     1      -7.818  18.608  68.227  1.00  0.00    -0.307 C  
ENDROOT
BRANCH   2   3
HETATM    3  N   UNL     1      -9.028  19.445  68.331  1.00  0.00    -0.345 NA 
BRANCH   3   4
HETATM    4  C   UNL     1      -9.187  20.401  67.225  1.00  0.00    -0.394 C  
HETATM    5  C   UNL     1     -10.121  19.981  66.097  1.00  0.00    -0.588 C  
ENDBRANCH   3   4
BRANCH   3   6
HETATM    6  C   UNL     1     -10.211  18.581  68.549  1.00  0.00    -0.351 C  
BRANCH   6   7
HETATM    7  C   UNL     1     -10.165  17.719  69.820  1.00  0.00     0.465 C  
BRANCH   7   8
HETATM    8  O   UNL     1     -10.485  16.357  69.503  1.00  0.00    -0.281 OA 
BRANCH   8   9
HETATM    9  C   UNL     1     -11.310  15.787  70.521  1.00  0.00    -0.380 C  
BRANCH   9  10
HETATM   10  C   UNL     1     -12.323  14.822  69.910  1.00  0.00    -0.283 C  
BRANCH  10  11
HETATM   11  O   UNL     1     -12.244  14.820  68.472  1.00  0.00    -0.215 OA 
BRANCH  11  12
HETATM   12  C   UNL     1     -11.555  13.776  67.925  1.00  0.00    -0.341 C  
HETATM   13  O   UNL     1     -11.573  12.637  68.384  1.00  0.00    -0.283 OA 
BRANCH  12  14
HETATM   14  C   UNL     1     -10.701  14.200  66.715  1.00  0.00    -0.286 C  
HETATM   15  C   UNL     1      -9.178  14.206  67.024  1.00  0.00    -0.249 C  
HETATM   16  C   UNL     1     -10.971  15.715  66.513  1.00  0.00    -0.206 C  
HETATM   17  C   UNL     1      -9.741  16.254  65.808  1.00  0.00    -0.299 C  
HETATM   18  C   UNL     1      -8.592  15.504  66.455  1.00  0.00    -0.292 C  
BRANCH  14  19
HETATM   19  C   UNL     1     -11.017  13.290  65.512  1.00  0.00    -0.297 A  
HETATM   20  C   UNL     1     -10.719  11.255  64.193  1.00  0.00    -0.436 A  
HETATM   21  C   UNL     1     -11.615  11.717  63.234  1.00  0.00    -0.325 A  
HETATM   22  C   UNL     1     -10.421  12.034  65.316  1.00  0.00    -0.323 A  
HETATM   23  C   UNL     1     -12.222  12.954  63.404  1.00  0.00    -0.574 A  
HETATM   24  C   UNL     1     -11.934  13.727  64.534  1.00  0.00    -0.458 A  
ENDBRANCH  14  19
ENDBRANCH  12  14
ENDBRANCH  11  12
ENDBRANCH  10  11
ENDBRANCH   9  10
ENDBRANCH   8   9
ENDBRANCH   7   8
ENDBRANCH   6   7
ENDBRANCH   3   6
ENDBRANCH   2   3
TORSDOF 11
ENDMDL
MODEL      113
REMARK 921   NORMALIZED FREE ENERGY PREDICTED BY IDOCK:   -4.72 KCAL/MOL
REMARK 922        TOTAL FREE ENERGY PREDICTED BY IDOCK:   -8.57 KCAL/MOL
REMARK 923 INTER-LIGAND FREE ENERGY PREDICTED BY IDOCK:   -7.64 KCAL/MOL
REMARK 924 INTRA-LIGAND FREE ENERGY PREDICTED BY IDOCK:   -0.93 KCAL/MOL
REMARK 927      BINDING AFFINITY PREDICTED BY RF-SCORE:    0.00 PKD
ROOT
HETATM    1  C   UNL     1     -10.652   5.544  69.608  1.00  0.00    -0.375 C  
HETATM    2  C   UNL     1     -10.144   5.809  71.024  1.00  0.00    -0.205 C  
ENDROOT
BRANCH   2   3
HETATM    3  N   UNL     1     -11.200   6.107  72.009  1.00  0.00    -0.272 NA 
BRANCH   3   4
HETATM    4  C   UNL     1     -11.361   5.069  73.039  1.00  0.00    -0.298 C  
HETATM    5  C   UNL     1     -10.414   5.146  74.231  1.00  0.00    -0.315 C  
ENDBRANCH   3   4
BRANCH   3   6
HETATM    6  C   UNL     1     -10.996   7.467  72.558  1.00  0.00    -0.313 C  
BRANCH   6   7
HETATM    7  C   UNL     1     -12.178   8.431  72.370  1.00  0.00    -0.367 C  
BRANCH   7   8
HETATM    8  O   UNL     1     -11.843   9.439  71.405  1.00  0.00    -0.319 OA 
BRANCH   8   9
HETATM    9  C   UNL     1     -12.967  10.285  71.155  1.00  0.00    -0.409 C  
BRANCH   9  10
HETATM   10  C   UNL     1     -12.504  11.702  70.822  1.00  0.00    -0.330 C  
BRANCH  10  11
HETATM   11  O   UNL     1     -11.931  11.770  69.503  1.00  0.00    -0.302 OA 
BRANCH  11  12
HETATM   12  C   UNL     1     -11.695  13.029  69.032  1.00  0.00    -0.329 C  
HETATM   13  O   UNL     1     -12.369  14.007  69.343  1.00  0.00    -0.333 OA 
BRANCH  12  14
HETATM   14  C   UNL     1     -10.539  13.073  68.015  1.00  0.00    -0.246 C  
HETATM   15  C   UNL     1      -9.514  11.923  68.216  1.00  0.00    -0.197 C  
HETATM   16  C   UNL     1      -9.681  14.309  68.397  1.00  0.00    -0.225 C  
HETATM   17  C   UNL     1      -8.290  14.014  67.869  1.00  0.00    -0.168 C  
HETATM   18  C   UNL     1      -8.108  12.531  68.128  1.00  0.00    -0.167 C  
BRANCH  14  19
HETATM   19  C   UNL     1     -11.108  13.062  66.583  1.00  0.00    -0.318 A  
HETATM   20  C   UNL     1     -11.557  11.987  64.435  1.00  0.00    -0.411 A  
HETATM   21  C   UNL     1     -12.124  13.157  63.940  1.00  0.00    -0.536 A  
HETATM   22  C   UNL     1     -11.052  11.941  65.738  1.00  0.00    -0.367 A  
HETATM   23  C   UNL     1     -12.197  14.280  64.755  1.00  0.00    -0.456 A  
HETATM   24  C   UNL     1     -11.703  14.229  66.063  1.00  0.00    -0.384 A  
ENDBRANCH  14  19
ENDBRANCH  12  14
ENDBRANCH  11  12
ENDBRANCH  10  11
ENDBRANCH   9  10
ENDBRANCH   8   9
ENDBRANCH   7   8
ENDBRANCH   6   7
ENDBRANCH   3   6
ENDBRANCH   2   3
TORSDOF 11
ENDMDL
MODEL      114
REMARK 921   NORMALIZED FREE ENERGY PREDICTED BY IDOCK:   -4.72 KCAL/MOL
REMARK 922        TOTAL FREE ENERGY PREDICTED BY IDOCK:   -8.57 KCAL/MOL
REMARK 923 INTER-LIGAND FREE ENERGY PREDICTED BY IDOCK:   -7.23 KCAL/MOL
REMARK 924 INTRA-LIGAND FREE ENERGY PREDICTED BY IDOCK:   -1.34 KCAL/MOL
REMARK 927      BINDING AFFINITY PREDICTED BY RF-SCORE:    0.00 PKD
ROOT
HETATM    1  C   UNL     1     -10.846  16.257  67.691  1.00  0.00    -0.293 C  
HETATM    2  C   UNL     1     -10.724  14.761  67.412  1.00  0.00    -0.281 C  
ENDROOT
BRANCH   2   3
HETATM    3  N   UNL     1     -12.012  14.053  67.285  1.00  0.00    -0.411 NA 
BRANCH   3   4
HETATM    4  C   UNL     1     -12.475  13.905  65.897  1.00  0.00    -0.481 C  
HETATM    5  C   UNL     1     -12.174  12.572  65.222  1.00  0.00    -0.493 C  
ENDBRANCH   3   4
BRANCH   3   6
HETATM    6  C   UNL     1     -11.953  12.777  68.034  1.00  0.00    -0.264 C  
BRANCH   6   7
HETATM    7  C   UNL     1     -11.684  12.917  69.541  1.00  0.00    -0.323 C  
BRANCH   7   8
HETATM    8  O   UNL     1     -11.789  11.636  70.180  1.00  0.00    -0.330 OA 
BRANCH   8   9
HETATM    9  C   UNL     1     -12.808  11.659  71.182  1.00  0.00    -0.294 C  
BRANCH   9  10
HETATM   10  C   UNL     1     -13.154  10.239  71.623  1.00  0.00    -0.449 C  
BRANCH  10  11
HETATM   11  O   UNL     1     -11.990   9.391  71.623  1.00  0.00    -0.347 OA 
BRANCH  11  12
HETATM   12  C   UNL     1     -12.197   8.113  71.192  1.00  0.00    -0.239 C  
HETATM   13  O   UNL     1     -13.245   7.499  71.369  1.00  0.00    -0.349 OA 
BRANCH  12  14
HETATM   14  C   UNL     1     -10.948   7.504  70.527  1.00  0.00    -0.266 C  
HETATM   15  C   UNL     1     -11.259   6.207  69.731  1.00  0.00    -0.494 C  
HETATM   16  C   UNL     1     -10.079   6.943  71.685  1.00  0.00    -0.201 C  
HETATM   17  C   UNL     1      -9.238   5.844  71.063  1.00  0.00    -0.163 C  
HETATM   18  C   UNL     1     -10.182   5.173  70.083  1.00  0.00    -0.348 C  
BRANCH  14  19
HETATM   19  C   UNL     1     -10.275   8.558  69.626  1.00  0.00    -0.209 A  
HETATM   20  C   UNL     1      -9.965   9.710  67.494  1.00  0.00    -0.231 A  
HETATM   21  C   UNL     1      -8.935  10.476  68.030  1.00  0.00    -0.135 A  
HETATM   22  C   UNL     1     -10.623   8.760  68.281  1.00  0.00    -0.194 A  
HETATM   23  C   UNL     1      -8.572  10.301  69.359  1.00  0.00    -0.167 A  
HETATM   24  C   UNL     1      -9.240   9.360  70.150  1.00  0.00    -0.268 A  
ENDBRANCH  14  19
ENDBRANCH  12  14
ENDBRANCH  11  12
ENDBRANCH  10  11
ENDBRANCH   9  10
ENDBRANCH   8   9
ENDBRANCH   7   8
ENDBRANCH   6   7
ENDBRANCH   3   6
ENDBRANCH   2   3
TORSDOF 11
ENDMDL
MODEL      115
REMARK 921   NORMALIZED FREE ENERGY PREDICTED BY IDOCK:   -4.72 KCAL/MOL
REMARK 922        TOTAL FREE ENERGY PREDICTED BY IDOCK:   -8.57 KCAL/MOL
REMARK 923 INTER-LIGAND FREE ENERGY PREDICTED BY IDOCK:   -7.32 KCAL/MOL
REMARK 924 INTRA-LIGAND FREE ENERGY PREDICTED BY IDOCK:   -1.25 KCAL/MOL
REMARK 927      BINDING AFFINITY PREDICTED BY RF-SCORE:    0.00 PKD
ROOT
HETATM    1  C   UNL     1     -11.081  14.934  69.755  1.00  0.00    -0.300 C  
HETATM    2  C   UNL     1     -10.845  16.402  69.409  1.00  0.00    -0.327 C  
ENDROOT
BRANCH   2   3
HETATM    3  N   UNL     1     -10.943  16.718  67.971  1.00  0.00    -0.338 NA 
BRANCH   3   4
HETATM    4  C   UNL     1     -10.488  18.075  67.628  1.00  0.00    -0.409 C  
HETATM    5  C   UNL     1      -9.616  18.777  68.662  1.00  0.00    -0.432 C  
ENDBRANCH   3   4
BRANCH   3   6
HETATM    6  C   UNL     1     -10.285  15.651  67.183  1.00  0.00    -0.270 C  
BRANCH   6   7
HETATM    7  C   UNL     1     -11.024  15.235  65.902  1.00  0.00    -0.325 C  
BRANCH   7   8
HETATM    8  O   UNL     1     -10.225  14.311  65.150  1.00  0.00    -0.377 OA 
BRANCH   8   9
HETATM    9  C   UNL     1     -11.004  13.178  64.759  1.00  0.00    -0.336 C  
BRANCH   9  10
HETATM   10  C   UNL     1     -11.471  12.402  65.988  1.00  0.00    -0.382 C  
BRANCH  10  11
HETATM   11  O   UNL     1     -10.579  11.312  66.290  1.00  0.00    -0.251 OA 
BRANCH  11  12
HETATM   12  C   UNL     1     -10.014  11.345  67.532  1.00  0.00    -0.182 C  
HETATM   13  O   UNL     1      -9.568  12.366  68.046  1.00  0.00    -0.198 OA 
BRANCH  12  14
HETATM   14  C   UNL     1      -9.933   9.951  68.182  1.00  0.00    -0.175 C  
HETATM   15  C   UNL     1      -8.476   9.518  68.503  1.00  0.00    -0.119 C  
HETATM   16  C   UNL     1     -10.307   8.938  67.066  1.00  0.00    -0.340 C  
HETATM   17  C   UNL     1      -9.644   7.634  67.467  1.00  0.00    -0.178 C  
HETATM   18  C   UNL     1      -8.309   8.064  68.043  1.00  0.00    -0.126 C  
BRANCH  14  19
HETATM   19  C   UNL     1     -10.812   9.917  69.447  1.00  0.00    -0.265 A  
HETATM   20  C   UNL     1     -11.328   9.156  71.711  1.00  0.00    -0.451 A  
HETATM   21  C   UNL     1     -12.525   9.866  71.702  1.00  0.00    -0.507 A  
HETATM   22  C   UNL     1     -10.485   9.179  70.596  1.00  0.00    -0.305 A  
HETATM   23  C   UNL     1     -12.872  10.609  70.581  1.00  0.00    -0.404 A  
HETATM   24  C   UNL     1     -12.022  10.641  69.471  1.00  0.00    -0.319 A  
ENDBRANCH  14  19
ENDBRANCH  12  14
ENDBRANCH  11  12
ENDBRANCH  10  11
ENDBRANCH   9  10
ENDBRANCH   8   9
ENDBRANCH   7   8
ENDBRANCH   6   7
ENDBRANCH   3   6
ENDBRANCH   2   3
TORSDOF 11
ENDMDL
MODEL      116
REMARK 921   NORMALIZED FREE ENERGY PREDICTED BY IDOCK:   -4.72 KCAL/MOL
REMARK 922        TOTAL FREE ENERGY PREDICTED BY IDOCK:   -8.57 KCAL/MOL
REMARK 923 INTER-LIGAND FREE ENERGY PREDICTED BY IDOCK:   -7.32 KCAL/MOL
REMARK 924 INTRA-LIGAND FREE ENERGY PREDICTED BY IDOCK:   -1.25 KCAL/MOL
REMARK 927      BINDING AFFINITY PREDICTED BY RF-SCORE:    0.00 PKD
ROOT
HETATM    1  C   UNL     1     -12.632  16.178  73.883  1.00  0.00    -0.703 C  
HETATM    2  C   UNL     1     -12.466  14.848  73.150  1.00  0.00    -0.412 C  
ENDROOT
BRANCH   2   3
HETATM    3  N   UNL     1     -12.498  14.950  71.679  1.00  0.00    -0.313 NA 
BRANCH   3   4
HETATM    4  C   UNL     1     -11.210  15.333  71.081  1.00  0.00    -0.330 C  
HETATM    5  C   UNL     1     -11.263  16.381  69.975  1.00  0.00    -0.266 C  
ENDBRANCH   3   4
BRANCH   3   6
HETATM    6  C   UNL     1     -13.076  13.711  71.109  1.00  0.00    -0.234 C  
BRANCH   6   7
HETATM    7  C   UNL     1     -12.123  12.894  70.222  1.00  0.00    -0.302 C  
BRANCH   7   8
HETATM    8  O   UNL     1     -12.137  11.517  70.624  1.00  0.00    -0.363 OA 
BRANCH   8   9
HETATM    9  C   UNL     1     -13.150  11.292  71.607  1.00  0.00    -0.408 C  
BRANCH   9  10
HETATM   10  C   UNL     1     -13.429   9.798  71.754  1.00  0.00    -0.376 C  
BRANCH  10  11
HETATM   11  O   UNL     1     -12.225   9.067  72.055  1.00  0.00    -0.350 OA 
BRANCH  11  12
HETATM   12  C   UNL     1     -12.040   7.922  71.334  1.00  0.00    -0.307 C  
HETATM   13  O   UNL     1     -12.905   7.062  71.194  1.00  0.00    -0.374 OA 
BRANCH  12  14
HETATM   14  C   UNL     1     -10.608   7.799  70.779  1.00  0.00    -0.220 C  
HETATM   15  C   UNL     1      -9.578   8.647  71.574  1.00  0.00    -0.327 C  
HETATM   16  C   UNL     1     -10.615   8.538  69.414  1.00  0.00    -0.203 C  
HETATM   17  C   UNL     1      -9.179   8.967  69.181  1.00  0.00    -0.144 C  
HETATM   18  C   UNL     1      -8.693   9.379  70.557  1.00  0.00    -0.276 C  
BRANCH  14  19
HETATM   19  C   UNL     1     -10.193   6.315  70.743  1.00  0.00    -0.238 A  
HETATM   20  C   UNL     1      -9.839   4.189  69.593  1.00  0.00    -0.208 A  
HETATM   21  C   UNL     1      -9.475   3.576  70.787  1.00  0.00    -0.240 A  
HETATM   22  C   UNL     1     -10.197   5.541  69.572  1.00  0.00    -0.331 A  
HETATM   23  C   UNL     1      -9.458   4.319  71.960  1.00  0.00    -0.192 A  
HETATM   24  C   UNL     1      -9.804   5.674  71.937  1.00  0.00    -0.203 A  
ENDBRANCH  14  19
ENDBRANCH  12  14
ENDBRANCH  11  12
ENDBRANCH  10  11
ENDBRANCH   9  10
ENDBRANCH   8   9
ENDBRANCH   7   8
ENDBRANCH   6   7
ENDBRANCH   3   6
ENDBRANCH   2   3
TORSDOF 11
ENDMDL
MODEL      117
REMARK 921   NORMALIZED FREE ENERGY PREDICTED BY IDOCK:   -4.71 KCAL/MOL
REMARK 922        TOTAL FREE ENERGY PREDICTED BY IDOCK:   -8.56 KCAL/MOL
REMARK 923 INTER-LIGAND FREE ENERGY PREDICTED BY IDOCK:   -7.09 KCAL/MOL
REMARK 924 INTRA-LIGAND FREE ENERGY PREDICTED BY IDOCK:   -1.47 KCAL/MOL
REMARK 927      BINDING AFFINITY PREDICTED BY RF-SCORE:    0.00 PKD
ROOT
HETATM    1  C   UNL     1     -10.748   9.700  67.573  1.00  0.00    -0.321 C  
HETATM    2  C   UNL     1      -9.764   8.752  66.892  1.00  0.00    -0.210 C  
ENDROOT
BRANCH   2   3
HETATM    3  N   UNL     1      -8.763   9.417  66.036  1.00  0.00    -0.144 NA 
BRANCH   3   4
HETATM    4  C   UNL     1      -7.452   8.751  66.027  1.00  0.00    -0.089 C  
HETATM    5  C   UNL     1      -6.273   9.572  66.535  1.00  0.00    -0.065 C  
ENDBRANCH   3   4
BRANCH   3   6
HETATM    6  C   UNL     1      -9.332   9.634  64.686  1.00  0.00    -0.207 C  
BRANCH   6   7
HETATM    7  C   UNL     1      -8.725  10.810  63.904  1.00  0.00    -0.075 C  
BRANCH   7   8
HETATM    8  O   UNL     1      -9.669  11.301  62.941  1.00  0.00    -0.339 OA 
BRANCH   8   9
HETATM    9  C   UNL     1     -10.998  11.231  63.464  1.00  0.00    -0.245 C  
BRANCH   9  10
HETATM   10  C   UNL     1     -11.417  12.583  64.036  1.00  0.00    -0.409 C  
BRANCH  10  11
HETATM   11  O   UNL     1     -11.439  12.558  65.476  1.00  0.00    -0.320 OA 
BRANCH  11  12
HETATM   12  C   UNL     1     -11.949  13.676  66.072  1.00  0.00    -0.413 C  
HETATM   13  O   UNL     1     -13.065  14.125  65.828  1.00  0.00    -0.512 OA 
BRANCH  12  14
HETATM   14  C   UNL     1     -10.943  14.348  67.027  1.00  0.00    -0.304 C  
HETATM   15  C   UNL     1     -10.639  15.822  66.643  1.00  0.00    -0.307 C  
HETATM   16  C   UNL     1      -9.573  13.676  66.744  1.00  0.00    -0.277 C  
HETATM   17  C   UNL     1      -8.530  14.695  67.162  1.00  0.00    -0.244 C  
HETATM   18  C   UNL     1      -9.121  16.022  66.727  1.00  0.00    -0.271 C  
BRANCH  14  19
HETATM   19  C   UNL     1     -11.459  14.248  68.476  1.00  0.00    -0.329 A  
HETATM   20  C   UNL     1     -12.174  12.987  70.443  1.00  0.00    -0.386 A  
HETATM   21  C   UNL     1     -12.471  14.165  71.120  1.00  0.00    -0.445 A  
HETATM   22  C   UNL     1     -11.678  13.028  69.136  1.00  0.00    -0.378 A  
HETATM   23  C   UNL     1     -12.260  15.386  70.494  1.00  0.00    -0.436 A  
HETATM   24  C   UNL     1     -11.751  15.428  69.191  1.00  0.00    -0.364 A  
ENDBRANCH  14  19
ENDBRANCH  12  14
ENDBRANCH  11  12
ENDBRANCH  10  11
ENDBRANCH   9  10
ENDBRANCH   8   9
ENDBRANCH   7   8
ENDBRANCH   6   7
ENDBRANCH   3   6
ENDBRANCH   2   3
TORSDOF 11
ENDMDL
MODEL      118
REMARK 921   NORMALIZED FREE ENERGY PREDICTED BY IDOCK:   -4.71 KCAL/MOL
REMARK 922        TOTAL FREE ENERGY PREDICTED BY IDOCK:   -8.56 KCAL/MOL
REMARK 923 INTER-LIGAND FREE ENERGY PREDICTED BY IDOCK:   -6.96 KCAL/MOL
REMARK 924 INTRA-LIGAND FREE ENERGY PREDICTED BY IDOCK:   -1.59 KCAL/MOL
REMARK 927      BINDING AFFINITY PREDICTED BY RF-SCORE:    0.00 PKD
ROOT
HETATM    1  C   UNL     1     -11.032  10.571  69.269  1.00  0.00    -0.291 C  
HETATM    2  C   UNL     1     -11.609  11.031  67.932  1.00  0.00    -0.226 C  
ENDROOT
BRANCH   2   3
HETATM    3  N   UNL     1     -10.614  11.579  66.990  1.00  0.00    -0.231 NA 
BRANCH   3   4
HETATM    4  C   UNL     1      -9.626  10.591  66.529  1.00  0.00    -0.174 C  
HETATM    5  C   UNL     1      -8.160  10.948  66.749  1.00  0.00    -0.142 C  
ENDBRANCH   3   4
BRANCH   3   6
HETATM    6  C   UNL     1     -11.309  12.287  65.891  1.00  0.00    -0.360 C  
BRANCH   6   7
HETATM    7  C   UNL     1     -12.383  13.291  66.339  1.00  0.00    -0.282 C  
BRANCH   7   8
HETATM    8  O   UNL     1     -13.012  13.882  65.192  1.00  0.00    -0.744 OA 
BRANCH   8   9
HETATM    9  C   UNL     1     -12.031  14.441  64.316  1.00  0.00    -0.410 C  
BRANCH   9  10
HETATM   10  C   UNL     1     -11.971  15.957  64.481  1.00  0.00     0.006 C  
BRANCH  10  11
HETATM   11  O   UNL     1     -10.648  16.392  64.850  1.00  0.00    -0.677 OA 
BRANCH  11  12
HETATM   12  C   UNL     1     -10.583  17.612  65.460  1.00  0.00    -0.068 C  
HETATM   13  O   UNL     1     -11.130  18.620  65.021  1.00  0.00    -0.488 OA 
BRANCH  12  14
HETATM   14  C   UNL     1      -9.691  17.598  66.715  1.00  0.00    -0.300 C  
HETATM   15  C   UNL     1      -9.663  18.966  67.452  1.00  0.00    -0.357 C  
HETATM   16  C   UNL     1      -8.230  17.507  66.199  1.00  0.00    -0.222 C  
HETATM   17  C   UNL     1      -7.375  18.112  67.296  1.00  0.00    -0.219 C  
HETATM   18  C   UNL     1      -8.203  19.277  67.804  1.00  0.00    -0.322 C  
BRANCH  14  19
HETATM   19  C   UNL     1     -10.145  16.469  67.661  1.00  0.00    -0.266 A  
HETATM   20  C   UNL     1     -11.756  15.415  69.165  1.00  0.00    -0.364 A  
HETATM   21  C   UNL     1     -10.864  14.383  69.436  1.00  0.00    -0.227 A  
HETATM   22  C   UNL     1     -11.399  16.448  68.292  1.00  0.00    -0.241 A  
HETATM   23  C   UNL     1      -9.618  14.376  68.823  1.00  0.00    -0.177 A  
HETATM   24  C   UNL     1      -9.266  15.402  67.939  1.00  0.00    -0.180 A  
ENDBRANCH  14  19
ENDBRANCH  12  14
ENDBRANCH  11  12
ENDBRANCH  10  11
ENDBRANCH   9  10
ENDBRANCH   8   9
ENDBRANCH   7   8
ENDBRANCH   6   7
ENDBRANCH   3   6
ENDBRANCH   2   3
TORSDOF 11
ENDMDL
MODEL      119
REMARK 921   NORMALIZED FREE ENERGY PREDICTED BY IDOCK:   -4.71 KCAL/MOL
REMARK 922        TOTAL FREE ENERGY PREDICTED BY IDOCK:   -8.55 KCAL/MOL
REMARK 923 INTER-LIGAND FREE ENERGY PREDICTED BY IDOCK:   -6.65 KCAL/MOL
REMARK 924 INTRA-LIGAND FREE ENERGY PREDICTED BY IDOCK:   -1.90 KCAL/MOL
REMARK 927      BINDING AFFINITY PREDICTED BY RF-SCORE:    0.00 PKD
ROOT
HETATM    1  C   UNL     1     -10.328  17.795  66.439  1.00  0.00    -0.351 C  
HETATM    2  C   UNL     1     -10.482  16.436  65.760  1.00  0.00    -0.354 C  
ENDROOT
BRANCH   2   3
HETATM    3  N   UNL     1     -10.856  15.335  66.667  1.00  0.00    -0.311 NA 
BRANCH   3   4
HETATM    4  C   UNL     1     -11.283  15.783  68.002  1.00  0.00    -0.338 C  
HETATM    5  C   UNL     1     -10.579  15.138  69.189  1.00  0.00    -0.256 C  
ENDBRANCH   3   4
BRANCH   3   6
HETATM    6  C   UNL     1     -11.832  14.448  65.994  1.00  0.00    -0.372 C  
BRANCH   6   7
HETATM    7  C   UNL     1     -11.979  14.669  64.480  1.00  0.00    -0.460 C  
BRANCH   7   8
HETATM    8  O   UNL     1     -11.862  13.419  63.786  1.00  0.00    -0.446 OA 
BRANCH   8   9
HETATM    9  C   UNL     1     -10.562  12.858  63.983  1.00  0.00    -0.389 C  
BRANCH   9  10
HETATM   10  C   UNL     1     -10.664  11.365  64.282  1.00  0.00    -0.356 C  
BRANCH  10  11
HETATM   11  O   UNL     1     -11.104  11.130  65.633  1.00  0.00    -0.150 OA 
BRANCH  11  12
HETATM   12  C   UNL     1     -10.299  10.316  66.377  1.00  0.00    -0.195 C  
HETATM   13  O   UNL     1      -9.803   9.278  65.949  1.00  0.00    -0.281 OA 
BRANCH  12  14
HETATM   14  C   UNL     1     -10.144  10.806  67.829  1.00  0.00    -0.201 C  
HETATM   15  C   UNL     1     -10.233   9.654  68.868  1.00  0.00    -0.214 C  
HETATM   16  C   UNL     1     -11.437  11.601  68.152  1.00  0.00    -0.382 C  
HETATM   17  C   UNL     1     -11.587  11.531  69.660  1.00  0.00    -0.403 C  
HETATM   18  C   UNL     1     -11.147  10.122  70.007  1.00  0.00    -0.368 C  
BRANCH  14  19
HETATM   19  C   UNL     1      -8.820  11.581  67.975  1.00  0.00    -0.158 A  
HETATM   20  C   UNL     1      -7.329  13.446  67.457  1.00  0.00    -0.165 A  
HETATM   21  C   UNL     1      -6.329  12.900  68.255  1.00  0.00    -0.085 A  
HETATM   22  C   UNL     1      -8.557  12.792  67.316  1.00  0.00    -0.197 A  
HETATM   23  C   UNL     1      -6.562  11.705  68.923  1.00  0.00    -0.079 A  
HETATM   24  C   UNL     1      -7.796  11.058  68.792  1.00  0.00    -0.138 A  
ENDBRANCH  14  19
ENDBRANCH  12  14
ENDBRANCH  11  12
ENDBRANCH  10  11
ENDBRANCH   9  10
ENDBRANCH   8   9
ENDBRANCH   7   8
ENDBRANCH   6   7
ENDBRANCH   3   6
ENDBRANCH   2   3
TORSDOF 11
ENDMDL
MODEL      120
REMARK 921   NORMALIZED FREE ENERGY PREDICTED BY IDOCK:   -4.70 KCAL/MOL
REMARK 922        TOTAL FREE ENERGY PREDICTED BY IDOCK:   -8.54 KCAL/MOL
REMARK 923 INTER-LIGAND FREE ENERGY PREDICTED BY IDOCK:   -7.36 KCAL/MOL
REMARK 924 INTRA-LIGAND FREE ENERGY PREDICTED BY IDOCK:   -1.17 KCAL/MOL
REMARK 927      BINDING AFFINITY PREDICTED BY RF-SCORE:    0.00 PKD
ROOT
HETATM    1  C   UNL     1      -9.355   8.506  72.238  1.00  0.00    -0.363 C  
HETATM    2  C   UNL     1      -9.875   8.860  70.846  1.00  0.00    -0.242 C  
ENDROOT
BRANCH   2   3
HETATM    3  N   UNL     1     -11.342   8.790  70.702  1.00  0.00    -0.263 NA 
BRANCH   3   4
HETATM    4  C   UNL     1     -11.876   7.419  70.717  1.00  0.00    -0.258 C  
HETATM    5  C   UNL     1     -11.258   6.443  69.724  1.00  0.00    -0.484 C  
ENDBRANCH   3   4
BRANCH   3   6
HETATM    6  C   UNL     1     -11.980   9.691  71.689  1.00  0.00    -0.394 C  
BRANCH   6   7
HETATM    7  C   UNL     1     -12.852  10.804  71.088  1.00  0.00    -0.414 C  
BRANCH   7   8
HETATM    8  O   UNL     1     -12.548  10.970  69.696  1.00  0.00    -0.238 OA 
BRANCH   8   9
HETATM    9  C   UNL     1     -11.764  12.148  69.492  1.00  0.00    -0.336 C  
BRANCH   9  10
HETATM   10  C   UNL     1     -12.441  13.356  70.135  1.00  0.00    -0.174 C  
BRANCH  10  11
HETATM   11  O   UNL     1     -12.478  14.478  69.233  1.00  0.00    -0.201 OA 
BRANCH  11  12
HETATM   12  C   UNL     1     -11.453  15.370  69.365  1.00  0.00    -0.324 C  
HETATM   13  O   UNL     1     -11.234  16.004  70.393  1.00  0.00    -0.342 OA 
BRANCH  12  14
HETATM   14  C   UNL     1     -10.648  15.542  68.063  1.00  0.00    -0.270 C  
HETATM   15  C   UNL     1     -11.441  15.105  66.801  1.00  0.00    -0.195 C  
HETATM   16  C   UNL     1      -9.532  14.463  68.105  1.00  0.00    -0.204 C  
HETATM   17  C   UNL     1      -9.172  14.200  66.655  1.00  0.00    -0.272 C  
HETATM   18  C   UNL     1     -10.503  14.258  65.931  1.00  0.00    -0.315 C  
BRANCH  14  19
HETATM   19  C   UNL     1     -10.171  17.003  67.938  1.00  0.00    -0.317 A  
HETATM   20  C   UNL     1      -8.553  18.796  68.307  1.00  0.00    -0.357 A  
HETATM   21  C   UNL     1      -9.411  19.722  67.721  1.00  0.00    -0.443 A  
HETATM   22  C   UNL     1      -8.931  17.454  68.417  1.00  0.00    -0.277 A  
HETATM   23  C   UNL     1     -10.642  19.303  67.235  1.00  0.00    -0.590 A  
HETATM   24  C   UNL     1     -11.014  17.958  67.334  1.00  0.00    -0.089 A  
ENDBRANCH  14  19
ENDBRANCH  12  14
ENDBRANCH  11  12
ENDBRANCH  10  11
ENDBRANCH   9  10
ENDBRANCH   8   9
ENDBRANCH   7   8
ENDBRANCH   6   7
ENDBRANCH   3   6
ENDBRANCH   2   3
TORSDOF 11
ENDMDL
MODEL      121
REMARK 921   NORMALIZED FREE ENERGY PREDICTED BY IDOCK:   -4.70 KCAL/MOL
REMARK 922        TOTAL FREE ENERGY PREDICTED BY IDOCK:   -8.53 KCAL/MOL
REMARK 923 INTER-LIGAND FREE ENERGY PREDICTED BY IDOCK:   -6.83 KCAL/MOL
REMARK 924 INTRA-LIGAND FREE ENERGY PREDICTED BY IDOCK:   -1.70 KCAL/MOL
REMARK 927      BINDING AFFINITY PREDICTED BY RF-SCORE:    0.00 PKD
ROOT
HETATM    1  C   UNL     1     -11.782  11.330  69.870  1.00  0.00    -0.430 C  
HETATM    2  C   UNL     1     -10.855  10.129  69.695  1.00  0.00    -0.263 C  
ENDROOT
BRANCH   2   3
HETATM    3  N   UNL     1     -10.472   9.847  68.298  1.00  0.00    -0.198 NA 
BRANCH   3   4
HETATM    4  C   UNL     1     -10.983  10.831  67.332  1.00  0.00    -0.300 C  
HETATM    5  C   UNL     1     -10.272  10.887  65.985  1.00  0.00    -0.311 C  
ENDBRANCH   3   4
BRANCH   3   6
HETATM    6  C   UNL     1      -9.009   9.634  68.218  1.00  0.00    -0.123 C  
BRANCH   6   7
HETATM    7  C   UNL     1      -8.159  10.640  69.011  1.00  0.00    -0.148 C  
BRANCH   7   8
HETATM    8  O   UNL     1      -7.253  11.320  68.132  1.00  0.00    -0.075 OA 
BRANCH   8   9
HETATM    9  C   UNL     1      -7.224  12.719  68.427  1.00  0.00    -0.115 C  
BRANCH   9  10
HETATM   10  C   UNL     1      -8.238  13.467  67.564  1.00  0.00    -0.185 C  
BRANCH  10  11
HETATM   11  O   UNL     1      -7.979  14.884  67.561  1.00  0.00    -0.148 OA 
BRANCH  11  12
HETATM   12  C   UNL     1      -8.869  15.642  68.265  1.00  0.00    -0.180 C  
HETATM   13  O   UNL     1      -8.986  15.592  69.486  1.00  0.00    -0.271 OA 
BRANCH  12  14
HETATM   14  C   UNL     1      -9.757  16.511  67.353  1.00  0.00    -0.246 C  
HETATM   15  C   UNL     1      -8.934  17.415  66.394  1.00  0.00    -0.274 C  
HETATM   16  C   UNL     1     -10.410  17.572  68.278  1.00  0.00    -0.379 C  
HETATM   17  C   UNL     1     -10.737  18.747  67.376  1.00  0.00    -0.487 C  
HETATM   18  C   UNL     1      -9.557  18.816  66.425  1.00  0.00    -0.354 C  
BRANCH  14  19
HETATM   19  C   UNL     1     -10.728  15.610  66.565  1.00  0.00    -0.293 A  
HETATM   20  C   UNL     1     -11.728  14.786  64.493  1.00  0.00    -0.398 A  
HETATM   21  C   UNL     1     -12.593  13.965  65.209  1.00  0.00    -0.508 A  
HETATM   22  C   UNL     1     -10.810  15.601  65.164  1.00  0.00    -0.448 A  
HETATM   23  C   UNL     1     -12.532  13.950  66.596  1.00  0.00    -0.313 A  
HETATM   24  C   UNL     1     -11.604  14.755  67.266  1.00  0.00    -0.385 A  
ENDBRANCH  14  19
ENDBRANCH  12  14
ENDBRANCH  11  12
ENDBRANCH  10  11
ENDBRANCH   9  10
ENDBRANCH   8   9
ENDBRANCH   7   8
ENDBRANCH   6   7
ENDBRANCH   3   6
ENDBRANCH   2   3
TORSDOF 11
ENDMDL
MODEL      122
REMARK 921   NORMALIZED FREE ENERGY PREDICTED BY IDOCK:   -4.69 KCAL/MOL
REMARK 922        TOTAL FREE ENERGY PREDICTED BY IDOCK:   -8.53 KCAL/MOL
REMARK 923 INTER-LIGAND FREE ENERGY PREDICTED BY IDOCK:   -7.45 KCAL/MOL
REMARK 924 INTRA-LIGAND FREE ENERGY PREDICTED BY IDOCK:   -1.08 KCAL/MOL
REMARK 927      BINDING AFFINITY PREDICTED BY RF-SCORE:    0.00 PKD
ROOT
HETATM    1  C   UNL     1      -9.319   9.836  65.517  1.00  0.00    -0.299 C  
HETATM    2  C   UNL     1     -10.260  10.554  64.552  1.00  0.00    -0.285 C  
ENDROOT
BRANCH   2   3
HETATM    3  N   UNL     1     -10.210  12.027  64.626  1.00  0.00    -0.274 NA 
BRANCH   3   4
HETATM    4  C   UNL     1     -11.172  12.700  63.741  1.00  0.00    -0.463 C  
HETATM    5  C   UNL     1     -12.364  11.869  63.281  1.00  0.00    -0.508 C  
ENDBRANCH   3   4
BRANCH   3   6
HETATM    6  C   UNL     1     -10.299  12.455  66.041  1.00  0.00    -0.251 C  
BRANCH   6   7
HETATM    7  C   UNL     1     -11.647  12.174  66.724  1.00  0.00    -0.345 C  
BRANCH   7   8
HETATM    8  O   UNL     1     -11.844  13.083  67.817  1.00  0.00    -0.349 OA 
BRANCH   8   9
HETATM    9  C   UNL     1     -12.154  14.390  67.330  1.00  0.00    -0.323 C  
BRANCH   9  10
HETATM   10  C   UNL     1     -11.427  15.452  68.152  1.00  0.00    -0.343 C  
BRANCH  10  11
HETATM   11  O   UNL     1     -10.270  15.953  67.457  1.00  0.00    -0.257 OA 
BRANCH  11  12
HETATM   12  C   UNL     1      -9.066  15.577  67.980  1.00  0.00    -0.182 C  
HETATM   13  O   UNL     1      -8.868  14.490  68.513  1.00  0.00    -0.174 OA 
BRANCH  12  14
HETATM   14  C   UNL     1      -8.009  16.695  67.891  1.00  0.00    -0.177 C  
HETATM   15  C   UNL     1      -6.950  16.438  66.783  1.00  0.00    -0.212 C  
HETATM   16  C   UNL     1      -7.141  16.564  69.171  1.00  0.00    -0.227 C  
HETATM   17  C   UNL     1      -5.800  17.175  68.813  1.00  0.00    -0.148 C  
HETATM   18  C   UNL     1      -5.569  16.737  67.380  1.00  0.00    -0.180 C  
BRANCH  14  19
HETATM   19  C   UNL     1      -8.707  18.053  67.684  1.00  0.00    -0.247 A  
HETATM   20  C   UNL     1     -10.057  19.939  68.453  1.00  0.00    -0.557 A  
HETATM   21  C   UNL     1     -10.014  20.517  67.189  1.00  0.00    -0.512 A  
HETATM   22  C   UNL     1      -9.415  18.720  68.696  1.00  0.00    -0.412 A  
HETATM   23  C   UNL     1      -9.318  19.881  66.169  1.00  0.00    -0.442 A  
HETATM   24  C   UNL     1      -8.665  18.669  66.416  1.00  0.00    -0.286 A  
ENDBRANCH  14  19
ENDBRANCH  12  14
ENDBRANCH  11  12
ENDBRANCH  10  11
ENDBRANCH   9  10
ENDBRANCH   8   9
ENDBRANCH   7   8
ENDBRANCH   6   7
ENDBRANCH   3   6
ENDBRANCH   2   3
TORSDOF 11
ENDMDL
MODEL      123
REMARK 921   NORMALIZED FREE ENERGY PREDICTED BY IDOCK:   -4.69 KCAL/MOL
REMARK 922        TOTAL FREE ENERGY PREDICTED BY IDOCK:   -8.52 KCAL/MOL
REMARK 923 INTER-LIGAND FREE ENERGY PREDICTED BY IDOCK:   -7.42 KCAL/MOL
REMARK 924 INTRA-LIGAND FREE ENERGY PREDICTED BY IDOCK:   -1.10 KCAL/MOL
REMARK 927      BINDING AFFINITY PREDICTED BY RF-SCORE:    0.00 PKD
ROOT
HETATM    1  C   UNL     1     -11.155   6.335  68.405  1.00  0.00    -0.371 C  
HETATM    2  C   UNL     1     -10.757   5.902  69.815  1.00  0.00    -0.340 C  
ENDROOT
BRANCH   2   3
HETATM    3  N   UNL     1     -10.580   7.011  70.771  1.00  0.00    -0.216 NA 
BRANCH   3   4
HETATM    4  C   UNL     1     -10.266   6.572  72.139  1.00  0.00    -0.185 C  
HETATM    5  C   UNL     1     -10.781   7.457  73.268  1.00  0.00    -0.441 C  
ENDBRANCH   3   4
BRANCH   3   6
HETATM    6  C   UNL     1      -9.614   7.990  70.221  1.00  0.00    -0.171 C  
BRANCH   6   7
HETATM    7  C   UNL     1     -10.190   9.386  69.938  1.00  0.00    -0.222 C  
BRANCH   7   8
HETATM    8  O   UNL     1     -11.467   9.530  70.576  1.00  0.00    -0.262 OA 
BRANCH   8   9
HETATM    9  C   UNL     1     -11.955  10.865  70.424  1.00  0.00    -0.362 C  
BRANCH   9  10
HETATM   10  C   UNL     1     -11.901  11.289  68.958  1.00  0.00    -0.352 C  
BRANCH  10  11
HETATM   11  O   UNL     1     -11.542  12.678  68.827  1.00  0.00    -0.269 OA 
BRANCH  11  12
HETATM   12  C   UNL     1     -10.424  12.925  68.084  1.00  0.00    -0.237 C  
HETATM   13  O   UNL     1      -9.289  12.633  68.450  1.00  0.00    -0.205 OA 
BRANCH  12  14
HETATM   14  C   UNL     1     -10.738  13.672  66.774  1.00  0.00    -0.272 C  
HETATM   15  C   UNL     1     -12.246  13.636  66.405  1.00  0.00    -0.472 C  
HETATM   16  C   UNL     1     -10.131  12.810  65.635  1.00  0.00    -0.281 C  
HETATM   17  C   UNL     1     -10.936  13.153  64.396  1.00  0.00    -0.412 C  
HETATM   18  C   UNL     1     -12.354  13.303  64.912  1.00  0.00    -0.476 C  
BRANCH  14  19
HETATM   19  C   UNL     1     -10.226  15.123  66.870  1.00  0.00    -0.259 A  
HETATM   20  C   UNL     1      -8.596  16.884  66.408  1.00  0.00    -0.328 A  
HETATM   21  C   UNL     1      -9.333  17.795  67.157  1.00  0.00    -0.264 A  
HETATM   22  C   UNL     1      -9.035  15.563  66.270  1.00  0.00    -0.362 A  
HETATM   23  C   UNL     1     -10.518  17.389  67.757  1.00  0.00    -0.376 A  
HETATM   24  C   UNL     1     -10.963  16.071  67.608  1.00  0.00    -0.284 A  
ENDBRANCH  14  19
ENDBRANCH  12  14
ENDBRANCH  11  12
ENDBRANCH  10  11
ENDBRANCH   9  10
ENDBRANCH   8   9
ENDBRANCH   7   8
ENDBRANCH   6   7
ENDBRANCH   3   6
ENDBRANCH   2   3
TORSDOF 11
ENDMDL
MODEL      124
REMARK 921   NORMALIZED FREE ENERGY PREDICTED BY IDOCK:   -4.69 KCAL/MOL
REMARK 922        TOTAL FREE ENERGY PREDICTED BY IDOCK:   -8.52 KCAL/MOL
REMARK 923 INTER-LIGAND FREE ENERGY PREDICTED BY IDOCK:   -7.42 KCAL/MOL
REMARK 924 INTRA-LIGAND FREE ENERGY PREDICTED BY IDOCK:   -1.10 KCAL/MOL
REMARK 927      BINDING AFFINITY PREDICTED BY RF-SCORE:    0.00 PKD
ROOT
HETATM    1  C   UNL     1     -11.403   5.224  72.797  1.00  0.00    -0.342 C  
HETATM    2  C   UNL     1     -11.192   6.688  72.417  1.00  0.00    -0.267 C  
ENDROOT
BRANCH   2   3
HETATM    3  N   UNL     1     -10.546   6.896  71.108  1.00  0.00    -0.220 NA 
BRANCH   3   4
HETATM    4  C   UNL     1      -9.174   7.419  71.198  1.00  0.00    -0.155 C  
HETATM    5  C   UNL     1      -8.094   6.418  71.592  1.00  0.00    -0.109 C  
ENDBRANCH   3   4
BRANCH   3   6
HETATM    6  C   UNL     1     -10.664   5.664  70.295  1.00  0.00    -0.294 C  
BRANCH   6   7
HETATM    7  C   UNL     1     -10.423   5.850  68.789  1.00  0.00    -0.249 C  
BRANCH   7   8
HETATM    8  O   UNL     1     -11.146   6.994  68.313  1.00  0.00    -0.122 OA 
BRANCH   8   9
HETATM    9  C   UNL     1     -10.265   7.904  67.652  1.00  0.00    -0.226 C  
BRANCH   9  10
HETATM   10  C   UNL     1     -10.606   9.344  68.026  1.00  0.00    -0.226 C  
BRANCH  10  11
HETATM   11  O   UNL     1     -10.454  10.229  66.899  1.00  0.00    -0.231 OA 
BRANCH  11  12
HETATM   12  C   UNL     1     -11.254  11.334  66.912  1.00  0.00    -0.230 C  
HETATM   13  O   UNL     1     -12.057  11.580  67.808  1.00  0.00    -0.626 OA 
BRANCH  12  14
HETATM   14  C   UNL     1     -11.089  12.198  65.647  1.00  0.00    -0.360 C  
HETATM   15  C   UNL     1     -12.437  12.478  64.927  1.00  0.00    -0.524 C  
HETATM   16  C   UNL     1     -10.375  11.295  64.605  1.00  0.00    -0.373 C  
HETATM   17  C   UNL     1     -10.766  11.856  63.251  1.00  0.00    -0.415 C  
HETATM   18  C   UNL     1     -12.220  12.253  63.426  1.00  0.00    -0.630 C  
BRANCH  14  19
HETATM   19  C   UNL     1     -10.370  13.513  66.008  1.00  0.00    -0.303 A  
HETATM   20  C   UNL     1     -10.116  15.941  65.918  1.00  0.00    -0.376 A  
HETATM   21  C   UNL     1      -8.944  15.870  66.666  1.00  0.00    -0.301 A  
HETATM   22  C   UNL     1     -10.817  14.777  65.590  1.00  0.00    -0.344 A  
HETATM   23  C   UNL     1      -8.481  14.633  67.096  1.00  0.00    -0.244 A  
HETATM   24  C   UNL     1      -9.191  13.470  66.778  1.00  0.00    -0.248 A  
ENDBRANCH  14  19
ENDBRANCH  12  14
ENDBRANCH  11  12
ENDBRANCH  10  11
ENDBRANCH   9  10
ENDBRANCH   8   9
ENDBRANCH   7   8
ENDBRANCH   6   7
ENDBRANCH   3   6
ENDBRANCH   2   3
TORSDOF 11
ENDMDL
MODEL      125
REMARK 921   NORMALIZED FREE ENERGY PREDICTED BY IDOCK:   -4.68 KCAL/MOL
REMARK 922        TOTAL FREE ENERGY PREDICTED BY IDOCK:   -8.51 KCAL/MOL
REMARK 923 INTER-LIGAND FREE ENERGY PREDICTED BY IDOCK:   -7.08 KCAL/MOL
REMARK 924 INTRA-LIGAND FREE ENERGY PREDICTED BY IDOCK:   -1.42 KCAL/MOL
REMARK 927      BINDING AFFINITY PREDICTED BY RF-SCORE:    0.00 PKD
ROOT
HETATM    1  C   UNL     1      -6.133   9.420  63.105  1.00  0.00    -0.091 C  
HETATM    2  C   UNL     1      -6.379   8.673  64.414  1.00  0.00    -0.067 C  
ENDROOT
BRANCH   2   3
HETATM    3  N   UNL     1      -7.797   8.386  64.700  1.00  0.00    -0.119 NA 
BRANCH   3   4
HETATM    4  C   UNL     1      -8.138   8.440  66.130  1.00  0.00    -0.106 C  
HETATM    5  C   UNL     1      -9.463   7.806  66.534  1.00  0.00    -0.262 C  
ENDBRANCH   3   4
BRANCH   3   6
HETATM    6  C   UNL     1      -8.657   9.239  63.849  1.00  0.00    -0.192 C  
BRANCH   6   7
HETATM    7  C   UNL     1      -9.042  10.595  64.461  1.00  0.00    -0.217 C  
BRANCH   7   8
HETATM    8  O   UNL     1     -10.466  10.768  64.419  1.00  0.00    -0.365 OA 
BRANCH   8   9
HETATM    9  C   UNL     1     -10.796  12.110  64.054  1.00  0.00    -0.383 C  
BRANCH   9  10
HETATM   10  C   UNL     1     -12.203  12.462  64.533  1.00  0.00    -0.431 C  
BRANCH  10  11
HETATM   11  O   UNL     1     -12.346  12.241  65.949  1.00  0.00    -0.618 OA 
BRANCH  11  12
HETATM   12  C   UNL     1     -11.987  13.291  66.744  1.00  0.00    -0.382 C  
HETATM   13  O   UNL     1     -12.316  14.453  66.522  1.00  0.00    -0.411 OA 
BRANCH  12  14
HETATM   14  C   UNL     1     -11.066  12.867  67.904  1.00  0.00    -0.283 C  
HETATM   15  C   UNL     1      -9.562  12.875  67.515  1.00  0.00    -0.200 C  
HETATM   16  C   UNL     1     -11.314  11.349  68.111  1.00  0.00    -0.374 C  
HETATM   17  C   UNL     1     -10.044  10.816  68.746  1.00  0.00    -0.202 C  
HETATM   18  C   UNL     1      -8.937  11.578  68.045  1.00  0.00    -0.170 C  
BRANCH  14  19
HETATM   19  C   UNL     1     -11.326  13.767  69.127  1.00  0.00    -0.329 A  
HETATM   20  C   UNL     1     -12.503  14.338  71.191  1.00  0.00    -0.433 A  
HETATM   21  C   UNL     1     -11.777  15.519  71.307  1.00  0.00    -0.457 A  
HETATM   22  C   UNL     1     -12.283  13.476  70.112  1.00  0.00    -0.400 A  
HETATM   23  C   UNL     1     -10.820  15.831  70.350  1.00  0.00    -0.345 A  
HETATM   24  C   UNL     1     -10.591  14.962  69.278  1.00  0.00    -0.248 A  
ENDBRANCH  14  19
ENDBRANCH  12  14
ENDBRANCH  11  12
ENDBRANCH  10  11
ENDBRANCH   9  10
ENDBRANCH   8   9
ENDBRANCH   7   8
ENDBRANCH   6   7
ENDBRANCH   3   6
ENDBRANCH   2   3
TORSDOF 11
ENDMDL
MODEL      126
REMARK 921   NORMALIZED FREE ENERGY PREDICTED BY IDOCK:   -4.68 KCAL/MOL
REMARK 922        TOTAL FREE ENERGY PREDICTED BY IDOCK:   -8.50 KCAL/MOL
REMARK 923 INTER-LIGAND FREE ENERGY PREDICTED BY IDOCK:   -7.31 KCAL/MOL
REMARK 924 INTRA-LIGAND FREE ENERGY PREDICTED BY IDOCK:   -1.20 KCAL/MOL
REMARK 927      BINDING AFFINITY PREDICTED BY RF-SCORE:    0.00 PKD
ROOT
HETATM    1  C   UNL     1      -9.716   4.592  70.825  1.00  0.00    -0.267 C  
HETATM    2  C   UNL     1      -9.734   6.117  70.753  1.00  0.00    -0.177 C  
ENDROOT
BRANCH   2   3
HETATM    3  N   UNL     1      -9.426   6.673  69.422  1.00  0.00    -0.146 NA 
BRANCH   3   4
HETATM    4  C   UNL     1      -9.761   5.771  68.309  1.00  0.00    -0.129 C  
HETATM    5  C   UNL     1     -10.987   6.142  67.484  1.00  0.00    -0.404 C  
ENDBRANCH   3   4
BRANCH   3   6
HETATM    6  C   UNL     1     -10.022   8.023  69.298  1.00  0.00    -0.191 C  
BRANCH   6   7
HETATM    7  C   UNL     1      -9.149   9.058  68.572  1.00  0.00    -0.133 C  
BRANCH   7   8
HETATM    8  O   UNL     1      -9.915  10.238  68.292  1.00  0.00    -0.143 OA 
BRANCH   8   9
HETATM    9  C   UNL     1     -10.613  10.671  69.462  1.00  0.00    -0.230 C  
BRANCH   9  10
HETATM   10  C   UNL     1     -12.013  11.158  69.097  1.00  0.00    -0.343 C  
BRANCH  10  11
HETATM   11  O   UNL     1     -12.057  11.671  67.752  1.00  0.00    -0.613 OA 
BRANCH  11  12
HETATM   12  C   UNL     1     -11.798  13.005  67.627  1.00  0.00    -0.351 C  
HETATM   13  O   UNL     1     -12.054  13.831  68.498  1.00  0.00    -0.363 OA 
BRANCH  12  14
HETATM   14  C   UNL     1     -11.217  13.367  66.246  1.00  0.00    -0.322 C  
HETATM   15  C   UNL     1     -12.289  13.918  65.266  1.00  0.00    -0.485 C  
HETATM   16  C   UNL     1     -10.857  12.017  65.569  1.00  0.00    -0.336 C  
HETATM   17  C   UNL     1     -10.900  12.291  64.077  1.00  0.00    -0.439 C  
HETATM   18  C   UNL     1     -12.081  13.228  63.911  1.00  0.00    -0.531 C  
BRANCH  14  19
HETATM   19  C   UNL     1     -10.058  14.368  66.418  1.00  0.00    -0.294 A  
HETATM   20  C   UNL     1      -8.997  16.540  66.064  1.00  0.00    -0.276 A  
HETATM   21  C   UNL     1      -7.850  16.115  66.727  1.00  0.00    -0.296 A  
HETATM   22  C   UNL     1     -10.086  15.676  65.908  1.00  0.00    -0.378 A  
HETATM   23  C   UNL     1      -7.797  14.828  67.245  1.00  0.00    -0.223 A  
HETATM   24  C   UNL     1      -8.891  13.968  67.100  1.00  0.00    -0.239 A  
ENDBRANCH  14  19
ENDBRANCH  12  14
ENDBRANCH  11  12
ENDBRANCH  10  11
ENDBRANCH   9  10
ENDBRANCH   8   9
ENDBRANCH   7   8
ENDBRANCH   6   7
ENDBRANCH   3   6
ENDBRANCH   2   3
TORSDOF 11
ENDMDL
MODEL      127
REMARK 921   NORMALIZED FREE ENERGY PREDICTED BY IDOCK:   -4.68 KCAL/MOL
REMARK 922        TOTAL FREE ENERGY PREDICTED BY IDOCK:   -8.50 KCAL/MOL
REMARK 923 INTER-LIGAND FREE ENERGY PREDICTED BY IDOCK:   -7.35 KCAL/MOL
REMARK 924 INTRA-LIGAND FREE ENERGY PREDICTED BY IDOCK:   -1.15 KCAL/MOL
REMARK 927      BINDING AFFINITY PREDICTED BY RF-SCORE:    0.00 PKD
ROOT
HETATM    1  C   UNL     1     -10.720  10.753  69.320  1.00  0.00    -0.268 C  
HETATM    2  C   UNL     1     -11.445  11.218  68.059  1.00  0.00    -0.298 C  
ENDROOT
BRANCH   2   3
HETATM    3  N   UNL     1     -10.569  11.449  66.895  1.00  0.00    -0.240 NA 
BRANCH   3   4
HETATM    4  C   UNL     1      -9.852  10.247  66.443  1.00  0.00    -0.217 C  
HETATM    5  C   UNL     1      -8.371  10.422  66.129  1.00  0.00    -0.149 C  
ENDBRANCH   3   4
BRANCH   3   6
HETATM    6  C   UNL     1     -11.335  12.126  65.824  1.00  0.00    -0.354 C  
BRANCH   6   7
HETATM    7  C   UNL     1     -12.346  13.177  66.310  1.00  0.00    -0.276 C  
BRANCH   7   8
HETATM    8  O   UNL     1     -12.725  14.034  65.223  1.00  0.00    -0.595 OA 
BRANCH   8   9
HETATM    9  C   UNL     1     -11.579  14.397  64.450  1.00  0.00    -0.334 C  
BRANCH   9  10
HETATM   10  C   UNL     1     -11.219  15.862  64.686  1.00  0.00    -0.351 C  
BRANCH  10  11
HETATM   11  O   UNL     1      -9.960  15.988  65.376  1.00  0.00    -0.445 OA 
BRANCH  11  12
HETATM   12  C   UNL     1      -9.851  17.071  66.200  1.00  0.00    -0.278 C  
HETATM   13  O   UNL     1      -9.826  18.230  65.797  1.00  0.00    -0.516 OA 
BRANCH  12  14
HETATM   14  C   UNL     1      -9.690  16.673  67.679  1.00  0.00    -0.250 C  
HETATM   15  C   UNL     1      -9.519  15.141  67.878  1.00  0.00    -0.194 C  
HETATM   16  C   UNL     1     -11.075  16.908  68.338  1.00  0.00    -0.216 C  
HETATM   17  C   UNL     1     -11.118  15.974  69.533  1.00  0.00    -0.333 C  
HETATM   18  C   UNL     1     -10.427  14.717  69.039  1.00  0.00    -0.249 C  
BRANCH  14  19
HETATM   19  C   UNL     1      -8.508  17.445  68.298  1.00  0.00    -0.249 A  
HETATM   20  C   UNL     1      -7.320  19.504  68.865  1.00  0.00    -0.398 A  
HETATM   21  C   UNL     1      -6.263  18.775  69.399  1.00  0.00    -0.289 A  
HETATM   22  C   UNL     1      -8.427  18.847  68.317  1.00  0.00    -0.365 A  
HETATM   23  C   UNL     1      -6.318  17.387  69.397  1.00  0.00    -0.246 A  
HETATM   24  C   UNL     1      -7.431  16.730  68.861  1.00  0.00    -0.240 A  
ENDBRANCH  14  19
ENDBRANCH  12  14
ENDBRANCH  11  12
ENDBRANCH  10  11
ENDBRANCH   9  10
ENDBRANCH   8   9
ENDBRANCH   7   8
ENDBRANCH   6   7
ENDBRANCH   3   6
ENDBRANCH   2   3
TORSDOF 11
ENDMDL
MODEL      128
REMARK 921   NORMALIZED FREE ENERGY PREDICTED BY IDOCK:   -4.68 KCAL/MOL
REMARK 922        TOTAL FREE ENERGY PREDICTED BY IDOCK:   -8.50 KCAL/MOL
REMARK 923 INTER-LIGAND FREE ENERGY PREDICTED BY IDOCK:   -7.51 KCAL/MOL
REMARK 924 INTRA-LIGAND FREE ENERGY PREDICTED BY IDOCK:   -0.99 KCAL/MOL
REMARK 927      BINDING AFFINITY PREDICTED BY RF-SCORE:    0.00 PKD
ROOT
HETATM    1  C   UNL     1     -10.896   6.086  70.714  1.00  0.00    -0.358 C  
HETATM    2  C   UNL     1     -11.156   6.122  69.209  1.00  0.00    -0.393 C  
ENDROOT
BRANCH   2   3
HETATM    3  N   UNL     1     -10.115   6.811  68.422  1.00  0.00    -0.155 NA 
BRANCH   3   4
HETATM    4  C   UNL     1      -8.967   5.957  68.080  1.00  0.00    -0.115 C  
HETATM    5  C   UNL     1      -9.285   4.517  67.697  1.00  0.00    -0.160 C  
ENDBRANCH   3   4
BRANCH   3   6
HETATM    6  C   UNL     1     -10.736   7.474  67.253  1.00  0.00    -0.295 C  
BRANCH   6   7
HETATM    7  C   UNL     1     -10.366   8.955  67.071  1.00  0.00    -0.269 C  
BRANCH   7   8
HETATM    8  O   UNL     1      -9.970   9.200  65.714  1.00  0.00    -0.277 OA 
BRANCH   8   9
HETATM    9  C   UNL     1      -9.126  10.351  65.639  1.00  0.00    -0.176 C  
BRANCH   9  10
HETATM   10  C   UNL     1      -9.966  11.621  65.524  1.00  0.00    -0.242 C  
BRANCH  10  11
HETATM   11  O   UNL     1     -10.001  12.342  66.771  1.00  0.00    -0.201 OA 
BRANCH  11  12
HETATM   12  C   UNL     1     -11.239  12.751  67.175  1.00  0.00    -0.292 C  
HETATM   13  O   UNL     1     -12.271  12.499  66.560  1.00  0.00    -0.569 OA 
BRANCH  12  14
HETATM   14  C   UNL     1     -11.187  13.620  68.446  1.00  0.00    -0.306 C  
HETATM   15  C   UNL     1     -11.884  14.997  68.264  1.00  0.00    -0.295 C  
HETATM   16  C   UNL     1      -9.705  14.053  68.607  1.00  0.00    -0.179 C  
HETATM   17  C   UNL     1      -9.746  15.343  69.404  1.00  0.00    -0.273 C  
HETATM   18  C   UNL     1     -10.964  16.068  68.864  1.00  0.00    -0.309 C  
BRANCH  14  19
HETATM   19  C   UNL     1     -11.797  12.844  69.630  1.00  0.00    -0.387 A  
HETATM   20  C   UNL     1     -12.363  10.782  70.811  1.00  0.00    -0.480 A  
HETATM   21  C   UNL     1     -13.004  11.503  71.814  1.00  0.00    -0.500 A  
HETATM   22  C   UNL     1     -11.771  11.444  69.731  1.00  0.00    -0.418 A  
HETATM   23  C   UNL     1     -13.041  12.890  71.742  1.00  0.00    -0.458 A  
HETATM   24  C   UNL     1     -12.437  13.553  70.668  1.00  0.00    -0.405 A  
ENDBRANCH  14  19
ENDBRANCH  12  14
ENDBRANCH  11  12
ENDBRANCH  10  11
ENDBRANCH   9  10
ENDBRANCH   8   9
ENDBRANCH   7   8
ENDBRANCH   6   7
ENDBRANCH   3   6
ENDBRANCH   2   3
TORSDOF 11
ENDMDL
MODEL      129
REMARK 921   NORMALIZED FREE ENERGY PREDICTED BY IDOCK:   -4.66 KCAL/MOL
REMARK 922        TOTAL FREE ENERGY PREDICTED BY IDOCK:   -8.48 KCAL/MOL
REMARK 923 INTER-LIGAND FREE ENERGY PREDICTED BY IDOCK:   -7.31 KCAL/MOL
REMARK 924 INTRA-LIGAND FREE ENERGY PREDICTED BY IDOCK:   -1.17 KCAL/MOL
REMARK 927      BINDING AFFINITY PREDICTED BY RF-SCORE:    0.00 PKD
ROOT
HETATM    1  C   UNL     1     -11.133  10.612  69.972  1.00  0.00    -0.359 C  
HETATM    2  C   UNL     1      -9.871   9.897  69.494  1.00  0.00    -0.223 C  
ENDROOT
BRANCH   2   3
HETATM    3  N   UNL     1      -9.367  10.352  68.184  1.00  0.00    -0.143 NA 
BRANCH   3   4
HETATM    4  C   UNL     1      -8.327   9.482  67.613  1.00  0.00    -0.125 C  
HETATM    5  C   UNL     1      -7.881   8.306  68.473  1.00  0.00    -0.121 C  
ENDBRANCH   3   4
BRANCH   3   6
HETATM    6  C   UNL     1     -10.507  10.600  67.272  1.00  0.00    -0.246 C  
BRANCH   6   7
HETATM    7  C   UNL     1     -10.239  10.284  65.792  1.00  0.00    -0.219 C  
BRANCH   7   8
HETATM    8  O   UNL     1     -10.708  11.360  64.967  1.00  0.00    -0.292 OA 
BRANCH   8   9
HETATM    9  C   UNL     1     -10.847  12.557  65.737  1.00  0.00    -0.276 C  
BRANCH   9  10
HETATM   10  C   UNL     1     -10.519  13.780  64.885  1.00  0.00    -0.418 C  
BRANCH  10  11
HETATM   11  O   UNL     1     -10.737  15.002  65.615  1.00  0.00    -0.315 OA 
BRANCH  11  12
HETATM   12  C   UNL     1      -9.718  15.380  66.440  1.00  0.00    -0.288 C  
HETATM   13  O   UNL     1      -8.536  15.136  66.215  1.00  0.00    -0.203 OA 
BRANCH  12  14
HETATM   14  C   UNL     1     -10.220  16.081  67.717  1.00  0.00    -0.260 C  
HETATM   15  C   UNL     1      -9.497  15.588  69.001  1.00  0.00    -0.242 C  
HETATM   16  C   UNL     1     -11.658  15.547  67.959  1.00  0.00    -0.276 C  
HETATM   17  C   UNL     1     -11.901  15.704  69.448  1.00  0.00    -0.391 C  
HETATM   18  C   UNL     1     -10.566  15.349  70.075  1.00  0.00    -0.319 C  
BRANCH  14  19
HETATM   19  C   UNL     1     -10.084  17.608  67.557  1.00  0.00    -0.337 A  
HETATM   20  C   UNL     1     -10.422  19.701  66.343  1.00  0.00    -0.618 A  
HETATM   21  C   UNL     1      -9.727  20.408  67.320  1.00  0.00    -0.602 A  
HETATM   22  C   UNL     1     -10.595  18.318  66.459  1.00  0.00    -0.313 A  
HETATM   23  C   UNL     1      -9.215  19.732  68.420  1.00  0.00    -0.370 A  
HETATM   24  C   UNL     1      -9.399  18.350  68.541  1.00  0.00    -0.354 A  
ENDBRANCH  14  19
ENDBRANCH  12  14
ENDBRANCH  11  12
ENDBRANCH  10  11
ENDBRANCH   9  10
ENDBRANCH   8   9
ENDBRANCH   7   8
ENDBRANCH   6   7
ENDBRANCH   3   6
ENDBRANCH   2   3
TORSDOF 11
ENDMDL
MODEL      130
REMARK 921   NORMALIZED FREE ENERGY PREDICTED BY IDOCK:   -4.65 KCAL/MOL
REMARK 922        TOTAL FREE ENERGY PREDICTED BY IDOCK:   -8.46 KCAL/MOL
REMARK 923 INTER-LIGAND FREE ENERGY PREDICTED BY IDOCK:   -7.03 KCAL/MOL
REMARK 924 INTRA-LIGAND FREE ENERGY PREDICTED BY IDOCK:   -1.44 KCAL/MOL
REMARK 927      BINDING AFFINITY PREDICTED BY RF-SCORE:    0.00 PKD
ROOT
HETATM    1  C   UNL     1     -10.269  16.627  65.803  1.00  0.00    -0.328 C  
HETATM    2  C   UNL     1     -10.404  18.102  66.177  1.00  0.00    -0.385 C  
ENDROOT
BRANCH   2   3
HETATM    3  N   UNL     1      -9.129  18.841  66.228  1.00  0.00    -0.436 NA 
BRANCH   3   4
HETATM    4  C   UNL     1      -9.129  19.961  67.182  1.00  0.00    -0.346 C  
HETATM    5  C   UNL     1     -10.273  19.992  68.189  1.00  0.00    -0.535 C  
ENDBRANCH   3   4
BRANCH   3   6
HETATM    6  C   UNL     1      -8.011  17.890  66.424  1.00  0.00    -0.267 C  
BRANCH   6   7
HETATM    7  C   UNL     1      -7.433  17.847  67.848  1.00  0.00    -0.216 C  
BRANCH   7   8
HETATM    8  O   UNL     1      -7.836  16.637  68.506  1.00  0.00    -0.195 OA 
BRANCH   8   9
HETATM    9  C   UNL     1      -7.446  15.496  67.738  1.00  0.00    -0.150 C  
BRANCH   9  10
HETATM   10  C   UNL     1      -8.088  14.230  68.301  1.00  0.00    -0.143 C  
BRANCH  10  11
HETATM   11  O   UNL     1      -8.233  13.220  67.284  1.00  0.00    -0.177 OA 
BRANCH  11  12
HETATM   12  C   UNL     1      -8.628  11.992  67.733  1.00  0.00    -0.157 C  
HETATM   13  O   UNL     1      -8.296  11.528  68.820  1.00  0.00    -0.141 OA 
BRANCH  12  14
HETATM   14  C   UNL     1      -9.474  11.229  66.696  1.00  0.00    -0.204 C  
HETATM   15  C   UNL     1     -10.141   9.954  67.282  1.00  0.00    -0.264 C  
HETATM   16  C   UNL     1      -8.463  10.606  65.697  1.00  0.00    -0.180 C  
HETATM   17  C   UNL     1      -9.171   9.402  65.104  1.00  0.00    -0.287 C  
HETATM   18  C   UNL     1      -9.936   8.815  66.274  1.00  0.00    -0.315 C  
BRANCH  14  19
HETATM   19  C   UNL     1     -10.528  12.175  66.089  1.00  0.00    -0.281 A  
HETATM   20  C   UNL     1     -11.461  13.493  64.255  1.00  0.00    -0.414 A  
HETATM   21  C   UNL     1     -12.475  13.969  65.081  1.00  0.00    -0.472 A  
HETATM   22  C   UNL     1     -10.498  12.610  64.754  1.00  0.00    -0.343 A  
HETATM   23  C   UNL     1     -12.532  13.551  66.404  1.00  0.00    -0.349 A  
HETATM   24  C   UNL     1     -11.575  12.658  66.900  1.00  0.00    -0.438 A  
ENDBRANCH  14  19
ENDBRANCH  12  14
ENDBRANCH  11  12
ENDBRANCH  10  11
ENDBRANCH   9  10
ENDBRANCH   8   9
ENDBRANCH   7   8
ENDBRANCH   6   7
ENDBRANCH   3   6
ENDBRANCH   2   3
TORSDOF 11
ENDMDL
MODEL      131
REMARK 921   NORMALIZED FREE ENERGY PREDICTED BY IDOCK:   -4.64 KCAL/MOL
REMARK 922        TOTAL FREE ENERGY PREDICTED BY IDOCK:   -8.45 KCAL/MOL
REMARK 923 INTER-LIGAND FREE ENERGY PREDICTED BY IDOCK:   -7.15 KCAL/MOL
REMARK 924 INTRA-LIGAND FREE ENERGY PREDICTED BY IDOCK:   -1.30 KCAL/MOL
REMARK 927      BINDING AFFINITY PREDICTED BY RF-SCORE:    0.00 PKD
ROOT
HETATM    1  C   UNL     1      -6.897  19.739  69.492  1.00  0.00    -0.340 C  
HETATM    2  C   UNL     1      -8.115  19.161  68.776  1.00  0.00    -0.349 C  
ENDROOT
BRANCH   2   3
HETATM    3  N   UNL     1      -7.836  17.969  67.953  1.00  0.00    -0.230 NA 
BRANCH   3   4
HETATM    4  C   UNL     1      -6.840  17.060  68.542  1.00  0.00    -0.179 C  
HETATM    5  C   UNL     1      -7.387  15.873  69.324  1.00  0.00    -0.221 C  
ENDBRANCH   3   4
BRANCH   3   6
HETATM    6  C   UNL     1      -9.110  17.306  67.592  1.00  0.00    -0.228 C  
BRANCH   6   7
HETATM    7  C   UNL     1     -10.300  17.639  68.505  1.00  0.00    -0.370 C  
BRANCH   7   8
HETATM    8  O   UNL     1     -11.103  16.468  68.713  1.00  0.00    -0.332 OA 
BRANCH   8   9
HETATM    9  C   UNL     1     -11.047  16.061  70.082  1.00  0.00    -0.371 C  
BRANCH   9  10
HETATM   10  C   UNL     1     -11.699  14.692  70.258  1.00  0.00    -0.297 C  
BRANCH  10  11
HETATM   11  O   UNL     1     -11.882  14.031  68.992  1.00  0.00    -0.312 OA 
BRANCH  11  12
HETATM   12  C   UNL     1     -11.661  12.683  68.998  1.00  0.00    -0.317 C  
HETATM   13  O   UNL     1     -12.078  11.932  69.874  1.00  0.00    -0.301 OA 
BRANCH  12  14
HETATM   14  C   UNL     1     -10.772  12.225  67.826  1.00  0.00    -0.246 C  
HETATM   15  C   UNL     1     -10.937  10.716  67.497  1.00  0.00    -0.371 C  
HETATM   16  C   UNL     1      -9.314  12.259  68.358  1.00  0.00    -0.162 C  
HETATM   17  C   UNL     1      -8.552  11.262  67.506  1.00  0.00    -0.134 C  
HETATM   18  C   UNL     1      -9.535  10.124  67.306  1.00  0.00    -0.178 C  
BRANCH  14  19
HETATM   19  C   UNL     1     -11.060  13.096  66.587  1.00  0.00    -0.316 A  
HETATM   20  C   UNL     1     -10.471  14.829  64.968  1.00  0.00    -0.443 A  
HETATM   21  C   UNL     1     -11.706  14.697  64.341  1.00  0.00    -0.358 A  
HETATM   22  C   UNL     1     -10.154  14.041  66.080  1.00  0.00    -0.327 A  
HETATM   23  C   UNL     1     -12.620  13.767  64.819  1.00  0.00    -0.330 A  
HETATM   24  C   UNL     1     -12.297  12.970  65.923  1.00  0.00    -0.432 A  
ENDBRANCH  14  19
ENDBRANCH  12  14
ENDBRANCH  11  12
ENDBRANCH  10  11
ENDBRANCH   9  10
ENDBRANCH   8   9
ENDBRANCH   7   8
ENDBRANCH   6   7
ENDBRANCH   3   6
ENDBRANCH   2   3
TORSDOF 11
ENDMDL
MODEL      132
REMARK 921   NORMALIZED FREE ENERGY PREDICTED BY IDOCK:   -4.64 KCAL/MOL
REMARK 922        TOTAL FREE ENERGY PREDICTED BY IDOCK:   -8.44 KCAL/MOL
REMARK 923 INTER-LIGAND FREE ENERGY PREDICTED BY IDOCK:   -7.51 KCAL/MOL
REMARK 924 INTRA-LIGAND FREE ENERGY PREDICTED BY IDOCK:   -0.93 KCAL/MOL
REMARK 927      BINDING AFFINITY PREDICTED BY RF-SCORE:    0.00 PKD
ROOT
HETATM    1  C   UNL     1     -11.962  11.178  68.830  1.00  0.00    -0.337 C  
HETATM    2  C   UNL     1     -10.921  10.657  67.841  1.00  0.00    -0.295 C  
ENDROOT
BRANCH   2   3
HETATM    3  N   UNL     1     -10.727  11.505  66.650  1.00  0.00    -0.257 NA 
BRANCH   3   4
HETATM    4  C   UNL     1     -10.497  10.746  65.411  1.00  0.00    -0.202 C  
HETATM    5  C   UNL     1      -9.586   9.529  65.523  1.00  0.00    -0.349 C  
ENDBRANCH   3   4
BRANCH   3   6
HETATM    6  C   UNL     1     -11.834  12.485  66.553  1.00  0.00    -0.367 C  
BRANCH   6   7
HETATM    7  C   UNL     1     -12.428  12.662  65.147  1.00  0.00    -0.463 C  
BRANCH   7   8
HETATM    8  O   UNL     1     -12.522  14.057  64.824  1.00  0.00    -0.541 OA 
BRANCH   8   9
HETATM    9  C   UNL     1     -11.677  14.827  65.683  1.00  0.00    -0.257 C  
BRANCH   9  10
HETATM   10  C   UNL     1     -10.337  15.101  65.006  1.00  0.00    -0.344 C  
BRANCH  10  11
HETATM   11  O   UNL     1      -9.645  16.196  65.636  1.00  0.00    -0.424 OA 
BRANCH  11  12
HETATM   12  C   UNL     1      -8.607  15.843  66.449  1.00  0.00    -0.328 C  
HETATM   13  O   UNL     1      -8.402  14.693  66.825  1.00  0.00    -0.184 OA 
BRANCH  12  14
HETATM   14  C   UNL     1      -7.769  17.055  66.898  1.00  0.00    -0.251 C  
HETATM   15  C   UNL     1      -6.668  17.441  65.873  1.00  0.00    -0.102 C  
HETATM   16  C   UNL     1      -6.908  16.560  68.091  1.00  0.00    -0.142 C  
HETATM   17  C   UNL     1      -5.696  17.471  68.118  1.00  0.00    -0.152 C  
HETATM   18  C   UNL     1      -5.371  17.692  66.653  1.00  0.00    -0.203 C  
BRANCH  14  19
HETATM   19  C   UNL     1      -8.700  18.250  67.186  1.00  0.00    -0.256 A  
HETATM   20  C   UNL     1      -9.800  20.341  66.566  1.00  0.00    -0.531 A  
HETATM   21  C   UNL     1     -10.373  20.443  67.829  1.00  0.00    -0.329 A  
HETATM   22  C   UNL     1      -8.971  19.261  66.249  1.00  0.00    -0.347 A  
HETATM   23  C   UNL     1     -10.126  19.455  68.774  1.00  0.00    -0.504 A  
HETATM   24  C   UNL     1      -9.306  18.367  68.453  1.00  0.00    -0.347 A  
ENDBRANCH  14  19
ENDBRANCH  12  14
ENDBRANCH  11  12
ENDBRANCH  10  11
ENDBRANCH   9  10
ENDBRANCH   8   9
ENDBRANCH   7   8
ENDBRANCH   6   7
ENDBRANCH   3   6
ENDBRANCH   2   3
TORSDOF 11
ENDMDL
MODEL      133
REMARK 921   NORMALIZED FREE ENERGY PREDICTED BY IDOCK:   -4.63 KCAL/MOL
REMARK 922        TOTAL FREE ENERGY PREDICTED BY IDOCK:   -8.42 KCAL/MOL
REMARK 923 INTER-LIGAND FREE ENERGY PREDICTED BY IDOCK:   -7.32 KCAL/MOL
REMARK 924 INTRA-LIGAND FREE ENERGY PREDICTED BY IDOCK:   -1.10 KCAL/MOL
REMARK 927      BINDING AFFINITY PREDICTED BY RF-SCORE:    0.00 PKD
ROOT
HETATM    1  C   UNL     1     -11.064   5.229  73.150  1.00  0.00    -0.384 C  
HETATM    2  C   UNL     1     -10.839   6.532  72.385  1.00  0.00    -0.233 C  
ENDROOT
BRANCH   2   3
HETATM    3  N   UNL     1     -11.714   6.714  71.211  1.00  0.00    -0.319 NA 
BRANCH   3   4
HETATM    4  C   UNL     1     -13.039   7.263  71.537  1.00  0.00    -0.384 C  
HETATM    5  C   UNL     1     -13.072   8.705  72.029  1.00  0.00    -0.417 C  
ENDBRANCH   3   4
BRANCH   3   6
HETATM    6  C   UNL     1     -10.991   7.477  70.168  1.00  0.00    -0.254 C  
BRANCH   6   7
HETATM    7  C   UNL     1      -9.878   8.400  70.689  1.00  0.00    -0.181 C  
BRANCH   7   8
HETATM    8  O   UNL     1      -9.085   8.880  69.593  1.00  0.00    -0.144 OA 
BRANCH   8   9
HETATM    9  C   UNL     1      -8.131   9.842  70.050  1.00  0.00    -0.189 C  
BRANCH   9  10
HETATM   10  C   UNL     1      -7.854  10.877  68.963  1.00  0.00    -0.138 C  
BRANCH  10  11
HETATM   11  O   UNL     1      -9.068  11.279  68.300  1.00  0.00    -0.159 OA 
BRANCH  11  12
HETATM   12  C   UNL     1      -9.236  12.626  68.154  1.00  0.00    -0.209 C  
HETATM   13  O   UNL     1      -8.346  13.446  68.357  1.00  0.00    -0.159 OA 
BRANCH  12  14
HETATM   14  C   UNL     1     -10.682  13.003  67.778  1.00  0.00    -0.242 C  
HETATM   15  C   UNL     1     -11.342  11.979  66.813  1.00  0.00    -0.398 C  
HETATM   16  C   UNL     1     -10.573  14.251  66.861  1.00  0.00    -0.273 C  
HETATM   17  C   UNL     1     -11.830  14.239  66.013  1.00  0.00    -0.399 C  
HETATM   18  C   UNL     1     -12.052  12.771  65.708  1.00  0.00    -0.505 C  
BRANCH  14  19
HETATM   19  C   UNL     1     -11.522  13.176  69.058  1.00  0.00    -0.345 A  
HETATM   20  C   UNL     1     -12.692  14.535  70.718  1.00  0.00    -0.425 A  
HETATM   21  C   UNL     1     -13.007  13.401  71.460  1.00  0.00    -0.429 A  
HETATM   22  C   UNL     1     -11.956  14.424  69.534  1.00  0.00    -0.376 A  
HETATM   23  C   UNL     1     -12.595  12.153  71.010  1.00  0.00    -0.359 A  
HETATM   24  C   UNL     1     -11.869  12.041  69.819  1.00  0.00    -0.401 A  
ENDBRANCH  14  19
ENDBRANCH  12  14
ENDBRANCH  11  12
ENDBRANCH  10  11
ENDBRANCH   9  10
ENDBRANCH   8   9
ENDBRANCH   7   8
ENDBRANCH   6   7
ENDBRANCH   3   6
ENDBRANCH   2   3
TORSDOF 11
ENDMDL
MODEL      134
REMARK 921   NORMALIZED FREE ENERGY PREDICTED BY IDOCK:   -4.63 KCAL/MOL
REMARK 922        TOTAL FREE ENERGY PREDICTED BY IDOCK:   -8.42 KCAL/MOL
REMARK 923 INTER-LIGAND FREE ENERGY PREDICTED BY IDOCK:   -7.06 KCAL/MOL
REMARK 924 INTRA-LIGAND FREE ENERGY PREDICTED BY IDOCK:   -1.36 KCAL/MOL
REMARK 927      BINDING AFFINITY PREDICTED BY RF-SCORE:    0.00 PKD
ROOT
HETATM    1  C   UNL     1     -10.790   6.295  66.775  1.00  0.00    -0.367 C  
HETATM    2  C   UNL     1     -10.623   5.760  68.196  1.00  0.00    -0.216 C  
ENDROOT
BRANCH   2   3
HETATM    3  N   UNL     1     -10.959   6.726  69.259  1.00  0.00    -0.262 NA 
BRANCH   3   4
HETATM    4  C   UNL     1     -11.059   6.125  70.598  1.00  0.00    -0.317 C  
HETATM    5  C   UNL     1     -12.216   6.602  71.468  1.00  0.00    -0.391 C  
ENDBRANCH   3   4
BRANCH   3   6
HETATM    6  C   UNL     1     -10.033   7.880  69.191  1.00  0.00    -0.184 C  
BRANCH   6   7
HETATM    7  C   UNL     1     -10.708   9.261  69.220  1.00  0.00    -0.196 C  
BRANCH   7   8
HETATM    8  O   UNL     1     -10.811   9.786  67.888  1.00  0.00    -0.266 OA 
BRANCH   8   9
HETATM    9  C   UNL     1      -9.597  10.441  67.514  1.00  0.00    -0.156 C  
BRANCH   9  10
HETATM   10  C   UNL     1      -9.118  11.359  68.636  1.00  0.00    -0.135 C  
BRANCH  10  11
HETATM   11  O   UNL     1      -9.023  12.726  68.191  1.00  0.00    -0.192 OA 
BRANCH  11  12
HETATM   12  C   UNL     1     -10.209  13.397  68.106  1.00  0.00    -0.246 C  
HETATM   13  O   UNL     1     -11.145  13.220  68.879  1.00  0.00    -0.250 OA 
BRANCH  12  14
HETATM   14  C   UNL     1     -10.266  14.343  66.891  1.00  0.00    -0.265 C  
HETATM   15  C   UNL     1      -8.868  14.879  66.477  1.00  0.00    -0.256 C  
HETATM   16  C   UNL     1     -10.948  15.643  67.395  1.00  0.00    -0.293 C  
HETATM   17  C   UNL     1     -10.455  16.741  66.472  1.00  0.00    -0.258 C  
HETATM   18  C   UNL     1      -9.002  16.386  66.224  1.00  0.00    -0.368 C  
BRANCH  14  19
HETATM   19  C   UNL     1     -10.957  13.631  65.712  1.00  0.00    -0.281 A  
HETATM   20  C   UNL     1     -12.933  12.906  64.471  1.00  0.00    -0.168 A  
HETATM   21  C   UNL     1     -12.138  12.240  63.545  1.00  0.00    -0.649 A  
HETATM   22  C   UNL     1     -12.350  13.590  65.543  1.00  0.00    -0.524 A  
HETATM   23  C   UNL     1     -10.756  12.268  63.684  1.00  0.00    -0.513 A  
HETATM   24  C   UNL     1     -10.173  12.962  64.750  1.00  0.00    -0.307 A  
ENDBRANCH  14  19
ENDBRANCH  12  14
ENDBRANCH  11  12
ENDBRANCH  10  11
ENDBRANCH   9  10
ENDBRANCH   8   9
ENDBRANCH   7   8
ENDBRANCH   6   7
ENDBRANCH   3   6
ENDBRANCH   2   3
TORSDOF 11
ENDMDL
MODEL      135
REMARK 921   NORMALIZED FREE ENERGY PREDICTED BY IDOCK:   -4.62 KCAL/MOL
REMARK 922        TOTAL FREE ENERGY PREDICTED BY IDOCK:   -8.41 KCAL/MOL
REMARK 923 INTER-LIGAND FREE ENERGY PREDICTED BY IDOCK:   -7.62 KCAL/MOL
REMARK 924 INTRA-LIGAND FREE ENERGY PREDICTED BY IDOCK:   -0.79 KCAL/MOL
REMARK 927      BINDING AFFINITY PREDICTED BY RF-SCORE:    0.00 PKD
ROOT
HETATM    1  C   UNL     1      -7.217  19.642  68.057  1.00  0.00    -0.321 C  
HETATM    2  C   UNL     1      -8.310  18.736  68.620  1.00  0.00    -0.325 C  
ENDROOT
BRANCH   2   3
HETATM    3  N   UNL     1      -9.686  19.199  68.359  1.00  0.00    -0.362 NA 
BRANCH   3   4
HETATM    4  C   UNL     1      -9.764  20.346  67.442  1.00  0.00    -0.457 C  
HETATM    5  C   UNL     1     -10.399  20.083  66.082  1.00  0.00    -0.570 C  
ENDBRANCH   3   4
BRANCH   3   6
HETATM    6  C   UNL     1     -10.526  18.050  67.951  1.00  0.00    -0.396 C  
BRANCH   6   7
HETATM    7  C   UNL     1     -10.660  16.934  69.000  1.00  0.00    -0.338 C  
BRANCH   7   8
HETATM    8  O   UNL     1     -11.767  16.082  68.674  1.00  0.00    -0.382 OA 
BRANCH   8   9
HETATM    9  C   UNL     1     -12.144  15.296  69.806  1.00  0.00    -0.328 C  
BRANCH   9  10
HETATM   10  C   UNL     1     -11.633  13.865  69.657  1.00  0.00    -0.286 C  
BRANCH  10  11
HETATM   11  O   UNL     1     -11.676  13.433  68.284  1.00  0.00    -0.315 OA 
BRANCH  11  12
HETATM   12  C   UNL     1     -10.464  13.158  67.719  1.00  0.00    -0.228 C  
HETATM   13  O   UNL     1      -9.656  14.022  67.392  1.00  0.00    -0.217 OA 
BRANCH  12  14
HETATM   14  C   UNL     1     -10.256  11.651  67.473  1.00  0.00    -0.216 C  
HETATM   15  C   UNL     1     -11.401  10.780  68.059  1.00  0.00    -0.378 C  
HETATM   16  C   UNL     1      -9.067  11.232  68.378  1.00  0.00    -0.170 C  
HETATM   17  C   UNL     1      -9.257   9.749  68.632  1.00  0.00    -0.137 C  
HETATM   18  C   UNL     1     -10.757   9.594  68.789  1.00  0.00    -0.234 C  
BRANCH  14  19
HETATM   19  C   UNL     1     -10.081  11.392  65.963  1.00  0.00    -0.275 A  
HETATM   20  C   UNL     1     -10.800  11.567  63.635  1.00  0.00    -0.488 A  
HETATM   21  C   UNL     1      -9.710  10.809  63.217  1.00  0.00    -0.396 A  
HETATM   22  C   UNL     1     -10.985  11.851  64.991  1.00  0.00    -0.365 A  
HETATM   23  C   UNL     1      -8.798  10.346  64.156  1.00  0.00    -0.228 A  
HETATM   24  C   UNL     1      -8.977  10.642  65.512  1.00  0.00    -0.209 A  
ENDBRANCH  14  19
ENDBRANCH  12  14
ENDBRANCH  11  12
ENDBRANCH  10  11
ENDBRANCH   9  10
ENDBRANCH   8   9
ENDBRANCH   7   8
ENDBRANCH   6   7
ENDBRANCH   3   6
ENDBRANCH   2   3
TORSDOF 11
ENDMDL
MODEL      136
REMARK 921   NORMALIZED FREE ENERGY PREDICTED BY IDOCK:   -4.61 KCAL/MOL
REMARK 922        TOTAL FREE ENERGY PREDICTED BY IDOCK:   -8.39 KCAL/MOL
REMARK 923 INTER-LIGAND FREE ENERGY PREDICTED BY IDOCK:   -7.13 KCAL/MOL
REMARK 924 INTRA-LIGAND FREE ENERGY PREDICTED BY IDOCK:   -1.25 KCAL/MOL
REMARK 927      BINDING AFFINITY PREDICTED BY RF-SCORE:    0.00 PKD
ROOT
HETATM    1  C   UNL     1     -11.938   6.079  72.044  1.00  0.00    -0.237 C  
HETATM    2  C   UNL     1     -10.911   6.860  72.863  1.00  0.00    -0.281 C  
ENDROOT
BRANCH   2   3
HETATM    3  N   UNL     1     -10.758   8.273  72.468  1.00  0.00    -0.344 NA 
BRANCH   3   4
HETATM    4  C   UNL     1      -9.397   8.624  72.033  1.00  0.00    -0.292 C  
HETATM    5  C   UNL     1      -9.255   9.133  70.604  1.00  0.00    -0.310 C  
ENDBRANCH   3   4
BRANCH   3   6
HETATM    6  C   UNL     1     -11.810   8.632  71.490  1.00  0.00    -0.306 C  
BRANCH   6   7
HETATM    7  C   UNL     1     -12.929   9.532  72.036  1.00  0.00    -0.426 C  
BRANCH   7   8
HETATM    8  O   UNL     1     -13.346  10.465  71.029  1.00  0.00    -0.342 OA 
BRANCH   8   9
HETATM    9  C   UNL     1     -12.302  11.401  70.750  1.00  0.00    -0.386 C  
BRANCH   9  10
HETATM   10  C   UNL     1     -12.230  11.690  69.253  1.00  0.00    -0.164 C  
BRANCH  10  11
HETATM   11  O   UNL     1     -10.911  11.438  68.733  1.00  0.00    -0.194 OA 
BRANCH  11  12
HETATM   12  C   UNL     1     -10.870  10.765  67.546  1.00  0.00    -0.288 C  
HETATM   13  O   UNL     1     -11.015   9.550  67.450  1.00  0.00    -0.232 OA 
BRANCH  12  14
HETATM   14  C   UNL     1     -10.549  11.688  66.354  1.00  0.00    -0.299 C  
HETATM   15  C   UNL     1     -11.812  12.373  65.765  1.00  0.00    -0.467 C  
HETATM   16  C   UNL     1     -10.143  10.750  65.186  1.00  0.00    -0.363 C  
HETATM   17  C   UNL     1     -10.442  11.531  63.920  1.00  0.00    -0.439 C  
HETATM   18  C   UNL     1     -11.734  12.260  64.237  1.00  0.00    -0.456 C  
BRANCH  14  19
HETATM   19  C   UNL     1      -9.499  12.734  66.778  1.00  0.00    -0.243 A  
HETATM   20  C   UNL     1      -8.767  15.027  67.195  1.00  0.00    -0.242 A  
HETATM   21  C   UNL     1      -7.484  14.587  67.505  1.00  0.00    -0.216 A  
HETATM   22  C   UNL     1      -9.760  14.112  66.832  1.00  0.00    -0.272 A  
HETATM   23  C   UNL     1      -7.198  13.228  67.464  1.00  0.00    -0.157 A  
HETATM   24  C   UNL     1      -8.196  12.312  67.113  1.00  0.00    -0.179 A  
ENDBRANCH  14  19
ENDBRANCH  12  14
ENDBRANCH  11  12
ENDBRANCH  10  11
ENDBRANCH   9  10
ENDBRANCH   8   9
ENDBRANCH   7   8
ENDBRANCH   6   7
ENDBRANCH   3   6
ENDBRANCH   2   3
TORSDOF 11
ENDMDL
MODEL      137
REMARK 921   NORMALIZED FREE ENERGY PREDICTED BY IDOCK:   -4.59 KCAL/MOL
REMARK 922        TOTAL FREE ENERGY PREDICTED BY IDOCK:   -8.37 KCAL/MOL
REMARK 923 INTER-LIGAND FREE ENERGY PREDICTED BY IDOCK:   -7.14 KCAL/MOL
REMARK 924 INTRA-LIGAND FREE ENERGY PREDICTED BY IDOCK:   -1.22 KCAL/MOL
REMARK 927      BINDING AFFINITY PREDICTED BY RF-SCORE:    0.00 PKD
ROOT
HETATM    1  C   UNL     1     -10.722  15.855  65.130  1.00  0.00    -0.449 C  
HETATM    2  C   UNL     1     -10.748  14.403  64.660  1.00  0.00    -0.336 C  
ENDROOT
BRANCH   2   3
HETATM    3  N   UNL     1     -11.155  13.430  65.692  1.00  0.00    -0.285 NA 
BRANCH   3   4
HETATM    4  C   UNL     1     -12.065  12.386  65.198  1.00  0.00    -0.405 C  
HETATM    5  C   UNL     1     -12.406  12.433  63.714  1.00  0.00    -0.625 C  
ENDBRANCH   3   4
BRANCH   3   6
HETATM    6  C   UNL     1      -9.953  12.902  66.376  1.00  0.00    -0.267 C  
BRANCH   6   7
HETATM    7  C   UNL     1      -9.675  11.408  66.145  1.00  0.00    -0.219 C  
BRANCH   7   8
HETATM    8  O   UNL     1      -8.345  11.083  66.576  1.00  0.00    -0.152 OA 
BRANCH   8   9
HETATM    9  C   UNL     1      -8.108  11.588  67.892  1.00  0.00    -0.132 C  
BRANCH   9  10
HETATM   10  C   UNL     1      -7.178  10.655  68.662  1.00  0.00    -0.090 C  
BRANCH  10  11
HETATM   11  O   UNL     1      -7.852   9.442  69.048  1.00  0.00    -0.077 OA 
BRANCH  11  12
HETATM   12  C   UNL     1      -8.432   9.463  70.283  1.00  0.00    -0.212 C  
HETATM   13  O   UNL     1      -7.806   9.650  71.323  1.00  0.00    -0.257 OA 
BRANCH  12  14
HETATM   14  C   UNL     1      -9.941   9.155  70.234  1.00  0.00    -0.246 C  
HETATM   15  C   UNL     1     -10.798  10.397  69.866  1.00  0.00    -0.353 C  
HETATM   16  C   UNL     1     -10.375   8.915  71.705  1.00  0.00    -0.416 C  
HETATM   17  C   UNL     1     -11.856   9.240  71.745  1.00  0.00    -0.454 C  
HETATM   18  C   UNL     1     -11.993  10.440  70.828  1.00  0.00    -0.462 C  
BRANCH  14  19
HETATM   19  C   UNL     1     -10.200   7.994  69.254  1.00  0.00    -0.214 A  
HETATM   20  C   UNL     1     -10.740   7.097  67.046  1.00  0.00    -0.420 A  
HETATM   21  C   UNL     1     -10.729   5.798  67.545  1.00  0.00    -0.320 A  
HETATM   22  C   UNL     1     -10.483   8.181  67.892  1.00  0.00    -0.259 A  
HETATM   23  C   UNL     1     -10.448   5.583  68.887  1.00  0.00    -0.282 A  
HETATM   24  C   UNL     1     -10.178   6.667  69.730  1.00  0.00    -0.214 A  
ENDBRANCH  14  19
ENDBRANCH  12  14
ENDBRANCH  11  12
ENDBRANCH  10  11
ENDBRANCH   9  10
ENDBRANCH   8   9
ENDBRANCH   7   8
ENDBRANCH   6   7
ENDBRANCH   3   6
ENDBRANCH   2   3
TORSDOF 11
ENDMDL
MODEL      138
REMARK 921   NORMALIZED FREE ENERGY PREDICTED BY IDOCK:   -4.59 KCAL/MOL
REMARK 922        TOTAL FREE ENERGY PREDICTED BY IDOCK:   -8.36 KCAL/MOL
REMARK 923 INTER-LIGAND FREE ENERGY PREDICTED BY IDOCK:   -6.83 KCAL/MOL
REMARK 924 INTRA-LIGAND FREE ENERGY PREDICTED BY IDOCK:   -1.53 KCAL/MOL
REMARK 927      BINDING AFFINITY PREDICTED BY RF-SCORE:    0.00 PKD
ROOT
HETATM    1  C   UNL     1     -10.137   9.600  65.897  1.00  0.00    -0.304 C  
HETATM    2  C   UNL     1      -9.945  10.359  64.586  1.00  0.00    -0.338 C  
ENDROOT
BRANCH   2   3
HETATM    3  N   UNL     1     -10.122  11.820  64.691  1.00  0.00    -0.264 NA 
BRANCH   3   4
HETATM    4  C   UNL     1     -10.892  12.406  63.583  1.00  0.00    -0.462 C  
HETATM    5  C   UNL     1     -12.404  12.224  63.639  1.00  0.00    -0.664 C  
ENDBRANCH   3   4
BRANCH   3   6
HETATM    6  C   UNL     1     -10.651  12.160  66.032  1.00  0.00    -0.257 C  
BRANCH   6   7
HETATM    7  C   UNL     1      -9.951  13.337  66.729  1.00  0.00    -0.263 C  
BRANCH   7   8
HETATM    8  O   UNL     1      -9.320  12.888  67.937  1.00  0.00    -0.193 OA 
BRANCH   8   9
HETATM    9  C   UNL     1      -8.191  12.065  67.635  1.00  0.00    -0.155 C  
BRANCH   9  10
HETATM   10  C   UNL     1      -7.832  11.192  68.835  1.00  0.00    -0.131 C  
BRANCH  10  11
HETATM   11  O   UNL     1      -8.883  10.254  69.136  1.00  0.00    -0.156 OA 
BRANCH  11  12
HETATM   12  C   UNL     1      -8.731   9.560  70.301  1.00  0.00    -0.235 C  
HETATM   13  O   UNL     1      -7.707   9.584  70.977  1.00  0.00    -0.319 OA 
BRANCH  12  14
HETATM   14  C   UNL     1      -9.958   8.688  70.633  1.00  0.00    -0.230 C  
HETATM   15  C   UNL     1     -11.300   9.456  70.488  1.00  0.00    -0.328 C  
HETATM   16  C   UNL     1      -9.911   8.454  72.167  1.00  0.00    -0.372 C  
HETATM   17  C   UNL     1     -11.346   8.182  72.577  1.00  0.00    -0.469 C  
HETATM   18  C   UNL     1     -12.158   9.133  71.719  1.00  0.00    -0.446 C  
BRANCH  14  19
HETATM   19  C   UNL     1      -9.947   7.422  69.755  1.00  0.00    -0.188 A  
HETATM   20  C   UNL     1     -10.711   6.096  67.851  1.00  0.00    -0.374 A  
HETATM   21  C   UNL     1      -9.908   5.029  68.240  1.00  0.00    -0.211 A  
HETATM   22  C   UNL     1     -10.733   7.276  68.601  1.00  0.00    -0.172 A  
HETATM   23  C   UNL     1      -9.116   5.148  69.375  1.00  0.00    -0.144 A  
HETATM   24  C   UNL     1      -9.128   6.333  70.118  1.00  0.00    -0.155 A  
ENDBRANCH  14  19
ENDBRANCH  12  14
ENDBRANCH  11  12
ENDBRANCH  10  11
ENDBRANCH   9  10
ENDBRANCH   8   9
ENDBRANCH   7   8
ENDBRANCH   6   7
ENDBRANCH   3   6
ENDBRANCH   2   3
TORSDOF 11
ENDMDL
MODEL      139
REMARK 921   NORMALIZED FREE ENERGY PREDICTED BY IDOCK:   -4.59 KCAL/MOL
REMARK 922        TOTAL FREE ENERGY PREDICTED BY IDOCK:   -8.35 KCAL/MOL
REMARK 923 INTER-LIGAND FREE ENERGY PREDICTED BY IDOCK:   -7.25 KCAL/MOL
REMARK 924 INTRA-LIGAND FREE ENERGY PREDICTED BY IDOCK:   -1.10 KCAL/MOL
REMARK 927      BINDING AFFINITY PREDICTED BY RF-SCORE:    0.00 PKD
ROOT
HETATM    1  C   UNL     1      -8.823  10.606  65.039  1.00  0.00    -0.212 C  
HETATM    2  C   UNL     1     -10.326  10.871  65.001  1.00  0.00    -0.288 C  
ENDROOT
BRANCH   2   3
HETATM    3  N   UNL     1     -10.721  12.232  65.410  1.00  0.00    -0.275 NA 
BRANCH   3   4
HETATM    4  C   UNL     1     -12.045  12.641  64.916  1.00  0.00    -0.438 C  
HETATM    5  C   UNL     1     -12.401  12.209  63.499  1.00  0.00    -0.682 C  
ENDBRANCH   3   4
BRANCH   3   6
HETATM    6  C   UNL     1     -10.558  12.376  66.875  1.00  0.00    -0.229 C  
BRANCH   6   7
HETATM    7  C   UNL     1     -11.854  12.663  67.650  1.00  0.00    -0.329 C  
BRANCH   7   8
HETATM    8  O   UNL     1     -12.136  11.584  68.552  1.00  0.00    -0.522 OA 
BRANCH   8   9
HETATM    9  C   UNL     1     -12.128  12.047  69.904  1.00  0.00    -0.263 C  
BRANCH   9  10
HETATM   10  C   UNL     1     -12.657  10.966  70.842  1.00  0.00    -0.397 C  
BRANCH  10  11
HETATM   11  O   UNL     1     -11.611  10.061  71.244  1.00  0.00    -0.367 OA 
BRANCH  11  12
HETATM   12  C   UNL     1     -12.034   8.881  71.785  1.00  0.00    -0.359 C  
HETATM   13  O   UNL     1     -13.112   8.744  72.354  1.00  0.00    -0.395 OA 
BRANCH  12  14
HETATM   14  C   UNL     1     -10.978   7.765  71.665  1.00  0.00    -0.272 C  
HETATM   15  C   UNL     1     -11.607   6.348  71.566  1.00  0.00    -0.364 C  
HETATM   16  C   UNL     1     -10.280   7.687  73.049  1.00  0.00    -0.379 C  
HETATM   17  C   UNL     1      -9.745   6.272  73.152  1.00  0.00    -0.164 C  
HETATM   18  C   UNL     1     -10.826   5.424  72.510  1.00  0.00    -0.304 C  
BRANCH  14  19
HETATM   19  C   UNL     1     -10.060   8.048  70.460  1.00  0.00    -0.195 A  
HETATM   20  C   UNL     1      -8.024   8.939  69.445  1.00  0.00    -0.100 A  
HETATM   21  C   UNL     1      -8.472   8.584  68.177  1.00  0.00    -0.134 A  
HETATM   22  C   UNL     1      -8.810   8.678  70.572  1.00  0.00    -0.182 A  
HETATM   23  C   UNL     1      -9.702   7.956  68.036  1.00  0.00    -0.182 A  
HETATM   24  C   UNL     1     -10.483   7.683  69.165  1.00  0.00    -0.220 A  
ENDBRANCH  14  19
ENDBRANCH  12  14
ENDBRANCH  11  12
ENDBRANCH  10  11
ENDBRANCH   9  10
ENDBRANCH   8   9
ENDBRANCH   7   8
ENDBRANCH   6   7
ENDBRANCH   3   6
ENDBRANCH   2   3
TORSDOF 11
ENDMDL
MODEL      140
REMARK 921   NORMALIZED FREE ENERGY PREDICTED BY IDOCK:   -4.57 KCAL/MOL
REMARK 922        TOTAL FREE ENERGY PREDICTED BY IDOCK:   -8.33 KCAL/MOL
REMARK 923 INTER-LIGAND FREE ENERGY PREDICTED BY IDOCK:   -6.53 KCAL/MOL
REMARK 924 INTRA-LIGAND FREE ENERGY PREDICTED BY IDOCK:   -1.80 KCAL/MOL
REMARK 927      BINDING AFFINITY PREDICTED BY RF-SCORE:    0.00 PKD
ROOT
HETATM    1  C   UNL     1      -9.547  10.391  62.884  1.00  0.00    -0.331 C  
HETATM    2  C   UNL     1      -8.143  10.396  63.484  1.00  0.00    -0.116 C  
ENDROOT
BRANCH   2   3
HETATM    3  N   UNL     1      -8.072   9.942  64.886  1.00  0.00    -0.138 NA 
BRANCH   3   4
HETATM    4  C   UNL     1      -8.898   8.758  65.169  1.00  0.00    -0.133 C  
HETATM    5  C   UNL     1      -9.774   8.827  66.415  1.00  0.00    -0.335 C  
ENDBRANCH   3   4
BRANCH   3   6
HETATM    6  C   UNL     1      -6.655   9.791  65.287  1.00  0.00    -0.098 C  
BRANCH   6   7
HETATM    7  C   UNL     1      -6.132  10.866  66.253  1.00  0.00    -0.137 C  
BRANCH   7   8
HETATM    8  O   UNL     1      -7.227  11.632  66.776  1.00  0.00    -0.137 OA 
BRANCH   8   9
HETATM    9  C   UNL     1      -6.882  12.198  68.042  1.00  0.00    -0.081 C  
BRANCH   9  10
HETATM   10  C   UNL     1      -7.727  13.438  68.320  1.00  0.00    -0.141 C  
BRANCH  10  11
HETATM   11  O   UNL     1      -8.502  13.815  67.166  1.00  0.00    -0.202 OA 
BRANCH  11  12
HETATM   12  C   UNL     1      -9.685  14.441  67.435  1.00  0.00    -0.220 C  
HETATM   13  O   UNL     1      -9.763  15.564  67.923  1.00  0.00    -0.210 OA 
BRANCH  12  14
HETATM   14  C   UNL     1     -10.906  13.553  67.125  1.00  0.00    -0.291 C  
HETATM   15  C   UNL     1     -10.604  12.459  66.064  1.00  0.00    -0.286 C  
HETATM   16  C   UNL     1     -11.903  14.456  66.349  1.00  0.00    -0.402 C  
HETATM   17  C   UNL     1     -12.750  13.505  65.525  1.00  0.00    -0.493 C  
HETATM   18  C   UNL     1     -11.766  12.446  65.064  1.00  0.00    -0.420 C  
BRANCH  14  19
HETATM   19  C   UNL     1     -11.436  12.927  68.430  1.00  0.00    -0.347 A  
HETATM   20  C   UNL     1     -12.354  13.072  70.689  1.00  0.00    -0.391 A  
HETATM   21  C   UNL     1     -12.329  11.687  70.814  1.00  0.00    -0.454 A  
HETATM   22  C   UNL     1     -11.910  13.684  69.513  1.00  0.00    -0.394 A  
HETATM   23  C   UNL     1     -11.869  10.912  69.757  1.00  0.00    -0.419 A  
HETATM   24  C   UNL     1     -11.437  11.525  68.576  1.00  0.00    -0.354 A  
ENDBRANCH  14  19
ENDBRANCH  12  14
ENDBRANCH  11  12
ENDBRANCH  10  11
ENDBRANCH   9  10
ENDBRANCH   8   9
ENDBRANCH   7   8
ENDBRANCH   6   7
ENDBRANCH   3   6
ENDBRANCH   2   3
TORSDOF 11
ENDMDL
MODEL      141
REMARK 921   NORMALIZED FREE ENERGY PREDICTED BY IDOCK:   -4.57 KCAL/MOL
REMARK 922        TOTAL FREE ENERGY PREDICTED BY IDOCK:   -8.32 KCAL/MOL
REMARK 923 INTER-LIGAND FREE ENERGY PREDICTED BY IDOCK:   -6.88 KCAL/MOL
REMARK 924 INTRA-LIGAND FREE ENERGY PREDICTED BY IDOCK:   -1.44 KCAL/MOL
REMARK 927      BINDING AFFINITY PREDICTED BY RF-SCORE:    0.00 PKD
ROOT
HETATM    1  C   UNL     1     -10.308  17.276  66.689  1.00  0.00    -0.305 C  
HETATM    2  C   UNL     1     -10.437  15.860  66.130  1.00  0.00    -0.326 C  
ENDROOT
BRANCH   2   3
HETATM    3  N   UNL     1     -10.728  14.825  67.141  1.00  0.00    -0.293 NA 
BRANCH   3   4
HETATM    4  C   UNL     1     -11.358  15.348  68.363  1.00  0.00    -0.339 C  
HETATM    5  C   UNL     1     -11.118  14.553  69.640  1.00  0.00    -0.264 C  
ENDBRANCH   3   4
BRANCH   3   6
HETATM    6  C   UNL     1     -11.478  13.714  66.511  1.00  0.00    -0.335 C  
BRANCH   6   7
HETATM    7  C   UNL     1     -12.485  14.137  65.429  1.00  0.00    -0.472 C  
BRANCH   7   8
HETATM    8  O   UNL     1     -12.431  13.225  64.323  1.00  0.00    -0.573 OA 
BRANCH   8   9
HETATM    9  C   UNL     1     -11.075  12.914  63.996  1.00  0.00    -0.414 C  
BRANCH   9  10
HETATM   10  C   UNL     1     -10.929  11.426  63.684  1.00  0.00    -0.363 C  
BRANCH  10  11
HETATM   11  O   UNL     1     -10.899  10.637  64.888  1.00  0.00    -0.125 OA 
BRANCH  11  12
HETATM   12  C   UNL     1      -9.659  10.426  65.418  1.00  0.00    -0.246 C  
HETATM   13  O   UNL     1      -8.616  10.657  64.815  1.00  0.00    -0.177 OA 
BRANCH  12  14
HETATM   14  C   UNL     1      -9.717   9.798  66.824  1.00  0.00    -0.248 C  
HETATM   15  C   UNL     1     -10.989  10.208  67.616  1.00  0.00    -0.331 C  
HETATM   16  C   UNL     1      -8.609  10.503  67.652  1.00  0.00    -0.118 C  
HETATM   17  C   UNL     1      -9.050  10.386  69.098  1.00  0.00    -0.197 C  
HETATM   18  C   UNL     1     -10.553  10.581  69.039  1.00  0.00    -0.250 C  
BRANCH  14  19
HETATM   19  C   UNL     1      -9.606   8.265  66.712  1.00  0.00    -0.288 A  
HETATM   20  C   UNL     1      -8.397   6.211  66.177  1.00  0.00    -0.128 A  
HETATM   21  C   UNL     1      -9.518   5.444  66.475  1.00  0.00    -0.158 A  
HETATM   22  C   UNL     1      -8.442   7.604  66.290  1.00  0.00    -0.140 A  
HETATM   23  C   UNL     1     -10.683   6.071  66.900  1.00  0.00    -0.407 A  
HETATM   24  C   UNL     1     -10.723   7.464  67.026  1.00  0.00    -0.389 A  
ENDBRANCH  14  19
ENDBRANCH  12  14
ENDBRANCH  11  12
ENDBRANCH  10  11
ENDBRANCH   9  10
ENDBRANCH   8   9
ENDBRANCH   7   8
ENDBRANCH   6   7
ENDBRANCH   3   6
ENDBRANCH   2   3
TORSDOF 11
ENDMDL
MODEL      142
REMARK 921   NORMALIZED FREE ENERGY PREDICTED BY IDOCK:   -4.56 KCAL/MOL
REMARK 922        TOTAL FREE ENERGY PREDICTED BY IDOCK:   -8.31 KCAL/MOL
REMARK 923 INTER-LIGAND FREE ENERGY PREDICTED BY IDOCK:   -7.13 KCAL/MOL
REMARK 924 INTRA-LIGAND FREE ENERGY PREDICTED BY IDOCK:   -1.18 KCAL/MOL
REMARK 927      BINDING AFFINITY PREDICTED BY RF-SCORE:    0.00 PKD
ROOT
HETATM    1  C   UNL     1      -8.741  10.184  63.518  1.00  0.00    -0.221 C  
HETATM    2  C   UNL     1     -10.046  10.878  63.903  1.00  0.00    -0.361 C  
ENDROOT
BRANCH   2   3
HETATM    3  N   UNL     1     -10.176  11.188  65.340  1.00  0.00    -0.259 NA 
BRANCH   3   4
HETATM    4  C   UNL     1     -11.309  12.070  65.657  1.00  0.00    -0.329 C  
HETATM    5  C   UNL     1     -12.342  12.268  64.554  1.00  0.00    -0.468 C  
ENDBRANCH   3   4
BRANCH   3   6
HETATM    6  C   UNL     1     -10.159   9.931  66.122  1.00  0.00    -0.245 C  
BRANCH   6   7
HETATM    7  C   UNL     1     -10.669  10.055  67.567  1.00  0.00    -0.281 C  
BRANCH   7   8
HETATM    8  O   UNL     1     -10.261   8.912  68.332  1.00  0.00    -0.188 OA 
BRANCH   8   9
HETATM    9  C   UNL     1      -9.922   7.826  67.467  1.00  0.00    -0.185 C  
BRANCH   9  10
HETATM   10  C   UNL     1     -10.079   6.494  68.197  1.00  0.00    -0.155 C  
BRANCH  10  11
HETATM   11  O   UNL     1     -10.954   6.618  69.334  1.00  0.00    -0.265 OA 
BRANCH  11  12
HETATM   12  C   UNL     1     -10.577   5.916  70.442  1.00  0.00    -0.286 C  
HETATM   13  O   UNL     1     -10.295   4.722  70.425  1.00  0.00    -0.223 OA 
BRANCH  12  14
HETATM   14  C   UNL     1     -10.616   6.770  71.724  1.00  0.00    -0.237 C  
HETATM   15  C   UNL     1      -9.265   7.481  72.016  1.00  0.00    -0.163 C  
HETATM   16  C   UNL     1     -10.686   5.764  72.904  1.00  0.00    -0.282 C  
HETATM   17  C   UNL     1     -10.103   6.499  74.096  1.00  0.00    -0.374 C  
HETATM   18  C   UNL     1      -8.954   7.296  73.507  1.00  0.00    -0.215 C  
BRANCH  14  19
HETATM   19  C   UNL     1     -11.769   7.789  71.634  1.00  0.00    -0.316 A  
HETATM   20  C   UNL     1     -12.647  10.064  71.488  1.00  0.00    -0.525 A  
HETATM   21  C   UNL     1     -13.954   9.588  71.538  1.00  0.00    -0.170 A  
HETATM   22  C   UNL     1     -11.569   9.175  71.539  1.00  0.00    -0.439 A  
HETATM   23  C   UNL     1     -14.181   8.221  71.627  1.00  0.00    -0.530 A  
HETATM   24  C   UNL     1     -13.102   7.332  71.665  1.00  0.00    -0.417 A  
ENDBRANCH  14  19
ENDBRANCH  12  14
ENDBRANCH  11  12
ENDBRANCH  10  11
ENDBRANCH   9  10
ENDBRANCH   8   9
ENDBRANCH   7   8
ENDBRANCH   6   7
ENDBRANCH   3   6
ENDBRANCH   2   3
TORSDOF 11
ENDMDL
MODEL      143
REMARK 921   NORMALIZED FREE ENERGY PREDICTED BY IDOCK:   -4.56 KCAL/MOL
REMARK 922        TOTAL FREE ENERGY PREDICTED BY IDOCK:   -8.31 KCAL/MOL
REMARK 923 INTER-LIGAND FREE ENERGY PREDICTED BY IDOCK:   -7.24 KCAL/MOL
REMARK 924 INTRA-LIGAND FREE ENERGY PREDICTED BY IDOCK:   -1.07 KCAL/MOL
REMARK 927      BINDING AFFINITY PREDICTED BY RF-SCORE:    0.00 PKD
ROOT
HETATM    1  C   UNL     1      -7.227  19.725  67.833  1.00  0.00    -0.313 C  
HETATM    2  C   UNL     1      -8.294  18.919  68.570  1.00  0.00    -0.349 C  
ENDROOT
BRANCH   2   3
HETATM    3  N   UNL     1      -9.680  19.351  68.308  1.00  0.00    -0.370 NA 
BRANCH   3   4
HETATM    4  C   UNL     1      -9.788  20.431  67.316  1.00  0.00    -0.456 C  
HETATM    5  C   UNL     1     -10.405  20.058  65.973  1.00  0.00    -0.556 C  
ENDBRANCH   3   4
BRANCH   3   6
HETATM    6  C   UNL     1     -10.518  18.169  67.998  1.00  0.00    -0.371 C  
BRANCH   6   7
HETATM    7  C   UNL     1     -10.242  16.929  68.863  1.00  0.00    -0.314 C  
BRANCH   7   8
HETATM    8  O   UNL     1     -10.921  15.789  68.319  1.00  0.00    -0.295 OA 
BRANCH   8   9
HETATM    9  C   UNL     1     -11.798  15.217  69.292  1.00  0.00    -0.329 C  
BRANCH   9  10
HETATM   10  C   UNL     1     -11.606  13.704  69.360  1.00  0.00    -0.312 C  
BRANCH  10  11
HETATM   11  O   UNL     1     -10.991  13.199  68.159  1.00  0.00    -0.234 OA 
BRANCH  11  12
HETATM   12  C   UNL     1      -9.766  12.620  68.329  1.00  0.00    -0.216 C  
HETATM   13  O   UNL     1      -8.753  13.250  68.618  1.00  0.00    -0.099 OA 
BRANCH  12  14
HETATM   14  C   UNL     1      -9.784  11.105  68.049  1.00  0.00    -0.183 C  
HETATM   15  C   UNL     1      -8.504  10.611  67.321  1.00  0.00    -0.126 C  
HETATM   16  C   UNL     1     -10.857  10.889  66.948  1.00  0.00    -0.307 C  
HETATM   17  C   UNL     1     -10.458   9.607  66.242  1.00  0.00    -0.149 C  
HETATM   18  C   UNL     1      -8.944   9.677  66.186  1.00  0.00    -0.186 C  
BRANCH  14  19
HETATM   19  C   UNL     1     -10.003  10.337  69.366  1.00  0.00    -0.254 A  
HETATM   20  C   UNL     1     -11.377   9.610  71.252  1.00  0.00    -0.458 A  
HETATM   21  C   UNL     1     -10.291   8.950  71.819  1.00  0.00    -0.426 A  
HETATM   22  C   UNL     1     -11.233  10.297  70.042  1.00  0.00    -0.376 A  
HETATM   23  C   UNL     1      -9.064   8.969  71.170  1.00  0.00    -0.316 A  
HETATM   24  C   UNL     1      -8.924   9.646  69.954  1.00  0.00    -0.243 A  
ENDBRANCH  14  19
ENDBRANCH  12  14
ENDBRANCH  11  12
ENDBRANCH  10  11
ENDBRANCH   9  10
ENDBRANCH   8   9
ENDBRANCH   7   8
ENDBRANCH   6   7
ENDBRANCH   3   6
ENDBRANCH   2   3
TORSDOF 11
ENDMDL
MODEL      144
REMARK 921   NORMALIZED FREE ENERGY PREDICTED BY IDOCK:   -4.56 KCAL/MOL
REMARK 922        TOTAL FREE ENERGY PREDICTED BY IDOCK:   -8.30 KCAL/MOL
REMARK 923 INTER-LIGAND FREE ENERGY PREDICTED BY IDOCK:   -7.04 KCAL/MOL
REMARK 924 INTRA-LIGAND FREE ENERGY PREDICTED BY IDOCK:   -1.27 KCAL/MOL
REMARK 927      BINDING AFFINITY PREDICTED BY RF-SCORE:    0.00 PKD
ROOT
HETATM    1  C   UNL     1     -13.558  12.969  72.172  1.00  0.00    -0.618 C  
HETATM    2  C   UNL     1     -12.558  13.382  71.094  1.00  0.00    -0.345 C  
ENDROOT
BRANCH   2   3
HETATM    3  N   UNL     1     -12.412  14.839  70.919  1.00  0.00    -0.304 NA 
BRANCH   3   4
HETATM    4  C   UNL     1     -11.563  15.478  71.936  1.00  0.00    -0.442 C  
HETATM    5  C   UNL     1     -12.281  16.316  72.987  1.00  0.00    -0.619 C  
ENDBRANCH   3   4
BRANCH   3   6
HETATM    6  C   UNL     1     -11.999  15.132  69.527  1.00  0.00    -0.321 C  
BRANCH   6   7
HETATM    7  C   UNL     1     -11.769  13.897  68.641  1.00  0.00    -0.361 C  
BRANCH   7   8
HETATM    8  O   UNL     1     -12.009  14.226  67.265  1.00  0.00    -0.401 OA 
BRANCH   8   9
HETATM    9  C   UNL     1     -12.107  13.039  66.476  1.00  0.00    -0.341 C  
BRANCH   9  10
HETATM   10  C   UNL     1     -10.980  12.070  66.828  1.00  0.00    -0.285 C  
BRANCH  10  11
HETATM   11  O   UNL     1     -11.490  10.872  67.443  1.00  0.00    -0.479 OA 
BRANCH  11  12
HETATM   12  C   UNL     1     -10.627   9.815  67.469  1.00  0.00    -0.275 C  
HETATM   13  O   UNL     1     -10.274   9.203  66.465  1.00  0.00    -0.278 OA 
BRANCH  12  14
HETATM   14  C   UNL     1     -10.205   9.432  68.900  1.00  0.00    -0.215 C  
HETATM   15  C   UNL     1     -10.702   8.022  69.320  1.00  0.00    -0.140 C  
HETATM   16  C   UNL     1     -11.037  10.338  69.847  1.00  0.00    -0.362 C  
HETATM   17  C   UNL     1     -11.120   9.581  71.159  1.00  0.00    -0.450 C  
HETATM   18  C   UNL     1     -11.280   8.133  70.736  1.00  0.00    -0.275 C  
BRANCH  14  19
HETATM   19  C   UNL     1      -8.673   9.541  69.034  1.00  0.00    -0.142 A  
HETATM   20  C   UNL     1      -6.591  10.813  69.163  1.00  0.00    -0.065 A  
HETATM   21  C   UNL     1      -5.848   9.637  69.218  1.00  0.00    -0.034 A  
HETATM   22  C   UNL     1      -7.985  10.764  69.068  1.00  0.00    -0.137 A  
HETATM   23  C   UNL     1      -6.502   8.413  69.191  1.00  0.00    -0.043 A  
HETATM   24  C   UNL     1      -7.898   8.365  69.109  1.00  0.00    -0.105 A  
ENDBRANCH  14  19
ENDBRANCH  12  14
ENDBRANCH  11  12
ENDBRANCH  10  11
ENDBRANCH   9  10
ENDBRANCH   8   9
ENDBRANCH   7   8
ENDBRANCH   6   7
ENDBRANCH   3   6
ENDBRANCH   2   3
TORSDOF 11
ENDMDL
MODEL      145
REMARK 921   NORMALIZED FREE ENERGY PREDICTED BY IDOCK:   -4.54 KCAL/MOL
REMARK 922        TOTAL FREE ENERGY PREDICTED BY IDOCK:   -8.27 KCAL/MOL
REMARK 923 INTER-LIGAND FREE ENERGY PREDICTED BY IDOCK:   -6.98 KCAL/MOL
REMARK 924 INTRA-LIGAND FREE ENERGY PREDICTED BY IDOCK:   -1.29 KCAL/MOL
REMARK 927      BINDING AFFINITY PREDICTED BY RF-SCORE:    0.00 PKD
ROOT
HETATM    1  C   UNL     1     -10.054  20.175  67.397  1.00  0.00    -0.556 C  
HETATM    2  C   UNL     1     -10.829  18.859  67.409  1.00  0.00    -0.374 C  
ENDROOT
BRANCH   2   3
HETATM    3  N   UNL     1      -9.985  17.650  67.454  1.00  0.00    -0.309 NA 
BRANCH   3   4
HETATM    4  C   UNL     1      -8.552  17.918  67.261  1.00  0.00    -0.237 C  
HETATM    5  C   UNL     1      -7.630  17.525  68.410  1.00  0.00    -0.254 C  
ENDBRANCH   3   4
BRANCH   3   6
HETATM    6  C   UNL     1     -10.289  16.878  68.681  1.00  0.00    -0.332 C  
BRANCH   6   7
HETATM    7  C   UNL     1     -10.915  15.495  68.444  1.00  0.00    -0.297 C  
BRANCH   7   8
HETATM    8  O   UNL     1     -10.425  14.937  67.216  1.00  0.00    -0.257 OA 
BRANCH   8   9
HETATM    9  C   UNL     1     -10.585  13.517  67.213  1.00  0.00    -0.263 C  
BRANCH   9  10
HETATM   10  C   UNL     1     -11.938  13.132  67.807  1.00  0.00    -0.307 C  
BRANCH  10  11
HETATM   11  O   UNL     1     -12.059  11.704  67.953  1.00  0.00    -0.613 OA 
BRANCH  11  12
HETATM   12  C   UNL     1     -11.689  11.207  69.169  1.00  0.00    -0.338 C  
HETATM   13  O   UNL     1     -12.129  11.627  70.235  1.00  0.00    -0.340 OA 
BRANCH  12  14
HETATM   14  C   UNL     1     -10.608  10.115  69.057  1.00  0.00    -0.245 C  
HETATM   15  C   UNL     1      -9.166  10.693  69.040  1.00  0.00    -0.177 C  
HETATM   16  C   UNL     1     -10.721   9.550  67.616  1.00  0.00    -0.314 C  
HETATM   17  C   UNL     1      -9.349   8.988  67.294  1.00  0.00    -0.172 C  
HETATM   18  C   UNL     1      -8.391   9.981  67.924  1.00  0.00    -0.117 C  
BRANCH  14  19
HETATM   19  C   UNL     1     -10.781   9.095  70.199  1.00  0.00    -0.263 A  
HETATM   20  C   UNL     1     -10.159   8.122  72.352  1.00  0.00    -0.355 A  
HETATM   21  C   UNL     1     -11.133   7.137  72.215  1.00  0.00    -0.289 A  
HETATM   22  C   UNL     1      -9.983   9.086  71.354  1.00  0.00    -0.388 A  
HETATM   23  C   UNL     1     -11.940   7.125  71.085  1.00  0.00    -0.381 A  
HETATM   24  C   UNL     1     -11.772   8.098  70.093  1.00  0.00     0.195 A  
ENDBRANCH  14  19
ENDBRANCH  12  14
ENDBRANCH  11  12
ENDBRANCH  10  11
ENDBRANCH   9  10
ENDBRANCH   8   9
ENDBRANCH   7   8
ENDBRANCH   6   7
ENDBRANCH   3   6
ENDBRANCH   2   3
TORSDOF 11
ENDMDL
MODEL      146
REMARK 921   NORMALIZED FREE ENERGY PREDICTED BY IDOCK:   -4.54 KCAL/MOL
REMARK 922        TOTAL FREE ENERGY PREDICTED BY IDOCK:   -8.27 KCAL/MOL
REMARK 923 INTER-LIGAND FREE ENERGY PREDICTED BY IDOCK:   -6.82 KCAL/MOL
REMARK 924 INTRA-LIGAND FREE ENERGY PREDICTED BY IDOCK:   -1.45 KCAL/MOL
REMARK 927      BINDING AFFINITY PREDICTED BY RF-SCORE:    0.00 PKD
ROOT
HETATM    1  C   UNL     1     -10.090  10.158  69.994  1.00  0.00    -0.241 C  
HETATM    2  C   UNL     1     -10.233   8.973  69.042  1.00  0.00    -0.205 C  
ENDROOT
BRANCH   2   3
HETATM    3  N   UNL     1      -9.051   8.716  68.198  1.00  0.00    -0.141 NA 
BRANCH   3   4
HETATM    4  C   UNL     1      -8.486   7.368  68.361  1.00  0.00    -0.125 C  
HETATM    5  C   UNL     1      -8.653   6.726  69.733  1.00  0.00    -0.141 C  
ENDBRANCH   3   4
BRANCH   3   6
HETATM    6  C   UNL     1      -9.359   9.069  66.793  1.00  0.00    -0.165 C  
BRANCH   6   7
HETATM    7  C   UNL     1      -8.404  10.088  66.152  1.00  0.00    -0.120 C  
BRANCH   7   8
HETATM    8  O   UNL     1      -9.095  10.846  65.148  1.00  0.00    -0.197 OA 
BRANCH   8   9
HETATM    9  C   UNL     1     -10.493  10.902  65.438  1.00  0.00    -0.223 C  
BRANCH   9  10
HETATM   10  C   UNL     1     -10.944  12.350  65.612  1.00  0.00    -0.286 C  
BRANCH  10  11
HETATM   11  O   UNL     1     -10.909  12.748  66.996  1.00  0.00    -0.250 OA 
BRANCH  11  12
HETATM   12  C   UNL     1     -11.661  13.843  67.310  1.00  0.00    -0.386 C  
HETATM   13  O   UNL     1     -12.658  14.184  66.679  1.00  0.00    -0.349 OA 
BRANCH  12  14
HETATM   14  C   UNL     1     -11.080  14.640  68.493  1.00  0.00    -0.273 C  
HETATM   15  C   UNL     1     -10.963  16.160  68.197  1.00  0.00    -0.341 C  
HETATM   16  C   UNL     1      -9.584  14.236  68.585  1.00  0.00    -0.192 C  
HETATM   17  C   UNL     1      -8.892  15.405  69.260  1.00  0.00    -0.258 C  
HETATM   18  C   UNL     1      -9.582  16.624  68.678  1.00  0.00    -0.248 C  
BRANCH  14  19
HETATM   19  C   UNL     1     -11.928  14.386  69.755  1.00  0.00    -0.385 A  
HETATM   20  C   UNL     1     -12.949  12.923  71.424  1.00  0.00    -0.362 A  
HETATM   21  C   UNL     1     -13.556  14.012  72.042  1.00  0.00    -0.552 A  
HETATM   22  C   UNL     1     -12.149  13.108  70.293  1.00  0.00    -0.399 A  
HETATM   23  C   UNL     1     -13.352  15.288  71.534  1.00  0.00    -0.559 A  
HETATM   24  C   UNL     1     -12.540  15.474  70.410  1.00  0.00    -0.421 A  
ENDBRANCH  14  19
ENDBRANCH  12  14
ENDBRANCH  11  12
ENDBRANCH  10  11
ENDBRANCH   9  10
ENDBRANCH   8   9
ENDBRANCH   7   8
ENDBRANCH   6   7
ENDBRANCH   3   6
ENDBRANCH   2   3
TORSDOF 11
ENDMDL
MODEL      147
REMARK 921   NORMALIZED FREE ENERGY PREDICTED BY IDOCK:   -4.53 KCAL/MOL
REMARK 922        TOTAL FREE ENERGY PREDICTED BY IDOCK:   -8.26 KCAL/MOL
REMARK 923 INTER-LIGAND FREE ENERGY PREDICTED BY IDOCK:   -7.11 KCAL/MOL
REMARK 924 INTRA-LIGAND FREE ENERGY PREDICTED BY IDOCK:   -1.15 KCAL/MOL
REMARK 927      BINDING AFFINITY PREDICTED BY RF-SCORE:    0.00 PKD
ROOT
HETATM    1  C   UNL     1     -12.379  12.334  63.511  1.00  0.00    -0.670 C  
HETATM    2  C   UNL     1     -11.069  12.180  64.281  1.00  0.00    -0.346 C  
ENDROOT
BRANCH   2   3
HETATM    3  N   UNL     1     -10.658  13.377  65.040  1.00  0.00    -0.337 NA 
BRANCH   3   4
HETATM    4  C   UNL     1     -11.599  14.502  64.930  1.00  0.00    -0.401 C  
HETATM    5  C   UNL     1     -10.983  15.893  64.841  1.00  0.00    -0.427 C  
ENDBRANCH   3   4
BRANCH   3   6
HETATM    6  C   UNL     1     -10.343  12.995  66.435  1.00  0.00    -0.281 C  
BRANCH   6   7
HETATM    7  C   UNL     1     -11.519  13.090  67.420  1.00  0.00    -0.332 C  
BRANCH   7   8
HETATM    8  O   UNL     1     -11.969  11.776  67.777  1.00  0.00    -0.586 OA 
BRANCH   8   9
HETATM    9  C   UNL     1     -10.902  11.022  68.356  1.00  0.00    -0.220 C  
BRANCH   9  10
HETATM   10  C   UNL     1     -11.180  10.750  69.833  1.00  0.00    -0.300 C  
BRANCH  10  11
HETATM   11  O   UNL     1     -11.320   9.340  70.090  1.00  0.00    -0.240 OA 
BRANCH  11  12
HETATM   12  C   UNL     1     -10.216   8.728  70.608  1.00  0.00    -0.202 C  
HETATM   13  O   UNL     1      -9.178   9.322  70.885  1.00  0.00    -0.246 OA 
BRANCH  12  14
HETATM   14  C   UNL     1     -10.392   7.203  70.737  1.00  0.00    -0.219 C  
HETATM   15  C   UNL     1     -11.840   6.793  71.125  1.00  0.00    -0.410 C  
HETATM   16  C   UNL     1      -9.612   6.790  72.014  1.00  0.00    -0.151 C  
HETATM   17  C   UNL     1     -10.267   5.508  72.491  1.00  0.00    -0.229 C  
HETATM   18  C   UNL     1     -11.744   5.734  72.231  1.00  0.00    -0.265 C  
BRANCH  14  19
HETATM   19  C   UNL     1      -9.955   6.518  69.428  1.00  0.00    -0.178 A  
HETATM   20  C   UNL     1      -8.279   5.530  67.949  1.00  0.00    -0.100 A  
HETATM   21  C   UNL     1      -9.237   5.324  66.962  1.00  0.00    -0.116 A  
HETATM   22  C   UNL     1      -8.634   6.123  69.165  1.00  0.00    -0.119 A  
HETATM   23  C   UNL     1     -10.553   5.700  67.195  1.00  0.00    -0.344 A  
HETATM   24  C   UNL     1     -10.910   6.281  68.417  1.00  0.00    -0.394 A  
ENDBRANCH  14  19
ENDBRANCH  12  14
ENDBRANCH  11  12
ENDBRANCH  10  11
ENDBRANCH   9  10
ENDBRANCH   8   9
ENDBRANCH   7   8
ENDBRANCH   6   7
ENDBRANCH   3   6
ENDBRANCH   2   3
TORSDOF 11
ENDMDL
MODEL      148
REMARK 921   NORMALIZED FREE ENERGY PREDICTED BY IDOCK:   -4.53 KCAL/MOL
REMARK 922        TOTAL FREE ENERGY PREDICTED BY IDOCK:   -8.26 KCAL/MOL
REMARK 923 INTER-LIGAND FREE ENERGY PREDICTED BY IDOCK:   -6.79 KCAL/MOL
REMARK 924 INTRA-LIGAND FREE ENERGY PREDICTED BY IDOCK:   -1.47 KCAL/MOL
REMARK 927      BINDING AFFINITY PREDICTED BY RF-SCORE:    0.00 PKD
ROOT
HETATM    1  C   UNL     1     -10.447   6.856  73.506  1.00  0.00    -0.382 C  
HETATM    2  C   UNL     1     -11.217   7.957  72.780  1.00  0.00    -0.405 C  
ENDROOT
BRANCH   2   3
HETATM    3  N   UNL     1     -12.108   7.477  71.706  1.00  0.00    -0.296 NA 
BRANCH   3   4
HETATM    4  C   UNL     1     -13.278   8.338  71.476  1.00  0.00    -0.287 C  
HETATM    5  C   UNL     1     -13.284   9.679  72.200  1.00  0.00    -0.535 C  
ENDBRANCH   3   4
BRANCH   3   6
HETATM    6  C   UNL     1     -11.313   7.211  70.485  1.00  0.00    -0.297 C  
BRANCH   6   7
HETATM    7  C   UNL     1     -10.257   8.275  70.148  1.00  0.00    -0.199 C  
BRANCH   7   8
HETATM    8  O   UNL     1     -10.743   9.139  69.111  1.00  0.00    -0.225 OA 
BRANCH   8   9
HETATM    9  C   UNL     1     -10.662  10.507  69.520  1.00  0.00    -0.255 C  
BRANCH   9  10
HETATM   10  C   UNL     1     -11.925  11.261  69.111  1.00  0.00    -0.336 C  
BRANCH  10  11
HETATM   11  O   UNL     1     -11.644  12.648  68.842  1.00  0.00    -0.274 OA 
BRANCH  11  12
HETATM   12  C   UNL     1     -11.566  12.983  67.521  1.00  0.00    -0.356 C  
HETATM   13  O   UNL     1     -12.251  12.459  66.647  1.00  0.00    -0.562 OA 
BRANCH  12  14
HETATM   14  C   UNL     1     -10.476  14.035  67.242  1.00  0.00    -0.268 C  
HETATM   15  C   UNL     1     -10.732  15.379  67.979  1.00  0.00    -0.279 C  
HETATM   16  C   UNL     1     -10.667  14.464  65.762  1.00  0.00    -0.312 C  
HETATM   17  C   UNL     1     -10.083  15.861  65.669  1.00  0.00    -0.388 C  
HETATM   18  C   UNL     1     -10.487  16.515  66.977  1.00  0.00    -0.289 C  
BRANCH  14  19
HETATM   19  C   UNL     1      -9.094  13.459  67.606  1.00  0.00    -0.203 A  
HETATM   20  C   UNL     1      -6.957  13.530  68.788  1.00  0.00    -0.102 A  
HETATM   21  C   UNL     1      -6.545  12.357  68.162  1.00  0.00    -0.073 A  
HETATM   22  C   UNL     1      -8.214  14.076  68.510  1.00  0.00    -0.136 A  
HETATM   23  C   UNL     1      -7.396  11.724  67.267  1.00  0.00    -0.141 A  
HETATM   24  C   UNL     1      -8.659  12.263  66.999  1.00  0.00    -0.191 A  
ENDBRANCH  14  19
ENDBRANCH  12  14
ENDBRANCH  11  12
ENDBRANCH  10  11
ENDBRANCH   9  10
ENDBRANCH   8   9
ENDBRANCH   7   8
ENDBRANCH   6   7
ENDBRANCH   3   6
ENDBRANCH   2   3
TORSDOF 11
ENDMDL
MODEL      149
REMARK 921   NORMALIZED FREE ENERGY PREDICTED BY IDOCK:   -4.53 KCAL/MOL
REMARK 922        TOTAL FREE ENERGY PREDICTED BY IDOCK:   -8.26 KCAL/MOL
REMARK 923 INTER-LIGAND FREE ENERGY PREDICTED BY IDOCK:   -7.16 KCAL/MOL
REMARK 924 INTRA-LIGAND FREE ENERGY PREDICTED BY IDOCK:   -1.10 KCAL/MOL
REMARK 927      BINDING AFFINITY PREDICTED BY RF-SCORE:    0.00 PKD
ROOT
HETATM    1  C   UNL     1      -5.869   8.664  62.820  1.00  0.00    -0.082 C  
HETATM    2  C   UNL     1      -5.921   8.734  64.344  1.00  0.00    -0.066 C  
ENDROOT
BRANCH   2   3
HETATM    3  N   UNL     1      -7.255   8.486  64.925  1.00  0.00    -0.083 NA 
BRANCH   3   4
HETATM    4  C   UNL     1      -7.388   8.933  66.320  1.00  0.00    -0.087 C  
HETATM    5  C   UNL     1      -7.910   7.902  67.313  1.00  0.00    -0.113 C  
ENDBRANCH   3   4
BRANCH   3   6
HETATM    6  C   UNL     1      -8.297   9.026  64.022  1.00  0.00    -0.176 C  
BRANCH   6   7
HETATM    7  C   UNL     1      -8.803  10.433  64.378  1.00  0.00    -0.206 C  
BRANCH   7   8
HETATM    8  O   UNL     1     -10.186  10.563  64.021  1.00  0.00    -0.319 OA 
BRANCH   8   9
HETATM    9  C   UNL     1     -10.372  11.668  63.132  1.00  0.00    -0.334 C  
BRANCH   9  10
HETATM   10  C   UNL     1     -11.458  12.601  63.661  1.00  0.00    -0.495 C  
BRANCH  10  11
HETATM   11  O   UNL     1     -11.479  12.620  65.101  1.00  0.00    -0.305 OA 
BRANCH  11  12
HETATM   12  C   UNL     1     -12.043  13.728  65.663  1.00  0.00    -0.418 C  
HETATM   13  O   UNL     1     -13.194  14.092  65.439  1.00  0.00    -0.761 OA 
BRANCH  12  14
HETATM   14  C   UNL     1     -11.054  14.508  66.551  1.00  0.00    -0.332 C  
HETATM   15  C   UNL     1     -10.806  15.958  66.049  1.00  0.00    -0.226 C  
HETATM   16  C   UNL     1      -9.663  13.865  66.307  1.00  0.00    -0.304 C  
HETATM   17  C   UNL     1      -8.654  14.950  66.632  1.00  0.00    -0.207 C  
HETATM   18  C   UNL     1      -9.295  16.217  66.100  1.00  0.00    -0.372 C  
BRANCH  14  19
HETATM   19  C   UNL     1     -11.554  14.506  68.009  1.00  0.00    -0.364 A  
HETATM   20  C   UNL     1     -12.195  15.624  70.085  1.00  0.00    -0.387 A  
HETATM   21  C   UNL     1     -12.411  14.398  70.706  1.00  0.00    -0.417 A  
HETATM   22  C   UNL     1     -11.768  15.677  68.754  1.00  0.00    -0.382 A  
HETATM   23  C   UNL     1     -12.212  13.224  69.992  1.00  0.00    -0.345 A  
HETATM   24  C   UNL     1     -11.797  13.278  68.657  1.00  0.00    -0.380 A  
ENDBRANCH  14  19
ENDBRANCH  12  14
ENDBRANCH  11  12
ENDBRANCH  10  11
ENDBRANCH   9  10
ENDBRANCH   8   9
ENDBRANCH   7   8
ENDBRANCH   6   7
ENDBRANCH   3   6
ENDBRANCH   2   3
TORSDOF 11
ENDMDL
MODEL      150
REMARK 921   NORMALIZED FREE ENERGY PREDICTED BY IDOCK:   -4.52 KCAL/MOL
REMARK 922        TOTAL FREE ENERGY PREDICTED BY IDOCK:   -8.25 KCAL/MOL
REMARK 923 INTER-LIGAND FREE ENERGY PREDICTED BY IDOCK:   -6.50 KCAL/MOL
REMARK 924 INTRA-LIGAND FREE ENERGY PREDICTED BY IDOCK:   -1.75 KCAL/MOL
REMARK 927      BINDING AFFINITY PREDICTED BY RF-SCORE:    0.00 PKD
ROOT
HETATM    1  C   UNL     1      -8.907  14.110  68.256  1.00  0.00    -0.187 C  
HETATM    2  C   UNL     1      -9.813  13.771  67.074  1.00  0.00    -0.251 C  
ENDROOT
BRANCH   2   3
HETATM    3  N   UNL     1     -10.871  14.764  66.806  1.00  0.00    -0.310 NA 
BRANCH   3   4
HETATM    4  C   UNL     1     -10.632  15.576  65.604  1.00  0.00    -0.373 C  
HETATM    5  C   UNL     1     -10.265  17.037  65.836  1.00  0.00    -0.311 C  
ENDBRANCH   3   4
BRANCH   3   6
HETATM    6  C   UNL     1     -12.193  14.097  66.825  1.00  0.00    -0.394 C  
BRANCH   6   7
HETATM    7  C   UNL     1     -12.887  13.986  65.458  1.00  0.00    -0.419 C  
BRANCH   7   8
HETATM    8  O   UNL     1     -12.822  12.634  64.982  1.00  0.00    -0.765 OA 
BRANCH   8   9
HETATM    9  C   UNL     1     -12.183  12.584  63.704  1.00  0.00    -0.550 C  
BRANCH   9  10
HETATM   10  C   UNL     1     -10.689  12.315  63.866  1.00  0.00    -0.420 C  
BRANCH  10  11
HETATM   11  O   UNL     1     -10.447  11.212  64.760  1.00  0.00    -0.303 OA 
BRANCH  11  12
HETATM   12  C   UNL     1      -9.492  10.326  64.351  1.00  0.00    -0.302 C  
HETATM   13  O   UNL     1      -9.448   9.850  63.221  1.00  0.00    -0.268 OA 
BRANCH  12  14
HETATM   14  C   UNL     1      -8.523   9.938  65.485  1.00  0.00    -0.148 C  
HETATM   15  C   UNL     1      -7.556  11.090  65.873  1.00  0.00     0.007 C  
HETATM   16  C   UNL     1      -7.536   8.912  64.868  1.00  0.00    -0.098 C  
HETATM   17  C   UNL     1      -6.276   9.011  65.707  1.00  0.00    -0.056 C  
HETATM   18  C   UNL     1      -6.148  10.493  66.002  1.00  0.00    -0.119 C  
BRANCH  14  19
HETATM   19  C   UNL     1      -9.325   9.453  66.708  1.00  0.00    -0.202 A  
HETATM   20  C   UNL     1     -10.274   9.757  68.939  1.00  0.00    -0.213 A  
HETATM   21  C   UNL     1     -10.756   8.451  68.938  1.00  0.00    -0.095 A  
HETATM   22  C   UNL     1      -9.564  10.250  67.840  1.00  0.00    -0.161 A  
HETATM   23  C   UNL     1     -10.538   7.643  67.831  1.00  0.00    -0.233 A  
HETATM   24  C   UNL     1      -9.839   8.141  66.725  1.00  0.00    -0.329 A  
ENDBRANCH  14  19
ENDBRANCH  12  14
ENDBRANCH  11  12
ENDBRANCH  10  11
ENDBRANCH   9  10
ENDBRANCH   8   9
ENDBRANCH   7   8
ENDBRANCH   6   7
ENDBRANCH   3   6
ENDBRANCH   2   3
TORSDOF 11
ENDMDL
MODEL      151
REMARK 921   NORMALIZED FREE ENERGY PREDICTED BY IDOCK:   -4.51 KCAL/MOL
REMARK 922        TOTAL FREE ENERGY PREDICTED BY IDOCK:   -8.24 KCAL/MOL
REMARK 923 INTER-LIGAND FREE ENERGY PREDICTED BY IDOCK:   -7.14 KCAL/MOL
REMARK 924 INTRA-LIGAND FREE ENERGY PREDICTED BY IDOCK:   -1.10 KCAL/MOL
REMARK 927      BINDING AFFINITY PREDICTED BY RF-SCORE:    0.00 PKD
ROOT
HETATM    1  C   UNL     1     -13.037  10.696  70.862  1.00  0.00    -0.342 C  
HETATM    2  C   UNL     1     -11.948  11.764  70.782  1.00  0.00    -0.127 C  
ENDROOT
BRANCH   2   3
HETATM    3  N   UNL     1     -12.148  12.767  69.719  1.00  0.00    -0.275 NA 
BRANCH   3   4
HETATM    4  C   UNL     1     -12.555  14.089  70.218  1.00  0.00    -0.291 C  
HETATM    5  C   UNL     1     -11.832  14.594  71.461  1.00  0.00    -0.347 C  
ENDBRANCH   3   4
BRANCH   3   6
HETATM    6  C   UNL     1     -10.958  12.800  68.838  1.00  0.00    -0.231 C  
BRANCH   6   7
HETATM    7  C   UNL     1     -11.198  12.325  67.397  1.00  0.00    -0.301 C  
BRANCH   7   8
HETATM    8  O   UNL     1     -12.386  12.933  66.870  1.00  0.00    -0.384 OA 
BRANCH   8   9
HETATM    9  C   UNL     1     -12.087  14.216  66.315  1.00  0.00    -0.442 C  
BRANCH   9  10
HETATM   10  C   UNL     1     -10.766  14.172  65.551  1.00  0.00    -0.324 C  
BRANCH  10  11
HETATM   11  O   UNL     1      -9.847  15.171  66.032  1.00  0.00    -0.278 OA 
BRANCH  11  12
HETATM   12  C   UNL     1     -10.168  16.460  65.718  1.00  0.00    -0.348 C  
HETATM   13  O   UNL     1     -10.713  16.787  64.668  1.00  0.00    -0.778 OA 
BRANCH  12  14
HETATM   14  C   UNL     1      -9.706  17.462  66.794  1.00  0.00    -0.293 C  
HETATM   15  C   UNL     1     -10.874  17.976  67.681  1.00  0.00    -0.257 C  
HETATM   16  C   UNL     1      -9.318  18.757  66.031  1.00  0.00    -0.040 C  
HETATM   17  C   UNL     1      -9.480  19.882  67.036  1.00  0.00    -0.505 C  
HETATM   18  C   UNL     1     -10.721  19.497  67.818  1.00  0.00    -0.487 C  
BRANCH  14  19
HETATM   19  C   UNL     1      -8.597  16.825  67.654  1.00  0.00    -0.211 A  
HETATM   20  C   UNL     1      -6.256  16.413  68.217  1.00  0.00    -0.122 A  
HETATM   21  C   UNL     1      -6.630  15.557  69.248  1.00  0.00    -0.147 A  
HETATM   22  C   UNL     1      -7.228  17.036  67.427  1.00  0.00    -0.181 A  
HETATM   23  C   UNL     1      -7.978  15.334  69.498  1.00  0.00    -0.199 A  
HETATM   24  C   UNL     1      -8.950  15.968  68.716  1.00  0.00    -0.226 A  
ENDBRANCH  14  19
ENDBRANCH  12  14
ENDBRANCH  11  12
ENDBRANCH  10  11
ENDBRANCH   9  10
ENDBRANCH   8   9
ENDBRANCH   7   8
ENDBRANCH   6   7
ENDBRANCH   3   6
ENDBRANCH   2   3
TORSDOF 11
ENDMDL
MODEL      152
REMARK 921   NORMALIZED FREE ENERGY PREDICTED BY IDOCK:   -4.51 KCAL/MOL
REMARK 922        TOTAL FREE ENERGY PREDICTED BY IDOCK:   -8.22 KCAL/MOL
REMARK 923 INTER-LIGAND FREE ENERGY PREDICTED BY IDOCK:   -6.69 KCAL/MOL
REMARK 924 INTRA-LIGAND FREE ENERGY PREDICTED BY IDOCK:   -1.54 KCAL/MOL
REMARK 927      BINDING AFFINITY PREDICTED BY RF-SCORE:    0.00 PKD
ROOT
HETATM    1  C   UNL     1     -11.863  13.269  69.113  1.00  0.00    -0.378 C  
HETATM    2  C   UNL     1     -11.464  12.176  68.124  1.00  0.00    -0.317 C  
ENDROOT
BRANCH   2   3
HETATM    3  N   UNL     1     -10.449  12.584  67.135  1.00  0.00    -0.223 NA 
BRANCH   3   4
HETATM    4  C   UNL     1      -9.221  11.775  67.175  1.00  0.00    -0.179 C  
HETATM    5  C   UNL     1      -8.585  11.579  68.546  1.00  0.00    -0.140 C  
ENDBRANCH   3   4
BRANCH   3   6
HETATM    6  C   UNL     1     -11.069  12.662  65.792  1.00  0.00    -0.297 C  
BRANCH   6   7
HETATM    7  C   UNL     1     -12.496  13.230  65.765  1.00  0.00    -0.417 C  
BRANCH   7   8
HETATM    8  O   UNL     1     -12.670  14.070  64.614  1.00  0.00    -0.648 OA 
BRANCH   8   9
HETATM    9  C   UNL     1     -11.431  14.682  64.250  1.00  0.00    -0.161 C  
BRANCH   9  10
HETATM   10  C   UNL     1     -11.344  16.093  64.826  1.00  0.00    -0.249 C  
BRANCH  10  11
HETATM   11  O   UNL     1     -10.050  16.345  65.407  1.00  0.00    -0.543 OA 
BRANCH  11  12
HETATM   12  C   UNL     1     -10.026  16.422  66.770  1.00  0.00    -0.272 C  
HETATM   13  O   UNL     1     -11.037  16.438  67.466  1.00  0.00    -0.241 OA 
BRANCH  12  14
HETATM   14  C   UNL     1      -8.597  16.559  67.328  1.00  0.00    -0.202 C  
HETATM   15  C   UNL     1      -7.697  15.338  66.990  1.00  0.00    -0.192 C  
HETATM   16  C   UNL     1      -8.726  16.418  68.869  1.00  0.00    -0.253 C  
HETATM   17  C   UNL     1      -7.372  15.926  69.344  1.00  0.00    -0.217 C  
HETATM   18  C   UNL     1      -6.940  14.949  68.267  1.00  0.00    -0.118 C  
BRANCH  14  19
HETATM   19  C   UNL     1      -7.965  17.869  66.819  1.00  0.00    -0.259 A  
HETATM   20  C   UNL     1      -6.129  19.161  65.855  1.00  0.00    -0.219 A  
HETATM   21  C   UNL     1      -6.864  20.337  65.970  1.00  0.00    -0.281 A  
HETATM   22  C   UNL     1      -6.671  17.944  66.278  1.00  0.00    -0.294 A  
HETATM   23  C   UNL     1      -8.148  20.292  66.497  1.00  0.00    -0.269 A  
HETATM   24  C   UNL     1      -8.695  19.072  66.909  1.00  0.00    -0.316 A  
ENDBRANCH  14  19
ENDBRANCH  12  14
ENDBRANCH  11  12
ENDBRANCH  10  11
ENDBRANCH   9  10
ENDBRANCH   8   9
ENDBRANCH   7   8
ENDBRANCH   6   7
ENDBRANCH   3   6
ENDBRANCH   2   3
TORSDOF 11
ENDMDL
MODEL      153
REMARK 921   NORMALIZED FREE ENERGY PREDICTED BY IDOCK:   -4.50 KCAL/MOL
REMARK 922        TOTAL FREE ENERGY PREDICTED BY IDOCK:   -8.22 KCAL/MOL
REMARK 923 INTER-LIGAND FREE ENERGY PREDICTED BY IDOCK:   -6.83 KCAL/MOL
REMARK 924 INTRA-LIGAND FREE ENERGY PREDICTED BY IDOCK:   -1.39 KCAL/MOL
REMARK 927      BINDING AFFINITY PREDICTED BY RF-SCORE:    0.00 PKD
ROOT
HETATM    1  C   UNL     1      -8.427   8.380  72.776  1.00  0.00    -0.224 C  
HETATM    2  C   UNL     1      -9.409   8.437  71.608  1.00  0.00    -0.214 C  
ENDROOT
BRANCH   2   3
HETATM    3  N   UNL     1     -10.735   7.856  71.891  1.00  0.00    -0.226 NA 
BRANCH   3   4
HETATM    4  C   UNL     1     -11.802   8.857  72.040  1.00  0.00    -0.368 C  
HETATM    5  C   UNL     1     -11.772  10.028  71.066  1.00  0.00    -0.479 C  
ENDBRANCH   3   4
BRANCH   3   6
HETATM    6  C   UNL     1     -11.037   6.803  70.896  1.00  0.00    -0.277 C  
BRANCH   6   7
HETATM    7  C   UNL     1      -9.821   6.003  70.402  1.00  0.00    -0.179 C  
BRANCH   7   8
HETATM    8  O   UNL     1      -9.867   5.869  68.974  1.00  0.00    -0.139 OA 
BRANCH   8   9
HETATM    9  C   UNL     1     -11.111   6.355  68.466  1.00  0.00    -0.300 C  
BRANCH   9  10
HETATM   10  C   UNL     1     -10.951   6.824  67.022  1.00  0.00    -0.368 C  
BRANCH  10  11
HETATM   11  O   UNL     1     -10.786   8.253  66.949  1.00  0.00    -0.299 OA 
BRANCH  11  12
HETATM   12  C   UNL     1      -9.634   8.678  66.353  1.00  0.00    -0.247 C  
HETATM   13  O   UNL     1      -8.859   7.931  65.764  1.00  0.00    -0.163 OA 
BRANCH  12  14
HETATM   14  C   UNL     1      -9.382  10.184  66.563  1.00  0.00    -0.200 C  
HETATM   15  C   UNL     1      -7.895  10.582  66.348  1.00  0.00    -0.138 C  
HETATM   16  C   UNL     1      -9.541  10.434  68.087  1.00  0.00    -0.155 C  
HETATM   17  C   UNL     1      -8.714  11.671  68.381  1.00  0.00    -0.158 C  
HETATM   18  C   UNL     1      -7.490  11.510  67.501  1.00  0.00    -0.116 C  
BRANCH  14  19
HETATM   19  C   UNL     1     -10.311  10.998  65.643  1.00  0.00    -0.311 A  
HETATM   20  C   UNL     1     -12.211  12.482  65.242  1.00  0.00    -0.493 A  
HETATM   21  C   UNL     1     -12.008  12.410  63.868  1.00  0.00    -0.572 A  
HETATM   22  C   UNL     1     -11.376  11.781  66.118  1.00  0.00    -0.342 A  
HETATM   23  C   UNL     1     -10.960  11.646  63.370  1.00  0.00    -0.442 A  
HETATM   24  C   UNL     1     -10.117  10.956  64.247  1.00  0.00    -0.413 A  
ENDBRANCH  14  19
ENDBRANCH  12  14
ENDBRANCH  11  12
ENDBRANCH  10  11
ENDBRANCH   9  10
ENDBRANCH   8   9
ENDBRANCH   7   8
ENDBRANCH   6   7
ENDBRANCH   3   6
ENDBRANCH   2   3
TORSDOF 11
ENDMDL
MODEL      154
REMARK 921   NORMALIZED FREE ENERGY PREDICTED BY IDOCK:   -4.49 KCAL/MOL
REMARK 922        TOTAL FREE ENERGY PREDICTED BY IDOCK:   -8.19 KCAL/MOL
REMARK 923 INTER-LIGAND FREE ENERGY PREDICTED BY IDOCK:   -7.04 KCAL/MOL
REMARK 924 INTRA-LIGAND FREE ENERGY PREDICTED BY IDOCK:   -1.15 KCAL/MOL
REMARK 927      BINDING AFFINITY PREDICTED BY RF-SCORE:    0.00 PKD
ROOT
HETATM    1  C   UNL     1      -7.278  18.337  68.041  1.00  0.00    -0.240 C  
HETATM    2  C   UNL     1      -8.653  18.300  68.703  1.00  0.00    -0.283 C  
ENDROOT
BRANCH   2   3
HETATM    3  N   UNL     1      -9.775  18.061  67.776  1.00  0.00    -0.283 NA 
BRANCH   3   4
HETATM    4  C   UNL     1     -10.541  19.273  67.445  1.00  0.00    -0.487 C  
HETATM    5  C   UNL     1     -10.059  20.572  68.079  1.00  0.00    -0.264 C  
ENDBRANCH   3   4
BRANCH   3   6
HETATM    6  C   UNL     1      -9.290  17.319  66.591  1.00  0.00    -0.260 C  
BRANCH   6   7
HETATM    7  C   UNL     1     -10.302  16.341  65.973  1.00  0.00    -0.349 C  
BRANCH   7   8
HETATM    8  O   UNL     1      -9.888  14.988  66.212  1.00  0.00    -0.253 OA 
BRANCH   8   9
HETATM    9  C   UNL     1      -8.520  14.949  66.624  1.00  0.00    -0.103 C  
BRANCH   9  10
HETATM   10  C   UNL     1      -8.383  14.198  67.946  1.00  0.00    -0.162 C  
BRANCH  10  11
HETATM   11  O   UNL     1      -8.491  12.775  67.756  1.00  0.00    -0.153 OA 
BRANCH  11  12
HETATM   12  C   UNL     1      -9.728  12.246  67.989  1.00  0.00    -0.205 C  
HETATM   13  O   UNL     1     -10.461  12.614  68.902  1.00  0.00    -0.188 OA 
BRANCH  12  14
HETATM   14  C   UNL     1     -10.067  11.091  67.027  1.00  0.00    -0.232 C  
HETATM   15  C   UNL     1     -10.966  10.006  67.681  1.00  0.00    -0.297 C  
HETATM   16  C   UNL     1      -8.746  10.303  66.825  1.00  0.00    -0.132 C  
HETATM   17  C   UNL     1      -9.169   8.897  66.445  1.00  0.00    -0.240 C  
HETATM   18  C   UNL     1     -10.386   8.635  67.312  1.00  0.00    -0.366 C  
BRANCH  14  19
HETATM   19  C   UNL     1     -10.721  11.655  65.751  1.00  0.00    -0.331 A  
HETATM   20  C   UNL     1     -12.569  12.695  64.537  1.00  0.00    -0.491 A  
HETATM   21  C   UNL     1     -11.864  12.607  63.341  1.00  0.00    -0.594 A  
HETATM   22  C   UNL     1     -12.005  12.222  65.726  1.00  0.00    -0.362 A  
HETATM   23  C   UNL     1     -10.590  12.055  63.336  1.00  0.00    -0.478 A  
HETATM   24  C   UNL     1     -10.022  11.593  64.528  1.00  0.00    -0.290 A  
ENDBRANCH  14  19
ENDBRANCH  12  14
ENDBRANCH  11  12
ENDBRANCH  10  11
ENDBRANCH   9  10
ENDBRANCH   8   9
ENDBRANCH   7   8
ENDBRANCH   6   7
ENDBRANCH   3   6
ENDBRANCH   2   3
TORSDOF 11
ENDMDL
MODEL      155
REMARK 921   NORMALIZED FREE ENERGY PREDICTED BY IDOCK:   -4.48 KCAL/MOL
REMARK 922        TOTAL FREE ENERGY PREDICTED BY IDOCK:   -8.18 KCAL/MOL
REMARK 923 INTER-LIGAND FREE ENERGY PREDICTED BY IDOCK:   -6.69 KCAL/MOL
REMARK 924 INTRA-LIGAND FREE ENERGY PREDICTED BY IDOCK:   -1.49 KCAL/MOL
REMARK 927      BINDING AFFINITY PREDICTED BY RF-SCORE:    0.00 PKD
ROOT
HETATM    1  C   UNL     1      -8.497   9.190  70.678  1.00  0.00    -0.246 C  
HETATM    2  C   UNL     1      -8.673   7.686  70.483  1.00  0.00    -0.138 C  
ENDROOT
BRANCH   2   3
HETATM    3  N   UNL     1     -10.052   7.199  70.675  1.00  0.00    -0.191 NA 
BRANCH   3   4
HETATM    4  C   UNL     1     -11.037   8.271  70.890  1.00  0.00    -0.261 C  
HETATM    5  C   UNL     1     -12.398   7.841  71.422  1.00  0.00    -0.346 C  
ENDBRANCH   3   4
BRANCH   3   6
HETATM    6  C   UNL     1     -10.408   6.272  69.576  1.00  0.00    -0.212 C  
BRANCH   6   7
HETATM    7  C   UNL     1      -9.341   6.118  68.481  1.00  0.00    -0.117 C  
BRANCH   7   8
HETATM    8  O   UNL     1      -9.917   6.374  67.192  1.00  0.00    -0.134 OA 
BRANCH   8   9
HETATM    9  C   UNL     1      -9.542   7.672  66.725  1.00  0.00    -0.209 C  
BRANCH   9  10
HETATM   10  C   UNL     1     -10.656   8.679  66.998  1.00  0.00    -0.223 C  
BRANCH  10  11
HETATM   11  O   UNL     1     -10.224   9.705  67.912  1.00  0.00    -0.174 OA 
BRANCH  11  12
HETATM   12  C   UNL     1     -10.958  10.855  67.890  1.00  0.00    -0.271 C  
HETATM   13  O   UNL     1     -12.100  10.940  68.334  1.00  0.00    -0.559 OA 
BRANCH  12  14
HETATM   14  C   UNL     1     -10.224  12.011  67.184  1.00  0.00    -0.221 C  
HETATM   15  C   UNL     1      -8.708  11.731  66.985  1.00  0.00    -0.181 C  
HETATM   16  C   UNL     1     -10.181  13.177  68.207  1.00  0.00    -0.250 C  
HETATM   17  C   UNL     1      -8.982  14.018  67.810  1.00  0.00    -0.186 C  
HETATM   18  C   UNL     1      -7.943  12.998  67.388  1.00  0.00    -0.173 C  
BRANCH  14  19
HETATM   19  C   UNL     1     -10.911  12.316  65.839  1.00  0.00    -0.338 A  
HETATM   20  C   UNL     1     -11.317  11.900  63.466  1.00  0.00    -0.516 A  
HETATM   21  C   UNL     1     -12.172  12.996  63.395  1.00  0.00    -0.552 A  
HETATM   22  C   UNL     1     -10.691  11.568  64.671  1.00  0.00    -0.379 A  
HETATM   23  C   UNL     1     -12.411  13.752  64.535  1.00  0.00    -0.399 A  
HETATM   24  C   UNL     1     -11.795  13.411  65.744  1.00  0.00    -0.412 A  
ENDBRANCH  14  19
ENDBRANCH  12  14
ENDBRANCH  11  12
ENDBRANCH  10  11
ENDBRANCH   9  10
ENDBRANCH   8   9
ENDBRANCH   7   8
ENDBRANCH   6   7
ENDBRANCH   3   6
ENDBRANCH   2   3
TORSDOF 11
ENDMDL
MODEL      156
REMARK 921   NORMALIZED FREE ENERGY PREDICTED BY IDOCK:   -4.48 KCAL/MOL
REMARK 922        TOTAL FREE ENERGY PREDICTED BY IDOCK:   -8.18 KCAL/MOL
REMARK 923 INTER-LIGAND FREE ENERGY PREDICTED BY IDOCK:   -6.50 KCAL/MOL
REMARK 924 INTRA-LIGAND FREE ENERGY PREDICTED BY IDOCK:   -1.68 KCAL/MOL
REMARK 927      BINDING AFFINITY PREDICTED BY RF-SCORE:    0.00 PKD
ROOT
HETATM    1  C   UNL     1      -9.192   8.908  65.952  1.00  0.00    -0.290 C  
HETATM    2  C   UNL     1     -10.183   9.141  67.089  1.00  0.00    -0.261 C  
ENDROOT
BRANCH   2   3
HETATM    3  N   UNL     1      -9.783  10.189  68.048  1.00  0.00    -0.142 NA 
BRANCH   3   4
HETATM    4  C   UNL     1      -8.377  10.602  67.924  1.00  0.00    -0.120 C  
HETATM    5  C   UNL     1      -8.089  12.086  68.114  1.00  0.00    -0.160 C  
ENDBRANCH   3   4
BRANCH   3   6
HETATM    6  C   UNL     1     -10.744  11.313  67.983  1.00  0.00    -0.203 C  
BRANCH   6   7
HETATM    7  C   UNL     1     -11.859  11.281  69.041  1.00  0.00    -0.352 C  
BRANCH   7   8
HETATM    8  O   UNL     1     -11.444  11.992  70.215  1.00  0.00    -0.144 OA 
BRANCH   8   9
HETATM    9  C   UNL     1     -12.401  12.998  70.555  1.00  0.00    -0.287 C  
BRANCH   9  10
HETATM   10  C   UNL     1     -11.751  14.379  70.542  1.00  0.00    -0.264 C  
BRANCH  10  11
HETATM   11  O   UNL     1     -11.589  14.869  69.197  1.00  0.00    -0.275 OA 
BRANCH  11  12
HETATM   12  C   UNL     1     -10.307  15.167  68.834  1.00  0.00    -0.243 C  
HETATM   13  O   UNL     1      -9.341  15.024  69.578  1.00  0.00    -0.164 OA 
BRANCH  12  14
HETATM   14  C   UNL     1     -10.219  15.767  67.418  1.00  0.00    -0.270 C  
HETATM   15  C   UNL     1      -8.770  16.160  67.018  1.00  0.00    -0.228 C  
HETATM   16  C   UNL     1     -10.895  17.162  67.503  1.00  0.00    -0.203 C  
HETATM   17  C   UNL     1     -10.281  17.977  66.381  1.00  0.00    -0.393 C  
HETATM   18  C   UNL     1      -8.825  17.552  66.375  1.00  0.00    -0.269 C  
BRANCH  14  19
HETATM   19  C   UNL     1     -10.826  14.783  66.399  1.00  0.00    -0.322 A  
HETATM   20  C   UNL     1     -12.709  13.635  65.347  1.00  0.00    -0.500 A  
HETATM   21  C   UNL     1     -11.843  12.902  64.541  1.00  0.00    -0.429 A  
HETATM   22  C   UNL     1     -12.206  14.561  66.267  1.00  0.00    -0.270 A  
HETATM   23  C   UNL     1     -10.474  13.104  64.647  1.00  0.00    -0.411 A  
HETATM   24  C   UNL     1      -9.971  14.040  65.559  1.00  0.00    -0.302 A  
ENDBRANCH  14  19
ENDBRANCH  12  14
ENDBRANCH  11  12
ENDBRANCH  10  11
ENDBRANCH   9  10
ENDBRANCH   8   9
ENDBRANCH   7   8
ENDBRANCH   6   7
ENDBRANCH   3   6
ENDBRANCH   2   3
TORSDOF 11
ENDMDL
MODEL      157
REMARK 921   NORMALIZED FREE ENERGY PREDICTED BY IDOCK:   -4.47 KCAL/MOL
REMARK 922        TOTAL FREE ENERGY PREDICTED BY IDOCK:   -8.16 KCAL/MOL
REMARK 923 INTER-LIGAND FREE ENERGY PREDICTED BY IDOCK:   -7.00 KCAL/MOL
REMARK 924 INTRA-LIGAND FREE ENERGY PREDICTED BY IDOCK:   -1.16 KCAL/MOL
REMARK 927      BINDING AFFINITY PREDICTED BY RF-SCORE:    0.00 PKD
ROOT
HETATM    1  C   UNL     1     -10.586   5.632  69.742  1.00  0.00    -0.400 C  
HETATM    2  C   UNL     1     -10.116   4.693  68.634  1.00  0.00    -0.006 C  
ENDROOT
BRANCH   2   3
HETATM    3  N   UNL     1      -9.912   5.342  67.325  1.00  0.00    -0.161 NA 
BRANCH   3   4
HETATM    4  C   UNL     1      -9.800   4.396  66.203  1.00  0.00    -0.231 C  
HETATM    5  C   UNL     1      -8.617   4.597  65.265  1.00  0.00    -0.133 C  
ENDBRANCH   3   4
BRANCH   3   6
HETATM    6  C   UNL     1     -10.940   6.388  67.124  1.00  0.00    -0.399 C  
BRANCH   6   7
HETATM    7  C   UNL     1     -10.392   7.800  66.862  1.00  0.00    -0.326 C  
BRANCH   7   8
HETATM    8  O   UNL     1      -9.133   7.971  67.530  1.00  0.00    -0.136 OA 
BRANCH   8   9
HETATM    9  C   UNL     1      -9.262   8.899  68.609  1.00  0.00    -0.137 C  
BRANCH   9  10
HETATM   10  C   UNL     1      -9.068  10.329  68.109  1.00  0.00    -0.136 C  
BRANCH  10  11
HETATM   11  O   UNL     1      -9.846  11.264  68.879  1.00  0.00    -0.198 OA 
BRANCH  11  12
HETATM   12  C   UNL     1     -11.035  11.636  68.320  1.00  0.00    -0.226 C  
HETATM   13  O   UNL     1     -12.034  10.923  68.313  1.00  0.00    -0.561 OA 
BRANCH  12  14
HETATM   14  C   UNL     1     -10.960  13.015  67.637  1.00  0.00    -0.277 C  
HETATM   15  C   UNL     1      -9.621  13.752  67.910  1.00  0.00    -0.222 C  
HETATM   16  C   UNL     1     -11.963  13.923  68.399  1.00  0.00    -0.391 C  
HETATM   17  C   UNL     1     -11.462  15.339  68.192  1.00  0.00    -0.357 C  
HETATM   18  C   UNL     1      -9.953  15.208  68.264  1.00  0.00    -0.223 C  
BRANCH  14  19
HETATM   19  C   UNL     1     -11.206  12.858  66.124  1.00  0.00    -0.326 A  
HETATM   20  C   UNL     1     -12.620  12.958  64.133  1.00  0.00    -0.343 A  
HETATM   21  C   UNL     1     -11.582  12.475  63.343  1.00  0.00    -0.547 A  
HETATM   22  C   UNL     1     -12.435  13.143  65.507  1.00  0.00    -0.516 A  
HETATM   23  C   UNL     1     -10.354  12.189  63.925  1.00  0.00    -0.441 A  
HETATM   24  C   UNL     1     -10.166  12.386  65.297  1.00  0.00    -0.306 A  
ENDBRANCH  14  19
ENDBRANCH  12  14
ENDBRANCH  11  12
ENDBRANCH  10  11
ENDBRANCH   9  10
ENDBRANCH   8   9
ENDBRANCH   7   8
ENDBRANCH   6   7
ENDBRANCH   3   6
ENDBRANCH   2   3
TORSDOF 11
ENDMDL
MODEL      158
REMARK 921   NORMALIZED FREE ENERGY PREDICTED BY IDOCK:   -4.46 KCAL/MOL
REMARK 922        TOTAL FREE ENERGY PREDICTED BY IDOCK:   -8.15 KCAL/MOL
REMARK 923 INTER-LIGAND FREE ENERGY PREDICTED BY IDOCK:   -6.98 KCAL/MOL
REMARK 924 INTRA-LIGAND FREE ENERGY PREDICTED BY IDOCK:   -1.17 KCAL/MOL
REMARK 927      BINDING AFFINITY PREDICTED BY RF-SCORE:    0.00 PKD
ROOT
HETATM    1  C   UNL     1     -13.526  12.873  72.079  1.00  0.00    -0.568 C  
HETATM    2  C   UNL     1     -12.561  13.496  71.073  1.00  0.00    -0.359 C  
ENDROOT
BRANCH   2   3
HETATM    3  N   UNL     1     -12.463  14.966  71.145  1.00  0.00    -0.303 NA 
BRANCH   3   4
HETATM    4  C   UNL     1     -11.613  15.452  72.243  1.00  0.00    -0.459 C  
HETATM    5  C   UNL     1     -12.338  16.019  73.458  1.00  0.00    -0.671 C  
ENDBRANCH   3   4
BRANCH   3   6
HETATM    6  C   UNL     1     -12.089  15.503  69.816  1.00  0.00    -0.349 C  
BRANCH   6   7
HETATM    7  C   UNL     1     -11.570  14.461  68.814  1.00  0.00    -0.315 C  
BRANCH   7   8
HETATM    8  O   UNL     1     -12.267  14.589  67.566  1.00  0.00    -0.318 OA 
BRANCH   8   9
HETATM    9  C   UNL     1     -12.087  13.416  66.769  1.00  0.00    -0.365 C  
BRANCH   9  10
HETATM   10  C   UNL     1     -10.667  12.878  66.926  1.00  0.00    -0.257 C  
BRANCH  10  11
HETATM   11  O   UNL     1     -10.670  11.466  67.212  1.00  0.00    -0.215 OA 
BRANCH  11  12
HETATM   12  C   UNL     1     -10.218  10.664  66.204  1.00  0.00    -0.248 C  
HETATM   13  O   UNL     1     -10.669  10.691  65.063  1.00  0.00    -0.203 OA 
BRANCH  12  14
HETATM   14  C   UNL     1      -9.134   9.676  66.676  1.00  0.00    -0.176 C  
HETATM   15  C   UNL     1      -8.055  10.345  67.571  1.00  0.00    -0.107 C  
HETATM   16  C   UNL     1      -8.300   9.323  65.415  1.00  0.00    -0.143 C  
HETATM   17  C   UNL     1      -6.937   8.909  65.936  1.00  0.00    -0.080 C  
HETATM   18  C   UNL     1      -6.682   9.859  67.090  1.00  0.00    -0.074 C  
BRANCH  14  19
HETATM   19  C   UNL     1      -9.796   8.489  67.402  1.00  0.00    -0.244 A  
HETATM   20  C   UNL     1     -10.404   7.241  69.413  1.00  0.00    -0.212 A  
HETATM   21  C   UNL     1     -10.982   6.236  68.644  1.00  0.00    -0.423 A  
HETATM   22  C   UNL     1      -9.815   8.351  68.799  1.00  0.00    -0.180 A  
HETATM   23  C   UNL     1     -10.981   6.348  67.260  1.00  0.00    -0.474 A  
HETATM   24  C   UNL     1     -10.404   7.465  66.647  1.00  0.00    -0.241 A  
ENDBRANCH  14  19
ENDBRANCH  12  14
ENDBRANCH  11  12
ENDBRANCH  10  11
ENDBRANCH   9  10
ENDBRANCH   8   9
ENDBRANCH   7   8
ENDBRANCH   6   7
ENDBRANCH   3   6
ENDBRANCH   2   3
TORSDOF 11
ENDMDL
MODEL      159
REMARK 921   NORMALIZED FREE ENERGY PREDICTED BY IDOCK:   -4.46 KCAL/MOL
REMARK 922        TOTAL FREE ENERGY PREDICTED BY IDOCK:   -8.15 KCAL/MOL
REMARK 923 INTER-LIGAND FREE ENERGY PREDICTED BY IDOCK:   -6.93 KCAL/MOL
REMARK 924 INTRA-LIGAND FREE ENERGY PREDICTED BY IDOCK:   -1.22 KCAL/MOL
REMARK 927      BINDING AFFINITY PREDICTED BY RF-SCORE:    0.00 PKD
ROOT
HETATM    1  C   UNL     1     -13.735   8.605  72.500  1.00  0.00    -0.362 C  
HETATM    2  C   UNL     1     -12.294   8.422  72.030  1.00  0.00    -0.361 C  
ENDROOT
BRANCH   2   3
HETATM    3  N   UNL     1     -11.683   9.628  71.440  1.00  0.00    -0.380 NA 
BRANCH   3   4
HETATM    4  C   UNL     1     -11.050   9.395  70.133  1.00  0.00    -0.242 C  
HETATM    5  C   UNL     1     -10.630   7.961  69.832  1.00  0.00    -0.242 C  
ENDBRANCH   3   4
BRANCH   3   6
HETATM    6  C   UNL     1     -12.669  10.733  71.438  1.00  0.00    -0.439 C  
BRANCH   6   7
HETATM    7  C   UNL     1     -12.266  11.965  70.613  1.00  0.00    -0.331 C  
BRANCH   7   8
HETATM    8  O   UNL     1     -13.048  13.101  71.011  1.00  0.00    -0.182 OA 
BRANCH   8   9
HETATM    9  C   UNL     1     -12.205  14.232  71.244  1.00  0.00    -0.350 C  
BRANCH   9  10
HETATM   10  C   UNL     1     -12.473  15.319  70.205  1.00  0.00    -0.363 C  
BRANCH  10  11
HETATM   11  O   UNL     1     -12.125  14.875  68.880  1.00  0.00    -0.273 OA 
BRANCH  11  12
HETATM   12  C   UNL     1     -11.277  15.696  68.193  1.00  0.00    -0.345 C  
HETATM   13  O   UNL     1     -11.239  16.913  68.346  1.00  0.00    -0.299 OA 
BRANCH  12  14
HETATM   14  C   UNL     1     -10.430  14.934  67.156  1.00  0.00    -0.271 C  
HETATM   15  C   UNL     1     -10.681  15.415  65.700  1.00  0.00    -0.381 C  
HETATM   16  C   UNL     1     -11.013  13.497  67.101  1.00  0.00    -0.302 C  
HETATM   17  C   UNL     1     -10.656  12.968  65.725  1.00  0.00    -0.291 C  
HETATM   18  C   UNL     1     -10.827  14.170  64.816  1.00  0.00    -0.426 C  
BRANCH  14  19
HETATM   19  C   UNL     1      -8.937  15.044  67.525  1.00  0.00    -0.189 A  
HETATM   20  C   UNL     1      -6.690  15.953  67.226  1.00  0.00    -0.221 A  
HETATM   21  C   UNL     1      -6.196  15.128  68.231  1.00  0.00    -0.122 A  
HETATM   22  C   UNL     1      -8.043  15.909  66.875  1.00  0.00    -0.285 A  
HETATM   23  C   UNL     1      -7.059  14.266  68.895  1.00  0.00    -0.113 A  
HETATM   24  C   UNL     1      -8.415  14.231  68.552  1.00  0.00    -0.164 A  
ENDBRANCH  14  19
ENDBRANCH  12  14
ENDBRANCH  11  12
ENDBRANCH  10  11
ENDBRANCH   9  10
ENDBRANCH   8   9
ENDBRANCH   7   8
ENDBRANCH   6   7
ENDBRANCH   3   6
ENDBRANCH   2   3
TORSDOF 11
ENDMDL
MODEL      160
REMARK 921   NORMALIZED FREE ENERGY PREDICTED BY IDOCK:   -4.46 KCAL/MOL
REMARK 922        TOTAL FREE ENERGY PREDICTED BY IDOCK:   -8.14 KCAL/MOL
REMARK 923 INTER-LIGAND FREE ENERGY PREDICTED BY IDOCK:   -7.13 KCAL/MOL
REMARK 924 INTRA-LIGAND FREE ENERGY PREDICTED BY IDOCK:   -1.02 KCAL/MOL
REMARK 927      BINDING AFFINITY PREDICTED BY RF-SCORE:    0.00 PKD
ROOT
HETATM    1  C   UNL     1      -8.202  20.414  66.852  1.00  0.00    -0.314 C  
HETATM    2  C   UNL     1      -7.401  19.479  67.756  1.00  0.00    -0.262 C  
ENDROOT
BRANCH   2   3
HETATM    3  N   UNL     1      -7.568  18.044  67.457  1.00  0.00    -0.207 NA 
BRANCH   3   4
HETATM    4  C   UNL     1      -8.033  17.248  68.603  1.00  0.00    -0.267 C  
HETATM    5  C   UNL     1      -7.005  16.326  69.248  1.00  0.00    -0.217 C  
ENDBRANCH   3   4
BRANCH   3   6
HETATM    6  C   UNL     1      -8.398  17.884  66.241  1.00  0.00    -0.196 C  
BRANCH   6   7
HETATM    7  C   UNL     1      -9.714  17.117  66.446  1.00  0.00    -0.292 C  
BRANCH   7   8
HETATM    8  O   UNL     1     -10.438  17.042  65.210  1.00  0.00    -0.649 OA 
BRANCH   8   9
HETATM    9  C   UNL     1     -10.965  15.728  65.017  1.00  0.00    -0.417 C  
BRANCH   9  10
HETATM   10  C   UNL     1     -11.191  15.042  66.362  1.00  0.00    -0.310 C  
BRANCH  10  11
HETATM   11  O   UNL     1     -10.713  13.683  66.346  1.00  0.00    -0.279 OA 
BRANCH  11  12
HETATM   12  C   UNL     1     -10.385  13.164  67.565  1.00  0.00    -0.225 C  
HETATM   13  O   UNL     1     -10.291  13.838  68.586  1.00  0.00    -0.234 OA 
BRANCH  12  14
HETATM   14  C   UNL     1     -10.077  11.656  67.501  1.00  0.00    -0.209 C  
HETATM   15  C   UNL     1      -8.581  11.357  67.208  1.00  0.00    -0.146 C  
HETATM   16  C   UNL     1     -10.747  11.139  66.199  1.00  0.00    -0.285 C  
HETATM   17  C   UNL     1      -9.962   9.902  65.806  1.00  0.00    -0.347 C  
HETATM   18  C   UNL     1      -8.526  10.259  66.138  1.00  0.00    -0.144 C  
BRANCH  14  19
HETATM   19  C   UNL     1     -10.530  10.978  68.809  1.00  0.00    -0.222 A  
HETATM   20  C   UNL     1     -10.159   9.542  70.751  1.00  0.00    -0.352 A  
HETATM   21  C   UNL     1     -11.474   9.723  71.166  1.00  0.00    -0.472 A  
HETATM   22  C   UNL     1      -9.694  10.159  69.585  1.00  0.00    -0.250 A  
HETATM   23  C   UNL     1     -12.322  10.532  70.421  1.00  0.00    -0.409 A  
HETATM   24  C   UNL     1     -11.853  11.159  69.262  1.00  0.00    -0.422 A  
ENDBRANCH  14  19
ENDBRANCH  12  14
ENDBRANCH  11  12
ENDBRANCH  10  11
ENDBRANCH   9  10
ENDBRANCH   8   9
ENDBRANCH   7   8
ENDBRANCH   6   7
ENDBRANCH   3   6
ENDBRANCH   2   3
TORSDOF 11
ENDMDL
MODEL      161
REMARK 921   NORMALIZED FREE ENERGY PREDICTED BY IDOCK:   -4.46 KCAL/MOL
REMARK 922        TOTAL FREE ENERGY PREDICTED BY IDOCK:   -8.14 KCAL/MOL
REMARK 923 INTER-LIGAND FREE ENERGY PREDICTED BY IDOCK:   -7.03 KCAL/MOL
REMARK 924 INTRA-LIGAND FREE ENERGY PREDICTED BY IDOCK:   -1.11 KCAL/MOL
REMARK 927      BINDING AFFINITY PREDICTED BY RF-SCORE:    0.00 PKD
ROOT
HETATM    1  C   UNL     1      -6.466  17.134  68.864  1.00  0.00    -0.192 C  
HETATM    2  C   UNL     1      -7.042  18.514  68.554  1.00  0.00    -0.277 C  
ENDROOT
BRANCH   2   3
HETATM    3  N   UNL     1      -7.871  18.574  67.335  1.00  0.00    -0.233 NA 
BRANCH   3   4
HETATM    4  C   UNL     1      -7.093  18.679  66.091  1.00  0.00    -0.260 C  
HETATM    5  C   UNL     1      -7.072  20.047  65.420  1.00  0.00    -0.307 C  
ENDBRANCH   3   4
BRANCH   3   6
HETATM    6  C   UNL     1      -8.841  17.454  67.340  1.00  0.00    -0.227 C  
BRANCH   6   7
HETATM    7  C   UNL     1     -10.197  17.770  67.989  1.00  0.00    -0.377 C  
BRANCH   7   8
HETATM    8  O   UNL     1     -10.159  17.453  69.388  1.00  0.00    -0.212 OA 
BRANCH   8   9
HETATM    9  C   UNL     1     -11.185  16.514  69.717  1.00  0.00    -0.161 C  
BRANCH   9  10
HETATM   10  C   UNL     1     -10.593  15.117  69.892  1.00  0.00    -0.235 C  
BRANCH  10  11
HETATM   11  O   UNL     1     -11.095  14.206  68.897  1.00  0.00    -0.244 OA 
BRANCH  11  12
HETATM   12  C   UNL     1     -10.142  13.573  68.151  1.00  0.00    -0.250 C  
HETATM   13  O   UNL     1      -9.108  14.114  67.770  1.00  0.00    -0.177 OA 
BRANCH  12  14
HETATM   14  C   UNL     1     -10.544  12.132  67.780  1.00  0.00    -0.229 C  
HETATM   15  C   UNL     1     -11.645  11.554  68.711  1.00  0.00    -0.379 C  
HETATM   16  C   UNL     1      -9.331  11.241  68.161  1.00  0.00    -0.181 C  
HETATM   17  C   UNL     1      -9.907   9.859  68.403  1.00  0.00    -0.166 C  
HETATM   18  C   UNL     1     -11.228  10.129  69.099  1.00  0.00    -0.234 C  
BRANCH  14  19
HETATM   19  C   UNL     1     -10.984  12.080  66.304  1.00  0.00    -0.340 A  
HETATM   20  C   UNL     1     -10.783  11.273  64.007  1.00  0.00    -0.444 A  
HETATM   21  C   UNL     1     -11.823  12.102  63.599  1.00  0.00    -0.608 A  
HETATM   22  C   UNL     1     -10.367  11.265  65.342  1.00  0.00    -0.328 A  
HETATM   23  C   UNL     1     -12.455  12.916  64.530  1.00  0.00    -0.468 A  
HETATM   24  C   UNL     1     -12.047  12.898  65.868  1.00  0.00    -0.503 A  
ENDBRANCH  14  19
ENDBRANCH  12  14
ENDBRANCH  11  12
ENDBRANCH  10  11
ENDBRANCH   9  10
ENDBRANCH   8   9
ENDBRANCH   7   8
ENDBRANCH   6   7
ENDBRANCH   3   6
ENDBRANCH   2   3
TORSDOF 11
ENDMDL
MODEL      162
REMARK 921   NORMALIZED FREE ENERGY PREDICTED BY IDOCK:   -4.45 KCAL/MOL
REMARK 922        TOTAL FREE ENERGY PREDICTED BY IDOCK:   -8.13 KCAL/MOL
REMARK 923 INTER-LIGAND FREE ENERGY PREDICTED BY IDOCK:   -7.33 KCAL/MOL
REMARK 924 INTRA-LIGAND FREE ENERGY PREDICTED BY IDOCK:   -0.80 KCAL/MOL
REMARK 927      BINDING AFFINITY PREDICTED BY RF-SCORE:    0.00 PKD
ROOT
HETATM    1  C   UNL     1      -9.732  17.016  66.019  1.00  0.00    -0.243 C  
HETATM    2  C   UNL     1     -10.500  16.525  67.244  1.00  0.00    -0.304 C  
ENDROOT
BRANCH   2   3
HETATM    3  N   UNL     1     -10.272  15.108  67.585  1.00  0.00    -0.239 NA 
BRANCH   3   4
HETATM    4  C   UNL     1      -9.543  14.910  68.847  1.00  0.00    -0.215 C  
HETATM    5  C   UNL     1      -8.399  15.878  69.126  1.00  0.00    -0.253 C  
ENDBRANCH   3   4
BRANCH   3   6
HETATM    6  C   UNL     1     -11.553  14.368  67.511  1.00  0.00    -0.373 C  
BRANCH   6   7
HETATM    7  C   UNL     1     -11.800  13.378  68.660  1.00  0.00    -0.362 C  
BRANCH   7   8
HETATM    8  O   UNL     1     -11.916  12.044  68.143  1.00  0.00    -0.465 OA 
BRANCH   8   9
HETATM    9  C   UNL     1     -11.950  11.095  69.212  1.00  0.00    -0.351 C  
BRANCH   9  10
HETATM   10  C   UNL     1     -10.830  10.070  69.052  1.00  0.00    -0.222 C  
BRANCH  10  11
HETATM   11  O   UNL     1     -10.486   9.467  70.313  1.00  0.00    -0.214 OA 
BRANCH  11  12
HETATM   12  C   UNL     1     -10.797   8.143  70.432  1.00  0.00    -0.236 C  
HETATM   13  O   UNL     1     -10.373   7.276  69.674  1.00  0.00    -0.208 OA 
BRANCH  12  14
HETATM   14  C   UNL     1     -11.794   7.870  71.575  1.00  0.00    -0.322 C  
HETATM   15  C   UNL     1     -13.150   7.304  71.071  1.00  0.00    -0.203 C  
HETATM   16  C   UNL     1     -12.228   9.264  72.103  1.00  0.00    -0.377 C  
HETATM   17  C   UNL     1     -13.594   9.050  72.727  1.00  0.00    -0.285 C  
HETATM   18  C   UNL     1     -14.270   8.060  71.799  1.00  0.00    -0.550 C  
BRANCH  14  19
HETATM   19  C   UNL     1     -11.151   6.926  72.609  1.00  0.00    -0.306 A  
HETATM   20  C   UNL     1      -9.688   6.464  74.511  1.00  0.00    -0.329 A  
HETATM   21  C   UNL     1      -9.966   5.103  74.425  1.00  0.00    -0.242 A  
HETATM   22  C   UNL     1     -10.270   7.363  73.611  1.00  0.00    -0.380 A  
HETATM   23  C   UNL     1     -10.837   4.643  73.446  1.00  0.00    -0.349 A  
HETATM   24  C   UNL     1     -11.429   5.545  72.555  1.00  0.00    -0.303 A  
ENDBRANCH  14  19
ENDBRANCH  12  14
ENDBRANCH  11  12
ENDBRANCH  10  11
ENDBRANCH   9  10
ENDBRANCH   8   9
ENDBRANCH   7   8
ENDBRANCH   6   7
ENDBRANCH   3   6
ENDBRANCH   2   3
TORSDOF 11
ENDMDL
MODEL      163
REMARK 921   NORMALIZED FREE ENERGY PREDICTED BY IDOCK:   -4.45 KCAL/MOL
REMARK 922        TOTAL FREE ENERGY PREDICTED BY IDOCK:   -8.13 KCAL/MOL
REMARK 923 INTER-LIGAND FREE ENERGY PREDICTED BY IDOCK:   -7.08 KCAL/MOL
REMARK 924 INTRA-LIGAND FREE ENERGY PREDICTED BY IDOCK:   -1.04 KCAL/MOL
REMARK 927      BINDING AFFINITY PREDICTED BY RF-SCORE:    0.00 PKD
ROOT
HETATM    1  C   UNL     1      -9.050   8.561  71.813  1.00  0.00    -0.304 C  
HETATM    2  C   UNL     1      -8.697   7.089  71.610  1.00  0.00    -0.116 C  
ENDROOT
BRANCH   2   3
HETATM    3  N   UNL     1      -9.057   6.549  70.285  1.00  0.00    -0.155 NA 
BRANCH   3   4
HETATM    4  C   UNL     1     -10.273   5.721  70.291  1.00  0.00    -0.230 C  
HETATM    5  C   UNL     1     -11.570   6.423  69.904  1.00  0.00    -0.422 C  
ENDBRANCH   3   4
BRANCH   3   6
HETATM    6  C   UNL     1      -9.086   7.647  69.292  1.00  0.00    -0.145 C  
BRANCH   6   7
HETATM    7  C   UNL     1      -8.500   7.298  67.915  1.00  0.00    -0.118 C  
BRANCH   7   8
HETATM    8  O   UNL     1      -9.540   7.286  66.927  1.00  0.00    -0.156 OA 
BRANCH   8   9
HETATM    9  C   UNL     1     -10.229   8.537  66.910  1.00  0.00    -0.305 C  
BRANCH   9  10
HETATM   10  C   UNL     1      -9.587   9.487  65.902  1.00  0.00    -0.261 C  
BRANCH  10  11
HETATM   11  O   UNL     1     -10.396  10.661  65.698  1.00  0.00    -0.255 OA 
BRANCH  11  12
HETATM   12  C   UNL     1      -9.857  11.829  66.154  1.00  0.00    -0.229 C  
HETATM   13  O   UNL     1      -8.708  11.928  66.573  1.00  0.00    -0.194 OA 
BRANCH  12  14
HETATM   14  C   UNL     1     -10.871  12.989  66.150  1.00  0.00    -0.296 C  
HETATM   15  C   UNL     1     -12.079  12.732  65.207  1.00  0.00    -0.505 C  
HETATM   16  C   UNL     1     -10.169  14.167  65.423  1.00  0.00    -0.380 C  
HETATM   17  C   UNL     1     -11.290  15.024  64.866  1.00  0.00    -0.419 C  
HETATM   18  C   UNL     1     -12.325  14.016  64.404  1.00  0.00    -0.401 C  
BRANCH  14  19
HETATM   19  C   UNL     1     -11.344  13.269  67.590  1.00  0.00    -0.328 A  
HETATM   20  C   UNL     1     -11.900  14.766  69.439  1.00  0.00    -0.360 A  
HETATM   21  C   UNL     1     -12.156  13.681  70.272  1.00  0.00    -0.427 A  
HETATM   22  C   UNL     1     -11.495  14.562  68.116  1.00  0.00    -0.337 A  
HETATM   23  C   UNL     1     -12.019  12.391  69.777  1.00  0.00    -0.359 A  
HETATM   24  C   UNL     1     -11.626  12.187  68.450  1.00  0.00    -0.381 A  
ENDBRANCH  14  19
ENDBRANCH  12  14
ENDBRANCH  11  12
ENDBRANCH  10  11
ENDBRANCH   9  10
ENDBRANCH   8   9
ENDBRANCH   7   8
ENDBRANCH   6   7
ENDBRANCH   3   6
ENDBRANCH   2   3
TORSDOF 11
ENDMDL
MODEL      164
REMARK 921   NORMALIZED FREE ENERGY PREDICTED BY IDOCK:   -4.43 KCAL/MOL
REMARK 922        TOTAL FREE ENERGY PREDICTED BY IDOCK:   -8.10 KCAL/MOL
REMARK 923 INTER-LIGAND FREE ENERGY PREDICTED BY IDOCK:   -6.91 KCAL/MOL
REMARK 924 INTRA-LIGAND FREE ENERGY PREDICTED BY IDOCK:   -1.19 KCAL/MOL
REMARK 927      BINDING AFFINITY PREDICTED BY RF-SCORE:    0.00 PKD
ROOT
HETATM    1  C   UNL     1     -12.530  15.591  70.615  1.00  0.00    -0.483 C  
HETATM    2  C   UNL     1     -11.658  14.882  69.582  1.00  0.00    -0.303 C  
ENDROOT
BRANCH   2   3
HETATM    3  N   UNL     1     -11.526  15.593  68.297  1.00  0.00    -0.362 NA 
BRANCH   3   4
HETATM    4  C   UNL     1     -10.287  16.376  68.175  1.00  0.00    -0.283 C  
HETATM    5  C   UNL     1     -10.448  17.891  68.110  1.00  0.00    -0.380 C  
ENDBRANCH   3   4
BRANCH   3   6
HETATM    6  C   UNL     1     -11.746  14.645  67.180  1.00  0.00    -0.373 C  
BRANCH   6   7
HETATM    7  C   UNL     1     -10.625  14.602  66.131  1.00  0.00    -0.312 C  
BRANCH   7   8
HETATM    8  O   UNL     1      -9.991  13.314  66.140  1.00  0.00    -0.283 OA 
BRANCH   8   9
HETATM    9  C   UNL     1     -10.952  12.282  65.905  1.00  0.00    -0.302 C  
BRANCH   9  10
HETATM   10  C   UNL     1     -10.333  10.910  66.158  1.00  0.00    -0.248 C  
BRANCH  10  11
HETATM   11  O   UNL     1     -10.816  10.334  67.386  1.00  0.00    -0.279 OA 
BRANCH  11  12
HETATM   12  C   UNL     1     -10.421   9.049  67.625  1.00  0.00    -0.260 C  
HETATM   13  O   UNL     1     -10.598   8.127  66.834  1.00  0.00    -0.329 OA 
BRANCH  12  14
HETATM   14  C   UNL     1      -9.797   8.873  69.022  1.00  0.00    -0.182 C  
HETATM   15  C   UNL     1      -9.143  10.176  69.560  1.00  0.00    -0.213 C  
HETATM   16  C   UNL     1      -8.549   7.972  68.821  1.00  0.00    -0.128 C  
HETATM   17  C   UNL     1      -7.622   8.305  69.975  1.00  0.00    -0.072 C  
HETATM   18  C   UNL     1      -7.776   9.803  70.148  1.00  0.00    -0.188 C  
BRANCH  14  19
HETATM   19  C   UNL     1     -10.862   8.343  70.002  1.00  0.00    -0.225 A  
HETATM   20  C   UNL     1     -12.578   8.649  71.715  1.00  0.00    -0.396 A  
HETATM   21  C   UNL     1     -12.750   7.272  71.822  1.00  0.00    -0.370 A  
HETATM   22  C   UNL     1     -11.643   9.177  70.819  1.00  0.00    -0.329 A  
HETATM   23  C   UNL     1     -11.995   6.424  71.023  1.00  0.00    -0.265 A  
HETATM   24  C   UNL     1     -11.068   6.953  70.118  1.00  0.00    -0.344 A  
ENDBRANCH  14  19
ENDBRANCH  12  14
ENDBRANCH  11  12
ENDBRANCH  10  11
ENDBRANCH   9  10
ENDBRANCH   8   9
ENDBRANCH   7   8
ENDBRANCH   6   7
ENDBRANCH   3   6
ENDBRANCH   2   3
TORSDOF 11
ENDMDL
MODEL      165
REMARK 921   NORMALIZED FREE ENERGY PREDICTED BY IDOCK:   -4.43 KCAL/MOL
REMARK 922        TOTAL FREE ENERGY PREDICTED BY IDOCK:   -8.10 KCAL/MOL
REMARK 923 INTER-LIGAND FREE ENERGY PREDICTED BY IDOCK:   -7.33 KCAL/MOL
REMARK 924 INTRA-LIGAND FREE ENERGY PREDICTED BY IDOCK:   -0.76 KCAL/MOL
REMARK 927      BINDING AFFINITY PREDICTED BY RF-SCORE:    0.00 PKD
ROOT
HETATM    1  C   UNL     1     -10.538   9.542  70.420  1.00  0.00    -0.333 C  
HETATM    2  C   UNL     1      -9.530   9.771  69.296  1.00  0.00    -0.194 C  
ENDROOT
BRANCH   2   3
HETATM    3  N   UNL     1      -9.023   8.538  68.664  1.00  0.00    -0.139 NA 
BRANCH   3   4
HETATM    4  C   UNL     1     -10.075   7.564  68.333  1.00  0.00    -0.180 C  
HETATM    5  C   UNL     1     -10.529   7.529  66.879  1.00  0.00    -0.385 C  
ENDBRANCH   3   4
BRANCH   3   6
HETATM    6  C   UNL     1      -8.152   8.890  67.519  1.00  0.00    -0.109 C  
BRANCH   6   7
HETATM    7  C   UNL     1      -8.149  10.378  67.135  1.00  0.00    -0.115 C  
BRANCH   7   8
HETATM    8  O   UNL     1      -8.700  10.548  65.821  1.00  0.00    -0.164 OA 
BRANCH   8   9
HETATM    9  C   UNL     1      -9.496  11.733  65.763  1.00  0.00    -0.216 C  
BRANCH   9  10
HETATM   10  C   UNL     1     -10.954  11.412  66.082  1.00  0.00    -0.236 C  
BRANCH  10  11
HETATM   11  O   UNL     1     -11.639  12.562  66.616  1.00  0.00    -0.340 OA 
BRANCH  11  12
HETATM   12  C   UNL     1     -11.882  12.526  67.959  1.00  0.00    -0.325 C  
HETATM   13  O   UNL     1     -12.369  11.557  68.535  1.00  0.00    -0.459 OA 
BRANCH  12  14
HETATM   14  C   UNL     1     -11.546  13.858  68.656  1.00  0.00    -0.363 C  
HETATM   15  C   UNL     1     -11.763  15.092  67.736  1.00  0.00    -0.294 C  
HETATM   16  C   UNL     1     -10.003  13.876  68.821  1.00  0.00    -0.139 C  
HETATM   17  C   UNL     1      -9.621  15.342  68.894  1.00  0.00    -0.220 C  
HETATM   18  C   UNL     1     -10.544  16.010  67.892  1.00  0.00    -0.301 C  
BRANCH  14  19
HETATM   19  C   UNL     1     -12.367  13.986  69.954  1.00  0.00    -0.367 A  
HETATM   20  C   UNL     1     -13.668  15.261  71.582  1.00  0.00    -0.600 A  
HETATM   21  C   UNL     1     -13.802  14.136  72.391  1.00  0.00    -0.638 A  
HETATM   22  C   UNL     1     -12.955  15.187  70.381  1.00  0.00    -0.296 A  
HETATM   23  C   UNL     1     -13.235  12.934  71.991  1.00  0.00    -0.549 A  
HETATM   24  C   UNL     1     -12.533  12.857  70.783  1.00  0.00    -0.370 A  
ENDBRANCH  14  19
ENDBRANCH  12  14
ENDBRANCH  11  12
ENDBRANCH  10  11
ENDBRANCH   9  10
ENDBRANCH   8   9
ENDBRANCH   7   8
ENDBRANCH   6   7
ENDBRANCH   3   6
ENDBRANCH   2   3
TORSDOF 11
ENDMDL
MODEL      166
REMARK 921   NORMALIZED FREE ENERGY PREDICTED BY IDOCK:   -4.43 KCAL/MOL
REMARK 922        TOTAL FREE ENERGY PREDICTED BY IDOCK:   -8.09 KCAL/MOL
REMARK 923 INTER-LIGAND FREE ENERGY PREDICTED BY IDOCK:   -6.85 KCAL/MOL
REMARK 924 INTRA-LIGAND FREE ENERGY PREDICTED BY IDOCK:   -1.24 KCAL/MOL
REMARK 927      BINDING AFFINITY PREDICTED BY RF-SCORE:    0.00 PKD
ROOT
HETATM    1  C   UNL     1     -11.268  10.956  67.570  1.00  0.00    -0.364 C  
HETATM    2  C   UNL     1     -10.432  11.973  66.797  1.00  0.00    -0.214 C  
ENDROOT
BRANCH   2   3
HETATM    3  N   UNL     1     -11.218  12.969  66.044  1.00  0.00    -0.286 NA 
BRANCH   3   4
HETATM    4  C   UNL     1     -12.022  12.393  64.956  1.00  0.00    -0.402 C  
HETATM    5  C   UNL     1     -11.509  12.624  63.540  1.00  0.00    -0.557 C  
ENDBRANCH   3   4
BRANCH   3   6
HETATM    6  C   UNL     1     -11.998  13.801  66.989  1.00  0.00    -0.413 C  
BRANCH   6   7
HETATM    7  C   UNL     1     -11.165  14.749  67.865  1.00  0.00    -0.306 C  
BRANCH   7   8
HETATM    8  O   UNL     1     -12.027  15.662  68.560  1.00  0.00    -0.313 OA 
BRANCH   8   9
HETATM    9  C   UNL     1     -11.378  16.175  69.725  1.00  0.00    -0.323 C  
BRANCH   9  10
HETATM   10  C   UNL     1      -9.944  16.586  69.399  1.00  0.00    -0.187 C  
BRANCH  10  11
HETATM   11  O   UNL     1      -9.886  17.932  68.891  1.00  0.00    -0.338 OA 
BRANCH  11  12
HETATM   12  C   UNL     1      -9.460  18.052  67.599  1.00  0.00    -0.264 C  
HETATM   13  O   UNL     1     -10.117  17.678  66.632  1.00  0.00    -0.306 OA 
BRANCH  12  14
HETATM   14  C   UNL     1      -8.040  18.639  67.498  1.00  0.00    -0.262 C  
HETATM   15  C   UNL     1      -7.877  19.965  68.291  1.00  0.00    -0.299 C  
HETATM   16  C   UNL     1      -7.890  19.143  66.037  1.00  0.00    -0.254 C  
HETATM   17  C   UNL     1      -6.835  20.231  66.092  1.00  0.00    -0.282 C  
HETATM   18  C   UNL     1      -7.125  20.956  67.393  1.00  0.00    -0.418 C  
BRANCH  14  19
HETATM   19  C   UNL     1      -7.011  17.589  67.959  1.00  0.00    -0.195 A  
HETATM   20  C   UNL     1      -5.723  15.534  67.659  1.00  0.00    -0.116 A  
HETATM   21  C   UNL     1      -5.158  15.675  68.922  1.00  0.00    -0.099 A  
HETATM   22  C   UNL     1      -6.641  16.477  67.185  1.00  0.00    -0.229 A  
HETATM   23  C   UNL     1      -5.501  16.767  69.707  1.00  0.00    -0.180 A  
HETATM   24  C   UNL     1      -6.410  17.717  69.228  1.00  0.00    -0.246 A  
ENDBRANCH  14  19
ENDBRANCH  12  14
ENDBRANCH  11  12
ENDBRANCH  10  11
ENDBRANCH   9  10
ENDBRANCH   8   9
ENDBRANCH   7   8
ENDBRANCH   6   7
ENDBRANCH   3   6
ENDBRANCH   2   3
TORSDOF 11
ENDMDL
MODEL      167
REMARK 921   NORMALIZED FREE ENERGY PREDICTED BY IDOCK:   -4.41 KCAL/MOL
REMARK 922        TOTAL FREE ENERGY PREDICTED BY IDOCK:   -8.07 KCAL/MOL
REMARK 923 INTER-LIGAND FREE ENERGY PREDICTED BY IDOCK:   -7.14 KCAL/MOL
REMARK 924 INTRA-LIGAND FREE ENERGY PREDICTED BY IDOCK:   -0.93 KCAL/MOL
REMARK 927      BINDING AFFINITY PREDICTED BY RF-SCORE:    0.00 PKD
ROOT
HETATM    1  C   UNL     1     -11.249   6.293  69.434  1.00  0.00    -0.489 C  
HETATM    2  C   UNL     1     -12.020   6.699  70.689  1.00  0.00    -0.343 C  
ENDROOT
BRANCH   2   3
HETATM    3  N   UNL     1     -11.702   8.048  71.195  1.00  0.00    -0.284 NA 
BRANCH   3   4
HETATM    4  C   UNL     1     -11.325   8.075  72.617  1.00  0.00    -0.405 C  
HETATM    5  C   UNL     1     -10.891   6.748  73.227  1.00  0.00    -0.302 C  
ENDBRANCH   3   4
BRANCH   3   6
HETATM    6  C   UNL     1     -10.713   8.692  70.302  1.00  0.00    -0.227 C  
BRANCH   6   7
HETATM    7  C   UNL     1      -9.394   9.101  70.976  1.00  0.00    -0.263 C  
BRANCH   7   8
HETATM    8  O   UNL     1      -8.289   8.834  70.100  1.00  0.00    -0.115 OA 
BRANCH   8   9
HETATM    9  C   UNL     1      -7.469   9.997  69.960  1.00  0.00    -0.173 C  
BRANCH   9  10
HETATM   10  C   UNL     1      -7.408  10.433  68.498  1.00  0.00    -0.086 C  
BRANCH  10  11
HETATM   11  O   UNL     1      -8.288  11.545  68.245  1.00  0.00    -0.140 OA 
BRANCH  11  12
HETATM   12  C   UNL     1      -9.487  11.224  67.678  1.00  0.00    -0.167 C  
HETATM   13  O   UNL     1      -9.791  10.086  67.332  1.00  0.00    -0.172 OA 
BRANCH  12  14
HETATM   14  C   UNL     1     -10.384  12.457  67.455  1.00  0.00    -0.223 C  
HETATM   15  C   UNL     1      -9.667  13.794  67.790  1.00  0.00    -0.230 C  
HETATM   16  C   UNL     1     -11.462  12.408  68.571  1.00  0.00    -0.350 C  
HETATM   17  C   UNL     1     -11.913  13.844  68.760  1.00  0.00    -0.393 C  
HETATM   18  C   UNL     1     -10.637  14.650  68.614  1.00  0.00    -0.252 C  
BRANCH  14  19
HETATM   19  C   UNL     1     -10.910  12.460  66.007  1.00  0.00    -0.308 A  
HETATM   20  C   UNL     1     -10.626  12.195  63.594  1.00  0.00    -0.504 A  
HETATM   21  C   UNL     1     -11.952  12.555  63.374  1.00  0.00    -0.602 A  
HETATM   22  C   UNL     1     -10.111  12.152  64.894  1.00  0.00    -0.280 A  
HETATM   23  C   UNL     1     -12.767  12.860  64.457  1.00  0.00    -0.359 A  
HETATM   24  C   UNL     1     -12.255  12.804  65.757  1.00  0.00    -0.469 A  
ENDBRANCH  14  19
ENDBRANCH  12  14
ENDBRANCH  11  12
ENDBRANCH  10  11
ENDBRANCH   9  10
ENDBRANCH   8   9
ENDBRANCH   7   8
ENDBRANCH   6   7
ENDBRANCH   3   6
ENDBRANCH   2   3
TORSDOF 11
ENDMDL
MODEL      168
REMARK 921   NORMALIZED FREE ENERGY PREDICTED BY IDOCK:   -4.41 KCAL/MOL
REMARK 922        TOTAL FREE ENERGY PREDICTED BY IDOCK:   -8.06 KCAL/MOL
REMARK 923 INTER-LIGAND FREE ENERGY PREDICTED BY IDOCK:   -6.87 KCAL/MOL
REMARK 924 INTRA-LIGAND FREE ENERGY PREDICTED BY IDOCK:   -1.19 KCAL/MOL
REMARK 927      BINDING AFFINITY PREDICTED BY RF-SCORE:    0.00 PKD
ROOT
HETATM    1  C   UNL     1      -9.406   4.807  71.347  1.00  0.00    -0.201 C  
HETATM    2  C   UNL     1      -9.143   6.097  70.573  1.00  0.00    -0.154 C  
ENDROOT
BRANCH   2   3
HETATM    3  N   UNL     1     -10.169   6.429  69.566  1.00  0.00    -0.179 NA 
BRANCH   3   4
HETATM    4  C   UNL     1     -11.500   6.684  70.136  1.00  0.00    -0.385 C  
HETATM    5  C   UNL     1     -11.638   7.934  70.997  1.00  0.00    -0.299 C  
ENDBRANCH   3   4
BRANCH   3   6
HETATM    6  C   UNL     1      -9.673   7.518  68.693  1.00  0.00    -0.154 C  
BRANCH   6   7
HETATM    7  C   UNL     1      -8.143   7.640  68.607  1.00  0.00    -0.127 C  
BRANCH   7   8
HETATM    8  O   UNL     1      -7.771   9.006  68.375  1.00  0.00    -0.096 OA 
BRANCH   8   9
HETATM    9  C   UNL     1      -8.693   9.891  69.014  1.00  0.00    -0.151 C  
BRANCH   9  10
HETATM   10  C   UNL     1      -8.998  11.085  68.113  1.00  0.00    -0.152 C  
BRANCH  10  11
HETATM   11  O   UNL     1      -9.881  10.717  67.036  1.00  0.00    -0.179 OA 
BRANCH  11  12
HETATM   12  C   UNL     1     -11.089  11.354  67.026  1.00  0.00    -0.303 C  
HETATM   13  O   UNL     1     -12.014  11.065  67.780  1.00  0.00    -0.609 OA 
BRANCH  12  14
HETATM   14  C   UNL     1     -11.184  12.422  65.920  1.00  0.00    -0.373 C  
HETATM   15  C   UNL     1     -12.586  12.474  65.251  1.00  0.00    -0.259 C  
HETATM   16  C   UNL     1     -10.312  11.900  64.747  1.00  0.00    -0.323 C  
HETATM   17  C   UNL     1     -10.876  12.556  63.502  1.00  0.00    -0.443 C  
HETATM   18  C   UNL     1     -12.375  12.552  63.734  1.00  0.00    -0.595 C  
BRANCH  14  19
HETATM   19  C   UNL     1     -10.794  13.798  66.494  1.00  0.00    -0.287 A  
HETATM   20  C   UNL     1     -11.224  15.786  67.847  1.00  0.00    -0.313 A  
HETATM   21  C   UNL     1     -10.018  16.351  67.444  1.00  0.00    -0.251 A  
HETATM   22  C   UNL     1     -11.608  14.527  67.375  1.00  0.00    -0.406 A  
HETATM   23  C   UNL     1      -9.191  15.651  66.576  1.00  0.00    -0.325 A  
HETATM   24  C   UNL     1      -9.570  14.386  66.114  1.00  0.00    -0.309 A  
ENDBRANCH  14  19
ENDBRANCH  12  14
ENDBRANCH  11  12
ENDBRANCH  10  11
ENDBRANCH   9  10
ENDBRANCH   8   9
ENDBRANCH   7   8
ENDBRANCH   6   7
ENDBRANCH   3   6
ENDBRANCH   2   3
TORSDOF 11
ENDMDL
MODEL      169
REMARK 921   NORMALIZED FREE ENERGY PREDICTED BY IDOCK:   -4.40 KCAL/MOL
REMARK 922        TOTAL FREE ENERGY PREDICTED BY IDOCK:   -8.05 KCAL/MOL
REMARK 923 INTER-LIGAND FREE ENERGY PREDICTED BY IDOCK:   -6.78 KCAL/MOL
REMARK 924 INTRA-LIGAND FREE ENERGY PREDICTED BY IDOCK:   -1.26 KCAL/MOL
REMARK 927      BINDING AFFINITY PREDICTED BY RF-SCORE:    0.00 PKD
ROOT
HETATM    1  C   UNL     1     -10.128   7.687  68.232  1.00  0.00    -0.214 C  
HETATM    2  C   UNL     1      -9.964   8.087  66.767  1.00  0.00    -0.274 C  
ENDROOT
BRANCH   2   3
HETATM    3  N   UNL     1      -8.619   7.846  66.211  1.00  0.00    -0.141 NA 
BRANCH   3   4
HETATM    4  C   UNL     1      -8.519   6.617  65.409  1.00  0.00    -0.107 C  
HETATM    5  C   UNL     1      -7.612   5.523  65.959  1.00  0.00    -0.087 C  
ENDBRANCH   3   4
BRANCH   3   6
HETATM    6  C   UNL     1      -8.149   9.060  65.505  1.00  0.00    -0.110 C  
BRANCH   6   7
HETATM    7  C   UNL     1      -8.176   8.975  63.971  1.00  0.00    -0.167 C  
BRANCH   7   8
HETATM    8  O   UNL     1      -9.311   9.688  63.458  1.00  0.00    -0.206 OA 
BRANCH   8   9
HETATM    9  C   UNL     1      -9.343  11.018  63.979  1.00  0.00    -0.207 C  
BRANCH   9  10
HETATM   10  C   UNL     1     -10.763  11.391  64.400  1.00  0.00    -0.342 C  
BRANCH  10  11
HETATM   11  O   UNL     1     -10.855  11.581  65.825  1.00  0.00    -0.280 OA 
BRANCH  11  12
HETATM   12  C   UNL     1     -11.695  12.579  66.228  1.00  0.00    -0.404 C  
HETATM   13  O   UNL     1     -12.738  12.864  65.647  1.00  0.00    -0.537 OA 
BRANCH  12  14
HETATM   14  C   UNL     1     -11.152  13.351  67.446  1.00  0.00    -0.297 C  
HETATM   15  C   UNL     1     -11.577  14.845  67.452  1.00  0.00    -0.347 C  
HETATM   16  C   UNL     1      -9.621  13.476  67.224  1.00  0.00    -0.235 C  
HETATM   17  C   UNL     1      -9.199  14.703  68.009  1.00  0.00    -0.197 C  
HETATM   18  C   UNL     1     -10.339  15.681  67.801  1.00  0.00    -0.266 C  
BRANCH  14  19
HETATM   19  C   UNL     1     -11.592  12.646  68.744  1.00  0.00    -0.355 A  
HETATM   20  C   UNL     1     -12.010  10.654  70.096  1.00  0.00    -0.417 A  
HETATM   21  C   UNL     1     -12.481  11.437  71.146  1.00  0.00    -0.465 A  
HETATM   22  C   UNL     1     -11.575  11.252  68.909  1.00  0.00    -0.386 A  
HETATM   23  C   UNL     1     -12.506  12.819  71.012  1.00  0.00    -0.369 A  
HETATM   24  C   UNL     1     -12.058  13.416  69.829  1.00  0.00    -0.374 A  
ENDBRANCH  14  19
ENDBRANCH  12  14
ENDBRANCH  11  12
ENDBRANCH  10  11
ENDBRANCH   9  10
ENDBRANCH   8   9
ENDBRANCH   7   8
ENDBRANCH   6   7
ENDBRANCH   3   6
ENDBRANCH   2   3
TORSDOF 11
ENDMDL
MODEL      170
REMARK 921   NORMALIZED FREE ENERGY PREDICTED BY IDOCK:   -4.39 KCAL/MOL
REMARK 922        TOTAL FREE ENERGY PREDICTED BY IDOCK:   -8.04 KCAL/MOL
REMARK 923 INTER-LIGAND FREE ENERGY PREDICTED BY IDOCK:   -6.96 KCAL/MOL
REMARK 924 INTRA-LIGAND FREE ENERGY PREDICTED BY IDOCK:   -1.08 KCAL/MOL
REMARK 927      BINDING AFFINITY PREDICTED BY RF-SCORE:    0.00 PKD
ROOT
HETATM    1  C   UNL     1     -12.086   8.188  71.978  1.00  0.00    -0.388 C  
HETATM    2  C   UNL     1     -11.316   6.871  72.026  1.00  0.00    -0.265 C  
ENDROOT
BRANCH   2   3
HETATM    3  N   UNL     1     -10.449   6.708  73.208  1.00  0.00    -0.252 NA 
BRANCH   3   4
HETATM    4  C   UNL     1      -9.835   5.376  73.317  1.00  0.00    -0.162 C  
HETATM    5  C   UNL     1      -9.907   4.495  72.075  1.00  0.00    -0.240 C  
ENDBRANCH   3   4
BRANCH   3   6
HETATM    6  C   UNL     1      -9.475   7.822  73.266  1.00  0.00    -0.283 C  
BRANCH   6   7
HETATM    7  C   UNL     1      -8.486   7.884  72.091  1.00  0.00    -0.132 C  
BRANCH   7   8
HETATM    8  O   UNL     1      -8.297   9.246  71.680  1.00  0.00    -0.306 OA 
BRANCH   8   9
HETATM    9  C   UNL     1      -8.213   9.331  70.255  1.00  0.00    -0.172 C  
BRANCH   9  10
HETATM   10  C   UNL     1      -9.587   9.623  69.657  1.00  0.00    -0.208 C  
BRANCH  10  11
HETATM   11  O   UNL     1      -9.619  10.916  69.022  1.00  0.00    -0.200 OA 
BRANCH  11  12
HETATM   12  C   UNL     1     -10.795  11.236  68.408  1.00  0.00    -0.205 C  
HETATM   13  O   UNL     1     -11.696  10.428  68.205  1.00  0.00    -0.363 OA 
BRANCH  12  14
HETATM   14  C   UNL     1     -10.834  12.702  67.935  1.00  0.00    -0.244 C  
HETATM   15  C   UNL     1      -9.536  13.482  68.280  1.00  0.00    -0.218 C  
HETATM   16  C   UNL     1     -11.866  13.417  68.848  1.00  0.00    -0.373 C  
HETATM   17  C   UNL     1     -11.465  14.880  68.840  1.00  0.00    -0.320 C  
HETATM   18  C   UNL     1      -9.949  14.844  68.853  1.00  0.00    -0.233 C  
BRANCH  14  19
HETATM   19  C   UNL     1     -11.123  12.750  66.421  1.00  0.00    -0.320 A  
HETATM   20  C   UNL     1     -12.587  13.132  64.503  1.00  0.00    -0.344 A  
HETATM   21  C   UNL     1     -11.579  12.745  63.626  1.00  0.00    -0.572 A  
HETATM   22  C   UNL     1     -12.363  13.131  65.883  1.00  0.00    -0.462 A  
HETATM   23  C   UNL     1     -10.341  12.369  64.130  1.00  0.00    -0.409 A  
HETATM   24  C   UNL     1     -10.113  12.380  65.510  1.00  0.00    -0.287 A  
ENDBRANCH  14  19
ENDBRANCH  12  14
ENDBRANCH  11  12
ENDBRANCH  10  11
ENDBRANCH   9  10
ENDBRANCH   8   9
ENDBRANCH   7   8
ENDBRANCH   6   7
ENDBRANCH   3   6
ENDBRANCH   2   3
TORSDOF 11
ENDMDL
MODEL      171
REMARK 921   NORMALIZED FREE ENERGY PREDICTED BY IDOCK:   -4.39 KCAL/MOL
REMARK 922        TOTAL FREE ENERGY PREDICTED BY IDOCK:   -8.03 KCAL/MOL
REMARK 923 INTER-LIGAND FREE ENERGY PREDICTED BY IDOCK:   -7.36 KCAL/MOL
REMARK 924 INTRA-LIGAND FREE ENERGY PREDICTED BY IDOCK:   -0.67 KCAL/MOL
REMARK 927      BINDING AFFINITY PREDICTED BY RF-SCORE:    0.00 PKD
ROOT
HETATM    1  C   UNL     1      -7.736  20.481  67.120  1.00  0.00    -0.368 C  
HETATM    2  C   UNL     1      -6.469  19.953  67.788  1.00  0.00    -0.228 C  
ENDROOT
BRANCH   2   3
HETATM    3  N   UNL     1      -6.276  18.495  67.674  1.00  0.00    -0.182 NA 
BRANCH   3   4
HETATM    4  C   UNL     1      -6.538  17.761  68.921  1.00  0.00    -0.229 C  
HETATM    5  C   UNL     1      -5.323  17.168  69.625  1.00  0.00    -0.172 C  
ENDBRANCH   3   4
BRANCH   3   6
HETATM    6  C   UNL     1      -7.035  17.984  66.509  1.00  0.00    -0.220 C  
BRANCH   6   7
HETATM    7  C   UNL     1      -8.425  17.417  66.835  1.00  0.00    -0.241 C  
BRANCH   7   8
HETATM    8  O   UNL     1      -9.153  17.171  65.622  1.00  0.00    -0.500 OA 
BRANCH   8   9
HETATM    9  C   UNL     1     -10.248  16.286  65.867  1.00  0.00    -0.364 C  
BRANCH   9  10
HETATM   10  C   UNL     1     -10.652  16.331  67.338  1.00  0.00    -0.307 C  
BRANCH  10  11
HETATM   11  O   UNL     1     -11.099  15.042  67.799  1.00  0.00    -0.288 OA 
BRANCH  11  12
HETATM   12  C   UNL     1     -10.141  14.070  67.838  1.00  0.00    -0.237 C  
HETATM   13  O   UNL     1      -8.939  14.306  67.926  1.00  0.00    -0.172 OA 
BRANCH  12  14
HETATM   14  C   UNL     1     -10.729  12.654  67.687  1.00  0.00    -0.239 C  
HETATM   15  C   UNL     1     -11.987  12.426  68.569  1.00  0.00    -0.273 C  
HETATM   16  C   UNL     1      -9.711  11.696  68.362  1.00  0.00    -0.199 C  
HETATM   17  C   UNL     1     -10.517  10.480  68.778  1.00  0.00    -0.216 C  
HETATM   18  C   UNL     1     -11.836  11.061  69.252  1.00  0.00    -0.411 C  
BRANCH  14  19
HETATM   19  C   UNL     1     -11.036  12.377  66.202  1.00  0.00    -0.340 A  
HETATM   20  C   UNL     1     -12.522  12.347  64.263  1.00  0.00    -0.529 A  
HETATM   21  C   UNL     1     -11.528  11.772  63.480  1.00  0.00    -0.489 A  
HETATM   22  C   UNL     1     -12.281  12.643  65.609  1.00  0.00    -0.474 A  
HETATM   23  C   UNL     1     -10.286  11.502  64.039  1.00  0.00    -0.394 A  
HETATM   24  C   UNL     1     -10.040  11.809  65.382  1.00  0.00    -0.291 A  
ENDBRANCH  14  19
ENDBRANCH  12  14
ENDBRANCH  11  12
ENDBRANCH  10  11
ENDBRANCH   9  10
ENDBRANCH   8   9
ENDBRANCH   7   8
ENDBRANCH   6   7
ENDBRANCH   3   6
ENDBRANCH   2   3
TORSDOF 11
ENDMDL
MODEL      172
REMARK 921   NORMALIZED FREE ENERGY PREDICTED BY IDOCK:   -4.38 KCAL/MOL
REMARK 922        TOTAL FREE ENERGY PREDICTED BY IDOCK:   -8.01 KCAL/MOL
REMARK 923 INTER-LIGAND FREE ENERGY PREDICTED BY IDOCK:   -6.48 KCAL/MOL
REMARK 924 INTRA-LIGAND FREE ENERGY PREDICTED BY IDOCK:   -1.53 KCAL/MOL
REMARK 927      BINDING AFFINITY PREDICTED BY RF-SCORE:    0.00 PKD
ROOT
HETATM    1  C   UNL     1     -10.683  11.955  67.201  1.00  0.00    -0.280 C  
HETATM    2  C   UNL     1     -10.441  10.836  66.190  1.00  0.00    -0.214 C  
ENDROOT
BRANCH   2   3
HETATM    3  N   UNL     1      -9.837  11.277  64.918  1.00  0.00    -0.250 NA 
BRANCH   3   4
HETATM    4  C   UNL     1      -8.629  10.527  64.542  1.00  0.00    -0.159 C  
HETATM    5  C   UNL     1      -8.845   9.278  63.696  1.00  0.00    -0.146 C  
ENDBRANCH   3   4
BRANCH   3   6
HETATM    6  C   UNL     1     -10.874  11.309  63.862  1.00  0.00    -0.354 C  
BRANCH   6   7
HETATM    7  C   UNL     1     -11.468  12.696  63.572  1.00  0.00    -0.491 C  
BRANCH   7   8
HETATM    8  O   UNL     1     -12.724  12.845  64.251  1.00  0.00    -0.652 OA 
BRANCH   8   9
HETATM    9  C   UNL     1     -12.749  14.067  64.992  1.00  0.00    -0.328 C  
BRANCH   9  10
HETATM   10  C   UNL     1     -11.357  14.692  65.039  1.00  0.00    -0.390 C  
BRANCH  10  11
HETATM   11  O   UNL     1     -11.370  15.949  65.741  1.00  0.00    -0.045 OA 
BRANCH  11  12
HETATM   12  C   UNL     1     -11.105  15.874  67.078  1.00  0.00    -0.119 C  
HETATM   13  O   UNL     1     -11.779  15.219  67.868  1.00  0.00    -0.328 OA 
BRANCH  12  14
HETATM   14  C   UNL     1      -9.915  16.760  67.495  1.00  0.00    -0.266 C  
HETATM   15  C   UNL     1     -10.303  17.839  68.543  1.00  0.00    -0.366 C  
HETATM   16  C   UNL     1      -9.589  17.644  66.262  1.00  0.00    -0.259 C  
HETATM   17  C   UNL     1      -8.913  18.882  66.820  1.00  0.00    -0.320 C  
HETATM   18  C   UNL     1      -9.673  19.166  68.102  1.00  0.00    -0.429 C  
BRANCH  14  19
HETATM   19  C   UNL     1      -8.767  15.873  68.014  1.00  0.00    -0.169 A  
HETATM   20  C   UNL     1      -7.142  15.198  69.710  1.00  0.00    -0.169 A  
HETATM   21  C   UNL     1      -6.612  14.238  68.855  1.00  0.00    -0.096 A  
HETATM   22  C   UNL     1      -8.204  16.008  69.293  1.00  0.00    -0.212 A  
HETATM   23  C   UNL     1      -7.152  14.079  67.586  1.00  0.00    -0.193 A  
HETATM   24  C   UNL     1      -8.222  14.881  67.173  1.00  0.00    -0.244 A  
ENDBRANCH  14  19
ENDBRANCH  12  14
ENDBRANCH  11  12
ENDBRANCH  10  11
ENDBRANCH   9  10
ENDBRANCH   8   9
ENDBRANCH   7   8
ENDBRANCH   6   7
ENDBRANCH   3   6
ENDBRANCH   2   3
TORSDOF 11
ENDMDL
MODEL      173
REMARK 921   NORMALIZED FREE ENERGY PREDICTED BY IDOCK:   -4.37 KCAL/MOL
REMARK 922        TOTAL FREE ENERGY PREDICTED BY IDOCK:   -8.00 KCAL/MOL
REMARK 923 INTER-LIGAND FREE ENERGY PREDICTED BY IDOCK:   -7.00 KCAL/MOL
REMARK 924 INTRA-LIGAND FREE ENERGY PREDICTED BY IDOCK:   -1.00 KCAL/MOL
REMARK 927      BINDING AFFINITY PREDICTED BY RF-SCORE:    0.00 PKD
ROOT
HETATM    1  C   UNL     1      -8.675  10.162  62.455  1.00  0.00    -0.230 C  
HETATM    2  C   UNL     1      -9.903  11.036  62.703  1.00  0.00    -0.136 C  
ENDROOT
BRANCH   2   3
HETATM    3  N   UNL     1      -9.907  11.737  64.001  1.00  0.00    -0.258 NA 
BRANCH   3   4
HETATM    4  C   UNL     1     -11.031  12.670  64.170  1.00  0.00    -0.387 C  
HETATM    5  C   UNL     1     -12.371  12.225  63.597  1.00  0.00    -0.664 C  
ENDBRANCH   3   4
BRANCH   3   6
HETATM    6  C   UNL     1      -9.779  10.750  65.098  1.00  0.00    -0.265 C  
BRANCH   6   7
HETATM    7  C   UNL     1     -10.623  11.050  66.346  1.00  0.00    -0.251 C  
BRANCH   7   8
HETATM    8  O   UNL     1      -9.856  10.795  67.532  1.00  0.00    -0.168 OA 
BRANCH   8   9
HETATM    9  C   UNL     1      -8.865   9.796  67.281  1.00  0.00    -0.132 C  
BRANCH   9  10
HETATM   10  C   UNL     1      -8.936   8.698  68.340  1.00  0.00    -0.142 C  
BRANCH  10  11
HETATM   11  O   UNL     1     -10.053   8.896  69.228  1.00  0.00    -0.191 OA 
BRANCH  11  12
HETATM   12  C   UNL     1     -10.573   7.759  69.775  1.00  0.00    -0.241 C  
HETATM   13  O   UNL     1     -10.466   6.649  69.263  1.00  0.00    -0.188 OA 
BRANCH  12  14
HETATM   14  C   UNL     1     -11.369   8.036  71.066  1.00  0.00    -0.294 C  
HETATM   15  C   UNL     1     -12.736   7.298  71.102  1.00  0.00    -0.349 C  
HETATM   16  C   UNL     1     -11.829   9.515  70.974  1.00  0.00    -0.408 C  
HETATM   17  C   UNL     1     -13.069   9.606  71.843  1.00  0.00    -0.530 C  
HETATM   18  C   UNL     1     -13.793   8.299  71.585  1.00  0.00    -0.431 C  
BRANCH  14  19
HETATM   19  C   UNL     1     -10.510   7.669  72.292  1.00  0.00    -0.289 A  
HETATM   20  C   UNL     1     -10.145   6.531  74.423  1.00  0.00    -0.371 A  
HETATM   21  C   UNL     1      -8.884   7.107  74.542  1.00  0.00    -0.215 A  
HETATM   22  C   UNL     1     -10.949   6.812  73.314  1.00  0.00    -0.249 A  
HETATM   23  C   UNL     1      -8.422   7.955  73.544  1.00  0.00    -0.284 A  
HETATM   24  C   UNL     1      -9.222   8.226  72.428  1.00  0.00    -0.326 A  
ENDBRANCH  14  19
ENDBRANCH  12  14
ENDBRANCH  11  12
ENDBRANCH  10  11
ENDBRANCH   9  10
ENDBRANCH   8   9
ENDBRANCH   7   8
ENDBRANCH   6   7
ENDBRANCH   3   6
ENDBRANCH   2   3
TORSDOF 11
ENDMDL
MODEL      174
REMARK 921   NORMALIZED FREE ENERGY PREDICTED BY IDOCK:   -4.37 KCAL/MOL
REMARK 922        TOTAL FREE ENERGY PREDICTED BY IDOCK:   -7.99 KCAL/MOL
REMARK 923 INTER-LIGAND FREE ENERGY PREDICTED BY IDOCK:   -7.26 KCAL/MOL
REMARK 924 INTRA-LIGAND FREE ENERGY PREDICTED BY IDOCK:   -0.73 KCAL/MOL
REMARK 927      BINDING AFFINITY PREDICTED BY RF-SCORE:    0.00 PKD
ROOT
HETATM    1  C   UNL     1     -13.538   9.538  72.231  1.00  0.00    -0.494 C  
HETATM    2  C   UNL     1     -13.033   9.904  70.837  1.00  0.00    -0.276 C  
ENDROOT
BRANCH   2   3
HETATM    3  N   UNL     1     -11.622  10.331  70.787  1.00  0.00    -0.335 NA 
BRANCH   3   4
HETATM    4  C   UNL     1     -10.667   9.217  70.693  1.00  0.00    -0.254 C  
HETATM    5  C   UNL     1      -9.953   8.826  71.981  1.00  0.00    -0.391 C  
ENDBRANCH   3   4
BRANCH   3   6
HETATM    6  C   UNL     1     -11.451  11.356  69.732  1.00  0.00    -0.300 C  
BRANCH   6   7
HETATM    7  C   UNL     1     -12.194  12.678  69.981  1.00  0.00    -0.197 C  
BRANCH   7   8
HETATM    8  O   UNL     1     -11.543  13.748  69.279  1.00  0.00    -0.271 OA 
BRANCH   8   9
HETATM    9  C   UNL     1     -11.680  14.975  69.999  1.00  0.00    -0.306 C  
BRANCH   9  10
HETATM   10  C   UNL     1     -11.580  16.165  69.048  1.00  0.00    -0.298 C  
BRANCH  10  11
HETATM   11  O   UNL     1     -10.618  17.130  69.516  1.00  0.00    -0.296 OA 
BRANCH  11  12
HETATM   12  C   UNL     1     -10.120  17.969  68.561  1.00  0.00    -0.393 C  
HETATM   13  O   UNL     1     -10.766  18.882  68.056  1.00  0.00    -0.337 OA 
BRANCH  12  14
HETATM   14  C   UNL     1      -8.686  17.595  68.137  1.00  0.00    -0.265 C  
HETATM   15  C   UNL     1      -8.633  16.860  66.770  1.00  0.00    -0.256 C  
HETATM   16  C   UNL     1      -8.237  16.466  69.102  1.00  0.00    -0.189 C  
HETATM   17  C   UNL     1      -7.174  15.689  68.348  1.00  0.00    -0.115 C  
HETATM   18  C   UNL     1      -7.685  15.663  66.920  1.00  0.00    -0.238 C  
BRANCH  14  19
HETATM   19  C   UNL     1      -7.805  18.860  68.120  1.00  0.00    -0.327 A  
HETATM   20  C   UNL     1      -6.882  20.846  67.038  1.00  0.00    -0.398 A  
HETATM   21  C   UNL     1      -6.106  21.126  68.158  1.00  0.00    -0.340 A  
HETATM   22  C   UNL     1      -7.718  19.725  67.018  1.00  0.00    -0.304 A  
HETATM   23  C   UNL     1      -6.176  20.289  69.265  1.00  0.00    -0.356 A  
HETATM   24  C   UNL     1      -7.022  19.175  69.249  1.00  0.00    -0.331 A  
ENDBRANCH  14  19
ENDBRANCH  12  14
ENDBRANCH  11  12
ENDBRANCH  10  11
ENDBRANCH   9  10
ENDBRANCH   8   9
ENDBRANCH   7   8
ENDBRANCH   6   7
ENDBRANCH   3   6
ENDBRANCH   2   3
TORSDOF 11
ENDMDL
MODEL      175
REMARK 921   NORMALIZED FREE ENERGY PREDICTED BY IDOCK:   -4.36 KCAL/MOL
REMARK 922        TOTAL FREE ENERGY PREDICTED BY IDOCK:   -7.99 KCAL/MOL
REMARK 923 INTER-LIGAND FREE ENERGY PREDICTED BY IDOCK:   -6.68 KCAL/MOL
REMARK 924 INTRA-LIGAND FREE ENERGY PREDICTED BY IDOCK:   -1.31 KCAL/MOL
REMARK 927      BINDING AFFINITY PREDICTED BY RF-SCORE:    0.00 PKD
ROOT
HETATM    1  C   UNL     1     -12.130  10.697  70.703  1.00  0.00    -0.461 C  
HETATM    2  C   UNL     1     -11.070   9.610  70.864  1.00  0.00    -0.352 C  
ENDROOT
BRANCH   2   3
HETATM    3  N   UNL     1     -10.699   8.923  69.613  1.00  0.00    -0.233 NA 
BRANCH   3   4
HETATM    4  C   UNL     1     -10.907   9.735  68.404  1.00  0.00    -0.201 C  
HETATM    5  C   UNL     1     -10.385   9.150  67.098  1.00  0.00    -0.337 C  
ENDBRANCH   3   4
BRANCH   3   6
HETATM    6  C   UNL     1      -9.328   8.375  69.736  1.00  0.00    -0.158 C  
BRANCH   6   7
HETATM    7  C   UNL     1      -8.268   9.372  70.229  1.00  0.00    -0.175 C  
BRANCH   7   8
HETATM    8  O   UNL     1      -7.446   9.798  69.133  1.00  0.00    -0.074 OA 
BRANCH   8   9
HETATM    9  C   UNL     1      -7.288  11.218  69.148  1.00  0.00    -0.104 C  
BRANCH   9  10
HETATM   10  C   UNL     1      -8.021  11.849  67.967  1.00  0.00    -0.147 C  
BRANCH  10  11
HETATM   11  O   UNL     1      -8.418  13.203  68.259  1.00  0.00    -0.164 OA 
BRANCH  11  12
HETATM   12  C   UNL     1      -9.729  13.494  68.013  1.00  0.00    -0.228 C  
HETATM   13  O   UNL     1     -10.665  12.936  68.579  1.00  0.00    -0.242 OA 
BRANCH  12  14
HETATM   14  C   UNL     1      -9.903  14.543  66.899  1.00  0.00    -0.265 C  
HETATM   15  C   UNL     1      -8.562  15.209  66.482  1.00  0.00    -0.226 C  
HETATM   16  C   UNL     1     -10.642  15.741  67.553  1.00  0.00    -0.309 C  
HETATM   17  C   UNL     1     -10.264  16.952  66.720  1.00  0.00    -0.306 C  
HETATM   18  C   UNL     1      -8.804  16.720  66.381  1.00  0.00    -0.331 C  
BRANCH  14  19
HETATM   19  C   UNL     1     -10.601  13.900  65.685  1.00  0.00    -0.306 A  
HETATM   20  C   UNL     1     -12.364  13.802  63.996  1.00  0.00    -0.370 A  
HETATM   21  C   UNL     1     -11.853  12.608  63.497  1.00  0.00    -0.619 A  
HETATM   22  C   UNL     1     -11.748  14.437  65.079  1.00  0.00    -0.389 A  
HETATM   23  C   UNL     1     -10.718  12.055  64.075  1.00  0.00    -0.426 A  
HETATM   24  C   UNL     1     -10.094  12.698  65.150  1.00  0.00    -0.257 A  
ENDBRANCH  14  19
ENDBRANCH  12  14
ENDBRANCH  11  12
ENDBRANCH  10  11
ENDBRANCH   9  10
ENDBRANCH   8   9
ENDBRANCH   7   8
ENDBRANCH   6   7
ENDBRANCH   3   6
ENDBRANCH   2   3
TORSDOF 11
ENDMDL
MODEL      176
REMARK 921   NORMALIZED FREE ENERGY PREDICTED BY IDOCK:   -4.36 KCAL/MOL
REMARK 922        TOTAL FREE ENERGY PREDICTED BY IDOCK:   -7.99 KCAL/MOL
REMARK 923 INTER-LIGAND FREE ENERGY PREDICTED BY IDOCK:   -6.35 KCAL/MOL
REMARK 924 INTRA-LIGAND FREE ENERGY PREDICTED BY IDOCK:   -1.64 KCAL/MOL
REMARK 927      BINDING AFFINITY PREDICTED BY RF-SCORE:    0.00 PKD
ROOT
HETATM    1  C   UNL     1     -10.778  11.348  63.766  1.00  0.00    -0.470 C  
HETATM    2  C   UNL     1      -9.408  10.679  63.683  1.00  0.00    -0.284 C  
ENDROOT
BRANCH   2   3
HETATM    3  N   UNL     1      -8.897  10.163  64.967  1.00  0.00    -0.167 NA 
BRANCH   3   4
HETATM    4  C   UNL     1      -9.807   9.218  65.632  1.00  0.00    -0.167 C  
HETATM    5  C   UNL     1     -10.365   9.652  66.982  1.00  0.00    -0.315 C  
ENDBRANCH   3   4
BRANCH   3   6
HETATM    6  C   UNL     1      -7.524   9.641  64.781  1.00  0.00    -0.122 C  
BRANCH   6   7
HETATM    7  C   UNL     1      -6.453  10.289  65.672  1.00  0.00    -0.118 C  
BRANCH   7   8
HETATM    8  O   UNL     1      -7.015  11.394  66.393  1.00  0.00    -0.100 OA 
BRANCH   8   9
HETATM    9  C   UNL     1      -6.540  11.406  67.741  1.00  0.00    -0.069 C  
BRANCH   9  10
HETATM   10  C   UNL     1      -7.654  11.831  68.695  1.00  0.00    -0.125 C  
BRANCH  10  11
HETATM   11  O   UNL     1      -8.726  12.487  67.991  1.00  0.00    -0.171 OA 
BRANCH  11  12
HETATM   12  C   UNL     1      -8.913  13.802  68.306  1.00  0.00    -0.186 C  
HETATM   13  O   UNL     1      -7.993  14.583  68.534  1.00  0.00    -0.129 OA 
BRANCH  12  14
HETATM   14  C   UNL     1     -10.403  14.177  68.415  1.00  0.00    -0.249 C  
HETATM   15  C   UNL     1     -10.647  15.433  69.297  1.00  0.00    -0.252 C  
HETATM   16  C   UNL     1     -11.059  13.070  69.283  1.00  0.00    -0.194 C  
HETATM   17  C   UNL     1     -12.282  13.717  69.905  1.00  0.00    -0.383 C  
HETATM   18  C   UNL     1     -11.824  15.126  70.231  1.00  0.00    -0.352 C  
BRANCH  14  19
HETATM   19  C   UNL     1     -10.993  14.369  67.004  1.00  0.00    -0.304 A  
HETATM   20  C   UNL     1     -11.055  15.428  64.804  1.00  0.00    -0.416 A  
HETATM   21  C   UNL     1     -12.188  14.699  64.458  1.00  0.00    -0.473 A  
HETATM   22  C   UNL     1     -10.468  15.268  66.063  1.00  0.00    -0.328 A  
HETATM   23  C   UNL     1     -12.727  13.799  65.367  1.00  0.00    -0.513 A  
HETATM   24  C   UNL     1     -12.132  13.630  66.622  1.00  0.00    -0.459 A  
ENDBRANCH  14  19
ENDBRANCH  12  14
ENDBRANCH  11  12
ENDBRANCH  10  11
ENDBRANCH   9  10
ENDBRANCH   8   9
ENDBRANCH   7   8
ENDBRANCH   6   7
ENDBRANCH   3   6
ENDBRANCH   2   3
TORSDOF 11
ENDMDL
MODEL      177
REMARK 921   NORMALIZED FREE ENERGY PREDICTED BY IDOCK:   -4.35 KCAL/MOL
REMARK 922        TOTAL FREE ENERGY PREDICTED BY IDOCK:   -7.97 KCAL/MOL
REMARK 923 INTER-LIGAND FREE ENERGY PREDICTED BY IDOCK:   -6.31 KCAL/MOL
REMARK 924 INTRA-LIGAND FREE ENERGY PREDICTED BY IDOCK:   -1.65 KCAL/MOL
REMARK 927      BINDING AFFINITY PREDICTED BY RF-SCORE:    0.00 PKD
ROOT
HETATM    1  C   UNL     1      -8.529   6.216  69.544  1.00  0.00    -0.120 C  
HETATM    2  C   UNL     1      -8.444   7.480  68.692  1.00  0.00    -0.129 C  
ENDROOT
BRANCH   2   3
HETATM    3  N   UNL     1      -9.578   7.675  67.768  1.00  0.00    -0.142 NA 
BRANCH   3   4
HETATM    4  C   UNL     1     -10.576   8.644  68.247  1.00  0.00    -0.128 C  
HETATM    5  C   UNL     1     -10.203   9.437  69.494  1.00  0.00    -0.219 C  
ENDBRANCH   3   4
BRANCH   3   6
HETATM    6  C   UNL     1      -9.065   7.968  66.410  1.00  0.00    -0.183 C  
BRANCH   6   7
HETATM    7  C   UNL     1      -9.628   9.243  65.761  1.00  0.00    -0.271 C  
BRANCH   7   8
HETATM    8  O   UNL     1      -8.556  10.123  65.394  1.00  0.00    -0.141 OA 
BRANCH   8   9
HETATM    9  C   UNL     1      -7.664  10.311  66.495  1.00  0.00    -0.113 C  
BRANCH   9  10
HETATM   10  C   UNL     1      -7.694  11.764  66.964  1.00  0.00    -0.158 C  
BRANCH  10  11
HETATM   11  O   UNL     1      -8.832  12.019  67.809  1.00  0.00    -0.152 OA 
BRANCH  11  12
HETATM   12  C   UNL     1      -9.218  13.326  67.890  1.00  0.00    -0.213 C  
HETATM   13  O   UNL     1      -8.458  14.240  68.199  1.00  0.00    -0.150 OA 
BRANCH  12  14
HETATM   14  C   UNL     1     -10.723  13.515  67.623  1.00  0.00    -0.257 C  
HETATM   15  C   UNL     1     -11.381  12.270  66.967  1.00  0.00    -0.395 C  
HETATM   16  C   UNL     1     -10.825  14.550  66.471  1.00  0.00    -0.314 C  
HETATM   17  C   UNL     1     -12.157  14.275  65.799  1.00  0.00    -0.414 C  
HETATM   18  C   UNL     1     -12.272  12.763  65.820  1.00  0.00    -0.469 C  
BRANCH  14  19
HETATM   19  C   UNL     1     -11.439  13.892  68.935  1.00  0.00    -0.340 A  
HETATM   20  C   UNL     1     -12.340  15.511  70.528  1.00  0.00    -0.461 A  
HETATM   21  C   UNL     1     -12.701  14.488  71.400  1.00  0.00    -0.407 A  
HETATM   22  C   UNL     1     -11.713  15.216  69.313  1.00  0.00    -0.352 A  
HETATM   23  C   UNL     1     -12.446  13.169  71.050  1.00  0.00    -0.406 A  
HETATM   24  C   UNL     1     -11.831  12.874  69.829  1.00  0.00    -0.380 A  
ENDBRANCH  14  19
ENDBRANCH  12  14
ENDBRANCH  11  12
ENDBRANCH  10  11
ENDBRANCH   9  10
ENDBRANCH   8   9
ENDBRANCH   7   8
ENDBRANCH   6   7
ENDBRANCH   3   6
ENDBRANCH   2   3
TORSDOF 11
ENDMDL
MODEL      178
REMARK 921   NORMALIZED FREE ENERGY PREDICTED BY IDOCK:   -4.35 KCAL/MOL
REMARK 922        TOTAL FREE ENERGY PREDICTED BY IDOCK:   -7.96 KCAL/MOL
REMARK 923 INTER-LIGAND FREE ENERGY PREDICTED BY IDOCK:   -6.79 KCAL/MOL
REMARK 924 INTRA-LIGAND FREE ENERGY PREDICTED BY IDOCK:   -1.17 KCAL/MOL
REMARK 927      BINDING AFFINITY PREDICTED BY RF-SCORE:    0.00 PKD
ROOT
HETATM    1  C   UNL     1     -10.939  16.579  69.226  1.00  0.00    -0.302 C  
HETATM    2  C   UNL     1     -11.977  15.461  69.160  1.00  0.00    -0.299 C  
ENDROOT
BRANCH   2   3
HETATM    3  N   UNL     1     -12.255  14.804  70.451  1.00  0.00    -0.314 NA 
BRANCH   3   4
HETATM    4  C   UNL     1     -13.457  15.313  71.130  1.00  0.00    -0.489 C  
HETATM    5  C   UNL     1     -13.435  15.286  72.654  1.00  0.00    -0.610 C  
ENDBRANCH   3   4
BRANCH   3   6
HETATM    6  C   UNL     1     -12.247  13.334  70.272  1.00  0.00    -0.321 C  
BRANCH   6   7
HETATM    7  C   UNL     1     -11.511  12.834  69.019  1.00  0.00    -0.309 C  
BRANCH   7   8
HETATM    8  O   UNL     1     -10.895  11.566  69.284  1.00  0.00    -0.220 OA 
BRANCH   8   9
HETATM    9  C   UNL     1     -10.178  11.108  68.135  1.00  0.00    -0.181 C  
BRANCH   9  10
HETATM   10  C   UNL     1     -10.839   9.859  67.557  1.00  0.00    -0.243 C  
BRANCH  10  11
HETATM   11  O   UNL     1      -9.865   8.838  67.266  1.00  0.00    -0.172 OA 
BRANCH  11  12
HETATM   12  C   UNL     1     -10.237   7.566  67.596  1.00  0.00    -0.213 C  
HETATM   13  O   UNL     1     -11.067   6.917  66.966  1.00  0.00    -0.389 OA 
BRANCH  12  14
HETATM   14  C   UNL     1      -9.552   7.065  68.882  1.00  0.00    -0.140 C  
HETATM   15  C   UNL     1      -8.144   7.685  69.098  1.00  0.00    -0.125 C  
HETATM   16  C   UNL     1      -9.189   5.579  68.621  1.00  0.00    -0.140 C  
HETATM   17  C   UNL     1      -8.021   5.282  69.542  1.00  0.00    -0.088 C  
HETATM   18  C   UNL     1      -7.193   6.553  69.505  1.00  0.00    -0.082 C  
BRANCH  14  19
HETATM   19  C   UNL     1     -10.467   7.335  70.093  1.00  0.00    -0.229 A  
HETATM   20  C   UNL     1     -12.429   6.878  71.475  1.00  0.00    -0.420 A  
HETATM   21  C   UNL     1     -12.122   7.949  72.308  1.00  0.00    -0.363 A  
HETATM   22  C   UNL     1     -11.614   6.578  70.379  1.00  0.00    -0.470 A  
HETATM   23  C   UNL     1     -10.991   8.713  72.052  1.00  0.00    -0.432 A  
HETATM   24  C   UNL     1     -10.168   8.404  70.963  1.00  0.00    -0.245 A  
ENDBRANCH  14  19
ENDBRANCH  12  14
ENDBRANCH  11  12
ENDBRANCH  10  11
ENDBRANCH   9  10
ENDBRANCH   8   9
ENDBRANCH   7   8
ENDBRANCH   6   7
ENDBRANCH   3   6
ENDBRANCH   2   3
TORSDOF 11
ENDMDL
MODEL      179
REMARK 921   NORMALIZED FREE ENERGY PREDICTED BY IDOCK:   -4.34 KCAL/MOL
REMARK 922        TOTAL FREE ENERGY PREDICTED BY IDOCK:   -7.95 KCAL/MOL
REMARK 923 INTER-LIGAND FREE ENERGY PREDICTED BY IDOCK:   -6.44 KCAL/MOL
REMARK 924 INTRA-LIGAND FREE ENERGY PREDICTED BY IDOCK:   -1.52 KCAL/MOL
REMARK 927      BINDING AFFINITY PREDICTED BY RF-SCORE:    0.00 PKD
ROOT
HETATM    1  C   UNL     1      -8.757   3.932  70.035  1.00  0.00    -0.117 C  
HETATM    2  C   UNL     1      -9.758   5.081  69.937  1.00  0.00    -0.196 C  
ENDROOT
BRANCH   2   3
HETATM    3  N   UNL     1      -9.347   6.315  70.634  1.00  0.00    -0.161 NA 
BRANCH   3   4
HETATM    4  C   UNL     1      -8.185   6.138  71.519  1.00  0.00    -0.118 C  
HETATM    5  C   UNL     1      -8.402   6.467  72.991  1.00  0.00    -0.119 C  
ENDBRANCH   3   4
BRANCH   3   6
HETATM    6  C   UNL     1      -9.188   7.410  69.650  1.00  0.00    -0.146 C  
BRANCH   6   7
HETATM    7  C   UNL     1      -9.589   8.804  70.155  1.00  0.00    -0.173 C  
BRANCH   7   8
HETATM    8  O   UNL     1     -11.014   8.960  70.090  1.00  0.00    -0.238 OA 
BRANCH   8   9
HETATM    9  C   UNL     1     -11.448   9.983  70.989  1.00  0.00    -0.383 C  
BRANCH   9  10
HETATM   10  C   UNL     1     -12.645  10.731  70.408  1.00  0.00    -0.314 C  
BRANCH  10  11
HETATM   11  O   UNL     1     -12.446  11.042  69.016  1.00  0.00    -0.449 OA 
BRANCH  11  12
HETATM   12  C   UNL     1     -11.747  12.188  68.767  1.00  0.00    -0.321 C  
HETATM   13  O   UNL     1     -11.939  13.242  69.365  1.00  0.00    -0.306 OA 
BRANCH  12  14
HETATM   14  C   UNL     1     -10.746  12.029  67.607  1.00  0.00    -0.252 C  
HETATM   15  C   UNL     1     -10.785  10.615  66.965  1.00  0.00    -0.317 C  
HETATM   16  C   UNL     1      -9.337  12.023  68.258  1.00  0.00    -0.197 C  
HETATM   17  C   UNL     1      -8.448  11.264  67.290  1.00  0.00    -0.144 C  
HETATM   18  C   UNL     1      -9.336  10.146  66.779  1.00  0.00    -0.190 C  
BRANCH  14  19
HETATM   19  C   UNL     1     -10.998  13.123  66.551  1.00  0.00    -0.303 A  
HETATM   20  C   UNL     1     -10.492  15.257  65.475  1.00  0.00    -0.396 A  
HETATM   21  C   UNL     1     -11.580  15.112  64.620  1.00  0.00    -0.357 A  
HETATM   22  C   UNL     1     -10.207  14.277  66.431  1.00  0.00    -0.295 A  
HETATM   23  C   UNL     1     -12.377  13.978  64.714  1.00  0.00    -0.437 A  
HETATM   24  C   UNL     1     -12.084  12.991  65.662  1.00  0.00    -0.507 A  
ENDBRANCH  14  19
ENDBRANCH  12  14
ENDBRANCH  11  12
ENDBRANCH  10  11
ENDBRANCH   9  10
ENDBRANCH   8   9
ENDBRANCH   7   8
ENDBRANCH   6   7
ENDBRANCH   3   6
ENDBRANCH   2   3
TORSDOF 11
ENDMDL
MODEL      180
REMARK 921   NORMALIZED FREE ENERGY PREDICTED BY IDOCK:   -4.32 KCAL/MOL
REMARK 922        TOTAL FREE ENERGY PREDICTED BY IDOCK:   -7.92 KCAL/MOL
REMARK 923 INTER-LIGAND FREE ENERGY PREDICTED BY IDOCK:   -6.73 KCAL/MOL
REMARK 924 INTRA-LIGAND FREE ENERGY PREDICTED BY IDOCK:   -1.19 KCAL/MOL
REMARK 927      BINDING AFFINITY PREDICTED BY RF-SCORE:    0.00 PKD
ROOT
HETATM    1  C   UNL     1     -11.378  13.425  69.526  1.00  0.00    -0.248 C  
HETATM    2  C   UNL     1     -11.509  12.472  68.341  1.00  0.00    -0.312 C  
ENDROOT
BRANCH   2   3
HETATM    3  N   UNL     1     -10.398  12.540  67.372  1.00  0.00    -0.215 NA 
BRANCH   3   4
HETATM    4  C   UNL     1      -9.150  11.929  67.855  1.00  0.00    -0.183 C  
HETATM    5  C   UNL     1      -9.269  10.534  68.459  1.00  0.00    -0.168 C  
ENDBRANCH   3   4
BRANCH   3   6
HETATM    6  C   UNL     1     -10.850  12.019  66.062  1.00  0.00    -0.289 C  
BRANCH   6   7
HETATM    7  C   UNL     1     -12.103  12.698  65.487  1.00  0.00    -0.458 C  
BRANCH   7   8
HETATM    8  O   UNL     1     -11.800  13.301  64.221  1.00  0.00    -0.377 OA 
BRANCH   8   9
HETATM    9  C   UNL     1     -10.774  14.286  64.370  1.00  0.00    -0.095 C  
BRANCH   9  10
HETATM   10  C   UNL     1     -11.388  15.659  64.630  1.00  0.00    -0.349 C  
BRANCH  10  11
HETATM   11  O   UNL     1     -10.468  16.521  65.328  1.00  0.00    -0.590 OA 
BRANCH  11  12
HETATM   12  C   UNL     1     -10.619  16.561  66.684  1.00  0.00    -0.216 C  
HETATM   13  O   UNL     1     -11.441  15.884  67.295  1.00  0.00    -0.098 OA 
BRANCH  12  14
HETATM   14  C   UNL     1      -9.697  17.599  67.351  1.00  0.00    -0.283 C  
HETATM   15  C   UNL     1     -10.392  18.371  68.506  1.00  0.00    -0.326 C  
HETATM   16  C   UNL     1      -9.504  18.731  66.306  1.00  0.00    -0.288 C  
HETATM   17  C   UNL     1      -9.172  19.972  67.113  1.00  0.00    -0.483 C  
HETATM   18  C   UNL     1     -10.059  19.859  68.339  1.00  0.00    -0.557 C  
BRANCH  14  19
HETATM   19  C   UNL     1      -8.410  16.908  67.844  1.00  0.00    -0.198 A  
HETATM   20  C   UNL     1      -6.455  16.747  69.300  1.00  0.00    -0.219 A  
HETATM   21  C   UNL     1      -6.024  15.604  68.635  1.00  0.00    -0.101 A  
HETATM   22  C   UNL     1      -7.632  17.393  68.907  1.00  0.00    -0.224 A  
HETATM   23  C   UNL     1      -6.776  15.100  67.583  1.00  0.00    -0.201 A  
HETATM   24  C   UNL     1      -7.960  15.739  67.198  1.00  0.00    -0.250 A  
ENDBRANCH  14  19
ENDBRANCH  12  14
ENDBRANCH  11  12
ENDBRANCH  10  11
ENDBRANCH   9  10
ENDBRANCH   8   9
ENDBRANCH   7   8
ENDBRANCH   6   7
ENDBRANCH   3   6
ENDBRANCH   2   3
TORSDOF 11
ENDMDL
MODEL      181
REMARK 921   NORMALIZED FREE ENERGY PREDICTED BY IDOCK:   -4.32 KCAL/MOL
REMARK 922        TOTAL FREE ENERGY PREDICTED BY IDOCK:   -7.91 KCAL/MOL
REMARK 923 INTER-LIGAND FREE ENERGY PREDICTED BY IDOCK:   -7.10 KCAL/MOL
REMARK 924 INTRA-LIGAND FREE ENERGY PREDICTED BY IDOCK:   -0.82 KCAL/MOL
REMARK 927      BINDING AFFINITY PREDICTED BY RF-SCORE:    0.00 PKD
ROOT
HETATM    1  C   UNL     1      -7.010  17.797  67.946  1.00  0.00    -0.194 C  
HETATM    2  C   UNL     1      -8.383  17.235  68.307  1.00  0.00    -0.242 C  
ENDROOT
BRANCH   2   3
HETATM    3  N   UNL     1      -9.329  17.152  67.177  1.00  0.00    -0.240 NA 
BRANCH   3   4
HETATM    4  C   UNL     1      -9.253  18.294  66.253  1.00  0.00    -0.203 C  
HETATM    5  C   UNL     1     -10.582  18.895  65.811  1.00  0.00    -0.358 C  
ENDBRANCH   3   4
BRANCH   3   6
HETATM    6  C   UNL     1      -9.192  15.835  66.513  1.00  0.00    -0.283 C  
BRANCH   6   7
HETATM    7  C   UNL     1     -10.496  15.254  65.942  1.00  0.00    -0.331 C  
BRANCH   7   8
HETATM    8  O   UNL     1     -11.068  14.324  66.872  1.00  0.00    -0.298 OA 
BRANCH   8   9
HETATM    9  C   UNL     1     -11.796  13.308  66.179  1.00  0.00    -0.390 C  
BRANCH   9  10
HETATM   10  C   UNL     1     -11.360  11.923  66.650  1.00  0.00    -0.337 C  
BRANCH  10  11
HETATM   11  O   UNL     1     -12.041  11.542  67.861  1.00  0.00    -0.630 OA 
BRANCH  11  12
HETATM   12  C   UNL     1     -11.274  11.551  68.991  1.00  0.00    -0.262 C  
HETATM   13  O   UNL     1     -10.057  11.707  68.982  1.00  0.00    -0.138 OA 
BRANCH  12  14
HETATM   14  C   UNL     1     -12.096  11.274  70.264  1.00  0.00    -0.459 C  
HETATM   15  C   UNL     1     -11.329  10.405  71.299  1.00  0.00     0.034 C  
HETATM   16  C   UNL     1     -13.228  10.302  69.838  1.00  0.00     0.616 C  
HETATM   17  C   UNL     1     -13.615   9.554  71.100  1.00  0.00    -0.231 C  
HETATM   18  C   UNL     1     -12.294   9.327  71.809  1.00  0.00    -0.454 C  
BRANCH  14  19
HETATM   19  C   UNL     1     -12.549  12.607  70.889  1.00  0.00    -0.338 A  
HETATM   20  C   UNL     1     -13.493  13.943  72.705  1.00  0.00    -0.652 A  
HETATM   21  C   UNL     1     -13.418  15.095  71.929  1.00  0.00    -0.522 A  
HETATM   22  C   UNL     1     -13.067  12.714  72.190  1.00  0.00    -0.438 A  
HETATM   23  C   UNL     1     -12.905  15.020  70.640  1.00  0.00    -0.413 A  
HETATM   24  C   UNL     1     -12.467  13.792  70.130  1.00  0.00    -0.332 A  
ENDBRANCH  14  19
ENDBRANCH  12  14
ENDBRANCH  11  12
ENDBRANCH  10  11
ENDBRANCH   9  10
ENDBRANCH   8   9
ENDBRANCH   7   8
ENDBRANCH   6   7
ENDBRANCH   3   6
ENDBRANCH   2   3
TORSDOF 11
ENDMDL
MODEL      182
REMARK 921   NORMALIZED FREE ENERGY PREDICTED BY IDOCK:   -4.32 KCAL/MOL
REMARK 922        TOTAL FREE ENERGY PREDICTED BY IDOCK:   -7.91 KCAL/MOL
REMARK 923 INTER-LIGAND FREE ENERGY PREDICTED BY IDOCK:   -6.91 KCAL/MOL
REMARK 924 INTRA-LIGAND FREE ENERGY PREDICTED BY IDOCK:   -1.00 KCAL/MOL
REMARK 927      BINDING AFFINITY PREDICTED BY RF-SCORE:    0.00 PKD
ROOT
HETATM    1  C   UNL     1     -10.300   5.395  72.911  1.00  0.00    -0.231 C  
HETATM    2  C   UNL     1     -11.376   6.103  72.090  1.00  0.00    -0.299 C  
ENDROOT
BRANCH   2   3
HETATM    3  N   UNL     1     -11.012   7.460  71.640  1.00  0.00    -0.224 NA 
BRANCH   3   4
HETATM    4  C   UNL     1     -10.072   7.479  70.508  1.00  0.00    -0.188 C  
HETATM    5  C   UNL     1      -8.673   8.007  70.799  1.00  0.00    -0.139 C  
ENDBRANCH   3   4
BRANCH   3   6
HETATM    6  C   UNL     1     -12.241   8.252  71.409  1.00  0.00    -0.299 C  
BRANCH   6   7
HETATM    7  C   UNL     1     -12.808   8.954  72.654  1.00  0.00    -0.248 C  
BRANCH   7   8
HETATM    8  O   UNL     1     -13.343  10.236  72.294  1.00  0.00    -0.407 OA 
BRANCH   8   9
HETATM    9  C   UNL     1     -12.567  10.827  71.249  1.00  0.00    -0.426 C  
BRANCH   9  10
HETATM   10  C   UNL     1     -12.687  12.348  71.289  1.00  0.00    -0.248 C  
BRANCH  10  11
HETATM   11  O   UNL     1     -12.301  12.939  70.034  1.00  0.00    -0.234 OA 
BRANCH  11  12
HETATM   12  C   UNL     1     -12.235  14.302  70.025  1.00  0.00    -0.359 C  
HETATM   13  O   UNL     1     -12.906  15.018  70.763  1.00  0.00    -0.354 OA 
BRANCH  12  14
HETATM   14  C   UNL     1     -11.283  14.841  68.940  1.00  0.00    -0.282 C  
HETATM   15  C   UNL     1      -9.855  15.130  69.479  1.00  0.00    -0.191 C  
HETATM   16  C   UNL     1     -11.777  16.276  68.613  1.00  0.00    -0.113 C  
HETATM   17  C   UNL     1     -10.562  17.008  68.078  1.00  0.00    -0.373 C  
HETATM   18  C   UNL     1      -9.419  16.497  68.935  1.00  0.00    -0.260 C  
BRANCH  14  19
HETATM   19  C   UNL     1     -11.238  13.856  67.755  1.00  0.00    -0.316 A  
HETATM   20  C   UNL     1     -10.162  12.115  66.421  1.00  0.00    -0.245 A  
HETATM   21  C   UNL     1     -11.215  12.127  65.512  1.00  0.00    -0.381 A  
HETATM   22  C   UNL     1     -10.172  12.972  67.526  1.00  0.00    -0.221 A  
HETATM   23  C   UNL     1     -12.285  12.988  65.716  1.00  0.00    -0.511 A  
HETATM   24  C   UNL     1     -12.301  13.836  66.829  1.00  0.00    -0.365 A  
ENDBRANCH  14  19
ENDBRANCH  12  14
ENDBRANCH  11  12
ENDBRANCH  10  11
ENDBRANCH   9  10
ENDBRANCH   8   9
ENDBRANCH   7   8
ENDBRANCH   6   7
ENDBRANCH   3   6
ENDBRANCH   2   3
TORSDOF 11
ENDMDL
MODEL      183
REMARK 921   NORMALIZED FREE ENERGY PREDICTED BY IDOCK:   -4.31 KCAL/MOL
REMARK 922        TOTAL FREE ENERGY PREDICTED BY IDOCK:   -7.90 KCAL/MOL
REMARK 923 INTER-LIGAND FREE ENERGY PREDICTED BY IDOCK:   -6.85 KCAL/MOL
REMARK 924 INTRA-LIGAND FREE ENERGY PREDICTED BY IDOCK:   -1.05 KCAL/MOL
REMARK 927      BINDING AFFINITY PREDICTED BY RF-SCORE:    0.00 PKD
ROOT
HETATM    1  C   UNL     1     -10.695  15.661  65.036  1.00  0.00    -0.458 C  
HETATM    2  C   UNL     1     -11.648  14.708  64.318  1.00  0.00    -0.213 C  
ENDROOT
BRANCH   2   3
HETATM    3  N   UNL     1     -12.584  13.991  65.205  1.00  0.00    -0.612 NA 
BRANCH   3   4
HETATM    4  C   UNL     1     -12.757  12.571  64.863  1.00  0.00    -0.287 C  
HETATM    5  C   UNL     1     -12.031  12.082  63.615  1.00  0.00    -0.612 C  
ENDBRANCH   3   4
BRANCH   3   6
HETATM    6  C   UNL     1     -12.205  14.224  66.618  1.00  0.00    -0.381 C  
BRANCH   6   7
HETATM    7  C   UNL     1     -11.574  13.018  67.331  1.00  0.00    -0.356 C  
BRANCH   7   8
HETATM    8  O   UNL     1     -12.144  12.867  68.639  1.00  0.00    -0.286 OA 
BRANCH   8   9
HETATM    9  C   UNL     1     -12.273  11.483  68.972  1.00  0.00    -0.121 C  
BRANCH   9  10
HETATM   10  C   UNL     1     -11.947  11.257  70.447  1.00  0.00    -0.380 C  
BRANCH  10  11
HETATM   11  O   UNL     1     -10.762  10.454  70.605  1.00  0.00    -0.194 OA 
BRANCH  11  12
HETATM   12  C   UNL     1     -10.970   9.192  71.082  1.00  0.00    -0.320 C  
HETATM   13  O   UNL     1     -11.986   8.852  71.680  1.00  0.00    -0.301 OA 
BRANCH  12  14
HETATM   14  C   UNL     1      -9.760   8.266  70.849  1.00  0.00    -0.204 C  
HETATM   15  C   UNL     1      -9.426   7.387  72.086  1.00  0.00    -0.169 C  
HETATM   16  C   UNL     1      -8.517   9.194  70.795  1.00  0.00    -0.256 C  
HETATM   17  C   UNL     1      -7.345   8.320  71.199  1.00  0.00    -0.070 C  
HETATM   18  C   UNL     1      -7.907   7.437  72.296  1.00  0.00    -0.104 C  
BRANCH  14  19
HETATM   19  C   UNL     1     -10.008   7.394  69.602  1.00  0.00    -0.182 A  
HETATM   20  C   UNL     1     -10.666   7.080  67.270  1.00  0.00    -0.412 A  
HETATM   21  C   UNL     1     -10.500   5.704  67.384  1.00  0.00    -0.306 A  
HETATM   22  C   UNL     1     -10.427   7.914  68.367  1.00  0.00    -0.207 A  
HETATM   23  C   UNL     1     -10.083   5.162  68.592  1.00  0.00    -0.220 A  
HETATM   24  C   UNL     1      -9.831   5.998  69.685  1.00  0.00    -0.205 A  
ENDBRANCH  14  19
ENDBRANCH  12  14
ENDBRANCH  11  12
ENDBRANCH  10  11
ENDBRANCH   9  10
ENDBRANCH   8   9
ENDBRANCH   7   8
ENDBRANCH   6   7
ENDBRANCH   3   6
ENDBRANCH   2   3
TORSDOF 11
ENDMDL
MODEL      184
REMARK 921   NORMALIZED FREE ENERGY PREDICTED BY IDOCK:   -4.31 KCAL/MOL
REMARK 922        TOTAL FREE ENERGY PREDICTED BY IDOCK:   -7.90 KCAL/MOL
REMARK 923 INTER-LIGAND FREE ENERGY PREDICTED BY IDOCK:   -6.74 KCAL/MOL
REMARK 924 INTRA-LIGAND FREE ENERGY PREDICTED BY IDOCK:   -1.16 KCAL/MOL
REMARK 927      BINDING AFFINITY PREDICTED BY RF-SCORE:    0.00 PKD
ROOT
HETATM    1  C   UNL     1     -12.656   8.269  71.865  1.00  0.00    -0.379 C  
HETATM    2  C   UNL     1     -11.435   7.955  71.004  1.00  0.00    -0.280 C  
ENDROOT
BRANCH   2   3
HETATM    3  N   UNL     1     -11.255   8.849  69.845  1.00  0.00    -0.135 NA 
BRANCH   3   4
HETATM    4  C   UNL     1     -11.092  10.265  70.206  1.00  0.00    -0.319 C  
HETATM    5  C   UNL     1     -12.185  11.214  69.729  1.00  0.00    -0.369 C  
ENDBRANCH   3   4
BRANCH   3   6
HETATM    6  C   UNL     1     -10.174   8.325  68.978  1.00  0.00    -0.217 C  
BRANCH   6   7
HETATM    7  C   UNL     1     -10.287   8.703  67.493  1.00  0.00    -0.269 C  
BRANCH   7   8
HETATM    8  O   UNL     1      -9.497   9.869  67.220  1.00  0.00    -0.149 OA 
BRANCH   8   9
HETATM    9  C   UNL     1      -9.653  10.272  65.858  1.00  0.00    -0.209 C  
BRANCH   9  10
HETATM   10  C   UNL     1     -10.428  11.584  65.775  1.00  0.00    -0.259 C  
BRANCH  10  11
HETATM   11  O   UNL     1      -9.600  12.706  66.135  1.00  0.00    -0.253 OA 
BRANCH  11  12
HETATM   12  C   UNL     1     -10.119  13.934  65.841  1.00  0.00    -0.317 C  
HETATM   13  O   UNL     1     -10.392  14.300  64.701  1.00  0.00    -0.417 OA 
BRANCH  12  14
HETATM   14  C   UNL     1     -10.256  14.831  67.086  1.00  0.00    -0.245 C  
HETATM   15  C   UNL     1      -9.677  14.175  68.370  1.00  0.00    -0.226 C  
HETATM   16  C   UNL     1     -11.770  14.865  67.423  1.00  0.00    -0.311 C  
HETATM   17  C   UNL     1     -11.846  15.171  68.907  1.00  0.00    -0.337 C  
HETATM   18  C   UNL     1     -10.690  14.391  69.501  1.00  0.00    -0.133 C  
BRANCH  14  19
HETATM   19  C   UNL     1      -9.593  16.196  66.816  1.00  0.00    -0.256 A  
HETATM   20  C   UNL     1      -7.658  17.616  66.357  1.00  0.00    -0.322 A  
HETATM   21  C   UNL     1      -8.454  18.756  66.396  1.00  0.00    -0.296 A  
HETATM   22  C   UNL     1      -8.219  16.353  66.568  1.00  0.00    -0.341 A  
HETATM   23  C   UNL     1      -9.816  18.631  66.635  1.00  0.00    -0.377 A  
HETATM   24  C   UNL     1     -10.380  17.366  66.834  1.00  0.00    -0.317 A  
ENDBRANCH  14  19
ENDBRANCH  12  14
ENDBRANCH  11  12
ENDBRANCH  10  11
ENDBRANCH   9  10
ENDBRANCH   8   9
ENDBRANCH   7   8
ENDBRANCH   6   7
ENDBRANCH   3   6
ENDBRANCH   2   3
TORSDOF 11
ENDMDL
MODEL      185
REMARK 921   NORMALIZED FREE ENERGY PREDICTED BY IDOCK:   -4.30 KCAL/MOL
REMARK 922        TOTAL FREE ENERGY PREDICTED BY IDOCK:   -7.89 KCAL/MOL
REMARK 923 INTER-LIGAND FREE ENERGY PREDICTED BY IDOCK:   -6.84 KCAL/MOL
REMARK 924 INTRA-LIGAND FREE ENERGY PREDICTED BY IDOCK:   -1.05 KCAL/MOL
REMARK 927      BINDING AFFINITY PREDICTED BY RF-SCORE:    0.00 PKD
ROOT
HETATM    1  C   UNL     1     -10.483  16.440  69.517  1.00  0.00    -0.301 C  
HETATM    2  C   UNL     1     -11.854  15.786  69.674  1.00  0.00    -0.340 C  
ENDROOT
BRANCH   2   3
HETATM    3  N   UNL     1     -12.046  15.056  70.941  1.00  0.00    -0.298 NA 
BRANCH   3   4
HETATM    4  C   UNL     1     -12.985  15.708  71.866  1.00  0.00    -0.463 C  
HETATM    5  C   UNL     1     -12.447  16.041  73.253  1.00  0.00    -0.645 C  
ENDBRANCH   3   4
BRANCH   3   6
HETATM    6  C   UNL     1     -12.374  13.641  70.654  1.00  0.00    -0.368 C  
BRANCH   6   7
HETATM    7  C   UNL     1     -12.014  13.162  69.239  1.00  0.00    -0.292 C  
BRANCH   7   8
HETATM    8  O   UNL     1     -11.145  12.023  69.311  1.00  0.00    -0.234 OA 
BRANCH   8   9
HETATM    9  C   UNL     1     -10.610  11.718  68.021  1.00  0.00    -0.206 C  
BRANCH   9  10
HETATM   10  C   UNL     1     -10.576  10.208  67.801  1.00  0.00    -0.256 C  
BRANCH  10  11
HETATM   11  O   UNL     1     -10.071   9.520  68.961  1.00  0.00    -0.179 OA 
BRANCH  11  12
HETATM   12  C   UNL     1     -10.457   8.216  69.081  1.00  0.00    -0.206 C  
HETATM   13  O   UNL     1     -10.513   7.435  68.136  1.00  0.00    -0.197 OA 
BRANCH  12  14
HETATM   14  C   UNL     1     -10.882   7.856  70.518  1.00  0.00    -0.242 C  
HETATM   15  C   UNL     1     -11.908   6.691  70.570  1.00  0.00    -0.430 C  
HETATM   16  C   UNL     1     -11.750   9.043  71.016  1.00  0.00    -0.353 C  
HETATM   17  C   UNL     1     -12.651   8.461  72.088  1.00  0.00    -0.412 C  
HETATM   18  C   UNL     1     -13.016   7.089  71.554  1.00  0.00    -0.411 C  
BRANCH  14  19
HETATM   19  C   UNL     1      -9.633   7.532  71.361  1.00  0.00    -0.168 A  
HETATM   20  C   UNL     1      -7.846   8.136  72.914  1.00  0.00    -0.202 A  
HETATM   21  C   UNL     1      -7.303   6.859  72.824  1.00  0.00    -0.078 A  
HETATM   22  C   UNL     1      -8.995   8.469  72.189  1.00  0.00    -0.300 A  
HETATM   23  C   UNL     1      -7.916   5.910  72.017  1.00  0.00    -0.107 A  
HETATM   24  C   UNL     1      -9.072   6.239  71.301  1.00  0.00    -0.148 A  
ENDBRANCH  14  19
ENDBRANCH  12  14
ENDBRANCH  11  12
ENDBRANCH  10  11
ENDBRANCH   9  10
ENDBRANCH   8   9
ENDBRANCH   7   8
ENDBRANCH   6   7
ENDBRANCH   3   6
ENDBRANCH   2   3
TORSDOF 11
ENDMDL
MODEL      186
REMARK 921   NORMALIZED FREE ENERGY PREDICTED BY IDOCK:   -4.30 KCAL/MOL
REMARK 922        TOTAL FREE ENERGY PREDICTED BY IDOCK:   -7.89 KCAL/MOL
REMARK 923 INTER-LIGAND FREE ENERGY PREDICTED BY IDOCK:   -6.89 KCAL/MOL
REMARK 924 INTRA-LIGAND FREE ENERGY PREDICTED BY IDOCK:   -1.00 KCAL/MOL
REMARK 927      BINDING AFFINITY PREDICTED BY RF-SCORE:    0.00 PKD
ROOT
HETATM    1  C   UNL     1     -10.983   6.539  67.221  1.00  0.00    -0.475 C  
HETATM    2  C   UNL     1     -10.167   6.636  68.508  1.00  0.00    -0.171 C  
ENDROOT
BRANCH   2   3
HETATM    3  N   UNL     1     -10.385   5.530  69.460  1.00  0.00    -0.262 NA 
BRANCH   3   4
HETATM    4  C   UNL     1      -9.229   4.632  69.603  1.00  0.00    -0.124 C  
HETATM    5  C   UNL     1      -9.539   3.145  69.722  1.00  0.00    -0.128 C  
ENDBRANCH   3   4
BRANCH   3   6
HETATM    6  C   UNL     1     -10.883   6.072  70.744  1.00  0.00    -0.292 C  
BRANCH   6   7
HETATM    7  C   UNL     1     -10.880   7.605  70.851  1.00  0.00    -0.241 C  
BRANCH   7   8
HETATM    8  O   UNL     1     -12.219   8.090  71.023  1.00  0.00    -0.280 OA 
BRANCH   8   9
HETATM    9  C   UNL     1     -12.263   9.509  70.864  1.00  0.00    -0.254 C  
BRANCH   9  10
HETATM   10  C   UNL     1     -11.062   9.992  70.054  1.00  0.00    -0.295 C  
BRANCH  10  11
HETATM   11  O   UNL     1     -11.378  11.179  69.302  1.00  0.00    -0.231 OA 
BRANCH  11  12
HETATM   12  C   UNL     1     -10.321  11.774  68.676  1.00  0.00    -0.214 C  
HETATM   13  O   UNL     1      -9.246  11.215  68.481  1.00  0.00    -0.172 OA 
BRANCH  12  14
HETATM   14  C   UNL     1     -10.603  13.243  68.308  1.00  0.00    -0.262 C  
HETATM   15  C   UNL     1      -9.388  14.175  68.569  1.00  0.00    -0.191 C  
HETATM   16  C   UNL     1     -11.612  13.762  69.368  1.00  0.00    -0.365 C  
HETATM   17  C   UNL     1     -11.409  15.264  69.416  1.00  0.00    -0.304 C  
HETATM   18  C   UNL     1      -9.909  15.436  69.271  1.00  0.00    -0.262 C  
BRANCH  14  19
HETATM   19  C   UNL     1     -11.061  13.331  66.839  1.00  0.00    -0.310 A  
HETATM   20  C   UNL     1     -10.663  13.215  64.431  1.00  0.00    -0.426 A  
HETATM   21  C   UNL     1     -11.980  13.580  64.171  1.00  0.00    -0.498 A  
HETATM   22  C   UNL     1     -10.208  13.096  65.749  1.00  0.00    -0.294 A  
HETATM   23  C   UNL     1     -12.847  13.813  65.230  1.00  0.00    -0.430 A  
HETATM   24  C   UNL     1     -12.396  13.682  66.548  1.00  0.00    -0.412 A  
ENDBRANCH  14  19
ENDBRANCH  12  14
ENDBRANCH  11  12
ENDBRANCH  10  11
ENDBRANCH   9  10
ENDBRANCH   8   9
ENDBRANCH   7   8
ENDBRANCH   6   7
ENDBRANCH   3   6
ENDBRANCH   2   3
TORSDOF 11
ENDMDL
MODEL      187
REMARK 921   NORMALIZED FREE ENERGY PREDICTED BY IDOCK:   -4.30 KCAL/MOL
REMARK 922        TOTAL FREE ENERGY PREDICTED BY IDOCK:   -7.88 KCAL/MOL
REMARK 923 INTER-LIGAND FREE ENERGY PREDICTED BY IDOCK:   -6.44 KCAL/MOL
REMARK 924 INTRA-LIGAND FREE ENERGY PREDICTED BY IDOCK:   -1.45 KCAL/MOL
REMARK 927      BINDING AFFINITY PREDICTED BY RF-SCORE:    0.00 PKD
ROOT
HETATM    1  C   UNL     1     -10.866   6.665  67.230  1.00  0.00    -0.456 C  
HETATM    2  C   UNL     1     -10.445   8.122  67.051  1.00  0.00    -0.326 C  
ENDROOT
BRANCH   2   3
HETATM    3  N   UNL     1      -9.301   8.324  66.142  1.00  0.00    -0.204 NA 
BRANCH   3   4
HETATM    4  C   UNL     1      -9.416   9.523  65.298  1.00  0.00    -0.258 C  
HETATM    5  C   UNL     1      -8.712   9.469  63.947  1.00  0.00    -0.238 C  
ENDBRANCH   3   4
BRANCH   3   6
HETATM    6  C   UNL     1      -8.038   8.255  66.912  1.00  0.00    -0.103 C  
BRANCH   6   7
HETATM    7  C   UNL     1      -8.023   9.069  68.215  1.00  0.00    -0.104 C  
BRANCH   7   8
HETATM    8  O   UNL     1      -6.670   9.312  68.628  1.00  0.00    -0.053 OA 
BRANCH   8   9
HETATM    9  C   UNL     1      -6.325   8.469  69.730  1.00  0.00    -0.035 C  
BRANCH   9  10
HETATM   10  C   UNL     1      -7.099   8.882  70.980  1.00  0.00    -0.090 C  
BRANCH  10  11
HETATM   11  O   UNL     1      -7.784   7.760  71.568  1.00  0.00    -0.081 OA 
BRANCH  11  12
HETATM   12  C   UNL     1      -8.703   8.073  72.527  1.00  0.00    -0.173 C  
HETATM   13  O   UNL     1      -8.435   8.710  73.541  1.00  0.00    -0.370 OA 
BRANCH  12  14
HETATM   14  C   UNL     1     -10.093   7.476  72.230  1.00  0.00    -0.244 C  
HETATM   15  C   UNL     1     -10.672   6.671  73.426  1.00  0.00    -0.315 C  
HETATM   16  C   UNL     1      -9.858   6.345  71.193  1.00  0.00    -0.198 C  
HETATM   17  C   UNL     1     -11.020   5.386  71.373  1.00  0.00    -0.148 C  
HETATM   18  C   UNL     1     -11.244   5.360  72.872  1.00  0.00    -0.372 C  
BRANCH  14  19
HETATM   19  C   UNL     1     -11.057   8.598  71.799  1.00  0.00    -0.396 A  
HETATM   20  C   UNL     1     -13.198   9.772  71.888  1.00  0.00    -0.545 A  
HETATM   21  C   UNL     1     -12.783  10.655  70.897  1.00  0.00    -0.498 A  
HETATM   22  C   UNL     1     -12.347   8.754  72.331  1.00  0.00    -0.414 A  
HETATM   23  C   UNL     1     -11.510  10.527  70.356  1.00  0.00    -0.427 A  
HETATM   24  C   UNL     1     -10.654   9.517  70.808  1.00  0.00    -0.387 A  
ENDBRANCH  14  19
ENDBRANCH  12  14
ENDBRANCH  11  12
ENDBRANCH  10  11
ENDBRANCH   9  10
ENDBRANCH   8   9
ENDBRANCH   7   8
ENDBRANCH   6   7
ENDBRANCH   3   6
ENDBRANCH   2   3
TORSDOF 11
ENDMDL
MODEL      188
REMARK 921   NORMALIZED FREE ENERGY PREDICTED BY IDOCK:   -4.30 KCAL/MOL
REMARK 922        TOTAL FREE ENERGY PREDICTED BY IDOCK:   -7.88 KCAL/MOL
REMARK 923 INTER-LIGAND FREE ENERGY PREDICTED BY IDOCK:   -6.67 KCAL/MOL
REMARK 924 INTRA-LIGAND FREE ENERGY PREDICTED BY IDOCK:   -1.20 KCAL/MOL
REMARK 927      BINDING AFFINITY PREDICTED BY RF-SCORE:    0.00 PKD
ROOT
HETATM    1  C   UNL     1     -11.855  15.235  69.499  1.00  0.00    -0.368 C  
HETATM    2  C   UNL     1     -10.912  14.851  68.361  1.00  0.00    -0.261 C  
ENDROOT
BRANCH   2   3
HETATM    3  N   UNL     1     -11.422  15.157  67.011  1.00  0.00    -0.283 NA 
BRANCH   3   4
HETATM    4  C   UNL     1     -10.414  15.739  66.112  1.00  0.00    -0.317 C  
HETATM    5  C   UNL     1      -8.957  15.535  66.508  1.00  0.00    -0.348 C  
ENDBRANCH   3   4
BRANCH   3   6
HETATM    6  C   UNL     1     -12.100  13.963  66.455  1.00  0.00    -0.449 C  
BRANCH   6   7
HETATM    7  C   UNL     1     -11.305  12.652  66.562  1.00  0.00    -0.326 C  
BRANCH   7   8
HETATM    8  O   UNL     1     -12.092  11.652  67.223  1.00  0.00    -0.595 OA 
BRANCH   8   9
HETATM    9  C   UNL     1     -11.442  11.213  68.418  1.00  0.00    -0.306 C  
BRANCH   9  10
HETATM   10  C   UNL     1      -9.936  11.102  68.196  1.00  0.00    -0.178 C  
BRANCH  10  11
HETATM   11  O   UNL     1      -9.578   9.814  67.658  1.00  0.00    -0.142 OA 
BRANCH  11  12
HETATM   12  C   UNL     1      -9.047   8.933  68.555  1.00  0.00    -0.137 C  
HETATM   13  O   UNL     1      -8.053   9.173  69.234  1.00  0.00    -0.096 OA 
BRANCH  12  14
HETATM   14  C   UNL     1      -9.788   7.582  68.567  1.00  0.00    -0.170 C  
HETATM   15  C   UNL     1      -8.850   6.376  68.289  1.00  0.00    -0.115 C  
HETATM   16  C   UNL     1     -10.675   7.572  67.293  1.00  0.00    -0.365 C  
HETATM   17  C   UNL     1     -10.888   6.107  66.962  1.00  0.00    -0.435 C  
HETATM   18  C   UNL     1      -9.551   5.463  67.275  1.00  0.00    -0.140 C  
BRANCH  14  19
HETATM   19  C   UNL     1     -10.529   7.410  69.907  1.00  0.00    -0.238 A  
HETATM   20  C   UNL     1     -11.247   6.092  71.836  1.00  0.00    -0.336 A  
HETATM   21  C   UNL     1     -11.976   7.169  72.330  1.00  0.00    -0.182 A  
HETATM   22  C   UNL     1     -10.536   6.210  70.637  1.00  0.00    -0.307 A  
HETATM   23  C   UNL     1     -11.983   8.369  71.632  1.00  0.00    -0.357 A  
HETATM   24  C   UNL     1     -11.262   8.491  70.439  1.00  0.00    -0.224 A  
ENDBRANCH  14  19
ENDBRANCH  12  14
ENDBRANCH  11  12
ENDBRANCH  10  11
ENDBRANCH   9  10
ENDBRANCH   8   9
ENDBRANCH   7   8
ENDBRANCH   6   7
ENDBRANCH   3   6
ENDBRANCH   2   3
TORSDOF 11
ENDMDL
MODEL      189
REMARK 921   NORMALIZED FREE ENERGY PREDICTED BY IDOCK:   -4.29 KCAL/MOL
REMARK 922        TOTAL FREE ENERGY PREDICTED BY IDOCK:   -7.87 KCAL/MOL
REMARK 923 INTER-LIGAND FREE ENERGY PREDICTED BY IDOCK:   -6.84 KCAL/MOL
REMARK 924 INTRA-LIGAND FREE ENERGY PREDICTED BY IDOCK:   -1.03 KCAL/MOL
REMARK 927      BINDING AFFINITY PREDICTED BY RF-SCORE:    0.00 PKD
ROOT
HETATM    1  C   UNL     1      -5.498   7.616  72.321  1.00  0.00    -0.036 C  
HETATM    2  C   UNL     1      -6.722   8.481  72.028  1.00  0.00    -0.082 C  
ENDROOT
BRANCH   2   3
HETATM    3  N   UNL     1      -8.000   7.744  71.992  1.00  0.00    -0.099 NA 
BRANCH   3   4
HETATM    4  C   UNL     1      -8.945   8.144  73.046  1.00  0.00    -0.266 C  
HETATM    5  C   UNL     1      -9.337   7.064  74.047  1.00  0.00    -0.273 C  
ENDBRANCH   3   4
BRANCH   3   6
HETATM    6  C   UNL     1      -8.568   7.803  70.626  1.00  0.00    -0.127 C  
BRANCH   6   7
HETATM    7  C   UNL     1      -7.683   8.500  69.581  1.00  0.00    -0.093 C  
BRANCH   7   8
HETATM    8  O   UNL     1      -8.499   9.068  68.546  1.00  0.00    -0.126 OA 
BRANCH   8   9
HETATM    9  C   UNL     1      -9.755   9.495  69.076  1.00  0.00    -0.170 C  
BRANCH   9  10
HETATM   10  C   UNL     1     -10.764   9.709  67.951  1.00  0.00    -0.247 C  
BRANCH  10  11
HETATM   11  O   UNL     1     -10.374  10.801  67.097  1.00  0.00    -0.203 OA 
BRANCH  11  12
HETATM   12  C   UNL     1     -11.307  11.787  66.945  1.00  0.00    -0.320 C  
HETATM   13  O   UNL     1     -12.147  12.062  67.796  1.00  0.00    -0.537 OA 
BRANCH  12  14
HETATM   14  C   UNL     1     -11.232  12.463  65.563  1.00  0.00    -0.364 C  
HETATM   15  C   UNL     1     -12.601  12.488  64.828  1.00  0.00    -0.493 C  
HETATM   16  C   UNL     1     -10.425  11.494  64.658  1.00  0.00    -0.356 C  
HETATM   17  C   UNL     1     -10.871  11.800  63.240  1.00  0.00    -0.400 C  
HETATM   18  C   UNL     1     -12.358  12.063  63.374  1.00  0.00    -0.635 C  
BRANCH  14  19
HETATM   19  C   UNL     1     -10.657  13.885  65.712  1.00  0.00    -0.300 A  
HETATM   20  C   UNL     1     -10.662  16.285  65.256  1.00  0.00    -0.349 A  
HETATM   21  C   UNL     1      -9.491  16.451  65.989  1.00  0.00    -0.345 A  
HETATM   22  C   UNL     1     -11.235  15.018  65.116  1.00  0.00    -0.391 A  
HETATM   23  C   UNL     1      -8.900  15.349  66.592  1.00  0.00    -0.330 A  
HETATM   24  C   UNL     1      -9.481  14.083  66.463  1.00  0.00    -0.295 A  
ENDBRANCH  14  19
ENDBRANCH  12  14
ENDBRANCH  11  12
ENDBRANCH  10  11
ENDBRANCH   9  10
ENDBRANCH   8   9
ENDBRANCH   7   8
ENDBRANCH   6   7
ENDBRANCH   3   6
ENDBRANCH   2   3
TORSDOF 11
ENDMDL
MODEL      190
REMARK 921   NORMALIZED FREE ENERGY PREDICTED BY IDOCK:   -4.29 KCAL/MOL
REMARK 922        TOTAL FREE ENERGY PREDICTED BY IDOCK:   -7.86 KCAL/MOL
REMARK 923 INTER-LIGAND FREE ENERGY PREDICTED BY IDOCK:   -7.06 KCAL/MOL
REMARK 924 INTRA-LIGAND FREE ENERGY PREDICTED BY IDOCK:   -0.79 KCAL/MOL
REMARK 927      BINDING AFFINITY PREDICTED BY RF-SCORE:    0.00 PKD
ROOT
HETATM    1  C   UNL     1      -9.116   8.894  71.068  1.00  0.00    -0.303 C  
HETATM    2  C   UNL     1     -10.010   8.899  69.830  1.00  0.00    -0.188 C  
ENDROOT
BRANCH   2   3
HETATM    3  N   UNL     1     -11.389   9.366  70.071  1.00  0.00    -0.192 NA 
BRANCH   3   4
HETATM    4  C   UNL     1     -11.697   9.604  71.490  1.00  0.00    -0.400 C  
HETATM    5  C   UNL     1     -13.075  10.177  71.795  1.00  0.00    -0.568 C  
ENDBRANCH   3   4
BRANCH   3   6
HETATM    6  C   UNL     1     -11.681  10.522  69.194  1.00  0.00    -0.189 C  
BRANCH   6   7
HETATM    7  C   UNL     1     -10.530  10.948  68.270  1.00  0.00    -0.179 C  
BRANCH   7   8
HETATM    8  O   UNL     1      -9.920  12.149  68.765  1.00  0.00    -0.165 OA 
BRANCH   8   9
HETATM    9  C   UNL     1      -8.595  12.288  68.247  1.00  0.00    -0.172 C  
BRANCH   9  10
HETATM   10  C   UNL     1      -8.552  13.377  67.178  1.00  0.00    -0.195 C  
BRANCH  10  11
HETATM   11  O   UNL     1      -8.070  14.623  67.718  1.00  0.00    -0.129 OA 
BRANCH  11  12
HETATM   12  C   UNL     1      -9.004  15.380  68.364  1.00  0.00    -0.189 C  
HETATM   13  O   UNL     1      -9.212  15.315  69.572  1.00  0.00    -0.243 OA 
BRANCH  12  14
HETATM   14  C   UNL     1      -9.814  16.269  67.400  1.00  0.00    -0.242 C  
HETATM   15  C   UNL     1      -8.913  17.123  66.466  1.00  0.00    -0.300 C  
HETATM   16  C   UNL     1     -10.463  17.370  68.279  1.00  0.00    -0.385 C  
HETATM   17  C   UNL     1     -10.700  18.543  67.347  1.00  0.00    -0.424 C  
HETATM   18  C   UNL     1      -9.478  18.549  66.448  1.00  0.00    -0.304 C  
BRANCH  14  19
HETATM   19  C   UNL     1     -10.786  15.395  66.583  1.00  0.00    -0.309 A  
HETATM   20  C   UNL     1     -11.723  14.576  64.481  1.00  0.00    -0.421 A  
HETATM   21  C   UNL     1     -12.655  13.806  65.168  1.00  0.00    -0.471 A  
HETATM   22  C   UNL     1     -10.802  15.363  65.179  1.00  0.00    -0.447 A  
HETATM   23  C   UNL     1     -12.659  13.814  66.557  1.00  0.00    -0.242 A  
HETATM   24  C   UNL     1     -11.730  14.592  67.256  1.00  0.00    -0.406 A  
ENDBRANCH  14  19
ENDBRANCH  12  14
ENDBRANCH  11  12
ENDBRANCH  10  11
ENDBRANCH   9  10
ENDBRANCH   8   9
ENDBRANCH   7   8
ENDBRANCH   6   7
ENDBRANCH   3   6
ENDBRANCH   2   3
TORSDOF 11
ENDMDL
MODEL      191
REMARK 921   NORMALIZED FREE ENERGY PREDICTED BY IDOCK:   -4.28 KCAL/MOL
REMARK 922        TOTAL FREE ENERGY PREDICTED BY IDOCK:   -7.86 KCAL/MOL
REMARK 923 INTER-LIGAND FREE ENERGY PREDICTED BY IDOCK:   -6.21 KCAL/MOL
REMARK 924 INTRA-LIGAND FREE ENERGY PREDICTED BY IDOCK:   -1.65 KCAL/MOL
REMARK 927      BINDING AFFINITY PREDICTED BY RF-SCORE:    0.00 PKD
ROOT
HETATM    1  C   UNL     1      -6.795   8.578  62.684  1.00  0.00    -0.091 C  
HETATM    2  C   UNL     1      -6.372   9.275  63.975  1.00  0.00    -0.090 C  
ENDROOT
BRANCH   2   3
HETATM    3  N   UNL     1      -7.456   9.459  64.958  1.00  0.00    -0.103 NA 
BRANCH   3   4
HETATM    4  C   UNL     1      -7.188  10.513  65.948  1.00  0.00    -0.135 C  
HETATM    5  C   UNL     1      -7.013  10.055  67.391  1.00  0.00    -0.083 C  
ENDBRANCH   3   4
BRANCH   3   6
HETATM    6  C   UNL     1      -8.746   9.621  64.248  1.00  0.00    -0.206 C  
BRANCH   6   7
HETATM    7  C   UNL     1      -9.349  11.033  64.304  1.00  0.00    -0.205 C  
BRANCH   7   8
HETATM    8  O   UNL     1     -10.737  10.990  63.941  1.00  0.00    -0.369 OA 
BRANCH   8   9
HETATM    9  C   UNL     1     -11.203  12.295  63.591  1.00  0.00    -0.466 C  
BRANCH   9  10
HETATM   10  C   UNL     1     -12.485  12.625  64.351  1.00  0.00    -0.428 C  
BRANCH  10  11
HETATM   11  O   UNL     1     -12.329  12.404  65.765  1.00  0.00    -0.644 OA 
BRANCH  11  12
HETATM   12  C   UNL     1     -11.763  13.434  66.459  1.00  0.00    -0.373 C  
HETATM   13  O   UNL     1     -11.765  14.597  66.068  1.00  0.00    -0.359 OA 
BRANCH  12  14
HETATM   14  C   UNL     1     -11.060  12.962  67.747  1.00  0.00    -0.291 C  
HETATM   15  C   UNL     1     -10.668  11.460  67.705  1.00  0.00    -0.254 C  
HETATM   16  C   UNL     1     -12.152  12.956  68.850  1.00  0.00    -0.182 C  
HETATM   17  C   UNL     1     -11.680  11.947  69.879  1.00  0.00    -0.383 C  
HETATM   18  C   UNL     1     -11.069  10.835  69.048  1.00  0.00    -0.308 C  
BRANCH  14  19
HETATM   19  C   UNL     1      -9.829  13.848  68.019  1.00  0.00    -0.234 A  
HETATM   20  C   UNL     1      -8.671  15.655  69.187  1.00  0.00    -0.251 A  
HETATM   21  C   UNL     1      -7.538  15.469  68.401  1.00  0.00    -0.116 A  
HETATM   22  C   UNL     1      -9.803  14.857  68.995  1.00  0.00    -0.220 A  
HETATM   23  C   UNL     1      -7.533  14.476  67.431  1.00  0.00    -0.194 A  
HETATM   24  C   UNL     1      -8.662  13.669  67.248  1.00  0.00    -0.223 A  
ENDBRANCH  14  19
ENDBRANCH  12  14
ENDBRANCH  11  12
ENDBRANCH  10  11
ENDBRANCH   9  10
ENDBRANCH   8   9
ENDBRANCH   7   8
ENDBRANCH   6   7
ENDBRANCH   3   6
ENDBRANCH   2   3
TORSDOF 11
ENDMDL
MODEL      192
REMARK 921   NORMALIZED FREE ENERGY PREDICTED BY IDOCK:   -4.28 KCAL/MOL
REMARK 922        TOTAL FREE ENERGY PREDICTED BY IDOCK:   -7.85 KCAL/MOL
REMARK 923 INTER-LIGAND FREE ENERGY PREDICTED BY IDOCK:   -6.68 KCAL/MOL
REMARK 924 INTRA-LIGAND FREE ENERGY PREDICTED BY IDOCK:   -1.18 KCAL/MOL
REMARK 927      BINDING AFFINITY PREDICTED BY RF-SCORE:    0.00 PKD
ROOT
HETATM    1  C   UNL     1      -8.379   5.241  70.554  1.00  0.00    -0.112 C  
HETATM    2  C   UNL     1      -9.882   5.258  70.284  1.00  0.00    -0.215 C  
ENDROOT
BRANCH   2   3
HETATM    3  N   UNL     1     -10.599   6.403  70.876  1.00  0.00    -0.227 NA 
BRANCH   3   4
HETATM    4  C   UNL     1      -9.844   7.097  71.931  1.00  0.00    -0.159 C  
HETATM    5  C   UNL     1     -10.638   7.527  73.159  1.00  0.00    -0.442 C  
ENDBRANCH   3   4
BRANCH   3   6
HETATM    6  C   UNL     1     -11.079   7.298  69.798  1.00  0.00    -0.182 C  
BRANCH   6   7
HETATM    7  C   UNL     1     -10.298   8.613  69.645  1.00  0.00    -0.213 C  
BRANCH   7   8
HETATM    8  O   UNL     1     -11.185   9.732  69.787  1.00  0.00    -0.238 OA 
BRANCH   8   9
HETATM    9  C   UNL     1     -10.564  10.927  69.308  1.00  0.00    -0.217 C  
BRANCH   9  10
HETATM   10  C   UNL     1     -11.613  11.890  68.758  1.00  0.00    -0.309 C  
BRANCH  10  11
HETATM   11  O   UNL     1     -11.922  11.599  67.382  1.00  0.00    -0.621 OA 
BRANCH  11  12
HETATM   12  C   UNL     1     -11.848  12.663  66.529  1.00  0.00    -0.396 C  
HETATM   13  O   UNL     1     -12.709  13.534  66.456  1.00  0.00    -0.217 OA 
BRANCH  12  14
HETATM   14  C   UNL     1     -10.603  12.608  65.623  1.00  0.00    -0.299 C  
HETATM   15  C   UNL     1     -10.901  13.041  64.161  1.00  0.00    -0.433 C  
HETATM   16  C   UNL     1     -10.283  11.101  65.430  1.00  0.00    -0.327 C  
HETATM   17  C   UNL     1      -9.530  11.014  64.116  1.00  0.00    -0.274 C  
HETATM   18  C   UNL     1     -10.226  12.027  63.228  1.00  0.00    -0.398 C  
BRANCH  14  19
HETATM   19  C   UNL     1      -9.478  13.465  66.235  1.00  0.00    -0.196 A  
HETATM   20  C   UNL     1      -7.468  13.758  67.594  1.00  0.00    -0.187 A  
HETATM   21  C   UNL     1      -7.489  15.131  67.371  1.00  0.00    -0.239 A  
HETATM   22  C   UNL     1      -8.453  12.936  67.036  1.00  0.00    -0.146 A  
HETATM   23  C   UNL     1      -8.488  15.681  66.579  1.00  0.00    -0.311 A  
HETATM   24  C   UNL     1      -9.466  14.857  66.011  1.00  0.00    -0.316 A  
ENDBRANCH  14  19
ENDBRANCH  12  14
ENDBRANCH  11  12
ENDBRANCH  10  11
ENDBRANCH   9  10
ENDBRANCH   8   9
ENDBRANCH   7   8
ENDBRANCH   6   7
ENDBRANCH   3   6
ENDBRANCH   2   3
TORSDOF 11
ENDMDL
MODEL      193
REMARK 921   NORMALIZED FREE ENERGY PREDICTED BY IDOCK:   -4.26 KCAL/MOL
REMARK 922        TOTAL FREE ENERGY PREDICTED BY IDOCK:   -7.82 KCAL/MOL
REMARK 923 INTER-LIGAND FREE ENERGY PREDICTED BY IDOCK:   -6.72 KCAL/MOL
REMARK 924 INTRA-LIGAND FREE ENERGY PREDICTED BY IDOCK:   -1.10 KCAL/MOL
REMARK 927      BINDING AFFINITY PREDICTED BY RF-SCORE:    0.00 PKD
ROOT
HETATM    1  C   UNL     1     -12.391  11.968  63.469  1.00  0.00    -0.661 C  
HETATM    2  C   UNL     1     -12.083  12.174  64.950  1.00  0.00    -0.272 C  
ENDROOT
BRANCH   2   3
HETATM    3  N   UNL     1     -11.072  13.212  65.229  1.00  0.00    -0.280 NA 
BRANCH   3   4
HETATM    4  C   UNL     1     -11.639  14.553  65.436  1.00  0.00    -0.355 C  
HETATM    5  C   UNL     1     -11.747  15.026  66.881  1.00  0.00    -0.181 C  
ENDBRANCH   3   4
BRANCH   3   6
HETATM    6  C   UNL     1     -10.188  12.760  66.328  1.00  0.00    -0.253 C  
BRANCH   6   7
HETATM    7  C   UNL     1     -10.717  11.570  67.143  1.00  0.00    -0.254 C  
BRANCH   7   8
HETATM    8  O   UNL     1     -10.506  11.801  68.544  1.00  0.00    -0.203 OA 
BRANCH   8   9
HETATM    9  C   UNL     1      -9.652  10.796  69.094  1.00  0.00    -0.151 C  
BRANCH   9  10
HETATM   10  C   UNL     1     -10.007   9.424  68.524  1.00  0.00    -0.173 C  
BRANCH  10  11
HETATM   11  O   UNL     1     -11.006   8.766  69.326  1.00  0.00    -0.132 OA 
BRANCH  11  12
HETATM   12  C   UNL     1     -10.531   7.837  70.205  1.00  0.00    -0.225 C  
HETATM   13  O   UNL     1      -9.513   7.179  70.013  1.00  0.00    -0.164 OA 
BRANCH  12  14
HETATM   14  C   UNL     1     -11.452   7.655  71.427  1.00  0.00    -0.290 C  
HETATM   15  C   UNL     1     -12.819   7.012  71.063  1.00  0.00    -0.258 C  
HETATM   16  C   UNL     1     -11.894   9.083  71.844  1.00  0.00    -0.447 C  
HETATM   17  C   UNL     1     -13.215   8.902  72.567  1.00  0.00    -0.438 C  
HETATM   18  C   UNL     1     -13.915   7.810  71.781  1.00  0.00    -0.477 C  
BRANCH  14  19
HETATM   19  C   UNL     1     -10.723   6.831  72.507  1.00  0.00    -0.261 A  
HETATM   20  C   UNL     1      -9.143   6.591  74.355  1.00  0.00    -0.206 A  
HETATM   21  C   UNL     1      -9.384   5.223  74.415  1.00  0.00    -0.134 A  
HETATM   22  C   UNL     1      -9.802   7.385  73.410  1.00  0.00    -0.345 A  
HETATM   23  C   UNL     1     -10.294   4.649  73.537  1.00  0.00    -0.242 A  
HETATM   24  C   UNL     1     -10.962   5.445  72.600  1.00  0.00    -0.321 A  
ENDBRANCH  14  19
ENDBRANCH  12  14
ENDBRANCH  11  12
ENDBRANCH  10  11
ENDBRANCH   9  10
ENDBRANCH   8   9
ENDBRANCH   7   8
ENDBRANCH   6   7
ENDBRANCH   3   6
ENDBRANCH   2   3
TORSDOF 11
ENDMDL
MODEL      194
REMARK 921   NORMALIZED FREE ENERGY PREDICTED BY IDOCK:   -4.25 KCAL/MOL
REMARK 922        TOTAL FREE ENERGY PREDICTED BY IDOCK:   -7.81 KCAL/MOL
REMARK 923 INTER-LIGAND FREE ENERGY PREDICTED BY IDOCK:   -6.50 KCAL/MOL
REMARK 924 INTRA-LIGAND FREE ENERGY PREDICTED BY IDOCK:   -1.31 KCAL/MOL
REMARK 927      BINDING AFFINITY PREDICTED BY RF-SCORE:    0.00 PKD
ROOT
HETATM    1  C   UNL     1      -8.167   7.406  69.787  1.00  0.00    -0.129 C  
HETATM    2  C   UNL     1      -8.294   8.642  68.900  1.00  0.00    -0.124 C  
ENDROOT
BRANCH   2   3
HETATM    3  N   UNL     1      -9.675   9.124  68.713  1.00  0.00    -0.159 NA 
BRANCH   3   4
HETATM    4  C   UNL     1     -10.084  10.149  69.687  1.00  0.00    -0.234 C  
HETATM    5  C   UNL     1     -11.287   9.810  70.559  1.00  0.00    -0.382 C  
ENDBRANCH   3   4
BRANCH   3   6
HETATM    6  C   UNL     1      -9.873   9.528  67.302  1.00  0.00    -0.177 C  
BRANCH   6   7
HETATM    7  C   UNL     1     -10.460  10.934  67.102  1.00  0.00    -0.237 C  
BRANCH   7   8
HETATM    8  O   UNL     1      -9.586  11.720  66.278  1.00  0.00    -0.214 OA 
BRANCH   8   9
HETATM    9  C   UNL     1      -8.286  11.802  66.864  1.00  0.00    -0.166 C  
BRANCH   9  10
HETATM   10  C   UNL     1      -7.945  13.251  67.205  1.00  0.00    -0.125 C  
BRANCH  10  11
HETATM   11  O   UNL     1      -8.464  13.622  68.496  1.00  0.00    -0.161 OA 
BRANCH  11  12
HETATM   12  C   UNL     1      -9.030  14.862  68.565  1.00  0.00    -0.179 C  
HETATM   13  O   UNL     1      -8.380  15.901  68.640  1.00  0.00    -0.172 OA 
BRANCH  12  14
HETATM   14  C   UNL     1     -10.569  14.808  68.611  1.00  0.00    -0.255 C  
HETATM   15  C   UNL     1     -11.191  15.987  69.408  1.00  0.00    -0.349 C  
HETATM   16  C   UNL     1     -10.926  13.606  69.526  1.00  0.00    -0.054 C  
HETATM   17  C   UNL     1     -12.306  13.913  70.075  1.00  0.00    -0.378 C  
HETATM   18  C   UNL     1     -12.275  15.408  70.327  1.00  0.00    -0.414 C  
BRANCH  14  19
HETATM   19  C   UNL     1     -11.129  14.754  67.176  1.00  0.00    -0.333 A  
HETATM   20  C   UNL     1     -12.645  13.884  65.469  1.00  0.00    -0.560 A  
HETATM   21  C   UNL     1     -12.045  14.677  64.497  1.00  0.00    -0.490 A  
HETATM   22  C   UNL     1     -12.189  13.919  66.791  1.00  0.00    -0.438 A  
HETATM   23  C   UNL     1     -10.997  15.517  64.850  1.00  0.00    -0.452 A  
HETATM   24  C   UNL     1     -10.550  15.561  66.175  1.00  0.00    -0.321 A  
ENDBRANCH  14  19
ENDBRANCH  12  14
ENDBRANCH  11  12
ENDBRANCH  10  11
ENDBRANCH   9  10
ENDBRANCH   8   9
ENDBRANCH   7   8
ENDBRANCH   6   7
ENDBRANCH   3   6
ENDBRANCH   2   3
TORSDOF 11
ENDMDL
MODEL      195
REMARK 921   NORMALIZED FREE ENERGY PREDICTED BY IDOCK:   -4.24 KCAL/MOL
REMARK 922        TOTAL FREE ENERGY PREDICTED BY IDOCK:   -7.78 KCAL/MOL
REMARK 923 INTER-LIGAND FREE ENERGY PREDICTED BY IDOCK:   -6.84 KCAL/MOL
REMARK 924 INTRA-LIGAND FREE ENERGY PREDICTED BY IDOCK:   -0.95 KCAL/MOL
REMARK 927      BINDING AFFINITY PREDICTED BY RF-SCORE:    0.00 PKD
ROOT
HETATM    1  C   UNL     1     -13.171  15.394  71.202  1.00  0.00    -0.583 C  
HETATM    2  C   UNL     1     -11.726  15.724  70.837  1.00  0.00    -0.406 C  
ENDROOT
BRANCH   2   3
HETATM    3  N   UNL     1     -11.511  16.047  69.413  1.00  0.00    -0.343 NA 
BRANCH   3   4
HETATM    4  C   UNL     1     -10.228  16.714  69.143  1.00  0.00    -0.309 C  
HETATM    5  C   UNL     1     -10.295  18.003  68.332  1.00  0.00    -0.377 C  
ENDBRANCH   3   4
BRANCH   3   6
HETATM    6  C   UNL     1     -11.741  14.837  68.591  1.00  0.00    -0.325 C  
BRANCH   6   7
HETATM    7  C   UNL     1     -10.470  14.175  68.035  1.00  0.00    -0.240 C  
BRANCH   7   8
HETATM    8  O   UNL     1     -10.483  12.769  68.319  1.00  0.00    -0.228 OA 
BRANCH   8   9
HETATM    9  C   UNL     1     -11.777  12.361  68.769  1.00  0.00    -0.332 C  
BRANCH   9  10
HETATM   10  C   UNL     1     -11.786  10.867  69.082  1.00  0.00    -0.317 C  
BRANCH  10  11
HETATM   11  O   UNL     1     -10.928  10.558  70.196  1.00  0.00    -0.287 OA 
BRANCH  11  12
HETATM   12  C   UNL     1      -9.905   9.696  69.925  1.00  0.00    -0.239 C  
HETATM   13  O   UNL     1      -8.940   9.987  69.224  1.00  0.00    -0.155 OA 
BRANCH  12  14
HETATM   14  C   UNL     1     -10.132   8.300  70.534  1.00  0.00    -0.210 C  
HETATM   15  C   UNL     1     -10.189   7.175  69.464  1.00  0.00    -0.201 C  
HETATM   16  C   UNL     1     -11.595   8.294  71.053  1.00  0.00    -0.301 C  
HETATM   17  C   UNL     1     -12.016   6.837  71.056  1.00  0.00    -0.431 C  
HETATM   18  C   UNL     1     -11.380   6.270  69.801  1.00  0.00    -0.506 C  
BRANCH  14  19
HETATM   19  C   UNL     1      -9.041   8.009  71.584  1.00  0.00    -0.194 A  
HETATM   20  C   UNL     1      -6.908   7.047  72.287  1.00  0.00    -0.061 A  
HETATM   21  C   UNL     1      -7.124   7.465  73.596  1.00  0.00    -0.095 A  
HETATM   22  C   UNL     1      -7.857   7.312  71.294  1.00  0.00    -0.096 A  
HETATM   23  C   UNL     1      -8.284   8.160  73.910  1.00  0.00    -0.311 A  
HETATM   24  C   UNL     1      -9.227   8.436  72.914  1.00  0.00    -0.288 A  
ENDBRANCH  14  19
ENDBRANCH  12  14
ENDBRANCH  11  12
ENDBRANCH  10  11
ENDBRANCH   9  10
ENDBRANCH   8   9
ENDBRANCH   7   8
ENDBRANCH   6   7
ENDBRANCH   3   6
ENDBRANCH   2   3
TORSDOF 11
ENDMDL
MODEL      196
REMARK 921   NORMALIZED FREE ENERGY PREDICTED BY IDOCK:   -4.24 KCAL/MOL
REMARK 922        TOTAL FREE ENERGY PREDICTED BY IDOCK:   -7.78 KCAL/MOL
REMARK 923 INTER-LIGAND FREE ENERGY PREDICTED BY IDOCK:   -6.25 KCAL/MOL
REMARK 924 INTRA-LIGAND FREE ENERGY PREDICTED BY IDOCK:   -1.54 KCAL/MOL
REMARK 927      BINDING AFFINITY PREDICTED BY RF-SCORE:    0.00 PKD
ROOT
HETATM    1  C   UNL     1     -11.572   6.311  70.759  1.00  0.00    -0.347 C  
HETATM    2  C   UNL     1     -11.402   7.801  70.468  1.00  0.00    -0.241 C  
ENDROOT
BRANCH   2   3
HETATM    3  N   UNL     1     -11.269   8.650  71.667  1.00  0.00    -0.285 NA 
BRANCH   3   4
HETATM    4  C   UNL     1     -12.394   9.575  71.869  1.00  0.00    -0.373 C  
HETATM    5  C   UNL     1     -13.666   8.974  72.455  1.00  0.00    -0.539 C  
ENDBRANCH   3   4
BRANCH   3   6
HETATM    6  C   UNL     1     -10.974   7.801  72.845  1.00  0.00    -0.407 C  
BRANCH   6   7
HETATM    7  C   UNL     1      -9.517   7.843  73.331  1.00  0.00    -0.275 C  
BRANCH   7   8
HETATM    8  O   UNL     1      -8.777   8.819  72.583  1.00  0.00    -0.408 OA 
BRANCH   8   9
HETATM    9  C   UNL     1      -7.855   8.177  71.699  1.00  0.00    -0.112 C  
BRANCH   9  10
HETATM   10  C   UNL     1      -7.256   9.189  70.726  1.00  0.00    -0.108 C  
BRANCH  10  11
HETATM   11  O   UNL     1      -8.284   9.922  70.033  1.00  0.00    -0.175 OA 
BRANCH  11  12
HETATM   12  C   UNL     1      -7.900  10.496  68.855  1.00  0.00    -0.124 C  
HETATM   13  O   UNL     1      -6.764  10.910  68.641  1.00  0.00    -0.055 OA 
BRANCH  12  14
HETATM   14  C   UNL     1      -9.065  10.630  67.856  1.00  0.00    -0.145 C  
HETATM   15  C   UNL     1      -9.795   9.284  67.596  1.00  0.00    -0.221 C  
HETATM   16  C   UNL     1      -8.413  10.890  66.472  1.00  0.00    -0.159 C  
HETATM   17  C   UNL     1      -9.424  10.404  65.452  1.00  0.00    -0.285 C  
HETATM   18  C   UNL     1     -10.007   9.154  66.082  1.00  0.00    -0.338 C  
BRANCH  14  19
HETATM   19  C   UNL     1     -10.051  11.707  68.352  1.00  0.00    -0.207 A  
HETATM   20  C   UNL     1     -12.120  12.418  69.438  1.00  0.00    -0.237 A  
HETATM   21  C   UNL     1     -11.832  13.752  69.167  1.00  0.00    -0.398 A  
HETATM   22  C   UNL     1     -11.242  11.408  69.032  1.00  0.00    -0.319 A  
HETATM   23  C   UNL     1     -10.659  14.077  68.499  1.00  0.00    -0.260 A  
HETATM   24  C   UNL     1      -9.774  13.067  68.105  1.00  0.00    -0.228 A  
ENDBRANCH  14  19
ENDBRANCH  12  14
ENDBRANCH  11  12
ENDBRANCH  10  11
ENDBRANCH   9  10
ENDBRANCH   8   9
ENDBRANCH   7   8
ENDBRANCH   6   7
ENDBRANCH   3   6
ENDBRANCH   2   3
TORSDOF 11
ENDMDL
MODEL      197
REMARK 921   NORMALIZED FREE ENERGY PREDICTED BY IDOCK:   -4.24 KCAL/MOL
REMARK 922        TOTAL FREE ENERGY PREDICTED BY IDOCK:   -7.78 KCAL/MOL
REMARK 923 INTER-LIGAND FREE ENERGY PREDICTED BY IDOCK:   -6.48 KCAL/MOL
REMARK 924 INTRA-LIGAND FREE ENERGY PREDICTED BY IDOCK:   -1.31 KCAL/MOL
REMARK 927      BINDING AFFINITY PREDICTED BY RF-SCORE:    0.00 PKD
ROOT
HETATM    1  C   UNL     1     -10.821  15.473  65.859  1.00  0.00    -0.317 C  
HETATM    2  C   UNL     1     -10.263  14.069  65.633  1.00  0.00    -0.334 C  
ENDROOT
BRANCH   2   3
HETATM    3  N   UNL     1     -11.286  13.024  65.441  1.00  0.00    -0.292 NA 
BRANCH   3   4
HETATM    4  C   UNL     1     -11.198  12.337  64.144  1.00  0.00    -0.369 C  
HETATM    5  C   UNL     1     -12.516  12.091  63.418  1.00  0.00    -0.625 C  
ENDBRANCH   3   4
BRANCH   3   6
HETATM    6  C   UNL     1     -11.283  12.108  66.604  1.00  0.00    -0.324 C  
BRANCH   6   7
HETATM    7  C   UNL     1     -10.040  12.198  67.503  1.00  0.00    -0.196 C  
BRANCH   7   8
HETATM    8  O   UNL     1     -10.432  12.262  68.881  1.00  0.00    -0.195 OA 
BRANCH   8   9
HETATM    9  C   UNL     1     -11.830  11.999  69.016  1.00  0.00    -0.315 C  
BRANCH   9  10
HETATM   10  C   UNL     1     -12.059  10.739  69.847  1.00  0.00    -0.337 C  
BRANCH  10  11
HETATM   11  O   UNL     1     -10.819  10.058  70.120  1.00  0.00    -0.267 OA 
BRANCH  11  12
HETATM   12  C   UNL     1     -10.650   8.869  69.473  1.00  0.00    -0.228 C  
HETATM   13  O   UNL     1     -10.581   8.765  68.251  1.00  0.00    -0.210 OA 
BRANCH  12  14
HETATM   14  C   UNL     1     -10.628   7.668  70.438  1.00  0.00    -0.233 C  
HETATM   15  C   UNL     1     -12.046   7.115  70.746  1.00  0.00    -0.331 C  
HETATM   16  C   UNL     1     -10.223   8.242  71.823  1.00  0.00    -0.297 C  
HETATM   17  C   UNL     1     -10.794   7.276  72.843  1.00  0.00    -0.380 C  
HETATM   18  C   UNL     1     -12.137   6.880  72.260  1.00  0.00    -0.212 C  
BRANCH  14  19
HETATM   19  C   UNL     1      -9.715   6.564  69.871  1.00  0.00    -0.176 A  
HETATM   20  C   UNL     1      -9.328   4.363  68.883  1.00  0.00    -0.216 A  
HETATM   21  C   UNL     1      -7.952   4.566  68.910  1.00  0.00    -0.074 A  
HETATM   22  C   UNL     1     -10.198   5.348  69.362  1.00  0.00    -0.334 A  
HETATM   23  C   UNL     1      -7.446   5.761  69.404  1.00  0.00    -0.079 A  
HETATM   24  C   UNL     1      -8.317   6.751  69.871  1.00  0.00    -0.135 A  
ENDBRANCH  14  19
ENDBRANCH  12  14
ENDBRANCH  11  12
ENDBRANCH  10  11
ENDBRANCH   9  10
ENDBRANCH   8   9
ENDBRANCH   7   8
ENDBRANCH   6   7
ENDBRANCH   3   6
ENDBRANCH   2   3
TORSDOF 11
ENDMDL
MODEL      198
REMARK 921   NORMALIZED FREE ENERGY PREDICTED BY IDOCK:   -4.24 KCAL/MOL
REMARK 922        TOTAL FREE ENERGY PREDICTED BY IDOCK:   -7.78 KCAL/MOL
REMARK 923 INTER-LIGAND FREE ENERGY PREDICTED BY IDOCK:   -7.21 KCAL/MOL
REMARK 924 INTRA-LIGAND FREE ENERGY PREDICTED BY IDOCK:   -0.57 KCAL/MOL
REMARK 927      BINDING AFFINITY PREDICTED BY RF-SCORE:    0.00 PKD
ROOT
HETATM    1  C   UNL     1      -7.847   8.164  73.115  1.00  0.00    -0.213 C  
HETATM    2  C   UNL     1      -9.277   7.673  73.331  1.00  0.00    -0.255 C  
ENDROOT
BRANCH   2   3
HETATM    3  N   UNL     1     -10.088   7.585  72.102  1.00  0.00    -0.188 NA 
BRANCH   3   4
HETATM    4  C   UNL     1      -9.718   6.463  71.225  1.00  0.00    -0.174 C  
HETATM    5  C   UNL     1     -10.720   6.098  70.136  1.00  0.00    -0.366 C  
ENDBRANCH   3   4
BRANCH   3   6
HETATM    6  C   UNL     1     -11.526   7.620  72.454  1.00  0.00    -0.340 C  
BRANCH   6   7
HETATM    7  C   UNL     1     -12.392   8.529  71.568  1.00  0.00    -0.314 C  
BRANCH   7   8
HETATM    8  O   UNL     1     -12.161   9.906  71.901  1.00  0.00    -0.372 OA 
BRANCH   8   9
HETATM    9  C   UNL     1     -12.825  10.764  70.970  1.00  0.00    -0.385 C  
BRANCH   9  10
HETATM   10  C   UNL     1     -11.807  11.578  70.176  1.00  0.00    -0.356 C  
BRANCH  10  11
HETATM   11  O   UNL     1     -11.311  10.837  69.044  1.00  0.00    -0.243 OA 
BRANCH  11  12
HETATM   12  C   UNL     1     -10.287  11.428  68.361  1.00  0.00    -0.195 C  
HETATM   13  O   UNL     1      -9.764  12.484  68.705  1.00  0.00    -0.163 OA 
BRANCH  12  14
HETATM   14  C   UNL     1      -9.913  10.662  67.078  1.00  0.00    -0.243 C  
HETATM   15  C   UNL     1     -10.300   9.159  67.138  1.00  0.00    -0.337 C  
HETATM   16  C   UNL     1      -8.364  10.573  67.071  1.00  0.00    -0.128 C  
HETATM   17  C   UNL     1      -8.034   9.352  66.234  1.00  0.00    -0.111 C  
HETATM   18  C   UNL     1      -9.108   8.350  66.611  1.00  0.00    -0.202 C  
BRANCH  14  19
HETATM   19  C   UNL     1     -10.556  11.351  65.858  1.00  0.00    -0.317 A  
HETATM   20  C   UNL     1     -10.596  11.996  63.502  1.00  0.00    -0.514 A  
HETATM   21  C   UNL     1     -11.780  12.702  63.690  1.00  0.00    -0.597 A  
HETATM   22  C   UNL     1      -9.990  11.332  64.573  1.00  0.00    -0.334 A  
HETATM   23  C   UNL     1     -12.365  12.733  64.949  1.00  0.00    -0.551 A  
HETATM   24  C   UNL     1     -11.765  12.058  66.018  1.00  0.00    -0.311 A  
ENDBRANCH  14  19
ENDBRANCH  12  14
ENDBRANCH  11  12
ENDBRANCH  10  11
ENDBRANCH   9  10
ENDBRANCH   8   9
ENDBRANCH   7   8
ENDBRANCH   6   7
ENDBRANCH   3   6
ENDBRANCH   2   3
TORSDOF 11
ENDMDL
MODEL      199
REMARK 921   NORMALIZED FREE ENERGY PREDICTED BY IDOCK:   -4.22 KCAL/MOL
REMARK 922        TOTAL FREE ENERGY PREDICTED BY IDOCK:   -7.75 KCAL/MOL
REMARK 923 INTER-LIGAND FREE ENERGY PREDICTED BY IDOCK:   -6.45 KCAL/MOL
REMARK 924 INTRA-LIGAND FREE ENERGY PREDICTED BY IDOCK:   -1.31 KCAL/MOL
REMARK 927      BINDING AFFINITY PREDICTED BY RF-SCORE:    0.00 PKD
ROOT
HETATM    1  C   UNL     1     -13.473  14.539  73.066  1.00  0.00    -0.418 C  
HETATM    2  C   UNL     1     -13.827  14.539  71.580  1.00  0.00    -0.402 C  
ENDROOT
BRANCH   2   3
HETATM    3  N   UNL     1     -12.664  14.531  70.672  1.00  0.00    -0.350 NA 
BRANCH   3   4
HETATM    4  C   UNL     1     -11.483  15.223  71.211  1.00  0.00    -0.380 C  
HETATM    5  C   UNL     1     -11.241  16.640  70.707  1.00  0.00     0.094 C  
ENDBRANCH   3   4
BRANCH   3   6
HETATM    6  C   UNL     1     -12.393  13.145  70.226  1.00  0.00    -0.249 C  
BRANCH   6   7
HETATM    7  C   UNL     1     -11.540  13.023  68.954  1.00  0.00    -0.311 C  
BRANCH   7   8
HETATM    8  O   UNL     1     -12.265  13.533  67.825  1.00  0.00    -0.311 OA 
BRANCH   8   9
HETATM    9  C   UNL     1     -11.587  14.659  67.262  1.00  0.00    -0.387 C  
BRANCH   9  10
HETATM   10  C   UNL     1     -10.325  14.209  66.529  1.00  0.00    -0.284 C  
BRANCH  10  11
HETATM   11  O   UNL     1      -9.340  15.259  66.487  1.00  0.00    -0.241 OA 
BRANCH  11  12
HETATM   12  C   UNL     1      -8.475  15.291  67.542  1.00  0.00    -0.177 C  
HETATM   13  O   UNL     1      -8.328  14.359  68.328  1.00  0.00    -0.143 OA 
BRANCH  12  14
HETATM   14  C   UNL     1      -7.759  16.648  67.678  1.00  0.00    -0.183 C  
HETATM   15  C   UNL     1      -6.504  16.763  66.769  1.00  0.00    -0.226 C  
HETATM   16  C   UNL     1      -7.108  16.648  69.087  1.00  0.00    -0.226 C  
HETATM   17  C   UNL     1      -5.942  17.614  68.993  1.00  0.00    -0.199 C  
HETATM   18  C   UNL     1      -5.371  17.364  67.611  1.00  0.00    -0.129 C  
BRANCH  14  19
HETATM   19  C   UNL     1      -8.754  17.790  67.393  1.00  0.00    -0.235 A  
HETATM   20  C   UNL     1     -10.722  19.137  67.926  1.00  0.00    -0.396 A  
HETATM   21  C   UNL     1     -10.571  19.865  66.750  1.00  0.00    -0.536 A  
HETATM   22  C   UNL     1      -9.827  18.109  68.241  1.00  0.00    -0.360 A  
HETATM   23  C   UNL     1      -9.517  19.574  65.895  1.00  0.00    -0.173 A  
HETATM   24  C   UNL     1      -8.614  18.555  66.217  1.00  0.00    -0.223 A  
ENDBRANCH  14  19
ENDBRANCH  12  14
ENDBRANCH  11  12
ENDBRANCH  10  11
ENDBRANCH   9  10
ENDBRANCH   8   9
ENDBRANCH   7   8
ENDBRANCH   6   7
ENDBRANCH   3   6
ENDBRANCH   2   3
TORSDOF 11
ENDMDL
MODEL      200
REMARK 921   NORMALIZED FREE ENERGY PREDICTED BY IDOCK:   -4.21 KCAL/MOL
REMARK 922        TOTAL FREE ENERGY PREDICTED BY IDOCK:   -7.73 KCAL/MOL
REMARK 923 INTER-LIGAND FREE ENERGY PREDICTED BY IDOCK:   -6.58 KCAL/MOL
REMARK 924 INTRA-LIGAND FREE ENERGY PREDICTED BY IDOCK:   -1.15 KCAL/MOL
REMARK 927      BINDING AFFINITY PREDICTED BY RF-SCORE:    0.00 PKD
ROOT
HETATM    1  C   UNL     1     -11.819  15.938  71.770  1.00  0.00    -0.579 C  
HETATM    2  C   UNL     1     -12.496  15.671  70.428  1.00  0.00    -0.371 C  
ENDROOT
BRANCH   2   3
HETATM    3  N   UNL     1     -11.607  15.788  69.256  1.00  0.00    -0.358 NA 
BRANCH   3   4
HETATM    4  C   UNL     1     -10.434  16.645  69.484  1.00  0.00    -0.281 C  
HETATM    5  C   UNL     1     -10.375  17.940  68.682  1.00  0.00    -0.342 C  
ENDBRANCH   3   4
BRANCH   3   6
HETATM    6  C   UNL     1     -11.272  14.438  68.751  1.00  0.00    -0.260 C  
BRANCH   6   7
HETATM    7  C   UNL     1     -10.184  14.398  67.666  1.00  0.00    -0.229 C  
BRANCH   7   8
HETATM    8  O   UNL     1     -10.783  14.470  66.365  1.00  0.00    -0.299 OA 
BRANCH   8   9
HETATM    9  C   UNL     1     -12.041  13.791  66.355  1.00  0.00    -0.444 C  
BRANCH   9  10
HETATM   10  C   UNL     1     -11.930  12.473  65.594  1.00  0.00    -0.433 C  
BRANCH  10  11
HETATM   11  O   UNL     1     -10.722  11.768  65.939  1.00  0.00    -0.264 OA 
BRANCH  11  12
HETATM   12  C   UNL     1     -10.846  10.853  66.944  1.00  0.00    -0.249 C  
HETATM   13  O   UNL     1     -11.727  10.899  67.799  1.00  0.00    -0.569 OA 
BRANCH  12  14
HETATM   14  C   UNL     1      -9.719   9.802  66.929  1.00  0.00    -0.243 C  
HETATM   15  C   UNL     1      -8.998   9.710  65.556  1.00  0.00    -0.223 C  
HETATM   16  C   UNL     1     -10.424   8.420  66.990  1.00  0.00    -0.375 C  
HETATM   17  C   UNL     1      -9.451   7.443  66.358  1.00  0.00    -0.194 C  
HETATM   18  C   UNL     1      -8.843   8.224  65.209  1.00  0.00    -0.074 C  
BRANCH  14  19
HETATM   19  C   UNL     1      -8.717  10.101  68.061  1.00  0.00    -0.122 A  
HETATM   20  C   UNL     1      -6.868  11.357  69.046  1.00  0.00    -0.102 A  
HETATM   21  C   UNL     1      -6.871  10.531  70.165  1.00  0.00    -0.145 A  
HETATM   22  C   UNL     1      -7.777  11.142  68.006  1.00  0.00    -0.107 A  
HETATM   23  C   UNL     1      -7.792   9.496  70.249  1.00  0.00    -0.180 A  
HETATM   24  C   UNL     1      -8.710   9.289  69.214  1.00  0.00    -0.141 A  
ENDBRANCH  14  19
ENDBRANCH  12  14
ENDBRANCH  11  12
ENDBRANCH  10  11
ENDBRANCH   9  10
ENDBRANCH   8   9
ENDBRANCH   7   8
ENDBRANCH   6   7
ENDBRANCH   3   6
ENDBRANCH   2   3
TORSDOF 11
ENDMDL
MODEL      201
REMARK 921   NORMALIZED FREE ENERGY PREDICTED BY IDOCK:   -4.21 KCAL/MOL
REMARK 922        TOTAL FREE ENERGY PREDICTED BY IDOCK:   -7.73 KCAL/MOL
REMARK 923 INTER-LIGAND FREE ENERGY PREDICTED BY IDOCK:   -6.54 KCAL/MOL
REMARK 924 INTRA-LIGAND FREE ENERGY PREDICTED BY IDOCK:   -1.19 KCAL/MOL
REMARK 927      BINDING AFFINITY PREDICTED BY RF-SCORE:    0.00 PKD
ROOT
HETATM    1  C   UNL     1      -6.729  17.559  66.608  1.00  0.00    -0.256 C  
HETATM    2  C   UNL     1      -7.622  17.141  67.774  1.00  0.00    -0.176 C  
ENDROOT
BRANCH   2   3
HETATM    3  N   UNL     1      -9.053  17.016  67.439  1.00  0.00    -0.221 NA 
BRANCH   3   4
HETATM    4  C   UNL     1      -9.724  18.305  67.211  1.00  0.00    -0.297 C  
HETATM    5  C   UNL     1      -9.695  19.297  68.368  1.00  0.00    -0.474 C  
ENDBRANCH   3   4
BRANCH   3   6
HETATM    6  C   UNL     1      -9.219  16.051  66.329  1.00  0.00    -0.333 C  
BRANCH   6   7
HETATM    7  C   UNL     1     -10.504  16.222  65.502  1.00  0.00    -0.362 C  
BRANCH   7   8
HETATM    8  O   UNL     1     -11.362  15.087  65.686  1.00  0.00    -0.345 OA 
BRANCH   8   9
HETATM    9  C   UNL     1     -11.856  14.624  64.427  1.00  0.00    -0.390 C  
BRANCH   9  10
HETATM   10  C   UNL     1     -11.176  13.314  64.038  1.00  0.00    -0.339 C  
BRANCH  10  11
HETATM   11  O   UNL     1     -11.465  12.269  64.986  1.00  0.00    -0.320 OA 
BRANCH  11  12
HETATM   12  C   UNL     1     -10.538  11.270  65.057  1.00  0.00    -0.289 C  
HETATM   13  O   UNL     1     -10.119  10.663  64.076  1.00  0.00    -0.328 OA 
BRANCH  12  14
HETATM   14  C   UNL     1     -10.132  10.942  66.507  1.00  0.00    -0.269 C  
HETATM   15  C   UNL     1     -11.235  11.305  67.539  1.00  0.00    -0.357 C  
HETATM   16  C   UNL     1      -9.024  11.962  66.880  1.00  0.00    -0.196 C  
HETATM   17  C   UNL     1      -9.075  12.078  68.392  1.00  0.00    -0.158 C  
HETATM   18  C   UNL     1     -10.556  12.023  68.713  1.00  0.00    -0.237 C  
BRANCH  14  19
HETATM   19  C   UNL     1      -9.745   9.454  66.612  1.00  0.00    -0.280 A  
HETATM   20  C   UNL     1      -8.132   7.620  66.527  1.00  0.00    -0.119 A  
HETATM   21  C   UNL     1      -9.141   6.691  66.758  1.00  0.00    -0.154 A  
HETATM   22  C   UNL     1      -8.431   8.984  66.450  1.00  0.00    -0.126 A  
HETATM   23  C   UNL     1     -10.448   7.127  66.926  1.00  0.00    -0.364 A  
HETATM   24  C   UNL     1     -10.745   8.493  66.863  1.00  0.00    -0.156 A  
ENDBRANCH  14  19
ENDBRANCH  12  14
ENDBRANCH  11  12
ENDBRANCH  10  11
ENDBRANCH   9  10
ENDBRANCH   8   9
ENDBRANCH   7   8
ENDBRANCH   6   7
ENDBRANCH   3   6
ENDBRANCH   2   3
TORSDOF 11
ENDMDL
MODEL      202
REMARK 921   NORMALIZED FREE ENERGY PREDICTED BY IDOCK:   -4.19 KCAL/MOL
REMARK 922        TOTAL FREE ENERGY PREDICTED BY IDOCK:   -7.70 KCAL/MOL
REMARK 923 INTER-LIGAND FREE ENERGY PREDICTED BY IDOCK:   -6.62 KCAL/MOL
REMARK 924 INTRA-LIGAND FREE ENERGY PREDICTED BY IDOCK:   -1.08 KCAL/MOL
REMARK 927      BINDING AFFINITY PREDICTED BY RF-SCORE:    0.00 PKD
ROOT
HETATM    1  C   UNL     1      -8.331   7.554  71.046  1.00  0.00    -0.113 C  
HETATM    2  C   UNL     1      -9.504   8.132  71.835  1.00  0.00    -0.197 C  
ENDROOT
BRANCH   2   3
HETATM    3  N   UNL     1     -10.814   7.533  71.516  1.00  0.00    -0.226 NA 
BRANCH   3   4
HETATM    4  C   UNL     1     -10.796   6.064  71.450  1.00  0.00    -0.270 C  
HETATM    5  C   UNL     1     -11.150   5.326  72.736  1.00  0.00    -0.346 C  
ENDBRANCH   3   4
BRANCH   3   6
HETATM    6  C   UNL     1     -11.844   8.079  72.429  1.00  0.00    -0.372 C  
BRANCH   6   7
HETATM    7  C   UNL     1     -13.004   8.814  71.739  1.00  0.00    -0.361 C  
BRANCH   7   8
HETATM    8  O   UNL     1     -13.260  10.061  72.402  1.00  0.00    -0.364 OA 
BRANCH   8   9
HETATM    9  C   UNL     1     -13.225  11.141  71.467  1.00  0.00    -0.279 C  
BRANCH   9  10
HETATM   10  C   UNL     1     -11.985  11.040  70.582  1.00  0.00    -0.365 C  
BRANCH  10  11
HETATM   11  O   UNL     1     -11.790  12.242  69.812  1.00  0.00    -0.313 OA 
BRANCH  11  12
HETATM   12  C   UNL     1     -11.677  12.062  68.464  1.00  0.00    -0.332 C  
HETATM   13  O   UNL     1     -12.150  11.099  67.867  1.00  0.00    -0.627 OA 
BRANCH  12  14
HETATM   14  C   UNL     1     -10.831  13.159  67.790  1.00  0.00    -0.261 C  
HETATM   15  C   UNL     1     -10.764  14.468  68.625  1.00  0.00    -0.257 C  
HETATM   16  C   UNL     1     -11.649  13.631  66.558  1.00  0.00    -0.392 C  
HETATM   17  C   UNL     1     -11.185  15.049  66.285  1.00  0.00    -0.309 C  
HETATM   18  C   UNL     1     -10.994  15.644  67.667  1.00  0.00    -0.315 C  
BRANCH  14  19
HETATM   19  C   UNL     1      -9.419  12.617  67.497  1.00  0.00    -0.186 A  
HETATM   20  C   UNL     1      -7.862  11.128  66.344  1.00  0.00    -0.136 A  
HETATM   21  C   UNL     1      -6.794  11.640  67.074  1.00  0.00    -0.144 A  
HETATM   22  C   UNL     1      -9.159  11.608  66.556  1.00  0.00    -0.200 A  
HETATM   23  C   UNL     1      -7.022  12.642  68.008  1.00  0.00    -0.099 A  
HETATM   24  C   UNL     1      -8.317  13.131  68.210  1.00  0.00    -0.152 A  
ENDBRANCH  14  19
ENDBRANCH  12  14
ENDBRANCH  11  12
ENDBRANCH  10  11
ENDBRANCH   9  10
ENDBRANCH   8   9
ENDBRANCH   7   8
ENDBRANCH   6   7
ENDBRANCH   3   6
ENDBRANCH   2   3
TORSDOF 11
ENDMDL
MODEL      203
REMARK 921   NORMALIZED FREE ENERGY PREDICTED BY IDOCK:   -4.19 KCAL/MOL
REMARK 922        TOTAL FREE ENERGY PREDICTED BY IDOCK:   -7.70 KCAL/MOL
REMARK 923 INTER-LIGAND FREE ENERGY PREDICTED BY IDOCK:   -6.30 KCAL/MOL
REMARK 924 INTRA-LIGAND FREE ENERGY PREDICTED BY IDOCK:   -1.40 KCAL/MOL
REMARK 927      BINDING AFFINITY PREDICTED BY RF-SCORE:    0.00 PKD
ROOT
HETATM    1  C   UNL     1     -10.572   7.372  67.369  1.00  0.00    -0.371 C  
HETATM    2  C   UNL     1      -9.621   8.268  66.579  1.00  0.00    -0.244 C  
ENDROOT
BRANCH   2   3
HETATM    3  N   UNL     1      -8.204   7.860  66.636  1.00  0.00    -0.116 NA 
BRANCH   3   4
HETATM    4  C   UNL     1      -7.422   8.266  65.458  1.00  0.00    -0.077 C  
HETATM    5  C   UNL     1      -7.619   7.435  64.196  1.00  0.00    -0.109 C  
ENDBRANCH   3   4
BRANCH   3   6
HETATM    6  C   UNL     1      -7.614   8.293  67.923  1.00  0.00    -0.102 C  
BRANCH   6   7
HETATM    7  C   UNL     1      -6.169   8.807  67.839  1.00  0.00    -0.052 C  
BRANCH   7   8
HETATM    8  O   UNL     1      -6.133  10.219  68.086  1.00  0.00    -0.048 OA 
BRANCH   8   9
HETATM    9  C   UNL     1      -7.440  10.705  68.401  1.00  0.00    -0.093 C  
BRANCH   9  10
HETATM   10  C   UNL     1      -7.864  11.781  67.405  1.00  0.00    -0.155 C  
BRANCH  10  11
HETATM   11  O   UNL     1      -8.724  12.758  68.022  1.00  0.00    -0.178 OA 
BRANCH  11  12
HETATM   12  C   UNL     1      -9.394  13.576  67.158  1.00  0.00    -0.240 C  
HETATM   13  O   UNL     1      -8.893  14.568  66.637  1.00  0.00    -0.243 OA 
BRANCH  12  14
HETATM   14  C   UNL     1     -10.864  13.156  66.967  1.00  0.00    -0.278 C  
HETATM   15  C   UNL     1     -11.060  12.162  65.790  1.00  0.00    -0.362 C  
HETATM   16  C   UNL     1     -11.598  14.411  66.424  1.00  0.00    -0.383 C  
HETATM   17  C   UNL     1     -12.798  13.879  65.665  1.00  0.00    -0.467 C  
HETATM   18  C   UNL     1     -12.273  12.633  64.978  1.00  0.00    -0.535 C  
BRANCH  14  19
HETATM   19  C   UNL     1     -11.410  12.569  68.283  1.00  0.00    -0.331 A  
HETATM   20  C   UNL     1     -12.143  10.712  69.692  1.00  0.00    -0.312 A  
HETATM   21  C   UNL     1     -12.481  11.591  70.716  1.00  0.00    -0.444 A  
HETATM   22  C   UNL     1     -11.618  11.196  68.489  1.00  0.00    -0.385 A  
HETATM   23  C   UNL     1     -12.281  12.954  70.542  1.00  0.00    -0.395 A  
HETATM   24  C   UNL     1     -11.744  13.437  69.343  1.00  0.00    -0.382 A  
ENDBRANCH  14  19
ENDBRANCH  12  14
ENDBRANCH  11  12
ENDBRANCH  10  11
ENDBRANCH   9  10
ENDBRANCH   8   9
ENDBRANCH   7   8
ENDBRANCH   6   7
ENDBRANCH   3   6
ENDBRANCH   2   3
TORSDOF 11
ENDMDL
MODEL      204
REMARK 921   NORMALIZED FREE ENERGY PREDICTED BY IDOCK:   -4.18 KCAL/MOL
REMARK 922        TOTAL FREE ENERGY PREDICTED BY IDOCK:   -7.69 KCAL/MOL
REMARK 923 INTER-LIGAND FREE ENERGY PREDICTED BY IDOCK:   -6.57 KCAL/MOL
REMARK 924 INTRA-LIGAND FREE ENERGY PREDICTED BY IDOCK:   -1.12 KCAL/MOL
REMARK 927      BINDING AFFINITY PREDICTED BY RF-SCORE:    0.00 PKD
ROOT
HETATM    1  C   UNL     1     -11.744  12.652  65.913  1.00  0.00    -0.470 C  
HETATM    2  C   UNL     1     -11.460  11.801  67.149  1.00  0.00    -0.295 C  
ENDROOT
BRANCH   2   3
HETATM    3  N   UNL     1     -11.041  12.567  68.338  1.00  0.00    -0.241 NA 
BRANCH   3   4
HETATM    4  C   UNL     1     -10.913  14.013  68.100  1.00  0.00    -0.252 C  
HETATM    5  C   UNL     1     -11.546  14.928  69.141  1.00  0.00    -0.331 C  
ENDBRANCH   3   4
BRANCH   3   6
HETATM    6  C   UNL     1     -11.917  12.225  69.482  1.00  0.00    -0.270 C  
BRANCH   6   7
HETATM    7  C   UNL     1     -12.101  10.720  69.735  1.00  0.00    -0.318 C  
BRANCH   7   8
HETATM    8  O   UNL     1     -11.871  10.422  71.120  1.00  0.00    -0.356 OA 
BRANCH   8   9
HETATM    9  C   UNL     1     -13.102  10.112  71.776  1.00  0.00    -0.463 C  
BRANCH   9  10
HETATM   10  C   UNL     1     -13.102   8.662  72.253  1.00  0.00    -0.372 C  
BRANCH  10  11
HETATM   11  O   UNL     1     -11.762   8.145  72.361  1.00  0.00    -0.353 OA 
BRANCH  11  12
HETATM   12  C   UNL     1     -11.473   7.092  71.541  1.00  0.00    -0.268 C  
HETATM   13  O   UNL     1     -12.016   6.910  70.455  1.00  0.00    -0.355 OA 
BRANCH  12  14
HETATM   14  C   UNL     1     -10.448   6.124  72.162  1.00  0.00    -0.237 C  
HETATM   15  C   UNL     1     -10.072   4.953  71.212  1.00  0.00    -0.269 C  
HETATM   16  C   UNL     1     -11.204   5.366  73.286  1.00  0.00    -0.322 C  
HETATM   17  C   UNL     1     -10.467   4.051  73.453  1.00  0.00    -0.251 C  
HETATM   18  C   UNL     1     -10.095   3.659  72.036  1.00  0.00    -0.199 C  
BRANCH  14  19
HETATM   19  C   UNL     1      -9.195   6.907  72.599  1.00  0.00    -0.151 A  
HETATM   20  C   UNL     1      -7.774   7.964  74.282  1.00  0.00    -0.246 A  
HETATM   21  C   UNL     1      -6.897   8.408  73.298  1.00  0.00    -0.113 A  
HETATM   22  C   UNL     1      -8.911   7.226  73.936  1.00  0.00    -0.245 A  
HETATM   23  C   UNL     1      -7.150   8.103  71.967  1.00  0.00    -0.091 A  
HETATM   24  C   UNL     1      -8.281   7.354  71.623  1.00  0.00    -0.105 A  
ENDBRANCH  14  19
ENDBRANCH  12  14
ENDBRANCH  11  12
ENDBRANCH  10  11
ENDBRANCH   9  10
ENDBRANCH   8   9
ENDBRANCH   7   8
ENDBRANCH   6   7
ENDBRANCH   3   6
ENDBRANCH   2   3
TORSDOF 11
ENDMDL
MODEL      205
REMARK 921   NORMALIZED FREE ENERGY PREDICTED BY IDOCK:   -4.18 KCAL/MOL
REMARK 922        TOTAL FREE ENERGY PREDICTED BY IDOCK:   -7.69 KCAL/MOL
REMARK 923 INTER-LIGAND FREE ENERGY PREDICTED BY IDOCK:   -6.39 KCAL/MOL
REMARK 924 INTRA-LIGAND FREE ENERGY PREDICTED BY IDOCK:   -1.30 KCAL/MOL
REMARK 927      BINDING AFFINITY PREDICTED BY RF-SCORE:    0.00 PKD
ROOT
HETATM    1  C   UNL     1      -8.800   7.148  69.149  1.00  0.00    -0.135 C  
HETATM    2  C   UNL     1     -10.219   6.585  69.128  1.00  0.00    -0.180 C  
ENDROOT
BRANCH   2   3
HETATM    3  N   UNL     1     -10.804   6.344  70.461  1.00  0.00    -0.258 NA 
BRANCH   3   4
HETATM    4  C   UNL     1     -10.070   5.351  71.260  1.00  0.00    -0.209 C  
HETATM    5  C   UNL     1      -9.816   4.002  70.597  1.00  0.00    -0.229 C  
ENDBRANCH   3   4
BRANCH   3   6
HETATM    6  C   UNL     1     -11.008   7.636  71.154  1.00  0.00    -0.246 C  
BRANCH   6   7
HETATM    7  C   UNL     1     -12.472   7.981  71.472  1.00  0.00    -0.310 C  
BRANCH   7   8
HETATM    8  O   UNL     1     -12.543   9.240  72.156  1.00  0.00    -0.374 OA 
BRANCH   8   9
HETATM    9  C   UNL     1     -13.294  10.184  71.389  1.00  0.00    -0.325 C  
BRANCH   9  10
HETATM   10  C   UNL     1     -12.415  11.365  70.987  1.00  0.00    -0.383 C  
BRANCH  10  11
HETATM   11  O   UNL     1     -11.757  11.126  69.728  1.00  0.00    -0.281 OA 
BRANCH  11  12
HETATM   12  C   UNL     1     -11.580  12.228  68.943  1.00  0.00    -0.316 C  
HETATM   13  O   UNL     1     -12.183  13.284  69.109  1.00  0.00    -0.266 OA 
BRANCH  12  14
HETATM   14  C   UNL     1     -10.595  11.976  67.785  1.00  0.00    -0.234 C  
HETATM   15  C   UNL     1     -11.017  10.784  66.882  1.00  0.00    -0.255 C  
HETATM   16  C   UNL     1      -9.304  11.413  68.439  1.00  0.00    -0.194 C  
HETATM   17  C   UNL     1      -8.623  10.602  67.353  1.00  0.00    -0.122 C  
HETATM   18  C   UNL     1      -9.770   9.928  66.625  1.00  0.00    -0.252 C  
BRANCH  14  19
HETATM   19  C   UNL     1     -10.426  13.265  66.958  1.00  0.00    -0.249 A  
HETATM   20  C   UNL     1     -10.913  14.685  65.030  1.00  0.00    -0.415 A  
HETATM   21  C   UNL     1     -10.001  15.638  65.471  1.00  0.00    -0.364 A  
HETATM   22  C   UNL     1     -11.120  13.511  65.762  1.00  0.00    -0.295 A  
HETATM   23  C   UNL     1      -9.304  15.423  66.653  1.00  0.00    -0.288 A  
HETATM   24  C   UNL     1      -9.521  14.255  67.392  1.00  0.00    -0.211 A  
ENDBRANCH  14  19
ENDBRANCH  12  14
ENDBRANCH  11  12
ENDBRANCH  10  11
ENDBRANCH   9  10
ENDBRANCH   8   9
ENDBRANCH   7   8
ENDBRANCH   6   7
ENDBRANCH   3   6
ENDBRANCH   2   3
TORSDOF 11
ENDMDL
MODEL      206
REMARK 921   NORMALIZED FREE ENERGY PREDICTED BY IDOCK:   -4.18 KCAL/MOL
REMARK 922        TOTAL FREE ENERGY PREDICTED BY IDOCK:   -7.68 KCAL/MOL
REMARK 923 INTER-LIGAND FREE ENERGY PREDICTED BY IDOCK:   -6.80 KCAL/MOL
REMARK 924 INTRA-LIGAND FREE ENERGY PREDICTED BY IDOCK:   -0.88 KCAL/MOL
REMARK 927      BINDING AFFINITY PREDICTED BY RF-SCORE:    0.00 PKD
ROOT
HETATM    1  C   UNL     1     -12.415  16.006  72.345  1.00  0.00    -0.549 C  
HETATM    2  C   UNL     1     -11.548  16.090  71.091  1.00  0.00    -0.443 C  
ENDROOT
BRANCH   2   3
HETATM    3  N   UNL     1     -12.159  15.506  69.882  1.00  0.00    -0.359 NA 
BRANCH   3   4
HETATM    4  C   UNL     1     -11.531  15.946  68.627  1.00  0.00    -0.391 C  
HETATM    5  C   UNL     1     -10.647  17.184  68.711  1.00  0.00    -0.336 C  
ENDBRANCH   3   4
BRANCH   3   6
HETATM    6  C   UNL     1     -12.237  14.034  70.028  1.00  0.00    -0.352 C  
BRANCH   6   7
HETATM    7  C   UNL     1     -12.023  13.238  68.731  1.00  0.00    -0.300 C  
BRANCH   7   8
HETATM    8  O   UNL     1     -11.529  11.925  69.035  1.00  0.00    -0.247 OA 
BRANCH   8   9
HETATM    9  C   UNL     1     -11.939  11.528  70.346  1.00  0.00    -0.368 C  
BRANCH   9  10
HETATM   10  C   UNL     1     -11.825  10.014  70.505  1.00  0.00    -0.303 C  
BRANCH  10  11
HETATM   11  O   UNL     1     -10.511   9.546  70.145  1.00  0.00    -0.217 OA 
BRANCH  11  12
HETATM   12  C   UNL     1     -10.458   8.746  69.041  1.00  0.00    -0.203 C  
HETATM   13  O   UNL     1     -10.646   9.153  67.898  1.00  0.00    -0.240 OA 
BRANCH  12  14
HETATM   14  C   UNL     1     -10.207   7.267  69.395  1.00  0.00    -0.193 C  
HETATM   15  C   UNL     1     -11.433   6.591  70.066  1.00  0.00    -0.476 C  
HETATM   16  C   UNL     1      -9.190   7.276  70.568  1.00  0.00    -0.158 C  
HETATM   17  C   UNL     1      -9.418   5.973  71.308  1.00  0.00    -0.180 C  
HETATM   18  C   UNL     1     -10.923   5.787  71.269  1.00  0.00    -0.299 C  
BRANCH  14  19
HETATM   19  C   UNL     1      -9.774   6.499  68.131  1.00  0.00    -0.126 A  
HETATM   20  C   UNL     1      -8.096   5.708  66.541  1.00  0.00    -0.105 A  
HETATM   21  C   UNL     1      -9.082   5.119  65.756  1.00  0.00    -0.158 A  
HETATM   22  C   UNL     1      -8.438   6.392  67.711  1.00  0.00    -0.117 A  
HETATM   23  C   UNL     1     -10.411   5.205  66.149  1.00  0.00    -0.301 A  
HETATM   24  C   UNL     1     -10.752   5.879  67.327  1.00  0.00    -0.380 A  
ENDBRANCH  14  19
ENDBRANCH  12  14
ENDBRANCH  11  12
ENDBRANCH  10  11
ENDBRANCH   9  10
ENDBRANCH   8   9
ENDBRANCH   7   8
ENDBRANCH   6   7
ENDBRANCH   3   6
ENDBRANCH   2   3
TORSDOF 11
ENDMDL
MODEL      207
REMARK 921   NORMALIZED FREE ENERGY PREDICTED BY IDOCK:   -4.16 KCAL/MOL
REMARK 922        TOTAL FREE ENERGY PREDICTED BY IDOCK:   -7.66 KCAL/MOL
REMARK 923 INTER-LIGAND FREE ENERGY PREDICTED BY IDOCK:   -6.08 KCAL/MOL
REMARK 924 INTRA-LIGAND FREE ENERGY PREDICTED BY IDOCK:   -1.58 KCAL/MOL
REMARK 927      BINDING AFFINITY PREDICTED BY RF-SCORE:    0.00 PKD
ROOT
HETATM    1  C   UNL     1     -11.365   6.250  69.679  1.00  0.00    -0.492 C  
HETATM    2  C   UNL     1     -10.243   5.221  69.563  1.00  0.00    -0.268 C  
ENDROOT
BRANCH   2   3
HETATM    3  N   UNL     1      -9.440   5.324  68.329  1.00  0.00    -0.118 NA 
BRANCH   3   4
HETATM    4  C   UNL     1      -9.781   4.318  67.312  1.00  0.00    -0.175 C  
HETATM    5  C   UNL     1      -9.418   4.662  65.873  1.00  0.00    -0.174 C  
ENDBRANCH   3   4
BRANCH   3   6
HETATM    6  C   UNL     1      -9.478   6.717  67.828  1.00  0.00    -0.118 C  
BRANCH   6   7
HETATM    7  C   UNL     1      -8.135   7.463  67.871  1.00  0.00    -0.119 C  
BRANCH   7   8
HETATM    8  O   UNL     1      -7.671   7.718  66.537  1.00  0.00    -0.093 OA 
BRANCH   8   9
HETATM    9  C   UNL     1      -7.017   8.987  66.470  1.00  0.00    -0.080 C  
BRANCH   9  10
HETATM   10  C   UNL     1      -7.553   9.922  67.551  1.00  0.00    -0.091 C  
BRANCH  10  11
HETATM   11  O   UNL     1      -8.446  10.908  66.997  1.00  0.00    -0.129 OA 
BRANCH  11  12
HETATM   12  C   UNL     1      -9.776  10.625  67.116  1.00  0.00    -0.171 C  
HETATM   13  O   UNL     1     -10.338   9.732  66.490  1.00  0.00    -0.234 OA 
BRANCH  12  14
HETATM   14  C   UNL     1     -10.503  11.595  68.067  1.00  0.00    -0.217 C  
HETATM   15  C   UNL     1     -11.724  12.289  67.403  1.00  0.00    -0.405 C  
HETATM   16  C   UNL     1      -9.544  12.800  68.263  1.00  0.00    -0.211 C  
HETATM   17  C   UNL     1     -10.436  13.971  68.629  1.00  0.00    -0.249 C  
HETATM   18  C   UNL     1     -11.664  13.780  67.759  1.00  0.00    -0.393 C  
BRANCH  14  19
HETATM   19  C   UNL     1     -10.921  10.849  69.349  1.00  0.00    -0.304 A  
HETATM   20  C   UNL     1     -10.486   9.341  71.221  1.00  0.00    -0.408 A  
HETATM   21  C   UNL     1     -11.801   9.464  71.658  1.00  0.00    -0.464 A  
HETATM   22  C   UNL     1     -10.053  10.021  70.079  1.00  0.00    -0.289 A  
HETATM   23  C   UNL     1     -12.680  10.280  70.958  1.00  0.00    -0.491 A  
HETATM   24  C   UNL     1     -12.243  10.970  69.822  1.00  0.00    -0.388 A  
ENDBRANCH  14  19
ENDBRANCH  12  14
ENDBRANCH  11  12
ENDBRANCH  10  11
ENDBRANCH   9  10
ENDBRANCH   8   9
ENDBRANCH   7   8
ENDBRANCH   6   7
ENDBRANCH   3   6
ENDBRANCH   2   3
TORSDOF 11
ENDMDL
MODEL      208
REMARK 921   NORMALIZED FREE ENERGY PREDICTED BY IDOCK:   -4.15 KCAL/MOL
REMARK 922        TOTAL FREE ENERGY PREDICTED BY IDOCK:   -7.64 KCAL/MOL
REMARK 923 INTER-LIGAND FREE ENERGY PREDICTED BY IDOCK:   -6.80 KCAL/MOL
REMARK 924 INTRA-LIGAND FREE ENERGY PREDICTED BY IDOCK:   -0.84 KCAL/MOL
REMARK 927      BINDING AFFINITY PREDICTED BY RF-SCORE:    0.00 PKD
ROOT
HETATM    1  C   UNL     1      -9.237  15.241  66.025  1.00  0.00    -0.308 C  
HETATM    2  C   UNL     1     -10.627  15.538  65.466  1.00  0.00    -0.396 C  
ENDROOT
BRANCH   2   3
HETATM    3  N   UNL     1     -11.409  14.343  65.097  1.00  0.00    -0.343 NA 
BRANCH   3   4
HETATM    4  C   UNL     1     -10.613  13.289  64.450  1.00  0.00    -0.419 C  
HETATM    5  C   UNL     1     -11.338  12.431  63.419  1.00  0.00    -0.507 C  
ENDBRANCH   3   4
BRANCH   3   6
HETATM    6  C   UNL     1     -12.180  13.873  66.271  1.00  0.00    -0.461 C  
BRANCH   6   7
HETATM    7  C   UNL     1     -11.417  12.938  67.222  1.00  0.00    -0.336 C  
BRANCH   7   8
HETATM    8  O   UNL     1     -12.148  11.717  67.402  1.00  0.00    -0.605 OA 
BRANCH   8   9
HETATM    9  C   UNL     1     -11.258  10.643  67.715  1.00  0.00    -0.313 C  
BRANCH   9  10
HETATM   10  C   UNL     1     -10.605  10.871  69.076  1.00  0.00    -0.216 C  
BRANCH  10  11
HETATM   11  O   UNL     1      -9.675   9.819  69.395  1.00  0.00    -0.179 OA 
BRANCH  11  12
HETATM   12  C   UNL     1     -10.068   8.974  70.393  1.00  0.00    -0.207 C  
HETATM   13  O   UNL     1     -10.456   9.357  71.493  1.00  0.00    -0.337 OA 
BRANCH  12  14
HETATM   14  C   UNL     1      -9.900   7.491  70.011  1.00  0.00    -0.180 C  
HETATM   15  C   UNL     1      -8.525   7.187  69.356  1.00  0.00    -0.134 C  
HETATM   16  C   UNL     1     -10.861   7.247  68.817  1.00  0.00    -0.121 C  
HETATM   17  C   UNL     1     -10.275   6.070  68.061  1.00  0.00    -0.218 C  
HETATM   18  C   UNL     1      -8.777   6.301  68.130  1.00  0.00    -0.115 C  
BRANCH  14  19
HETATM   19  C   UNL     1     -10.128   6.607  71.253  1.00  0.00    -0.207 A  
HETATM   20  C   UNL     1     -11.554   5.364  72.800  1.00  0.00    -0.293 A  
HETATM   21  C   UNL     1     -10.456   5.042  73.591  1.00  0.00    -0.292 A  
HETATM   22  C   UNL     1     -11.392   6.141  71.648  1.00  0.00    -0.341 A  
HETATM   23  C   UNL     1      -9.193   5.486  73.222  1.00  0.00    -0.132 A  
HETATM   24  C   UNL     1      -9.030   6.252  72.063  1.00  0.00    -0.142 A  
ENDBRANCH  14  19
ENDBRANCH  12  14
ENDBRANCH  11  12
ENDBRANCH  10  11
ENDBRANCH   9  10
ENDBRANCH   8   9
ENDBRANCH   7   8
ENDBRANCH   6   7
ENDBRANCH   3   6
ENDBRANCH   2   3
TORSDOF 11
ENDMDL
MODEL      209
REMARK 921   NORMALIZED FREE ENERGY PREDICTED BY IDOCK:   -4.14 KCAL/MOL
REMARK 922        TOTAL FREE ENERGY PREDICTED BY IDOCK:   -7.63 KCAL/MOL
REMARK 923 INTER-LIGAND FREE ENERGY PREDICTED BY IDOCK:   -7.03 KCAL/MOL
REMARK 924 INTRA-LIGAND FREE ENERGY PREDICTED BY IDOCK:   -0.60 KCAL/MOL
REMARK 927      BINDING AFFINITY PREDICTED BY RF-SCORE:    0.00 PKD
ROOT
HETATM    1  C   UNL     1     -10.816  16.803  67.779  1.00  0.00    -0.285 C  
HETATM    2  C   UNL     1     -10.796  15.280  67.883  1.00  0.00    -0.288 C  
ENDROOT
BRANCH   2   3
HETATM    3  N   UNL     1     -11.697  14.587  66.943  1.00  0.00    -0.385 NA 
BRANCH   3   4
HETATM    4  C   UNL     1     -11.135  14.422  65.594  1.00  0.00    -0.321 C  
HETATM    5  C   UNL     1     -11.258  15.618  64.658  1.00  0.00    -0.380 C  
ENDBRANCH   3   4
BRANCH   3   6
HETATM    6  C   UNL     1     -12.173  13.324  67.551  1.00  0.00    -0.164 C  
BRANCH   6   7
HETATM    7  C   UNL     1     -11.794  13.128  69.028  1.00  0.00    -0.313 C  
BRANCH   7   8
HETATM    8  O   UNL     1     -11.498  11.747  69.280  1.00  0.00    -0.259 OA 
BRANCH   8   9
HETATM    9  C   UNL     1     -11.070  11.099  68.080  1.00  0.00    -0.276 C  
BRANCH   9  10
HETATM   10  C   UNL     1      -9.708  10.440  68.286  1.00  0.00    -0.151 C  
BRANCH  10  11
HETATM   11  O   UNL     1      -9.748   9.479  69.358  1.00  0.00    -0.166 OA 
BRANCH  11  12
HETATM   12  C   UNL     1     -10.250   8.253  69.027  1.00  0.00    -0.217 C  
HETATM   13  O   UNL     1     -10.478   7.903  67.873  1.00  0.00    -0.217 OA 
BRANCH  12  14
HETATM   14  C   UNL     1     -10.565   7.390  70.263  1.00  0.00    -0.241 C  
HETATM   15  C   UNL     1      -9.368   7.288  71.249  1.00  0.00    -0.155 C  
HETATM   16  C   UNL     1     -10.656   5.928  69.750  1.00  0.00    -0.374 C  
HETATM   17  C   UNL     1     -10.332   5.058  70.950  1.00  0.00    -0.260 C  
HETATM   18  C   UNL     1      -9.231   5.818  71.665  1.00  0.00    -0.158 C  
BRANCH  14  19
HETATM   19  C   UNL     1     -11.819   7.938  70.972  1.00  0.00    -0.285 A  
HETATM   20  C   UNL     1     -13.024   9.644  72.239  1.00  0.00    -0.440 A  
HETATM   21  C   UNL     1     -14.151   8.831  72.309  1.00  0.00    -0.511 A  
HETATM   22  C   UNL     1     -11.871   9.201  71.583  1.00  0.00    -0.443 A  
HETATM   23  C   UNL     1     -14.129   7.579  71.710  1.00  0.00    -0.509 A  
HETATM   24  C   UNL     1     -12.980   7.141  71.042  1.00  0.00    -0.231 A  
ENDBRANCH  14  19
ENDBRANCH  12  14
ENDBRANCH  11  12
ENDBRANCH  10  11
ENDBRANCH   9  10
ENDBRANCH   8   9
ENDBRANCH   7   8
ENDBRANCH   6   7
ENDBRANCH   3   6
ENDBRANCH   2   3
TORSDOF 11
ENDMDL
MODEL      210
REMARK 921   NORMALIZED FREE ENERGY PREDICTED BY IDOCK:   -4.12 KCAL/MOL
REMARK 922        TOTAL FREE ENERGY PREDICTED BY IDOCK:   -7.58 KCAL/MOL
REMARK 923 INTER-LIGAND FREE ENERGY PREDICTED BY IDOCK:   -6.50 KCAL/MOL
REMARK 924 INTRA-LIGAND FREE ENERGY PREDICTED BY IDOCK:   -1.08 KCAL/MOL
REMARK 927      BINDING AFFINITY PREDICTED BY RF-SCORE:    0.00 PKD
ROOT
HETATM    1  C   UNL     1      -8.731   6.407  69.973  1.00  0.00    -0.142 C  
HETATM    2  C   UNL     1      -9.438   6.423  68.620  1.00  0.00    -0.122 C  
ENDROOT
BRANCH   2   3
HETATM    3  N   UNL     1      -8.557   6.174  67.463  1.00  0.00    -0.107 NA 
BRANCH   3   4
HETATM    4  C   UNL     1      -8.332   4.748  67.183  1.00  0.00    -0.106 C  
HETATM    5  C   UNL     1      -9.578   3.900  66.953  1.00  0.00    -0.226 C  
ENDBRANCH   3   4
BRANCH   3   6
HETATM    6  C   UNL     1      -9.043   6.944  66.295  1.00  0.00    -0.141 C  
BRANCH   6   7
HETATM    7  C   UNL     1      -8.435   8.346  66.139  1.00  0.00    -0.131 C  
BRANCH   7   8
HETATM    8  O   UNL     1      -8.768   8.887  64.852  1.00  0.00    -0.184 OA 
BRANCH   8   9
HETATM    9  C   UNL     1      -8.807  10.314  64.904  1.00  0.00    -0.192 C  
BRANCH   9  10
HETATM   10  C   UNL     1     -10.250  10.810  64.868  1.00  0.00    -0.320 C  
BRANCH  10  11
HETATM   11  O   UNL     1     -10.325  12.226  65.122  1.00  0.00    -0.273 OA 
BRANCH  11  12
HETATM   12  C   UNL     1     -11.423  12.637  65.821  1.00  0.00    -0.358 C  
HETATM   13  O   UNL     1     -12.576  12.408  65.469  1.00  0.00    -0.616 OA 
BRANCH  12  14
HETATM   14  C   UNL     1     -11.055  13.481  67.057  1.00  0.00    -0.310 C  
HETATM   15  C   UNL     1     -11.653  14.913  67.010  1.00  0.00    -0.314 C  
HETATM   16  C   UNL     1      -9.538  13.785  66.928  1.00  0.00    -0.263 C  
HETATM   17  C   UNL     1      -9.315  15.062  67.717  1.00  0.00    -0.186 C  
HETATM   18  C   UNL     1     -10.548  15.895  67.420  1.00  0.00    -0.315 C  
BRANCH  14  19
HETATM   19  C   UNL     1     -11.490  12.741  68.337  1.00  0.00    -0.349 A  
HETATM   20  C   UNL     1     -12.420  12.676  70.595  1.00  0.00    -0.323 A  
HETATM   21  C   UNL     1     -12.197  11.305  70.673  1.00  0.00    -0.489 A  
HETATM   22  C   UNL     1     -12.067  13.385  69.443  1.00  0.00    -0.321 A  
HETATM   23  C   UNL     1     -11.632  10.640  69.593  1.00  0.00    -0.368 A  
HETATM   24  C   UNL     1     -11.290  11.349  68.435  1.00  0.00    -0.346 A  
ENDBRANCH  14  19
ENDBRANCH  12  14
ENDBRANCH  11  12
ENDBRANCH  10  11
ENDBRANCH   9  10
ENDBRANCH   8   9
ENDBRANCH   7   8
ENDBRANCH   6   7
ENDBRANCH   3   6
ENDBRANCH   2   3
TORSDOF 11
ENDMDL
MODEL      211
REMARK 921   NORMALIZED FREE ENERGY PREDICTED BY IDOCK:   -4.10 KCAL/MOL
REMARK 922        TOTAL FREE ENERGY PREDICTED BY IDOCK:   -7.56 KCAL/MOL
REMARK 923 INTER-LIGAND FREE ENERGY PREDICTED BY IDOCK:   -6.27 KCAL/MOL
REMARK 924 INTRA-LIGAND FREE ENERGY PREDICTED BY IDOCK:   -1.28 KCAL/MOL
REMARK 927      BINDING AFFINITY PREDICTED BY RF-SCORE:    0.00 PKD
ROOT
HETATM    1  C   UNL     1     -11.512   8.973  71.039  1.00  0.00    -0.358 C  
HETATM    2  C   UNL     1     -11.025   7.934  70.031  1.00  0.00    -0.207 C  
ENDROOT
BRANCH   2   3
HETATM    3  N   UNL     1      -9.592   8.031  69.694  1.00  0.00    -0.167 NA 
BRANCH   3   4
HETATM    4  C   UNL     1      -8.711   7.321  70.634  1.00  0.00    -0.147 C  
HETATM    5  C   UNL     1      -7.601   8.146  71.274  1.00  0.00    -0.084 C  
ENDBRANCH   3   4
BRANCH   3   6
HETATM    6  C   UNL     1      -9.389   7.646  68.278  1.00  0.00    -0.145 C  
BRANCH   6   7
HETATM    7  C   UNL     1     -10.403   8.242  67.289  1.00  0.00    -0.302 C  
BRANCH   7   8
HETATM    8  O   UNL     1     -10.223   9.662  67.195  1.00  0.00    -0.212 OA 
BRANCH   8   9
HETATM    9  C   UNL     1      -8.966   9.969  66.589  1.00  0.00    -0.139 C  
BRANCH   9  10
HETATM   10  C   UNL     1      -8.242  11.053  67.383  1.00  0.00    -0.122 C  
BRANCH  10  11
HETATM   11  O   UNL     1      -8.620  12.370  66.938  1.00  0.00    -0.195 OA 
BRANCH  11  12
HETATM   12  C   UNL     1      -8.876  13.271  67.931  1.00  0.00    -0.192 C  
HETATM   13  O   UNL     1      -8.004  13.766  68.639  1.00  0.00    -0.138 OA 
BRANCH  12  14
HETATM   14  C   UNL     1     -10.383  13.541  68.110  1.00  0.00    -0.247 C  
HETATM   15  C   UNL     1     -10.672  14.794  68.981  1.00  0.00    -0.251 C  
HETATM   16  C   UNL     1     -10.912  12.408  69.029  1.00  0.00    -0.247 C  
HETATM   17  C   UNL     1     -12.146  12.978  69.702  1.00  0.00    -0.304 C  
HETATM   18  C   UNL     1     -11.776  14.423  69.980  1.00  0.00    -0.360 C  
BRANCH  14  19
HETATM   19  C   UNL     1     -11.055  13.661  66.728  1.00  0.00    -0.315 A  
HETATM   20  C   UNL     1     -11.584  14.866  64.670  1.00  0.00    -0.395 A  
HETATM   21  C   UNL     1     -12.383  13.815  64.231  1.00  0.00    -0.384 A  
HETATM   22  C   UNL     1     -10.931  14.791  65.904  1.00  0.00    -0.335 A  
HETATM   23  C   UNL     1     -12.520  12.683  65.023  1.00  0.00    -0.556 A  
HETATM   24  C   UNL     1     -11.857  12.603  66.253  1.00  0.00    -0.471 A  
ENDBRANCH  14  19
ENDBRANCH  12  14
ENDBRANCH  11  12
ENDBRANCH  10  11
ENDBRANCH   9  10
ENDBRANCH   8   9
ENDBRANCH   7   8
ENDBRANCH   6   7
ENDBRANCH   3   6
ENDBRANCH   2   3
TORSDOF 11
ENDMDL
MODEL      212
REMARK 921   NORMALIZED FREE ENERGY PREDICTED BY IDOCK:   -4.10 KCAL/MOL
REMARK 922        TOTAL FREE ENERGY PREDICTED BY IDOCK:   -7.56 KCAL/MOL
REMARK 923 INTER-LIGAND FREE ENERGY PREDICTED BY IDOCK:   -6.34 KCAL/MOL
REMARK 924 INTRA-LIGAND FREE ENERGY PREDICTED BY IDOCK:   -1.21 KCAL/MOL
REMARK 927      BINDING AFFINITY PREDICTED BY RF-SCORE:    0.00 PKD
ROOT
HETATM    1  C   UNL     1     -10.723   5.510  70.935  1.00  0.00    -0.283 C  
HETATM    2  C   UNL     1     -11.354   6.851  70.570  1.00  0.00    -0.327 C  
ENDROOT
BRANCH   2   3
HETATM    3  N   UNL     1     -11.493   7.792  71.698  1.00  0.00    -0.254 NA 
BRANCH   3   4
HETATM    4  C   UNL     1     -12.877   8.225  71.944  1.00  0.00    -0.344 C  
HETATM    5  C   UNL     1     -13.972   7.230  71.579  1.00  0.00    -0.486 C  
ENDBRANCH   3   4
BRANCH   3   6
HETATM    6  C   UNL     1     -10.820   7.234  72.894  1.00  0.00    -0.337 C  
BRANCH   6   7
HETATM    7  C   UNL     1      -9.448   7.847  73.216  1.00  0.00    -0.285 C  
BRANCH   7   8
HETATM    8  O   UNL     1      -9.159   8.914  72.301  1.00  0.00    -0.381 OA 
BRANCH   8   9
HETATM    9  C   UNL     1      -8.009   8.599  71.513  1.00  0.00    -0.136 C  
BRANCH   9  10
HETATM   10  C   UNL     1      -7.730   9.712  70.507  1.00  0.00    -0.128 C  
BRANCH  10  11
HETATM   11  O   UNL     1      -8.852   9.918  69.628  1.00  0.00    -0.182 OA 
BRANCH  11  12
HETATM   12  C   UNL     1      -8.537  10.308  68.358  1.00  0.00    -0.125 C  
HETATM   13  O   UNL     1      -7.647  11.113  68.097  1.00  0.00    -0.095 OA 
BRANCH  12  14
HETATM   14  C   UNL     1      -9.466   9.683  67.300  1.00  0.00    -0.175 C  
HETATM   15  C   UNL     1     -10.537   8.742  67.917  1.00  0.00    -0.236 C  
HETATM   16  C   UNL     1      -8.593   8.668  66.513  1.00  0.00    -0.124 C  
HETATM   17  C   UNL     1      -9.566   7.647  65.955  1.00  0.00     0.019 C  
HETATM   18  C   UNL     1     -10.583   7.466  67.066  1.00  0.00    -0.414 C  
BRANCH  14  19
HETATM   19  C   UNL     1     -10.124  10.798  66.465  1.00  0.00    -0.277 A  
HETATM   20  C   UNL     1     -10.282  12.221  64.485  1.00  0.00    -0.322 A  
HETATM   21  C   UNL     1     -11.361  12.906  65.033  1.00  0.00    -0.338 A  
HETATM   22  C   UNL     1      -9.669  11.183  65.194  1.00  0.00    -0.296 A  
HETATM   23  C   UNL     1     -11.836  12.544  66.287  1.00  0.00    -0.453 A  
HETATM   24  C   UNL     1     -11.231  11.497  66.990  1.00  0.00    -0.365 A  
ENDBRANCH  14  19
ENDBRANCH  12  14
ENDBRANCH  11  12
ENDBRANCH  10  11
ENDBRANCH   9  10
ENDBRANCH   8   9
ENDBRANCH   7   8
ENDBRANCH   6   7
ENDBRANCH   3   6
ENDBRANCH   2   3
TORSDOF 11
ENDMDL
MODEL      213
REMARK 921   NORMALIZED FREE ENERGY PREDICTED BY IDOCK:   -4.10 KCAL/MOL
REMARK 922        TOTAL FREE ENERGY PREDICTED BY IDOCK:   -7.55 KCAL/MOL
REMARK 923 INTER-LIGAND FREE ENERGY PREDICTED BY IDOCK:   -6.43 KCAL/MOL
REMARK 924 INTRA-LIGAND FREE ENERGY PREDICTED BY IDOCK:   -1.13 KCAL/MOL
REMARK 927      BINDING AFFINITY PREDICTED BY RF-SCORE:    0.00 PKD
ROOT
HETATM    1  C   UNL     1     -12.076  13.676  64.532  1.00  0.00    -0.459 C  
HETATM    2  C   UNL     1     -11.704  13.195  65.933  1.00  0.00    -0.384 C  
ENDROOT
BRANCH   2   3
HETATM    3  N   UNL     1     -10.688  14.018  66.615  1.00  0.00    -0.280 NA 
BRANCH   3   4
HETATM    4  C   UNL     1     -10.847  15.464  66.393  1.00  0.00    -0.303 C  
HETATM    5  C   UNL     1      -9.577  16.242  66.070  1.00  0.00    -0.371 C  
ENDBRANCH   3   4
BRANCH   3   6
HETATM    6  C   UNL     1     -10.618  13.637  68.044  1.00  0.00    -0.249 C  
BRANCH   6   7
HETATM    7  C   UNL     1     -11.976  13.408  68.725  1.00  0.00    -0.324 C  
BRANCH   7   8
HETATM    8  O   UNL     1     -12.022  12.095  69.302  1.00  0.00    -0.300 OA 
BRANCH   8   9
HETATM    9  C   UNL     1     -12.272  12.175  70.707  1.00  0.00    -0.271 C  
BRANCH   9  10
HETATM   10  C   UNL     1     -12.818  10.847  71.228  1.00  0.00    -0.433 C  
BRANCH  10  11
HETATM   11  O   UNL     1     -12.298   9.735  70.476  1.00  0.00    -0.214 OA 
BRANCH  11  12
HETATM   12  C   UNL     1     -11.562   8.837  71.194  1.00  0.00    -0.289 C  
HETATM   13  O   UNL     1     -11.605   8.749  72.417  1.00  0.00    -0.352 OA 
BRANCH  12  14
HETATM   14  C   UNL     1     -10.621   8.000  70.305  1.00  0.00    -0.231 C  
HETATM   15  C   UNL     1     -10.575   8.501  68.835  1.00  0.00    -0.166 C  
HETATM   16  C   UNL     1     -11.313   6.622  70.130  1.00  0.00    -0.440 C  
HETATM   17  C   UNL     1     -10.774   6.062  68.828  1.00  0.00    -0.375 C  
HETATM   18  C   UNL     1     -10.679   7.274  67.921  1.00  0.00    -0.239 C  
BRANCH  14  19
HETATM   19  C   UNL     1      -9.210   7.975  70.925  1.00  0.00    -0.163 A  
HETATM   20  C   UNL     1      -6.995   8.927  71.317  1.00  0.00    -0.094 A  
HETATM   21  C   UNL     1      -6.616   7.807  72.050  1.00  0.00    -0.056 A  
HETATM   22  C   UNL     1      -8.274   9.008  70.759  1.00  0.00    -0.213 A  
HETATM   23  C   UNL     1      -7.523   6.771  72.235  1.00  0.00    -0.092 A  
HETATM   24  C   UNL     1      -8.807   6.858  71.687  1.00  0.00    -0.128 A  
ENDBRANCH  14  19
ENDBRANCH  12  14
ENDBRANCH  11  12
ENDBRANCH  10  11
ENDBRANCH   9  10
ENDBRANCH   8   9
ENDBRANCH   7   8
ENDBRANCH   6   7
ENDBRANCH   3   6
ENDBRANCH   2   3
TORSDOF 11
ENDMDL
MODEL      214
REMARK 921   NORMALIZED FREE ENERGY PREDICTED BY IDOCK:   -4.09 KCAL/MOL
REMARK 922        TOTAL FREE ENERGY PREDICTED BY IDOCK:   -7.54 KCAL/MOL
REMARK 923 INTER-LIGAND FREE ENERGY PREDICTED BY IDOCK:   -6.50 KCAL/MOL
REMARK 924 INTRA-LIGAND FREE ENERGY PREDICTED BY IDOCK:   -1.04 KCAL/MOL
REMARK 927      BINDING AFFINITY PREDICTED BY RF-SCORE:    0.00 PKD
ROOT
HETATM    1  C   UNL     1     -13.612  13.092  72.216  1.00  0.00    -0.643 C  
HETATM    2  C   UNL     1     -12.869  13.583  70.976  1.00  0.00    -0.267 C  
ENDROOT
BRANCH   2   3
HETATM    3  N   UNL     1     -12.545  15.022  70.984  1.00  0.00    -0.321 NA 
BRANCH   3   4
HETATM    4  C   UNL     1     -11.694  15.433  72.112  1.00  0.00    -0.462 C  
HETATM    5  C   UNL     1     -12.386  16.191  73.239  1.00  0.00    -0.647 C  
ENDBRANCH   3   4
BRANCH   3   6
HETATM    6  C   UNL     1     -12.013  15.419  69.660  1.00  0.00    -0.343 C  
BRANCH   6   7
HETATM    7  C   UNL     1     -11.256  14.315  68.904  1.00  0.00    -0.264 C  
BRANCH   7   8
HETATM    8  O   UNL     1     -11.922  14.020  67.668  1.00  0.00    -0.368 OA 
BRANCH   8   9
HETATM    9  C   UNL     1     -11.437  12.793  67.119  1.00  0.00    -0.337 C  
BRANCH   9  10
HETATM   10  C   UNL     1     -10.282  12.252  67.959  1.00  0.00    -0.206 C  
BRANCH  10  11
HETATM   11  O   UNL     1     -10.475  10.863  68.284  1.00  0.00    -0.165 OA 
BRANCH  11  12
HETATM   12  C   UNL     1      -9.542  10.007  67.773  1.00  0.00    -0.148 C  
HETATM   13  O   UNL     1      -9.413   9.784  66.573  1.00  0.00    -0.160 OA 
BRANCH  12  14
HETATM   14  C   UNL     1      -8.723   9.302  68.870  1.00  0.00    -0.131 C  
HETATM   15  C   UNL     1      -7.639  10.221  69.499  1.00  0.00    -0.150 C  
HETATM   16  C   UNL     1      -7.841   8.256  68.138  1.00  0.00    -0.118 C  
HETATM   17  C   UNL     1      -6.645   8.031  69.044  1.00  0.00    -0.048 C  
HETATM   18  C   UNL     1      -6.340   9.411  69.595  1.00  0.00    -0.040 C  
BRANCH  14  19
HETATM   19  C   UNL     1      -9.672   8.748  69.950  1.00  0.00    -0.183 A  
HETATM   20  C   UNL     1     -10.358   8.413  72.271  1.00  0.00    -0.403 A  
HETATM   21  C   UNL     1     -11.436   7.633  71.865  1.00  0.00    -0.313 A  
HETATM   22  C   UNL     1      -9.485   8.960  71.326  1.00  0.00    -0.343 A  
HETATM   23  C   UNL     1     -11.648   7.410  70.511  1.00  0.00    -0.256 A  
HETATM   24  C   UNL     1     -10.782   7.969  69.565  1.00  0.00    -0.185 A  
ENDBRANCH  14  19
ENDBRANCH  12  14
ENDBRANCH  11  12
ENDBRANCH  10  11
ENDBRANCH   9  10
ENDBRANCH   8   9
ENDBRANCH   7   8
ENDBRANCH   6   7
ENDBRANCH   3   6
ENDBRANCH   2   3
TORSDOF 11
ENDMDL
MODEL      215
REMARK 921   NORMALIZED FREE ENERGY PREDICTED BY IDOCK:   -4.09 KCAL/MOL
REMARK 922        TOTAL FREE ENERGY PREDICTED BY IDOCK:   -7.53 KCAL/MOL
REMARK 923 INTER-LIGAND FREE ENERGY PREDICTED BY IDOCK:   -6.55 KCAL/MOL
REMARK 924 INTRA-LIGAND FREE ENERGY PREDICTED BY IDOCK:   -0.98 KCAL/MOL
REMARK 927      BINDING AFFINITY PREDICTED BY RF-SCORE:    0.00 PKD
ROOT
HETATM    1  C   UNL     1      -6.192   9.722  62.779  1.00  0.00    -0.106 C  
HETATM    2  C   UNL     1      -6.538   9.621  64.263  1.00  0.00    -0.111 C  
ENDROOT
BRANCH   2   3
HETATM    3  N   UNL     1      -7.762   8.851  64.557  1.00  0.00    -0.113 NA 
BRANCH   3   4
HETATM    4  C   UNL     1      -7.944   8.547  65.984  1.00  0.00    -0.107 C  
HETATM    5  C   UNL     1      -9.192   7.753  66.352  1.00  0.00    -0.229 C  
ENDBRANCH   3   4
BRANCH   3   6
HETATM    6  C   UNL     1      -8.928   9.517  63.933  1.00  0.00    -0.179 C  
BRANCH   6   7
HETATM    7  C   UNL     1      -9.251  10.915  64.482  1.00  0.00    -0.201 C  
BRANCH   7   8
HETATM    8  O   UNL     1     -10.672  11.120  64.502  1.00  0.00    -0.336 OA 
BRANCH   8   9
HETATM    9  C   UNL     1     -10.976  12.516  64.450  1.00  0.00    -0.340 C  
BRANCH   9  10
HETATM   10  C   UNL     1     -12.383  12.775  64.984  1.00  0.00    -0.499 C  
BRANCH  10  11
HETATM   11  O   UNL     1     -12.354  13.191  66.362  1.00  0.00    -0.366 OA 
BRANCH  11  12
HETATM   12  C   UNL     1     -11.634  14.323  66.615  1.00  0.00    -0.383 C  
HETATM   13  O   UNL     1     -11.397  15.180  65.769  1.00  0.00    -0.324 OA 
BRANCH  12  14
HETATM   14  C   UNL     1     -11.092  14.368  68.057  1.00  0.00    -0.287 C  
HETATM   15  C   UNL     1     -11.961  15.245  69.001  1.00  0.00    -0.304 C  
HETATM   16  C   UNL     1      -9.784  15.201  67.995  1.00  0.00    -0.209 C  
HETATM   17  C   UNL     1      -9.603  15.772  69.389  1.00  0.00    -0.284 C  
HETATM   18  C   UNL     1     -11.012  16.125  69.825  1.00  0.00    -0.349 C  
BRANCH  14  19
HETATM   19  C   UNL     1     -10.956  12.934  68.605  1.00  0.00    -0.295 A  
HETATM   20  C   UNL     1      -9.867  10.750  68.721  1.00  0.00    -0.200 A  
HETATM   21  C   UNL     1     -10.827  10.292  69.617  1.00  0.00    -0.311 A  
HETATM   22  C   UNL     1      -9.933  12.054  68.218  1.00  0.00    -0.203 A  
HETATM   23  C   UNL     1     -11.848  11.142  70.020  1.00  0.00    -0.441 A  
HETATM   24  C   UNL     1     -11.907  12.451  69.527  1.00  0.00    -0.368 A  
ENDBRANCH  14  19
ENDBRANCH  12  14
ENDBRANCH  11  12
ENDBRANCH  10  11
ENDBRANCH   9  10
ENDBRANCH   8   9
ENDBRANCH   7   8
ENDBRANCH   6   7
ENDBRANCH   3   6
ENDBRANCH   2   3
TORSDOF 11
ENDMDL
MODEL      216
REMARK 921   NORMALIZED FREE ENERGY PREDICTED BY IDOCK:   -4.08 KCAL/MOL
REMARK 922        TOTAL FREE ENERGY PREDICTED BY IDOCK:   -7.52 KCAL/MOL
REMARK 923 INTER-LIGAND FREE ENERGY PREDICTED BY IDOCK:   -6.56 KCAL/MOL
REMARK 924 INTRA-LIGAND FREE ENERGY PREDICTED BY IDOCK:   -0.96 KCAL/MOL
REMARK 927      BINDING AFFINITY PREDICTED BY RF-SCORE:    0.00 PKD
ROOT
HETATM    1  C   UNL     1     -10.222  19.924  67.709  1.00  0.00    -0.567 C  
HETATM    2  C   UNL     1     -10.708  18.655  67.013  1.00  0.00    -0.344 C  
ENDROOT
BRANCH   2   3
HETATM    3  N   UNL     1      -9.699  17.583  66.915  1.00  0.00    -0.279 NA 
BRANCH   3   4
HETATM    4  C   UNL     1      -8.398  17.937  67.503  1.00  0.00    -0.228 C  
HETATM    5  C   UNL     1      -7.895  17.037  68.625  1.00  0.00    -0.257 C  
ENDBRANCH   3   4
BRANCH   3   6
HETATM    6  C   UNL     1     -10.266  16.319  67.438  1.00  0.00    -0.275 C  
BRANCH   6   7
HETATM    7  C   UNL     1     -10.837  15.371  66.372  1.00  0.00    -0.303 C  
BRANCH   7   8
HETATM    8  O   UNL     1      -9.827  14.445  65.945  1.00  0.00    -0.305 OA 
BRANCH   8   9
HETATM    9  C   UNL     1      -9.172  13.864  67.075  1.00  0.00    -0.250 C  
BRANCH   9  10
HETATM   10  C   UNL     1     -10.138  12.974  67.853  1.00  0.00    -0.235 C  
BRANCH  10  11
HETATM   11  O   UNL     1      -9.724  11.595  67.819  1.00  0.00    -0.167 OA 
BRANCH  11  12
HETATM   12  C   UNL     1     -10.673  10.690  68.199  1.00  0.00    -0.225 C  
HETATM   13  O   UNL     1     -11.872  10.830  67.975  1.00  0.00    -0.546 OA 
BRANCH  12  14
HETATM   14  C   UNL     1     -10.081   9.514  69.000  1.00  0.00    -0.201 C  
HETATM   15  C   UNL     1     -10.911   9.168  70.267  1.00  0.00    -0.279 C  
HETATM   16  C   UNL     1      -8.771  10.049  69.637  1.00  0.00    -0.210 C  
HETATM   17  C   UNL     1      -8.538   9.188  70.863  1.00  0.00    -0.259 C  
HETATM   18  C   UNL     1      -9.929   8.973  71.429  1.00  0.00    -0.388 C  
BRANCH  14  19
HETATM   19  C   UNL     1      -9.934   8.285  68.082  1.00  0.00    -0.224 A  
HETATM   20  C   UNL     1     -10.684   6.132  67.202  1.00  0.00    -0.422 A  
HETATM   21  C   UNL     1      -9.544   6.032  66.411  1.00  0.00    -0.168 A  
HETATM   22  C   UNL     1     -10.874   7.243  68.030  1.00  0.00    -0.161 A  
HETATM   23  C   UNL     1      -8.599   7.049  66.439  1.00  0.00    -0.136 A  
HETATM   24  C   UNL     1      -8.796   8.166  67.258  1.00  0.00    -0.136 A  
ENDBRANCH  14  19
ENDBRANCH  12  14
ENDBRANCH  11  12
ENDBRANCH  10  11
ENDBRANCH   9  10
ENDBRANCH   8   9
ENDBRANCH   7   8
ENDBRANCH   6   7
ENDBRANCH   3   6
ENDBRANCH   2   3
TORSDOF 11
ENDMDL
MODEL      217
REMARK 921   NORMALIZED FREE ENERGY PREDICTED BY IDOCK:   -4.08 KCAL/MOL
REMARK 922        TOTAL FREE ENERGY PREDICTED BY IDOCK:   -7.51 KCAL/MOL
REMARK 923 INTER-LIGAND FREE ENERGY PREDICTED BY IDOCK:   -5.83 KCAL/MOL
REMARK 924 INTRA-LIGAND FREE ENERGY PREDICTED BY IDOCK:   -1.68 KCAL/MOL
REMARK 927      BINDING AFFINITY PREDICTED BY RF-SCORE:    0.00 PKD
ROOT
HETATM    1  C   UNL     1      -6.330   7.630  65.337  1.00  0.00    -0.038 C  
HETATM    2  C   UNL     1      -7.819   7.943  65.210  1.00  0.00    -0.111 C  
ENDROOT
BRANCH   2   3
HETATM    3  N   UNL     1      -8.583   7.816  66.465  1.00  0.00    -0.136 NA 
BRANCH   3   4
HETATM    4  C   UNL     1      -7.741   7.656  67.660  1.00  0.00    -0.122 C  
HETATM    5  C   UNL     1      -7.935   8.687  68.766  1.00  0.00    -0.114 C  
ENDBRANCH   3   4
BRANCH   3   6
HETATM    6  C   UNL     1      -9.560   8.924  66.566  1.00  0.00    -0.232 C  
BRANCH   6   7
HETATM    7  C   UNL     1      -9.583   9.884  65.367  1.00  0.00    -0.285 C  
BRANCH   7   8
HETATM    8  O   UNL     1     -10.907  10.405  65.179  1.00  0.00     0.026 OA 
BRANCH   8   9
HETATM    9  C   UNL     1     -10.893  11.475  64.230  1.00  0.00    -0.359 C  
BRANCH   9  10
HETATM   10  C   UNL     1     -11.896  12.554  64.630  1.00  0.00    -0.378 C  
BRANCH  10  11
HETATM   11  O   UNL     1     -12.322  12.395  65.996  1.00  0.00    -0.627 OA 
BRANCH  11  12
HETATM   12  C   UNL     1     -12.044  13.447  66.822  1.00  0.00    -0.365 C  
HETATM   13  O   UNL     1     -12.234  14.619  66.514  1.00  0.00    -0.313 OA 
BRANCH  12  14
HETATM   14  C   UNL     1     -11.399  13.001  68.148  1.00  0.00    -0.329 C  
HETATM   15  C   UNL     1     -11.649  11.501  68.467  1.00  0.00    -0.377 C  
HETATM   16  C   UNL     1     -12.221  13.687  69.273  1.00  0.00    -0.283 C  
HETATM   17  C   UNL     1     -12.038  12.811  70.497  1.00  0.00    -0.369 C  
HETATM   18  C   UNL     1     -12.056  11.400  69.943  1.00  0.00    -0.404 C  
BRANCH  14  19
HETATM   19  C   UNL     1      -9.891  13.318  68.124  1.00  0.00    -0.231 A  
HETATM   20  C   UNL     1      -7.546  12.687  67.857  1.00  0.00    -0.132 A  
HETATM   21  C   UNL     1      -7.138  13.980  68.167  1.00  0.00    -0.125 A  
HETATM   22  C   UNL     1      -8.905  12.359  67.840  1.00  0.00    -0.180 A  
HETATM   23  C   UNL     1      -8.091  14.950  68.447  1.00  0.00    -0.137 A  
HETATM   24  C   UNL     1      -9.452  14.625  68.417  1.00  0.00    -0.209 A  
ENDBRANCH  14  19
ENDBRANCH  12  14
ENDBRANCH  11  12
ENDBRANCH  10  11
ENDBRANCH   9  10
ENDBRANCH   8   9
ENDBRANCH   7   8
ENDBRANCH   6   7
ENDBRANCH   3   6
ENDBRANCH   2   3
TORSDOF 11
ENDMDL
MODEL      218
REMARK 921   NORMALIZED FREE ENERGY PREDICTED BY IDOCK:   -4.07 KCAL/MOL
REMARK 922        TOTAL FREE ENERGY PREDICTED BY IDOCK:   -7.51 KCAL/MOL
REMARK 923 INTER-LIGAND FREE ENERGY PREDICTED BY IDOCK:   -6.36 KCAL/MOL
REMARK 924 INTRA-LIGAND FREE ENERGY PREDICTED BY IDOCK:   -1.15 KCAL/MOL
REMARK 927      BINDING AFFINITY PREDICTED BY RF-SCORE:    0.00 PKD
ROOT
HETATM    1  C   UNL     1     -12.101  14.149  69.037  1.00  0.00    -0.348 C  
HETATM    2  C   UNL     1     -11.290  14.683  67.858  1.00  0.00    -0.315 C  
ENDROOT
BRANCH   2   3
HETATM    3  N   UNL     1     -11.896  14.440  66.535  1.00  0.00    -0.396 NA 
BRANCH   3   4
HETATM    4  C   UNL     1     -11.029  14.811  65.407  1.00  0.00    -0.359 C  
HETATM    5  C   UNL     1     -10.739  16.298  65.237  1.00  0.00    -0.349 C  
ENDBRANCH   3   4
BRANCH   3   6
HETATM    6  C   UNL     1     -12.400  13.049  66.469  1.00  0.00    -0.105 C  
BRANCH   6   7
HETATM    7  C   UNL     1     -11.341  11.959  66.700  1.00  0.00    -0.337 C  
BRANCH   7   8
HETATM    8  O   UNL     1     -11.062  11.275  65.470  1.00  0.00    -0.191 OA 
BRANCH   8   9
HETATM    9  C   UNL     1      -9.767  10.673  65.516  1.00  0.00    -0.237 C  
BRANCH   9  10
HETATM   10  C   UNL     1      -9.885   9.173  65.773  1.00  0.00    -0.178 C  
BRANCH  10  11
HETATM   11  O   UNL     1      -9.172   8.786  66.963  1.00  0.00    -0.135 OA 
BRANCH  11  12
HETATM   12  C   UNL     1      -9.946   8.297  67.975  1.00  0.00    -0.185 C  
HETATM   13  O   UNL     1     -10.909   7.559  67.796  1.00  0.00    -0.180 OA 
BRANCH  12  14
HETATM   14  C   UNL     1      -9.519   8.832  69.356  1.00  0.00    -0.161 C  
HETATM   15  C   UNL     1      -8.725  10.165  69.268  1.00  0.00    -0.186 C  
HETATM   16  C   UNL     1      -8.422   7.862  69.869  1.00  0.00    -0.127 C  
HETATM   17  C   UNL     1      -7.588   8.675  70.841  1.00  0.00    -0.093 C  
HETATM   18  C   UNL     1      -7.513  10.047  70.200  1.00  0.00    -0.176 C  
BRANCH  14  19
HETATM   19  C   UNL     1     -10.760   8.987  70.257  1.00  0.00    -0.262 A  
HETATM   20  C   UNL     1     -12.612  10.274  71.197  1.00  0.00    -0.501 A  
HETATM   21  C   UNL     1     -12.988   9.197  71.993  1.00  0.00    -0.496 A  
HETATM   22  C   UNL     1     -11.510  10.171  70.343  1.00  0.00    -0.400 A  
HETATM   23  C   UNL     1     -12.267   8.011  71.926  1.00  0.00    -0.359 A  
HETATM   24  C   UNL     1     -11.172   7.905  71.062  1.00  0.00    -0.288 A  
ENDBRANCH  14  19
ENDBRANCH  12  14
ENDBRANCH  11  12
ENDBRANCH  10  11
ENDBRANCH   9  10
ENDBRANCH   8   9
ENDBRANCH   7   8
ENDBRANCH   6   7
ENDBRANCH   3   6
ENDBRANCH   2   3
TORSDOF 11
ENDMDL
MODEL      219
REMARK 921   NORMALIZED FREE ENERGY PREDICTED BY IDOCK:   -4.07 KCAL/MOL
REMARK 922        TOTAL FREE ENERGY PREDICTED BY IDOCK:   -7.50 KCAL/MOL
REMARK 923 INTER-LIGAND FREE ENERGY PREDICTED BY IDOCK:   -6.18 KCAL/MOL
REMARK 924 INTRA-LIGAND FREE ENERGY PREDICTED BY IDOCK:   -1.33 KCAL/MOL
REMARK 927      BINDING AFFINITY PREDICTED BY RF-SCORE:    0.00 PKD
ROOT
HETATM    1  C   UNL     1     -12.644  13.431  65.393  1.00  0.00    -0.528 C  
HETATM    2  C   UNL     1     -11.829  12.617  66.395  1.00  0.00    -0.402 C  
ENDROOT
BRANCH   2   3
HETATM    3  N   UNL     1     -11.093  13.423  67.387  1.00  0.00    -0.271 NA 
BRANCH   3   4
HETATM    4  C   UNL     1     -11.622  14.785  67.557  1.00  0.00    -0.361 C  
HETATM    5  C   UNL     1     -10.762  15.749  68.366  1.00  0.00    -0.281 C  
ENDBRANCH   3   4
BRANCH   3   6
HETATM    6  C   UNL     1     -10.976  12.665  68.654  1.00  0.00    -0.256 C  
BRANCH   6   7
HETATM    7  C   UNL     1     -11.624  11.272  68.642  1.00  0.00    -0.318 C  
BRANCH   7   8
HETATM    8  O   UNL     1     -10.722  10.304  69.198  1.00  0.00    -0.201 OA 
BRANCH   8   9
HETATM    9  C   UNL     1      -9.493  10.289  68.468  1.00  0.00    -0.158 C  
BRANCH   9  10
HETATM   10  C   UNL     1      -8.307  10.175  69.422  1.00  0.00    -0.168 C  
BRANCH  10  11
HETATM   11  O   UNL     1      -8.694   9.570  70.670  1.00  0.00    -0.218 OA 
BRANCH  11  12
HETATM   12  C   UNL     1      -8.109   8.367  70.944  1.00  0.00    -0.110 C  
HETATM   13  O   UNL     1      -7.163   7.913  70.307  1.00  0.00    -0.055 OA 
BRANCH  12  14
HETATM   14  C   UNL     1      -8.811   7.616  72.090  1.00  0.00    -0.161 C  
HETATM   15  C   UNL     1      -8.493   8.213  73.489  1.00  0.00    -0.310 C  
HETATM   16  C   UNL     1      -8.109   6.235  72.188  1.00  0.00    -0.109 C  
HETATM   17  C   UNL     1      -8.320   5.776  73.618  1.00  0.00    -0.110 C  
HETATM   18  C   UNL     1      -8.180   7.047  74.434  1.00  0.00    -0.176 C  
BRANCH  14  19
HETATM   19  C   UNL     1     -10.331   7.585  71.835  1.00  0.00    -0.226 A  
HETATM   20  C   UNL     1     -12.628   8.257  72.327  1.00  0.00    -0.357 A  
HETATM   21  C   UNL     1     -13.113   7.412  71.334  1.00  0.00    -0.401 A  
HETATM   22  C   UNL     1     -11.254   8.339  72.576  1.00  0.00    -0.446 A  
HETATM   23  C   UNL     1     -12.223   6.658  70.581  1.00  0.00    -0.262 A  
HETATM   24  C   UNL     1     -10.848   6.750  70.823  1.00  0.00    -0.291 A  
ENDBRANCH  14  19
ENDBRANCH  12  14
ENDBRANCH  11  12
ENDBRANCH  10  11
ENDBRANCH   9  10
ENDBRANCH   8   9
ENDBRANCH   7   8
ENDBRANCH   6   7
ENDBRANCH   3   6
ENDBRANCH   2   3
TORSDOF 11
ENDMDL
MODEL      220
REMARK 921   NORMALIZED FREE ENERGY PREDICTED BY IDOCK:   -4.06 KCAL/MOL
REMARK 922        TOTAL FREE ENERGY PREDICTED BY IDOCK:   -7.49 KCAL/MOL
REMARK 923 INTER-LIGAND FREE ENERGY PREDICTED BY IDOCK:   -5.95 KCAL/MOL
REMARK 924 INTRA-LIGAND FREE ENERGY PREDICTED BY IDOCK:   -1.54 KCAL/MOL
REMARK 927      BINDING AFFINITY PREDICTED BY RF-SCORE:    0.00 PKD
ROOT
HETATM    1  C   UNL     1     -11.772   9.007  71.620  1.00  0.00    -0.431 C  
HETATM    2  C   UNL     1     -10.440   8.465  72.132  1.00  0.00    -0.326 C  
ENDROOT
BRANCH   2   3
HETATM    3  N   UNL     1      -9.614   7.797  71.108  1.00  0.00    -0.158 NA 
BRANCH   3   4
HETATM    4  C   UNL     1      -9.414   6.360  71.351  1.00  0.00    -0.155 C  
HETATM    5  C   UNL     1     -10.328   5.411  70.585  1.00  0.00    -0.333 C  
ENDBRANCH   3   4
BRANCH   3   6
HETATM    6  C   UNL     1     -10.146   8.107  69.762  1.00  0.00    -0.197 C  
BRANCH   6   7
HETATM    7  C   UNL     1      -9.097   8.559  68.734  1.00  0.00    -0.143 C  
BRANCH   7   8
HETATM    8  O   UNL     1      -9.180   7.742  67.556  1.00  0.00    -0.131 OA 
BRANCH   8   9
HETATM    9  C   UNL     1     -10.231   8.200  66.703  1.00  0.00    -0.259 C  
BRANCH   9  10
HETATM   10  C   UNL     1     -10.066   9.689  66.405  1.00  0.00    -0.247 C  
BRANCH  10  11
HETATM   11  O   UNL     1     -11.202  10.444  66.865  1.00  0.00    -0.159 OA 
BRANCH  11  12
HETATM   12  C   UNL     1     -11.154  11.785  66.611  1.00  0.00    -0.310 C  
HETATM   13  O   UNL     1     -11.259  12.266  65.487  1.00  0.00    -0.310 OA 
BRANCH  12  14
HETATM   14  C   UNL     1     -10.884  12.617  67.879  1.00  0.00    -0.244 C  
HETATM   15  C   UNL     1     -11.149  11.825  69.189  1.00  0.00    -0.294 C  
HETATM   16  C   UNL     1     -12.011  13.682  67.939  1.00  0.00    -0.382 C  
HETATM   17  C   UNL     1     -12.138  14.053  69.405  1.00  0.00    -0.386 C  
HETATM   18  C   UNL     1     -11.943  12.737  70.133  1.00  0.00    -0.371 C  
BRANCH  14  19
HETATM   19  C   UNL     1      -9.442  13.160  67.844  1.00  0.00    -0.218 A  
HETATM   20  C   UNL     1      -7.045  12.982  68.283  1.00  0.00    -0.103 A  
HETATM   21  C   UNL     1      -6.836  14.269  67.799  1.00  0.00    -0.189 A  
HETATM   22  C   UNL     1      -8.332  12.436  68.309  1.00  0.00    -0.169 A  
HETATM   23  C   UNL     1      -7.915  15.007  67.329  1.00  0.00    -0.234 A  
HETATM   24  C   UNL     1      -9.200  14.456  67.343  1.00  0.00    -0.199 A  
ENDBRANCH  14  19
ENDBRANCH  12  14
ENDBRANCH  11  12
ENDBRANCH  10  11
ENDBRANCH   9  10
ENDBRANCH   8   9
ENDBRANCH   7   8
ENDBRANCH   6   7
ENDBRANCH   3   6
ENDBRANCH   2   3
TORSDOF 11
ENDMDL
MODEL      221
REMARK 921   NORMALIZED FREE ENERGY PREDICTED BY IDOCK:   -4.04 KCAL/MOL
REMARK 922        TOTAL FREE ENERGY PREDICTED BY IDOCK:   -7.46 KCAL/MOL
REMARK 923 INTER-LIGAND FREE ENERGY PREDICTED BY IDOCK:   -5.82 KCAL/MOL
REMARK 924 INTRA-LIGAND FREE ENERGY PREDICTED BY IDOCK:   -1.64 KCAL/MOL
REMARK 927      BINDING AFFINITY PREDICTED BY RF-SCORE:    0.00 PKD
ROOT
HETATM    1  C   UNL     1     -11.292   6.363  70.645  1.00  0.00    -0.419 C  
HETATM    2  C   UNL     1     -11.256   7.890  70.677  1.00  0.00    -0.263 C  
ENDROOT
BRANCH   2   3
HETATM    3  N   UNL     1     -11.385   8.479  72.023  1.00  0.00    -0.330 NA 
BRANCH   3   4
HETATM    4  C   UNL     1     -12.725   9.013  72.311  1.00  0.00    -0.387 C  
HETATM    5  C   UNL     1     -13.051  10.378  71.717  1.00  0.00    -0.567 C  
ENDBRANCH   3   4
BRANCH   3   6
HETATM    6  C   UNL     1     -10.895   7.515  73.035  1.00  0.00    -0.392 C  
BRANCH   6   7
HETATM    7  C   UNL     1      -9.472   7.778  73.551  1.00  0.00    -0.284 C  
BRANCH   7   8
HETATM    8  O   UNL     1      -8.821   8.753  72.723  1.00  0.00    -0.382 OA 
BRANCH   8   9
HETATM    9  C   UNL     1      -7.826   8.131  71.906  1.00  0.00    -0.112 C  
BRANCH   9  10
HETATM   10  C   UNL     1      -7.185   9.156  70.974  1.00  0.00    -0.100 C  
BRANCH  10  11
HETATM   11  O   UNL     1      -7.425   8.830  69.592  1.00  0.00    -0.068 OA 
BRANCH  11  12
HETATM   12  C   UNL     1      -8.373   9.589  68.969  1.00  0.00    -0.126 C  
HETATM   13  O   UNL     1      -9.088  10.397  69.555  1.00  0.00    -0.183 OA 
BRANCH  12  14
HETATM   14  C   UNL     1      -8.496   9.266  67.467  1.00  0.00    -0.115 C  
HETATM   15  C   UNL     1      -7.132   9.323  66.725  1.00  0.00    -0.082 C  
HETATM   16  C   UNL     1      -9.235  10.473  66.830  1.00  0.00    -0.173 C  
HETATM   17  C   UNL     1      -8.812  10.482  65.374  1.00  0.00    -0.203 C  
HETATM   18  C   UNL     1      -7.346  10.095  65.416  1.00  0.00    -0.144 C  
BRANCH  14  19
HETATM   19  C   UNL     1      -9.166   7.890  67.286  1.00  0.00    -0.167 A  
HETATM   20  C   UNL     1     -11.114   6.452  66.956  1.00  0.00    -0.405 A  
HETATM   21  C   UNL     1     -10.317   5.314  67.029  1.00  0.00    -0.286 A  
HETATM   22  C   UNL     1     -10.546   7.723  67.087  1.00  0.00    -0.401 A  
HETATM   23  C   UNL     1      -8.948   5.449  67.222  1.00  0.00    -0.111 A  
HETATM   24  C   UNL     1      -8.378   6.722  67.340  1.00  0.00    -0.122 A  
ENDBRANCH  14  19
ENDBRANCH  12  14
ENDBRANCH  11  12
ENDBRANCH  10  11
ENDBRANCH   9  10
ENDBRANCH   8   9
ENDBRANCH   7   8
ENDBRANCH   6   7
ENDBRANCH   3   6
ENDBRANCH   2   3
TORSDOF 11
ENDMDL
MODEL      222
REMARK 921   NORMALIZED FREE ENERGY PREDICTED BY IDOCK:   -4.04 KCAL/MOL
REMARK 922        TOTAL FREE ENERGY PREDICTED BY IDOCK:   -7.46 KCAL/MOL
REMARK 923 INTER-LIGAND FREE ENERGY PREDICTED BY IDOCK:   -6.20 KCAL/MOL
REMARK 924 INTRA-LIGAND FREE ENERGY PREDICTED BY IDOCK:   -1.26 KCAL/MOL
REMARK 927      BINDING AFFINITY PREDICTED BY RF-SCORE:    0.00 PKD
ROOT
HETATM    1  C   UNL     1     -10.642  16.837  69.534  1.00  0.00    -0.283 C  
HETATM    2  C   UNL     1     -11.585  15.637  69.578  1.00  0.00    -0.357 C  
ENDROOT
BRANCH   2   3
HETATM    3  N   UNL     1     -11.723  15.012  70.907  1.00  0.00    -0.306 NA 
BRANCH   3   4
HETATM    4  C   UNL     1     -12.563  15.779  71.840  1.00  0.00    -0.457 C  
HETATM    5  C   UNL     1     -13.959  15.226  72.102  1.00  0.00    -0.650 C  
ENDBRANCH   3   4
BRANCH   3   6
HETATM    6  C   UNL     1     -12.139  13.600  70.750  1.00  0.00    -0.295 C  
BRANCH   6   7
HETATM    7  C   UNL     1     -11.668  12.920  69.455  1.00  0.00    -0.321 C  
BRANCH   7   8
HETATM    8  O   UNL     1     -11.412  11.529  69.694  1.00  0.00    -0.275 OA 
BRANCH   8   9
HETATM    9  C   UNL     1     -10.305  11.082  68.908  1.00  0.00    -0.205 C  
BRANCH   9  10
HETATM   10  C   UNL     1     -10.556   9.669  68.388  1.00  0.00    -0.225 C  
BRANCH  10  11
HETATM   11  O   UNL     1      -9.810   8.692  69.140  1.00  0.00    -0.177 OA 
BRANCH  11  12
HETATM   12  C   UNL     1     -10.503   7.570  69.491  1.00  0.00    -0.226 C  
HETATM   13  O   UNL     1     -11.020   6.810  68.677  1.00  0.00    -0.234 OA 
BRANCH  12  14
HETATM   14  C   UNL     1     -10.627   7.405  71.018  1.00  0.00    -0.234 C  
HETATM   15  C   UNL     1      -9.373   7.911  71.783  1.00  0.00    -0.196 C  
HETATM   16  C   UNL     1     -10.547   5.879  71.289  1.00  0.00    -0.311 C  
HETATM   17  C   UNL     1     -10.040   5.748  72.713  1.00  0.00    -0.202 C  
HETATM   18  C   UNL     1      -9.014   6.858  72.838  1.00  0.00    -0.144 C  
BRANCH  14  19
HETATM   19  C   UNL     1     -11.902   8.114  71.514  1.00  0.00    -0.332 A  
HETATM   20  C   UNL     1     -14.327   8.329  71.714  1.00  0.00    -0.574 A  
HETATM   21  C   UNL     1     -14.188   9.525  72.412  1.00  0.00    -0.052 A  
HETATM   22  C   UNL     1     -13.198   7.635  71.268  1.00  0.00    -0.276 A  
HETATM   23  C   UNL     1     -12.918  10.020  72.674  1.00  0.00     0.264 A  
HETATM   24  C   UNL     1     -11.788   9.319  72.238  1.00  0.00    -0.136 A  
ENDBRANCH  14  19
ENDBRANCH  12  14
ENDBRANCH  11  12
ENDBRANCH  10  11
ENDBRANCH   9  10
ENDBRANCH   8   9
ENDBRANCH   7   8
ENDBRANCH   6   7
ENDBRANCH   3   6
ENDBRANCH   2   3
TORSDOF 11
ENDMDL
MODEL      223
REMARK 921   NORMALIZED FREE ENERGY PREDICTED BY IDOCK:   -4.03 KCAL/MOL
REMARK 922        TOTAL FREE ENERGY PREDICTED BY IDOCK:   -7.44 KCAL/MOL
REMARK 923 INTER-LIGAND FREE ENERGY PREDICTED BY IDOCK:   -6.26 KCAL/MOL
REMARK 924 INTRA-LIGAND FREE ENERGY PREDICTED BY IDOCK:   -1.19 KCAL/MOL
REMARK 927      BINDING AFFINITY PREDICTED BY RF-SCORE:    0.00 PKD
ROOT
HETATM    1  C   UNL     1      -8.327  16.116  66.353  1.00  0.00    -0.357 C  
HETATM    2  C   UNL     1      -8.359  15.297  67.641  1.00  0.00    -0.164 C  
ENDROOT
BRANCH   2   3
HETATM    3  N   UNL     1      -8.336  13.836  67.441  1.00  0.00    -0.185 NA 
BRANCH   3   4
HETATM    4  C   UNL     1      -7.020  13.223  67.678  1.00  0.00    -0.160 C  
HETATM    5  C   UNL     1      -6.427  13.412  69.070  1.00  0.00    -0.105 C  
ENDBRANCH   3   4
BRANCH   3   6
HETATM    6  C   UNL     1      -9.433  13.212  68.216  1.00  0.00    -0.210 C  
BRANCH   6   7
HETATM    7  C   UNL     1      -9.478  11.677  68.165  1.00  0.00    -0.191 C  
BRANCH   7   8
HETATM    8  O   UNL     1     -10.560  11.243  67.329  1.00  0.00    -0.210 OA 
BRANCH   8   9
HETATM    9  C   UNL     1     -11.145  10.047  67.848  1.00  0.00    -0.195 C  
BRANCH   9  10
HETATM   10  C   UNL     1     -10.401   8.820  67.328  1.00  0.00    -0.290 C  
BRANCH  10  11
HETATM   11  O   UNL     1      -9.845   8.046  68.408  1.00  0.00    -0.161 OA 
BRANCH  11  12
HETATM   12  C   UNL     1     -10.645   7.047  68.884  1.00  0.00    -0.215 C  
HETATM   13  O   UNL     1     -11.362   6.354  68.169  1.00  0.00    -0.266 OA 
BRANCH  12  14
HETATM   14  C   UNL     1     -10.601   6.937  70.420  1.00  0.00    -0.247 C  
HETATM   15  C   UNL     1      -9.282   7.487  71.028  1.00  0.00    -0.153 C  
HETATM   16  C   UNL     1     -10.468   5.423  70.735  1.00  0.00    -0.317 C  
HETATM   17  C   UNL     1      -9.810   5.351  72.100  1.00  0.00    -0.209 C  
HETATM   18  C   UNL     1      -8.794   6.478  72.075  1.00  0.00    -0.133 C  
BRANCH  14  19
HETATM   19  C   UNL     1     -11.827   7.648  71.025  1.00  0.00    -0.306 A  
HETATM   20  C   UNL     1     -14.138   7.692  71.819  1.00  0.00    -0.510 A  
HETATM   21  C   UNL     1     -14.048   9.055  72.078  1.00  0.00    -0.434 A  
HETATM   22  C   UNL     1     -13.042   6.998  71.295  1.00  0.00    -0.329 A  
HETATM   23  C   UNL     1     -12.858   9.724  71.825  1.00  0.00    -0.530 A  
HETATM   24  C   UNL     1     -11.758   9.027  71.314  1.00  0.00    -0.382 A  
ENDBRANCH  14  19
ENDBRANCH  12  14
ENDBRANCH  11  12
ENDBRANCH  10  11
ENDBRANCH   9  10
ENDBRANCH   8   9
ENDBRANCH   7   8
ENDBRANCH   6   7
ENDBRANCH   3   6
ENDBRANCH   2   3
TORSDOF 11
ENDMDL
MODEL      224
REMARK 921   NORMALIZED FREE ENERGY PREDICTED BY IDOCK:   -4.02 KCAL/MOL
REMARK 922        TOTAL FREE ENERGY PREDICTED BY IDOCK:   -7.43 KCAL/MOL
REMARK 923 INTER-LIGAND FREE ENERGY PREDICTED BY IDOCK:   -5.96 KCAL/MOL
REMARK 924 INTRA-LIGAND FREE ENERGY PREDICTED BY IDOCK:   -1.48 KCAL/MOL
REMARK 927      BINDING AFFINITY PREDICTED BY RF-SCORE:    0.00 PKD
ROOT
HETATM    1  C   UNL     1     -12.124  13.980  68.941  1.00  0.00    -0.351 C  
HETATM    2  C   UNL     1     -11.733  12.977  67.859  1.00  0.00    -0.357 C  
ENDROOT
BRANCH   2   3
HETATM    3  N   UNL     1     -10.909  13.536  66.771  1.00  0.00    -0.281 NA 
BRANCH   3   4
HETATM    4  C   UNL     1      -9.477  13.221  66.888  1.00  0.00    -0.249 C  
HETATM    5  C   UNL     1      -8.801  13.619  68.194  1.00  0.00    -0.189 C  
ENDBRANCH   3   4
BRANCH   3   6
HETATM    6  C   UNL     1     -11.497  13.168  65.463  1.00  0.00    -0.315 C  
BRANCH   6   7
HETATM    7  C   UNL     1     -10.724  13.672  64.234  1.00  0.00    -0.262 C  
BRANCH   7   8
HETATM    8  O   UNL     1     -10.430  12.577  63.355  1.00  0.00    -0.397 OA 
BRANCH   8   9
HETATM    9  C   UNL     1     -10.904  11.348  63.910  1.00  0.00    -0.393 C  
BRANCH   9  10
HETATM   10  C   UNL     1      -9.731  10.449  64.294  1.00  0.00    -0.326 C  
BRANCH  10  11
HETATM   11  O   UNL     1      -9.977   9.768  65.539  1.00  0.00    -0.307 OA 
BRANCH  11  12
HETATM   12  C   UNL     1      -8.946   9.795  66.434  1.00  0.00    -0.151 C  
HETATM   13  O   UNL     1      -7.835  10.246  66.175  1.00  0.00    -0.118 OA 
BRANCH  12  14
HETATM   14  C   UNL     1      -9.312   9.132  67.776  1.00  0.00    -0.152 C  
HETATM   15  C   UNL     1     -10.657   9.647  68.357  1.00  0.00    -0.264 C  
HETATM   16  C   UNL     1      -8.303   9.689  68.815  1.00  0.00    -0.111 C  
HETATM   17  C   UNL     1      -9.001   9.572  70.157  1.00  0.00    -0.269 C  
HETATM   18  C   UNL     1     -10.444   9.925  69.851  1.00  0.00    -0.309 C  
BRANCH  14  19
HETATM   19  C   UNL     1      -9.333   7.600  67.608  1.00  0.00    -0.158 A  
HETATM   20  C   UNL     1     -10.481   5.470  67.264  1.00  0.00    -0.300 A  
HETATM   21  C   UNL     1      -9.280   4.777  67.377  1.00  0.00    -0.142 A  
HETATM   22  C   UNL     1     -10.507   6.864  67.382  1.00  0.00    -0.339 A  
HETATM   23  C   UNL     1      -8.102   5.480  67.596  1.00  0.00    -0.101 A  
HETATM   24  C   UNL     1      -8.127   6.875  67.701  1.00  0.00    -0.113 A  
ENDBRANCH  14  19
ENDBRANCH  12  14
ENDBRANCH  11  12
ENDBRANCH  10  11
ENDBRANCH   9  10
ENDBRANCH   8   9
ENDBRANCH   7   8
ENDBRANCH   6   7
ENDBRANCH   3   6
ENDBRANCH   2   3
TORSDOF 11
ENDMDL
MODEL      225
REMARK 921   NORMALIZED FREE ENERGY PREDICTED BY IDOCK:   -4.02 KCAL/MOL
REMARK 922        TOTAL FREE ENERGY PREDICTED BY IDOCK:   -7.43 KCAL/MOL
REMARK 923 INTER-LIGAND FREE ENERGY PREDICTED BY IDOCK:   -6.26 KCAL/MOL
REMARK 924 INTRA-LIGAND FREE ENERGY PREDICTED BY IDOCK:   -1.16 KCAL/MOL
REMARK 927      BINDING AFFINITY PREDICTED BY RF-SCORE:    0.00 PKD
ROOT
HETATM    1  C   UNL     1     -10.463  11.189  63.430  1.00  0.00    -0.382 C  
HETATM    2  C   UNL     1     -11.382  12.399  63.581  1.00  0.00    -0.482 C  
ENDROOT
BRANCH   2   3
HETATM    3  N   UNL     1     -11.230  13.130  64.853  1.00  0.00    -0.301 NA 
BRANCH   3   4
HETATM    4  C   UNL     1     -12.312  14.090  65.120  1.00  0.00    -0.453 C  
HETATM    5  C   UNL     1     -12.261  15.399  64.342  1.00  0.00    -0.161 C  
ENDBRANCH   3   4
BRANCH   3   6
HETATM    6  C   UNL     1     -11.000  12.167  65.955  1.00  0.00    -0.292 C  
BRANCH   6   7
HETATM    7  C   UNL     1     -11.849  12.401  67.214  1.00  0.00    -0.287 C  
BRANCH   7   8
HETATM    8  O   UNL     1     -11.007  12.439  68.375  1.00  0.00    -0.217 OA 
BRANCH   8   9
HETATM    9  C   UNL     1      -9.635  12.293  68.003  1.00  0.00    -0.206 C  
BRANCH   9  10
HETATM   10  C   UNL     1      -9.013  11.094  68.715  1.00  0.00    -0.131 C  
BRANCH  10  11
HETATM   11  O   UNL     1      -9.994  10.377  69.488  1.00  0.00    -0.227 OA 
BRANCH  11  12
HETATM   12  C   UNL     1     -10.178   9.072  69.134  1.00  0.00    -0.205 C  
HETATM   13  O   UNL     1     -10.358   8.702  67.978  1.00  0.00    -0.214 OA 
BRANCH  12  14
HETATM   14  C   UNL     1     -10.205   8.128  70.352  1.00  0.00    -0.203 C  
HETATM   15  C   UNL     1     -11.641   7.882  70.893  1.00  0.00    -0.286 C  
HETATM   16  C   UNL     1      -9.575   8.926  71.524  1.00  0.00    -0.362 C  
HETATM   17  C   UNL     1     -10.150   8.310  72.786  1.00  0.00    -0.333 C  
HETATM   18  C   UNL     1     -11.591   8.007  72.421  1.00  0.00    -0.450 C  
BRANCH  14  19
HETATM   19  C   UNL     1      -9.515   6.798  69.991  1.00  0.00    -0.158 A  
HETATM   20  C   UNL     1      -7.555   5.455  69.421  1.00  0.00    -0.077 A  
HETATM   21  C   UNL     1      -8.346   4.321  69.268  1.00  0.00    -0.085 A  
HETATM   22  C   UNL     1      -8.133   6.679  69.774  1.00  0.00    -0.126 A  
HETATM   23  C   UNL     1      -9.715   4.408  69.482  1.00  0.00    -0.280 A  
HETATM   24  C   UNL     1     -10.292   5.630  69.847  1.00  0.00    -0.347 A  
ENDBRANCH  14  19
ENDBRANCH  12  14
ENDBRANCH  11  12
ENDBRANCH  10  11
ENDBRANCH   9  10
ENDBRANCH   8   9
ENDBRANCH   7   8
ENDBRANCH   6   7
ENDBRANCH   3   6
ENDBRANCH   2   3
TORSDOF 11
ENDMDL
MODEL      226
REMARK 921   NORMALIZED FREE ENERGY PREDICTED BY IDOCK:   -4.01 KCAL/MOL
REMARK 922        TOTAL FREE ENERGY PREDICTED BY IDOCK:   -7.41 KCAL/MOL
REMARK 923 INTER-LIGAND FREE ENERGY PREDICTED BY IDOCK:   -6.48 KCAL/MOL
REMARK 924 INTRA-LIGAND FREE ENERGY PREDICTED BY IDOCK:   -0.94 KCAL/MOL
REMARK 927      BINDING AFFINITY PREDICTED BY RF-SCORE:    0.00 PKD
ROOT
HETATM    1  C   UNL     1      -9.420   3.886  68.513  1.00  0.00    -0.213 C  
HETATM    2  C   UNL     1      -8.641   4.693  69.549  1.00  0.00    -0.081 C  
ENDROOT
BRANCH   2   3
HETATM    3  N   UNL     1      -8.317   6.072  69.136  1.00  0.00    -0.114 NA 
BRANCH   3   4
HETATM    4  C   UNL     1      -8.367   6.284  67.681  1.00  0.00    -0.117 C  
HETATM    5  C   UNL     1      -9.392   7.294  67.181  1.00  0.00    -0.170 C  
ENDBRANCH   3   4
BRANCH   3   6
HETATM    6  C   UNL     1      -9.142   7.028  69.909  1.00  0.00    -0.141 C  
BRANCH   6   7
HETATM    7  C   UNL     1      -8.369   7.888  70.921  1.00  0.00    -0.115 C  
BRANCH   7   8
HETATM    8  O   UNL     1      -9.135   9.052  71.265  1.00  0.00    -0.235 OA 
BRANCH   8   9
HETATM    9  C   UNL     1     -10.120   9.316  70.263  1.00  0.00    -0.219 C  
BRANCH   9  10
HETATM   10  C   UNL     1      -9.579  10.301  69.230  1.00  0.00    -0.224 C  
BRANCH  10  11
HETATM   11  O   UNL     1     -10.277  11.560  69.289  1.00  0.00    -0.084 OA 
BRANCH  11  12
HETATM   12  C   UNL     1     -11.233  11.744  68.333  1.00  0.00    -0.251 C  
HETATM   13  O   UNL     1     -12.187  10.988  68.173  1.00  0.00    -0.578 OA 
BRANCH  12  14
HETATM   14  C   UNL     1     -10.944  12.962  67.435  1.00  0.00    -0.288 C  
HETATM   15  C   UNL     1      -9.557  13.604  67.718  1.00  0.00    -0.224 C  
HETATM   16  C   UNL     1     -11.899  14.086  67.919  1.00  0.00    -0.411 C  
HETATM   17  C   UNL     1     -11.224  15.386  67.526  1.00  0.00    -0.302 C  
HETATM   18  C   UNL     1      -9.752  15.125  67.778  1.00  0.00    -0.211 C  
BRANCH  14  19
HETATM   19  C   UNL     1     -11.073  12.556  65.954  1.00  0.00    -0.334 A  
HETATM   20  C   UNL     1     -10.167  11.710  63.848  1.00  0.00    -0.409 A  
HETATM   21  C   UNL     1     -11.392  11.900  63.217  1.00  0.00    -0.373 A  
HETATM   22  C   UNL     1     -10.009  12.038  65.199  1.00  0.00    -0.265 A  
HETATM   23  C   UNL     1     -12.464  12.406  63.941  1.00  0.00    -0.573 A  
HETATM   24  C   UNL     1     -12.309  12.722  65.295  1.00  0.00    -0.546 A  
ENDBRANCH  14  19
ENDBRANCH  12  14
ENDBRANCH  11  12
ENDBRANCH  10  11
ENDBRANCH   9  10
ENDBRANCH   8   9
ENDBRANCH   7   8
ENDBRANCH   6   7
ENDBRANCH   3   6
ENDBRANCH   2   3
TORSDOF 11
ENDMDL
MODEL      227
REMARK 921   NORMALIZED FREE ENERGY PREDICTED BY IDOCK:   -4.01 KCAL/MOL
REMARK 922        TOTAL FREE ENERGY PREDICTED BY IDOCK:   -7.40 KCAL/MOL
REMARK 923 INTER-LIGAND FREE ENERGY PREDICTED BY IDOCK:   -6.38 KCAL/MOL
REMARK 924 INTRA-LIGAND FREE ENERGY PREDICTED BY IDOCK:   -1.02 KCAL/MOL
REMARK 927      BINDING AFFINITY PREDICTED BY RF-SCORE:    0.00 PKD
ROOT
HETATM    1  C   UNL     1     -13.388   9.561  72.327  1.00  0.00    -0.526 C  
HETATM    2  C   UNL     1     -12.558   9.264  71.080  1.00  0.00    -0.257 C  
ENDROOT
BRANCH   2   3
HETATM    3  N   UNL     1     -11.240   9.926  71.048  1.00  0.00    -0.363 NA 
BRANCH   3   4
HETATM    4  C   UNL     1     -10.127   9.052  71.449  1.00  0.00    -0.329 C  
HETATM    5  C   UNL     1      -9.620   8.075  70.394  1.00  0.00    -0.174 C  
ENDBRANCH   3   4
BRANCH   3   6
HETATM    6  C   UNL     1     -11.044  10.578  69.733  1.00  0.00    -0.295 C  
BRANCH   6   7
HETATM    7  C   UNL     1     -11.937  11.801  69.472  1.00  0.00    -0.300 C  
BRANCH   7   8
HETATM    8  O   UNL     1     -12.193  11.932  68.066  1.00  0.00    -0.491 OA 
BRANCH   8   9
HETATM    9  C   UNL     1     -12.270  13.311  67.698  1.00  0.00    -0.135 C  
BRANCH   9  10
HETATM   10  C   UNL     1     -11.951  13.486  66.215  1.00  0.00    -0.413 C  
BRANCH  10  11
HETATM   11  O   UNL     1     -11.113  14.636  65.991  1.00  0.00    -0.321 OA 
BRANCH  11  12
HETATM   12  C   UNL     1      -9.866  14.567  66.542  1.00  0.00    -0.285 C  
HETATM   13  O   UNL     1      -9.156  13.567  66.491  1.00  0.00    -0.211 OA 
BRANCH  12  14
HETATM   14  C   UNL     1      -9.482  15.855  67.296  1.00  0.00    -0.217 C  
HETATM   15  C   UNL     1     -10.601  16.350  68.253  1.00  0.00    -0.318 C  
HETATM   16  C   UNL     1      -9.476  16.985  66.232  1.00  0.00    -0.281 C  
HETATM   17  C   UNL     1      -9.731  18.266  67.004  1.00  0.00    -0.305 C  
HETATM   18  C   UNL     1     -10.750  17.864  68.053  1.00  0.00    -0.307 C  
BRANCH  14  19
HETATM   19  C   UNL     1      -8.160  15.635  68.057  1.00  0.00    -0.140 A  
HETATM   20  C   UNL     1      -6.871  14.908  70.001  1.00  0.00    -0.129 A  
HETATM   21  C   UNL     1      -5.687  15.332  69.405  1.00  0.00    -0.100 A  
HETATM   22  C   UNL     1      -8.092  15.062  69.337  1.00  0.00    -0.155 A  
HETATM   23  C   UNL     1      -5.724  15.899  68.138  1.00  0.00    -0.122 A  
HETATM   24  C   UNL     1      -6.945  16.040  67.468  1.00  0.00    -0.205 A  
ENDBRANCH  14  19
ENDBRANCH  12  14
ENDBRANCH  11  12
ENDBRANCH  10  11
ENDBRANCH   9  10
ENDBRANCH   8   9
ENDBRANCH   7   8
ENDBRANCH   6   7
ENDBRANCH   3   6
ENDBRANCH   2   3
TORSDOF 11
ENDMDL
MODEL      228
REMARK 921   NORMALIZED FREE ENERGY PREDICTED BY IDOCK:   -4.00 KCAL/MOL
REMARK 922        TOTAL FREE ENERGY PREDICTED BY IDOCK:   -7.39 KCAL/MOL
REMARK 923 INTER-LIGAND FREE ENERGY PREDICTED BY IDOCK:   -6.38 KCAL/MOL
REMARK 924 INTRA-LIGAND FREE ENERGY PREDICTED BY IDOCK:   -1.01 KCAL/MOL
REMARK 927      BINDING AFFINITY PREDICTED BY RF-SCORE:    0.00 PKD
ROOT
HETATM    1  C   UNL     1      -9.937  15.188  65.622  1.00  0.00    -0.387 C  
HETATM    2  C   UNL     1     -11.103  14.701  64.765  1.00  0.00    -0.384 C  
ENDROOT
BRANCH   2   3
HETATM    3  N   UNL     1     -11.449  13.279  64.949  1.00  0.00    -0.309 NA 
BRANCH   3   4
HETATM    4  C   UNL     1     -10.331  12.357  64.695  1.00  0.00    -0.307 C  
HETATM    5  C   UNL     1     -10.073  11.992  63.238  1.00  0.00    -0.379 C  
ENDBRANCH   3   4
BRANCH   3   6
HETATM    6  C   UNL     1     -12.089  13.092  66.272  1.00  0.00    -0.386 C  
BRANCH   6   7
HETATM    7  C   UNL     1     -11.270  12.275  67.283  1.00  0.00    -0.300 C  
BRANCH   7   8
HETATM    8  O   UNL     1     -11.783  10.937  67.366  1.00  0.00    -0.510 OA 
BRANCH   8   9
HETATM    9  C   UNL     1     -10.849  10.083  68.029  1.00  0.00    -0.260 C  
BRANCH   9  10
HETATM   10  C   UNL     1     -10.505  10.638  69.409  1.00  0.00    -0.225 C  
BRANCH  10  11
HETATM   11  O   UNL     1      -9.905   9.631  70.245  1.00  0.00    -0.241 OA 
BRANCH  11  12
HETATM   12  C   UNL     1     -10.780   8.881  70.977  1.00  0.00    -0.247 C  
HETATM   13  O   UNL     1     -11.888   9.279  71.324  1.00  0.00    -0.297 OA 
BRANCH  12  14
HETATM   14  C   UNL     1     -10.195   7.514  71.379  1.00  0.00    -0.201 C  
HETATM   15  C   UNL     1      -9.912   6.596  70.158  1.00  0.00    -0.190 C  
HETATM   16  C   UNL     1     -11.350   6.743  72.072  1.00  0.00    -0.308 C  
HETATM   17  C   UNL     1     -11.017   5.273  71.895  1.00  0.00    -0.168 C  
HETATM   18  C   UNL     1     -10.440   5.196  70.495  1.00  0.00    -0.278 C  
BRANCH  14  19
HETATM   19  C   UNL     1      -8.920   7.723  72.220  1.00  0.00    -0.194 A  
HETATM   20  C   UNL     1      -7.753   8.382  74.262  1.00  0.00    -0.248 A  
HETATM   21  C   UNL     1      -6.520   8.139  73.665  1.00  0.00    -0.130 A  
HETATM   22  C   UNL     1      -8.937   8.180  73.547  1.00  0.00    -0.295 A  
HETATM   23  C   UNL     1      -6.473   7.682  72.354  1.00  0.00    -0.056 A  
HETATM   24  C   UNL     1      -7.659   7.467  71.644  1.00  0.00    -0.084 A  
ENDBRANCH  14  19
ENDBRANCH  12  14
ENDBRANCH  11  12
ENDBRANCH  10  11
ENDBRANCH   9  10
ENDBRANCH   8   9
ENDBRANCH   7   8
ENDBRANCH   6   7
ENDBRANCH   3   6
ENDBRANCH   2   3
TORSDOF 11
ENDMDL
MODEL      229
REMARK 921   NORMALIZED FREE ENERGY PREDICTED BY IDOCK:   -3.99 KCAL/MOL
REMARK 922        TOTAL FREE ENERGY PREDICTED BY IDOCK:   -7.38 KCAL/MOL
REMARK 923 INTER-LIGAND FREE ENERGY PREDICTED BY IDOCK:   -6.29 KCAL/MOL
REMARK 924 INTRA-LIGAND FREE ENERGY PREDICTED BY IDOCK:   -1.09 KCAL/MOL
REMARK 927      BINDING AFFINITY PREDICTED BY RF-SCORE:    0.00 PKD
ROOT
HETATM    1  C   UNL     1      -7.795   5.166  70.794  1.00  0.00    -0.088 C  
HETATM    2  C   UNL     1      -8.036   6.662  70.599  1.00  0.00    -0.111 C  
ENDROOT
BRANCH   2   3
HETATM    3  N   UNL     1      -9.452   7.069  70.664  1.00  0.00    -0.166 NA 
BRANCH   3   4
HETATM    4  C   UNL     1      -9.971   7.198  72.034  1.00  0.00    -0.162 C  
HETATM    5  C   UNL     1     -11.105   6.255  72.418  1.00  0.00    -0.307 C  
ENDBRANCH   3   4
BRANCH   3   6
HETATM    6  C   UNL     1      -9.659   8.276  69.831  1.00  0.00    -0.171 C  
BRANCH   6   7
HETATM    7  C   UNL     1     -10.150   9.518  70.591  1.00  0.00    -0.286 C  
BRANCH   7   8
HETATM    8  O   UNL     1     -10.861  10.390  69.702  1.00  0.00    -0.240 OA 
BRANCH   8   9
HETATM    9  C   UNL     1     -10.313  10.316  68.384  1.00  0.00    -0.177 C  
BRANCH   9  10
HETATM   10  C   UNL     1      -9.312  11.447  68.158  1.00  0.00    -0.181 C  
BRANCH  10  11
HETATM   11  O   UNL     1      -9.368  11.934  66.804  1.00  0.00    -0.189 OA 
BRANCH  11  12
HETATM   12  C   UNL     1      -9.417  13.292  66.673  1.00  0.00    -0.260 C  
HETATM   13  O   UNL     1      -8.426  14.015  66.725  1.00  0.00    -0.141 OA 
BRANCH  12  14
HETATM   14  C   UNL     1     -10.857  13.820  66.525  1.00  0.00    -0.287 C  
HETATM   15  C   UNL     1     -11.848  12.735  66.018  1.00  0.00    -0.495 C  
HETATM   16  C   UNL     1     -10.833  14.792  65.315  1.00  0.00    -0.395 C  
HETATM   17  C   UNL     1     -12.253  14.808  64.782  1.00  0.00    -0.356 C  
HETATM   18  C   UNL     1     -12.712  13.369  64.921  1.00  0.00    -0.365 C  
BRANCH  14  19
HETATM   19  C   UNL     1     -11.330  14.418  67.864  1.00  0.00    -0.322 A  
HETATM   20  C   UNL     1     -12.498  14.291  70.006  1.00  0.00    -0.355 A  
HETATM   21  C   UNL     1     -12.211  15.626  70.269  1.00  0.00    -0.416 A  
HETATM   22  C   UNL     1     -12.066  13.696  68.816  1.00  0.00    -0.332 A  
HETATM   23  C   UNL     1     -11.481  16.364  69.347  1.00  0.00    -0.143 A  
HETATM   24  C   UNL     1     -11.038  15.765  68.163  1.00  0.00    -0.341 A  
ENDBRANCH  14  19
ENDBRANCH  12  14
ENDBRANCH  11  12
ENDBRANCH  10  11
ENDBRANCH   9  10
ENDBRANCH   8   9
ENDBRANCH   7   8
ENDBRANCH   6   7
ENDBRANCH   3   6
ENDBRANCH   2   3
TORSDOF 11
ENDMDL
MODEL      230
REMARK 921   NORMALIZED FREE ENERGY PREDICTED BY IDOCK:   -3.99 KCAL/MOL
REMARK 922        TOTAL FREE ENERGY PREDICTED BY IDOCK:   -7.37 KCAL/MOL
REMARK 923 INTER-LIGAND FREE ENERGY PREDICTED BY IDOCK:   -5.89 KCAL/MOL
REMARK 924 INTRA-LIGAND FREE ENERGY PREDICTED BY IDOCK:   -1.49 KCAL/MOL
REMARK 927      BINDING AFFINITY PREDICTED BY RF-SCORE:    0.00 PKD
ROOT
HETATM    1  C   UNL     1     -13.476  12.298  71.508  1.00  0.00     0.039 C  
HETATM    2  C   UNL     1     -12.250  11.581  70.948  1.00  0.00    -0.322 C  
ENDROOT
BRANCH   2   3
HETATM    3  N   UNL     1     -11.806  12.064  69.626  1.00  0.00    -0.328 NA 
BRANCH   3   4
HETATM    4  C   UNL     1     -11.322  13.453  69.633  1.00  0.00    -0.137 C  
HETATM    5  C   UNL     1     -12.202  14.478  68.927  1.00  0.00    -0.194 C  
ENDBRANCH   3   4
BRANCH   3   6
HETATM    6  C   UNL     1     -10.846  11.099  69.043  1.00  0.00    -0.231 C  
BRANCH   6   7
HETATM    7  C   UNL     1     -10.613  11.244  67.531  1.00  0.00    -0.218 C  
BRANCH   7   8
HETATM    8  O   UNL     1     -11.805  11.723  66.893  1.00  0.00    -0.591 OA 
BRANCH   8   9
HETATM    9  C   UNL     1     -11.479  12.640  65.847  1.00  0.00    -0.363 C  
BRANCH   9  10
HETATM   10  C   UNL     1     -10.057  13.167  66.024  1.00  0.00    -0.286 C  
BRANCH  10  11
HETATM   11  O   UNL     1     -10.043  14.598  66.184  1.00  0.00    -0.273 OA 
BRANCH  11  12
HETATM   12  C   UNL     1      -9.230  15.068  67.175  1.00  0.00    -0.216 C  
HETATM   13  O   UNL     1      -8.586  14.341  67.925  1.00  0.00    -0.153 OA 
BRANCH  12  14
HETATM   14  C   UNL     1      -9.267  16.604  67.291  1.00  0.00    -0.228 C  
HETATM   15  C   UNL     1     -10.167  17.099  68.456  1.00  0.00    -0.346 C  
HETATM   16  C   UNL     1     -10.068  17.105  66.060  1.00  0.00    -0.303 C  
HETATM   17  C   UNL     1     -10.640  18.449  66.470  1.00  0.00    -0.344 C  
HETATM   18  C   UNL     1     -11.028  18.252  67.924  1.00  0.00    -0.078 C  
BRANCH  14  19
HETATM   19  C   UNL     1      -7.832  17.148  67.431  1.00  0.00    -0.191 A  
HETATM   20  C   UNL     1      -5.603  17.639  66.559  1.00  0.00    -0.228 A  
HETATM   21  C   UNL     1      -5.194  18.109  67.803  1.00  0.00    -0.147 A  
HETATM   22  C   UNL     1      -6.905  17.161  66.377  1.00  0.00    -0.284 A  
HETATM   23  C   UNL     1      -6.091  18.111  68.863  1.00  0.00    -0.209 A  
HETATM   24  C   UNL     1      -7.397  17.645  68.677  1.00  0.00    -0.257 A  
ENDBRANCH  14  19
ENDBRANCH  12  14
ENDBRANCH  11  12
ENDBRANCH  10  11
ENDBRANCH   9  10
ENDBRANCH   8   9
ENDBRANCH   7   8
ENDBRANCH   6   7
ENDBRANCH   3   6
ENDBRANCH   2   3
TORSDOF 11
ENDMDL
MODEL      231
REMARK 921   NORMALIZED FREE ENERGY PREDICTED BY IDOCK:   -3.99 KCAL/MOL
REMARK 922        TOTAL FREE ENERGY PREDICTED BY IDOCK:   -7.37 KCAL/MOL
REMARK 923 INTER-LIGAND FREE ENERGY PREDICTED BY IDOCK:   -6.56 KCAL/MOL
REMARK 924 INTRA-LIGAND FREE ENERGY PREDICTED BY IDOCK:   -0.81 KCAL/MOL
REMARK 927      BINDING AFFINITY PREDICTED BY RF-SCORE:    0.00 PKD
ROOT
HETATM    1  C   UNL     1     -10.835   5.952  69.794  1.00  0.00    -0.447 C  
HETATM    2  C   UNL     1     -11.885   6.751  70.562  1.00  0.00    -0.362 C  
ENDROOT
BRANCH   2   3
HETATM    3  N   UNL     1     -11.623   8.201  70.635  1.00  0.00    -0.242 NA 
BRANCH   3   4
HETATM    4  C   UNL     1     -11.311   8.681  71.990  1.00  0.00    -0.362 C  
HETATM    5  C   UNL     1     -10.888   7.623  73.002  1.00  0.00    -0.457 C  
ENDBRANCH   3   4
BRANCH   3   6
HETATM    6  C   UNL     1     -10.609   8.573  69.621  1.00  0.00    -0.220 C  
BRANCH   6   7
HETATM    7  C   UNL     1      -9.546   9.576  70.098  1.00  0.00    -0.248 C  
BRANCH   7   8
HETATM    8  O   UNL     1      -8.533   9.733  69.095  1.00  0.00    -0.124 OA 
BRANCH   8   9
HETATM    9  C   UNL     1      -7.741  10.893  69.362  1.00  0.00    -0.066 C  
BRANCH   9  10
HETATM   10  C   UNL     1      -7.481  11.670  68.073  1.00  0.00    -0.100 C  
BRANCH  10  11
HETATM   11  O   UNL     1      -8.001  13.011  68.156  1.00  0.00    -0.135 OA 
BRANCH  11  12
HETATM   12  C   UNL     1      -9.216  13.204  67.565  1.00  0.00    -0.206 C  
HETATM   13  O   UNL     1      -9.747  12.385  66.821  1.00  0.00    -0.212 OA 
BRANCH  12  14
HETATM   14  C   UNL     1      -9.810  14.591  67.877  1.00  0.00    -0.222 C  
HETATM   15  C   UNL     1     -10.536  15.225  66.658  1.00  0.00    -0.304 C  
HETATM   16  C   UNL     1      -8.598  15.549  68.034  1.00  0.00    -0.155 C  
HETATM   17  C   UNL     1      -9.131  16.931  67.708  1.00  0.00    -0.229 C  
HETATM   18  C   UNL     1     -10.095  16.691  66.562  1.00  0.00    -0.313 C  
BRANCH  14  19
HETATM   19  C   UNL     1     -10.753  14.490  69.091  1.00  0.00    -0.263 A  
HETATM   20  C   UNL     1     -12.514  13.398  70.386  1.00  0.00    -0.322 A  
HETATM   21  C   UNL     1     -12.494  14.424  71.324  1.00  0.00    -0.423 A  
HETATM   22  C   UNL     1     -11.657  13.432  69.281  1.00  0.00    -0.365 A  
HETATM   23  C   UNL     1     -11.607  15.481  71.164  1.00  0.00    -0.446 A  
HETATM   24  C   UNL     1     -10.741  15.509  70.066  1.00  0.00    -0.331 A  
ENDBRANCH  14  19
ENDBRANCH  12  14
ENDBRANCH  11  12
ENDBRANCH  10  11
ENDBRANCH   9  10
ENDBRANCH   8   9
ENDBRANCH   7   8
ENDBRANCH   6   7
ENDBRANCH   3   6
ENDBRANCH   2   3
TORSDOF 11
ENDMDL
MODEL      232
REMARK 921   NORMALIZED FREE ENERGY PREDICTED BY IDOCK:   -3.98 KCAL/MOL
REMARK 922        TOTAL FREE ENERGY PREDICTED BY IDOCK:   -7.36 KCAL/MOL
REMARK 923 INTER-LIGAND FREE ENERGY PREDICTED BY IDOCK:   -6.18 KCAL/MOL
REMARK 924 INTRA-LIGAND FREE ENERGY PREDICTED BY IDOCK:   -1.18 KCAL/MOL
REMARK 927      BINDING AFFINITY PREDICTED BY RF-SCORE:    0.00 PKD
ROOT
HETATM    1  C   UNL     1      -7.683  16.735  68.344  1.00  0.00    -0.208 C  
HETATM    2  C   UNL     1      -8.809  17.753  68.169  1.00  0.00    -0.267 C  
ENDROOT
BRANCH   2   3
HETATM    3  N   UNL     1     -10.106  17.172  67.772  1.00  0.00    -0.294 NA 
BRANCH   3   4
HETATM    4  C   UNL     1     -10.430  17.358  66.350  1.00  0.00    -0.267 C  
HETATM    5  C   UNL     1     -10.435  16.102  65.487  1.00  0.00    -0.407 C  
ENDBRANCH   3   4
BRANCH   3   6
HETATM    6  C   UNL     1     -10.176  15.763  68.221  1.00  0.00    -0.225 C  
BRANCH   6   7
HETATM    7  C   UNL     1     -11.441  15.392  69.012  1.00  0.00    -0.337 C  
BRANCH   7   8
HETATM    8  O   UNL     1     -11.835  14.046  68.706  1.00  0.00    -0.324 OA 
BRANCH   8   9
HETATM    9  C   UNL     1     -10.900  13.442  67.809  1.00  0.00    -0.252 C  
BRANCH   9  10
HETATM   10  C   UNL     1     -11.482  12.163  67.215  1.00  0.00    -0.345 C  
BRANCH  10  11
HETATM   11  O   UNL     1     -11.225  11.026  68.062  1.00  0.00    -0.262 OA 
BRANCH  11  12
HETATM   12  C   UNL     1     -10.384  10.086  67.540  1.00  0.00    -0.232 C  
HETATM   13  O   UNL     1     -10.386   9.755  66.358  1.00  0.00    -0.233 OA 
BRANCH  12  14
HETATM   14  C   UNL     1      -9.485   9.439  68.611  1.00  0.00    -0.147 C  
HETATM   15  C   UNL     1      -8.486  10.444  69.249  1.00  0.00    -0.162 C  
HETATM   16  C   UNL     1      -8.516   8.500  67.843  1.00  0.00    -0.130 C  
HETATM   17  C   UNL     1      -7.292   8.372  68.730  1.00  0.00    -0.087 C  
HETATM   18  C   UNL     1      -7.114   9.762  69.310  1.00  0.00    -0.066 C  
BRANCH  14  19
HETATM   19  C   UNL     1     -10.361   8.771  69.688  1.00  0.00    -0.213 A  
HETATM   20  C   UNL     1     -11.429   8.710  71.885  1.00  0.00    -0.419 A  
HETATM   21  C   UNL     1     -11.930   7.436  71.633  1.00  0.00    -0.339 A  
HETATM   22  C   UNL     1     -10.651   9.367  70.926  1.00  0.00    -0.390 A  
HETATM   23  C   UNL     1     -11.663   6.825  70.415  1.00  0.00    -0.418 A  
HETATM   24  C   UNL     1     -10.895   7.488  69.451  1.00  0.00    -0.161 A  
ENDBRANCH  14  19
ENDBRANCH  12  14
ENDBRANCH  11  12
ENDBRANCH  10  11
ENDBRANCH   9  10
ENDBRANCH   8   9
ENDBRANCH   7   8
ENDBRANCH   6   7
ENDBRANCH   3   6
ENDBRANCH   2   3
TORSDOF 11
ENDMDL
MODEL      233
REMARK 921   NORMALIZED FREE ENERGY PREDICTED BY IDOCK:   -3.97 KCAL/MOL
REMARK 922        TOTAL FREE ENERGY PREDICTED BY IDOCK:   -7.34 KCAL/MOL
REMARK 923 INTER-LIGAND FREE ENERGY PREDICTED BY IDOCK:   -6.64 KCAL/MOL
REMARK 924 INTRA-LIGAND FREE ENERGY PREDICTED BY IDOCK:   -0.70 KCAL/MOL
REMARK 927      BINDING AFFINITY PREDICTED BY RF-SCORE:    0.00 PKD
ROOT
HETATM    1  C   UNL     1     -10.001  20.137  66.845  1.00  0.00    -0.600 C  
HETATM    2  C   UNL     1     -10.289  19.773  68.300  1.00  0.00    -0.410 C  
ENDROOT
BRANCH   2   3
HETATM    3  N   UNL     1      -9.342  18.809  68.891  1.00  0.00    -0.299 NA 
BRANCH   3   4
HETATM    4  C   UNL     1      -9.761  17.405  68.758  1.00  0.00    -0.282 C  
HETATM    5  C   UNL     1     -11.205  17.092  69.132  1.00  0.00     0.374 C  
ENDBRANCH   3   4
BRANCH   3   6
HETATM    6  C   UNL     1      -7.978  19.076  68.380  1.00  0.00    -0.340 C  
BRANCH   6   7
HETATM    7  C   UNL     1      -7.424  18.016  67.415  1.00  0.00    -0.203 C  
BRANCH   7   8
HETATM    8  O   UNL     1      -6.518  17.146  68.109  1.00  0.00    -0.142 OA 
BRANCH   8   9
HETATM    9  C   UNL     1      -6.728  15.788  67.713  1.00  0.00    -0.156 C  
BRANCH   9  10
HETATM   10  C   UNL     1      -7.953  15.679  66.810  1.00  0.00    -0.211 C  
BRANCH  10  11
HETATM   11  O   UNL     1      -8.357  14.307  66.637  1.00  0.00    -0.041 OA 
BRANCH  11  12
HETATM   12  C   UNL     1      -9.557  13.976  67.199  1.00  0.00    -0.245 C  
HETATM   13  O   UNL     1      -9.826  14.164  68.382  1.00  0.00    -0.221 OA 
BRANCH  12  14
HETATM   14  C   UNL     1     -10.502  13.276  66.204  1.00  0.00    -0.296 C  
HETATM   15  C   UNL     1     -10.432  13.884  64.776  1.00  0.00    -0.451 C  
HETATM   16  C   UNL     1     -11.940  13.677  66.629  1.00  0.00    -0.458 C  
HETATM   17  C   UNL     1     -12.782  13.552  65.373  1.00  0.00    -0.495 C  
HETATM   18  C   UNL     1     -11.870  14.057  64.271  1.00  0.00    -0.435 C  
BRANCH  14  19
HETATM   19  C   UNL     1     -10.201  11.765  66.178  1.00  0.00    -0.255 A  
HETATM   20  C   UNL     1      -9.971   9.580  67.245  1.00  0.00    -0.244 A  
HETATM   21  C   UNL     1      -9.564   9.009  66.044  1.00  0.00    -0.342 A  
HETATM   22  C   UNL     1     -10.281  10.942  67.312  1.00  0.00    -0.242 A  
HETATM   23  C   UNL     1      -9.479   9.798  64.905  1.00  0.00    -0.331 A  
HETATM   24  C   UNL     1      -9.803  11.158  64.969  1.00  0.00    -0.315 A  
ENDBRANCH  14  19
ENDBRANCH  12  14
ENDBRANCH  11  12
ENDBRANCH  10  11
ENDBRANCH   9  10
ENDBRANCH   8   9
ENDBRANCH   7   8
ENDBRANCH   6   7
ENDBRANCH   3   6
ENDBRANCH   2   3
TORSDOF 11
ENDMDL
MODEL      234
REMARK 921   NORMALIZED FREE ENERGY PREDICTED BY IDOCK:   -3.97 KCAL/MOL
REMARK 922        TOTAL FREE ENERGY PREDICTED BY IDOCK:   -7.34 KCAL/MOL
REMARK 923 INTER-LIGAND FREE ENERGY PREDICTED BY IDOCK:   -5.80 KCAL/MOL
REMARK 924 INTRA-LIGAND FREE ENERGY PREDICTED BY IDOCK:   -1.54 KCAL/MOL
REMARK 927      BINDING AFFINITY PREDICTED BY RF-SCORE:    0.00 PKD
ROOT
HETATM    1  C   UNL     1     -11.463  12.254  66.410  1.00  0.00    -0.434 C  
HETATM    2  C   UNL     1     -11.707  12.948  67.748  1.00  0.00    -0.362 C  
ENDROOT
BRANCH   2   3
HETATM    3  N   UNL     1     -11.095  12.276  68.910  1.00  0.00    -0.234 NA 
BRANCH   3   4
HETATM    4  C   UNL     1     -12.060  11.563  69.761  1.00  0.00    -0.306 C  
HETATM    5  C   UNL     1     -12.523  12.293  71.016  1.00  0.00    -0.361 C  
ENDBRANCH   3   4
BRANCH   3   6
HETATM    6  C   UNL     1      -9.963  11.435  68.456  1.00  0.00    -0.201 C  
BRANCH   6   7
HETATM    7  C   UNL     1      -9.722  10.163  69.284  1.00  0.00    -0.224 C  
BRANCH   7   8
HETATM    8  O   UNL     1     -10.224   9.016  68.582  1.00  0.00    -0.194 OA 
BRANCH   8   9
HETATM    9  C   UNL     1      -9.551   8.862  67.331  1.00  0.00    -0.157 C  
BRANCH   9  10
HETATM   10  C   UNL     1      -8.763   7.555  67.307  1.00  0.00    -0.121 C  
BRANCH  10  11
HETATM   11  O   UNL     1      -9.268   6.619  68.278  1.00  0.00    -0.124 OA 
BRANCH  11  12
HETATM   12  C   UNL     1      -8.404   6.298  69.285  1.00  0.00    -0.117 C  
HETATM   13  O   UNL     1      -7.197   6.515  69.238  1.00  0.00    -0.084 OA 
BRANCH  12  14
HETATM   14  C   UNL     1      -9.100   5.571  70.452  1.00  0.00    -0.164 C  
HETATM   15  C   UNL     1      -8.115   5.159  71.580  1.00  0.00    -0.115 C  
HETATM   16  C   UNL     1      -9.520   4.183  69.898  1.00  0.00    -0.265 C  
HETATM   17  C   UNL     1      -9.604   3.274  71.110  1.00  0.00    -0.230 C  
HETATM   18  C   UNL     1      -8.440   3.713  71.977  1.00  0.00    -0.095 C  
BRANCH  14  19
HETATM   19  C   UNL     1     -10.238   6.450  71.005  1.00  0.00    -0.227 A  
HETATM   20  C   UNL     1     -12.590   7.082  71.208  1.00  0.00    -0.418 A  
HETATM   21  C   UNL     1     -12.255   8.162  72.018  1.00  0.00    -0.385 A  
HETATM   22  C   UNL     1     -11.593   6.240  70.705  1.00  0.00    -0.350 A  
HETATM   23  C   UNL     1     -10.922   8.392  72.336  1.00  0.00    -0.425 A  
HETATM   24  C   UNL     1      -9.927   7.541  71.843  1.00  0.00    -0.204 A  
ENDBRANCH  14  19
ENDBRANCH  12  14
ENDBRANCH  11  12
ENDBRANCH  10  11
ENDBRANCH   9  10
ENDBRANCH   8   9
ENDBRANCH   7   8
ENDBRANCH   6   7
ENDBRANCH   3   6
ENDBRANCH   2   3
TORSDOF 11
ENDMDL
MODEL      235
REMARK 921   NORMALIZED FREE ENERGY PREDICTED BY IDOCK:   -3.97 KCAL/MOL
REMARK 922        TOTAL FREE ENERGY PREDICTED BY IDOCK:   -7.34 KCAL/MOL
REMARK 923 INTER-LIGAND FREE ENERGY PREDICTED BY IDOCK:   -6.86 KCAL/MOL
REMARK 924 INTRA-LIGAND FREE ENERGY PREDICTED BY IDOCK:   -0.48 KCAL/MOL
REMARK 927      BINDING AFFINITY PREDICTED BY RF-SCORE:    0.00 PKD
ROOT
HETATM    1  C   UNL     1     -14.115   8.744  72.423  1.00  0.00    -0.485 C  
HETATM    2  C   UNL     1     -12.665   8.465  72.033  1.00  0.00    -0.360 C  
ENDROOT
BRANCH   2   3
HETATM    3  N   UNL     1     -11.903   9.654  71.608  1.00  0.00    -0.396 NA 
BRANCH   3   4
HETATM    4  C   UNL     1     -11.174   9.473  70.343  1.00  0.00    -0.270 C  
HETATM    5  C   UNL     1     -10.795   8.042  69.981  1.00  0.00    -0.235 C  
ENDBRANCH   3   4
BRANCH   3   6
HETATM    6  C   UNL     1     -12.788  10.841  71.622  1.00  0.00    -0.457 C  
BRANCH   6   7
HETATM    7  C   UNL     1     -12.381  11.971  70.663  1.00  0.00    -0.304 C  
BRANCH   7   8
HETATM    8  O   UNL     1     -12.834  13.234  71.170  1.00  0.00    -0.334 OA 
BRANCH   8   9
HETATM    9  C   UNL     1     -11.821  14.230  71.011  1.00  0.00    -0.237 C  
BRANCH   9  10
HETATM   10  C   UNL     1     -12.276  15.302  70.025  1.00  0.00    -0.349 C  
BRANCH  10  11
HETATM   11  O   UNL     1     -11.614  15.162  68.753  1.00  0.00    -0.315 OA 
BRANCH  11  12
HETATM   12  C   UNL     1     -10.959  16.274  68.309  1.00  0.00    -0.348 C  
HETATM   13  O   UNL     1     -10.961  17.346  68.907  1.00  0.00    -0.123 OA 
BRANCH  12  14
HETATM   14  C   UNL     1     -10.280  16.053  66.944  1.00  0.00    -0.280 C  
HETATM   15  C   UNL     1     -11.259  16.221  65.749  1.00  0.00     0.199 C  
HETATM   16  C   UNL     1      -9.967  14.535  66.863  1.00  0.00    -0.259 C  
HETATM   17  C   UNL     1      -9.909  14.213  65.382  1.00  0.00    -0.233 C  
HETATM   18  C   UNL     1     -11.018  15.055  64.782  1.00  0.00    -0.389 C  
BRANCH  14  19
HETATM   19  C   UNL     1      -9.072  17.001  66.807  1.00  0.00    -0.266 A  
HETATM   20  C   UNL     1      -8.063  19.220  66.652  1.00  0.00    -0.300 A  
HETATM   21  C   UNL     1      -6.800  18.661  66.483  1.00  0.00    -0.231 A  
HETATM   22  C   UNL     1      -9.185  18.400  66.808  1.00  0.00    -0.293 A  
HETATM   23  C   UNL     1      -6.659  17.279  66.482  1.00  0.00    -0.283 A  
HETATM   24  C   UNL     1      -7.780  16.459  66.651  1.00  0.00    -0.310 A  
ENDBRANCH  14  19
ENDBRANCH  12  14
ENDBRANCH  11  12
ENDBRANCH  10  11
ENDBRANCH   9  10
ENDBRANCH   8   9
ENDBRANCH   7   8
ENDBRANCH   6   7
ENDBRANCH   3   6
ENDBRANCH   2   3
TORSDOF 11
ENDMDL
MODEL      236
REMARK 921   NORMALIZED FREE ENERGY PREDICTED BY IDOCK:   -3.95 KCAL/MOL
REMARK 922        TOTAL FREE ENERGY PREDICTED BY IDOCK:   -7.31 KCAL/MOL
REMARK 923 INTER-LIGAND FREE ENERGY PREDICTED BY IDOCK:   -6.45 KCAL/MOL
REMARK 924 INTRA-LIGAND FREE ENERGY PREDICTED BY IDOCK:   -0.86 KCAL/MOL
REMARK 927      BINDING AFFINITY PREDICTED BY RF-SCORE:    0.00 PKD
ROOT
HETATM    1  C   UNL     1     -12.469  14.369  70.138  1.00  0.00    -0.395 C  
HETATM    2  C   UNL     1     -11.847  13.937  68.812  1.00  0.00    -0.361 C  
ENDROOT
BRANCH   2   3
HETATM    3  N   UNL     1     -11.934  14.942  67.736  1.00  0.00    -0.258 NA 
BRANCH   3   4
HETATM    4  C   UNL     1     -10.938  16.019  67.846  1.00  0.00    -0.327 C  
HETATM    5  C   UNL     1     -10.804  16.678  69.213  1.00  0.00    -0.310 C  
ENDBRANCH   3   4
BRANCH   3   6
HETATM    6  C   UNL     1     -11.935  14.261  66.421  1.00  0.00    -0.419 C  
BRANCH   6   7
HETATM    7  C   UNL     1     -11.040  14.907  65.351  1.00  0.00    -0.364 C  
BRANCH   7   8
HETATM    8  O   UNL     1     -10.678  13.934  64.360  1.00  0.00    -0.394 OA 
BRANCH   8   9
HETATM    9  C   UNL     1     -11.800  13.110  64.035  1.00  0.00    -0.453 C  
BRANCH   9  10
HETATM   10  C   UNL     1     -11.333  11.727  63.587  1.00  0.00    -0.436 C  
BRANCH  10  11
HETATM   11  O   UNL     1     -10.757  10.988  64.681  1.00  0.00    -0.324 OA 
BRANCH  11  12
HETATM   12  C   UNL     1      -9.446  10.640  64.525  1.00  0.00    -0.264 C  
HETATM   13  O   UNL     1      -8.931  10.410  63.435  1.00  0.00    -0.185 OA 
BRANCH  12  14
HETATM   14  C   UNL     1      -8.708  10.500  65.871  1.00  0.00    -0.178 C  
HETATM   15  C   UNL     1      -8.707  11.815  66.698  1.00  0.00    -0.186 C  
HETATM   16  C   UNL     1      -7.203  10.365  65.519  1.00  0.00    -0.138 C  
HETATM   17  C   UNL     1      -6.457  10.853  66.746  1.00  0.00    -0.115 C  
HETATM   18  C   UNL     1      -7.285  12.026  67.235  1.00  0.00    -0.150 C  
BRANCH  14  19
HETATM   19  C   UNL     1      -9.321   9.339  66.678  1.00  0.00    -0.219 A  
HETATM   20  C   UNL     1      -9.715   6.967  67.109  1.00  0.00    -0.197 A  
HETATM   21  C   UNL     1     -10.543   7.275  68.184  1.00  0.00    -0.228 A  
HETATM   22  C   UNL     1      -9.115   7.986  66.363  1.00  0.00    -0.226 A  
HETATM   23  C   UNL     1     -10.760   8.604  68.521  1.00  0.00    -0.091 A  
HETATM   24  C   UNL     1     -10.149   9.624  67.783  1.00  0.00    -0.232 A  
ENDBRANCH  14  19
ENDBRANCH  12  14
ENDBRANCH  11  12
ENDBRANCH  10  11
ENDBRANCH   9  10
ENDBRANCH   8   9
ENDBRANCH   7   8
ENDBRANCH   6   7
ENDBRANCH   3   6
ENDBRANCH   2   3
TORSDOF 11
ENDMDL
MODEL      237
REMARK 921   NORMALIZED FREE ENERGY PREDICTED BY IDOCK:   -3.95 KCAL/MOL
REMARK 922        TOTAL FREE ENERGY PREDICTED BY IDOCK:   -7.31 KCAL/MOL
REMARK 923 INTER-LIGAND FREE ENERGY PREDICTED BY IDOCK:   -6.11 KCAL/MOL
REMARK 924 INTRA-LIGAND FREE ENERGY PREDICTED BY IDOCK:   -1.20 KCAL/MOL
REMARK 927      BINDING AFFINITY PREDICTED BY RF-SCORE:    0.00 PKD
ROOT
HETATM    1  C   UNL     1     -11.229   6.323  69.542  1.00  0.00    -0.500 C  
HETATM    2  C   UNL     1     -12.021   6.780  70.765  1.00  0.00    -0.378 C  
ENDROOT
BRANCH   2   3
HETATM    3  N   UNL     1     -11.756   8.170  71.184  1.00  0.00    -0.283 NA 
BRANCH   3   4
HETATM    4  C   UNL     1     -11.193   8.285  72.538  1.00  0.00    -0.376 C  
HETATM    5  C   UNL     1     -10.809   6.980  73.224  1.00  0.00    -0.345 C  
ENDBRANCH   3   4
BRANCH   3   6
HETATM    6  C   UNL     1     -10.958   8.858  70.144  1.00  0.00    -0.227 C  
BRANCH   6   7
HETATM    7  C   UNL     1      -9.582   9.362  70.604  1.00  0.00    -0.268 C  
BRANCH   7   8
HETATM    8  O   UNL     1      -8.601   9.114  69.587  1.00  0.00    -0.127 OA 
BRANCH   8   9
HETATM    9  C   UNL     1      -7.400   9.837  69.863  1.00  0.00    -0.134 C  
BRANCH   9  10
HETATM   10  C   UNL     1      -7.166  10.908  68.801  1.00  0.00    -0.091 C  
BRANCH  10  11
HETATM   11  O   UNL     1      -8.134  11.969  68.903  1.00  0.00    -0.041 OA 
BRANCH  11  12
HETATM   12  C   UNL     1      -8.263  12.752  67.792  1.00  0.00    -0.176 C  
HETATM   13  O   UNL     1      -7.312  13.129  67.114  1.00  0.00    -0.093 OA 
BRANCH  12  14
HETATM   14  C   UNL     1      -9.724  13.168  67.529  1.00  0.00    -0.213 C  
HETATM   15  C   UNL     1     -10.747  12.322  68.336  1.00  0.00    -0.255 C  
HETATM   16  C   UNL     1     -10.040  12.716  66.078  1.00  0.00    -0.274 C  
HETATM   17  C   UNL     1     -11.545  12.532  66.032  1.00  0.00    -0.456 C  
HETATM   18  C   UNL     1     -11.880  11.925  67.381  1.00  0.00    -0.239 C  
BRANCH  14  19
HETATM   19  C   UNL     1      -9.896  14.671  67.822  1.00  0.00    -0.216 A  
HETATM   20  C   UNL     1      -9.578  17.035  67.293  1.00  0.00    -0.244 A  
HETATM   21  C   UNL     1     -10.201  17.409  68.479  1.00  0.00    -0.369 A  
HETATM   22  C   UNL     1      -9.424  15.683  66.971  1.00  0.00    -0.236 A  
HETATM   23  C   UNL     1     -10.682  16.429  69.338  1.00  0.00    -0.324 A  
HETATM   24  C   UNL     1     -10.539  15.077  69.009  1.00  0.00    -0.245 A  
ENDBRANCH  14  19
ENDBRANCH  12  14
ENDBRANCH  11  12
ENDBRANCH  10  11
ENDBRANCH   9  10
ENDBRANCH   8   9
ENDBRANCH   7   8
ENDBRANCH   6   7
ENDBRANCH   3   6
ENDBRANCH   2   3
TORSDOF 11
ENDMDL
MODEL      238
REMARK 921   NORMALIZED FREE ENERGY PREDICTED BY IDOCK:   -3.95 KCAL/MOL
REMARK 922        TOTAL FREE ENERGY PREDICTED BY IDOCK:   -7.31 KCAL/MOL
REMARK 923 INTER-LIGAND FREE ENERGY PREDICTED BY IDOCK:   -6.38 KCAL/MOL
REMARK 924 INTRA-LIGAND FREE ENERGY PREDICTED BY IDOCK:   -0.93 KCAL/MOL
REMARK 927      BINDING AFFINITY PREDICTED BY RF-SCORE:    0.00 PKD
ROOT
HETATM    1  C   UNL     1     -11.539   8.806  71.688  1.00  0.00    -0.390 C  
HETATM    2  C   UNL     1     -10.363   9.577  71.091  1.00  0.00    -0.260 C  
ENDROOT
BRANCH   2   3
HETATM    3  N   UNL     1      -9.036   9.027  71.423  1.00  0.00    -0.297 NA 
BRANCH   3   4
HETATM    4  C   UNL     1      -8.993   7.557  71.456  1.00  0.00    -0.131 C  
HETATM    5  C   UNL     1      -8.130   6.881  70.397  1.00  0.00    -0.116 C  
ENDBRANCH   3   4
BRANCH   3   6
HETATM    6  C   UNL     1      -8.012   9.635  70.542  1.00  0.00    -0.116 C  
BRANCH   6   7
HETATM    7  C   UNL     1      -8.567  10.470  69.378  1.00  0.00    -0.086 C  
BRANCH   7   8
HETATM    8  O   UNL     1      -7.710  10.349  68.233  1.00  0.00    -0.093 OA 
BRANCH   8   9
HETATM    9  C   UNL     1      -7.910  11.447  67.340  1.00  0.00    -0.135 C  
BRANCH   9  10
HETATM   10  C   UNL     1      -8.831  11.041  66.193  1.00  0.00    -0.190 C  
BRANCH  10  11
HETATM   11  O   UNL     1      -9.609  12.158  65.724  1.00  0.00    -0.245 OA 
BRANCH  11  12
HETATM   12  C   UNL     1     -10.789  12.366  66.379  1.00  0.00    -0.258 C  
HETATM   13  O   UNL     1     -11.461  11.463  66.869  1.00  0.00    -0.445 OA 
BRANCH  12  14
HETATM   14  C   UNL     1     -11.216  13.847  66.373  1.00  0.00    -0.319 C  
HETATM   15  C   UNL     1     -12.531  14.092  65.584  1.00  0.00    -0.531 C  
HETATM   16  C   UNL     1     -10.186  14.583  65.474  1.00  0.00    -0.394 C  
HETATM   17  C   UNL     1     -10.908  15.813  64.958  1.00  0.00    -0.461 C  
HETATM   18  C   UNL     1     -12.320  15.325  64.696  1.00  0.00    -0.080 C  
BRANCH  14  19
HETATM   19  C   UNL     1     -11.336  14.357  67.822  1.00  0.00    -0.331 A  
HETATM   20  C   UNL     1     -12.361  14.372  70.039  1.00  0.00    -0.391 A  
HETATM   21  C   UNL     1     -11.525  15.407  70.446  1.00  0.00    -0.355 A  
HETATM   22  C   UNL     1     -12.270  13.857  68.742  1.00  0.00    -0.232 A  
HETATM   23  C   UNL     1     -10.589  15.919  69.558  1.00  0.00    -0.282 A  
HETATM   24  C   UNL     1     -10.489  15.394  68.264  1.00  0.00    -0.241 A  
ENDBRANCH  14  19
ENDBRANCH  12  14
ENDBRANCH  11  12
ENDBRANCH  10  11
ENDBRANCH   9  10
ENDBRANCH   8   9
ENDBRANCH   7   8
ENDBRANCH   6   7
ENDBRANCH   3   6
ENDBRANCH   2   3
TORSDOF 11
ENDMDL
MODEL      239
REMARK 921   NORMALIZED FREE ENERGY PREDICTED BY IDOCK:   -3.93 KCAL/MOL
REMARK 922        TOTAL FREE ENERGY PREDICTED BY IDOCK:   -7.27 KCAL/MOL
REMARK 923 INTER-LIGAND FREE ENERGY PREDICTED BY IDOCK:   -6.45 KCAL/MOL
REMARK 924 INTRA-LIGAND FREE ENERGY PREDICTED BY IDOCK:   -0.83 KCAL/MOL
REMARK 927      BINDING AFFINITY PREDICTED BY RF-SCORE:    0.00 PKD
ROOT
HETATM    1  C   UNL     1     -13.846  13.221  72.028  1.00  0.00    -0.452 C  
HETATM    2  C   UNL     1     -12.726  13.928  71.269  1.00  0.00    -0.367 C  
ENDROOT
BRANCH   2   3
HETATM    3  N   UNL     1     -12.562  15.356  71.604  1.00  0.00    -0.355 NA 
BRANCH   3   4
HETATM    4  C   UNL     1     -11.761  15.594  72.815  1.00  0.00    -0.430 C  
HETATM    5  C   UNL     1     -12.496  16.205  74.002  1.00  0.00    -0.711 C  
ENDBRANCH   3   4
BRANCH   3   6
HETATM    6  C   UNL     1     -12.079  16.092  70.413  1.00  0.00    -0.010 C  
BRANCH   6   7
HETATM    7  C   UNL     1     -11.212  15.272  69.446  1.00  0.00    -0.285 C  
BRANCH   7   8
HETATM    8  O   UNL     1     -11.851  15.186  68.164  1.00  0.00    -0.333 OA 
BRANCH   8   9
HETATM    9  C   UNL     1     -11.556  13.934  67.540  1.00  0.00    -0.360 C  
BRANCH   9  10
HETATM   10  C   UNL     1     -10.164  13.453  67.943  1.00  0.00    -0.241 C  
BRANCH  10  11
HETATM   11  O   UNL     1     -10.232  12.240  68.716  1.00  0.00    -0.195 OA 
BRANCH  11  12
HETATM   12  C   UNL     1     -10.722  11.151  68.054  1.00  0.00    -0.211 C  
HETATM   13  O   UNL     1     -11.920  10.922  67.919  1.00  0.00    -0.585 OA 
BRANCH  12  14
HETATM   14  C   UNL     1      -9.607  10.209  67.562  1.00  0.00    -0.180 C  
HETATM   15  C   UNL     1      -9.027  10.628  66.183  1.00  0.00    -0.184 C  
HETATM   16  C   UNL     1     -10.308   8.872  67.198  1.00  0.00    -0.351 C  
HETATM   17  C   UNL     1      -9.408   8.211  66.172  1.00  0.00    -0.232 C  
HETATM   18  C   UNL     1      -8.915   9.365  65.320  1.00  0.00    -0.250 C  
BRANCH  14  19
HETATM   19  C   UNL     1      -8.495  10.121  68.625  1.00  0.00    -0.122 A  
HETATM   20  C   UNL     1      -7.590   9.347  70.759  1.00  0.00    -0.138 A  
HETATM   21  C   UNL     1      -6.421  10.074  70.554  1.00  0.00    -0.121 A  
HETATM   22  C   UNL     1      -8.615   9.374  69.808  1.00  0.00    -0.182 A  
HETATM   23  C   UNL     1      -6.273  10.818  69.390  1.00  0.00    -0.059 A  
HETATM   24  C   UNL     1      -7.294  10.834  68.434  1.00  0.00    -0.092 A  
ENDBRANCH  14  19
ENDBRANCH  12  14
ENDBRANCH  11  12
ENDBRANCH  10  11
ENDBRANCH   9  10
ENDBRANCH   8   9
ENDBRANCH   7   8
ENDBRANCH   6   7
ENDBRANCH   3   6
ENDBRANCH   2   3
TORSDOF 11
ENDMDL
MODEL      240
REMARK 921   NORMALIZED FREE ENERGY PREDICTED BY IDOCK:   -3.92 KCAL/MOL
REMARK 922        TOTAL FREE ENERGY PREDICTED BY IDOCK:   -7.27 KCAL/MOL
REMARK 923 INTER-LIGAND FREE ENERGY PREDICTED BY IDOCK:   -6.19 KCAL/MOL
REMARK 924 INTRA-LIGAND FREE ENERGY PREDICTED BY IDOCK:   -1.08 KCAL/MOL
REMARK 927      BINDING AFFINITY PREDICTED BY RF-SCORE:    0.00 PKD
ROOT
HETATM    1  C   UNL     1     -10.453   8.098  72.509  1.00  0.00    -0.409 C  
HETATM    2  C   UNL     1     -11.254   7.705  71.269  1.00  0.00    -0.254 C  
ENDROOT
BRANCH   2   3
HETATM    3  N   UNL     1     -11.538   8.819  70.344  1.00  0.00    -0.159 NA 
BRANCH   3   4
HETATM    4  C   UNL     1     -11.677  10.123  71.008  1.00  0.00    -0.382 C  
HETATM    5  C   UNL     1     -13.078  10.497  71.478  1.00  0.00    -0.532 C  
ENDBRANCH   3   4
BRANCH   3   6
HETATM    6  C   UNL     1     -10.549   8.811  69.242  1.00  0.00    -0.197 C  
BRANCH   6   7
HETATM    7  C   UNL     1     -10.746   9.905  68.180  1.00  0.00    -0.233 C  
BRANCH   7   8
HETATM    8  O   UNL     1      -9.509  10.592  67.946  1.00  0.00    -0.155 OA 
BRANCH   8   9
HETATM    9  C   UNL     1      -9.231  10.658  66.545  1.00  0.00    -0.166 C  
BRANCH   9  10
HETATM   10  C   UNL     1      -9.924  11.866  65.920  1.00  0.00    -0.234 C  
BRANCH  10  11
HETATM   11  O   UNL     1      -9.791  13.035  66.750  1.00  0.00    -0.231 OA 
BRANCH  11  12
HETATM   12  C   UNL     1     -10.007  14.227  66.120  1.00  0.00    -0.314 C  
HETATM   13  O   UNL     1     -10.486  14.321  64.994  1.00  0.00    -0.388 OA 
BRANCH  12  14
HETATM   14  C   UNL     1      -9.519  15.430  66.949  1.00  0.00    -0.246 C  
HETATM   15  C   UNL     1      -9.678  16.783  66.202  1.00  0.00    -0.315 C  
HETATM   16  C   UNL     1      -7.973  15.304  67.014  1.00  0.00    -0.243 C  
HETATM   17  C   UNL     1      -7.462  16.714  67.238  1.00  0.00    -0.197 C  
HETATM   18  C   UNL     1      -8.377  17.574  66.387  1.00  0.00    -0.297 C  
BRANCH  14  19
HETATM   19  C   UNL     1     -10.252  15.457  68.304  1.00  0.00    -0.229 A  
HETATM   20  C   UNL     1     -10.306  15.353  70.745  1.00  0.00     0.188 A  
HETATM   21  C   UNL     1     -11.693  15.451  70.743  1.00  0.00    -0.385 A  
HETATM   22  C   UNL     1      -9.595  15.352  69.541  1.00  0.00    -0.259 A  
HETATM   23  C   UNL     1     -12.370  15.561  69.535  1.00  0.00    -0.184 A  
HETATM   24  C   UNL     1     -11.657  15.573  68.331  1.00  0.00    -0.368 A  
ENDBRANCH  14  19
ENDBRANCH  12  14
ENDBRANCH  11  12
ENDBRANCH  10  11
ENDBRANCH   9  10
ENDBRANCH   8   9
ENDBRANCH   7   8
ENDBRANCH   6   7
ENDBRANCH   3   6
ENDBRANCH   2   3
TORSDOF 11
ENDMDL
MODEL      241
REMARK 921   NORMALIZED FREE ENERGY PREDICTED BY IDOCK:   -3.92 KCAL/MOL
REMARK 922        TOTAL FREE ENERGY PREDICTED BY IDOCK:   -7.25 KCAL/MOL
REMARK 923 INTER-LIGAND FREE ENERGY PREDICTED BY IDOCK:   -6.21 KCAL/MOL
REMARK 924 INTRA-LIGAND FREE ENERGY PREDICTED BY IDOCK:   -1.04 KCAL/MOL
REMARK 927      BINDING AFFINITY PREDICTED BY RF-SCORE:    0.00 PKD
ROOT
HETATM    1  C   UNL     1     -11.679   7.504  72.508  1.00  0.00    -0.310 C  
HETATM    2  C   UNL     1     -10.254   8.052  72.479  1.00  0.00    -0.294 C  
ENDROOT
BRANCH   2   3
HETATM    3  N   UNL     1      -9.984   9.002  71.384  1.00  0.00    -0.304 NA 
BRANCH   3   4
HETATM    4  C   UNL     1      -8.618   8.915  70.844  1.00  0.00    -0.199 C  
HETATM    5  C   UNL     1      -7.517   8.578  71.843  1.00  0.00    -0.127 C  
ENDBRANCH   3   4
BRANCH   3   6
HETATM    6  C   UNL     1     -11.042   8.886  70.354  1.00  0.00    -0.239 C  
BRANCH   6   7
HETATM    7  C   UNL     1     -11.466  10.211  69.701  1.00  0.00    -0.198 C  
BRANCH   7   8
HETATM    8  O   UNL     1     -10.877  10.328  68.398  1.00  0.00    -0.215 OA 
BRANCH   8   9
HETATM    9  C   UNL     1     -11.628  11.236  67.589  1.00  0.00    -0.210 C  
BRANCH   9  10
HETATM   10  C   UNL     1     -10.864  12.545  67.406  1.00  0.00    -0.240 C  
BRANCH  10  11
HETATM   11  O   UNL     1     -10.760  13.270  68.646  1.00  0.00    -0.254 OA 
BRANCH  11  12
HETATM   12  C   UNL     1      -9.880  14.313  68.642  1.00  0.00    -0.228 C  
HETATM   13  O   UNL     1      -8.668  14.177  68.504  1.00  0.00    -0.177 OA 
BRANCH  12  14
HETATM   14  C   UNL     1     -10.567  15.668  68.901  1.00  0.00    -0.228 C  
HETATM   15  C   UNL     1     -11.325  16.208  67.656  1.00  0.00    -0.064 C  
HETATM   16  C   UNL     1      -9.423  16.709  69.030  1.00  0.00    -0.236 C  
HETATM   17  C   UNL     1     -10.044  18.040  68.652  1.00  0.00    -0.401 C  
HETATM   18  C   UNL     1     -10.981  17.696  67.510  1.00  0.00    -0.085 C  
BRANCH  14  19
HETATM   19  C   UNL     1     -11.511  15.547  70.113  1.00  0.00    -0.342 A  
HETATM   20  C   UNL     1     -13.720  15.304  71.127  1.00  0.00    -0.519 A  
HETATM   21  C   UNL     1     -13.172  15.400  72.402  1.00  0.00    -0.521 A  
HETATM   22  C   UNL     1     -12.900  15.380  69.997  1.00  0.00    -0.099 A  
HETATM   23  C   UNL     1     -11.801  15.560  72.547  1.00  0.00    -0.572 A  
HETATM   24  C   UNL     1     -10.979  15.624  71.417  1.00  0.00    -0.150 A  
ENDBRANCH  14  19
ENDBRANCH  12  14
ENDBRANCH  11  12
ENDBRANCH  10  11
ENDBRANCH   9  10
ENDBRANCH   8   9
ENDBRANCH   7   8
ENDBRANCH   6   7
ENDBRANCH   3   6
ENDBRANCH   2   3
TORSDOF 11
ENDMDL
MODEL      242
REMARK 921   NORMALIZED FREE ENERGY PREDICTED BY IDOCK:   -3.92 KCAL/MOL
REMARK 922        TOTAL FREE ENERGY PREDICTED BY IDOCK:   -7.25 KCAL/MOL
REMARK 923 INTER-LIGAND FREE ENERGY PREDICTED BY IDOCK:   -6.45 KCAL/MOL
REMARK 924 INTRA-LIGAND FREE ENERGY PREDICTED BY IDOCK:   -0.80 KCAL/MOL
REMARK 927      BINDING AFFINITY PREDICTED BY RF-SCORE:    0.00 PKD
ROOT
HETATM    1  C   UNL     1     -10.538  16.841  68.168  1.00  0.00    -0.350 C  
HETATM    2  C   UNL     1     -11.184  15.670  68.905  1.00  0.00    -0.311 C  
ENDROOT
BRANCH   2   3
HETATM    3  N   UNL     1     -11.956  14.753  68.044  1.00  0.00    -0.284 NA 
BRANCH   3   4
HETATM    4  C   UNL     1     -11.458  14.674  66.663  1.00  0.00    -0.357 C  
HETATM    5  C   UNL     1     -11.426  13.286  66.034  1.00  0.00    -0.360 C  
ENDBRANCH   3   4
BRANCH   3   6
HETATM    6  C   UNL     1     -12.082  13.437  68.711  1.00  0.00    -0.246 C  
BRANCH   6   7
HETATM    7  C   UNL     1     -12.297  13.493  70.231  1.00  0.00    -0.300 C  
BRANCH   7   8
HETATM    8  O   UNL     1     -11.987  12.221  70.819  1.00  0.00    -0.266 OA 
BRANCH   8   9
HETATM    9  C   UNL     1     -12.004  11.193  69.826  1.00  0.00    -0.357 C  
BRANCH   9  10
HETATM   10  C   UNL     1     -10.647  10.497  69.756  1.00  0.00    -0.227 C  
BRANCH  10  11
HETATM   11  O   UNL     1     -10.533   9.467  70.756  1.00  0.00    -0.274 OA 
BRANCH  11  12
HETATM   12  C   UNL     1      -9.700   8.434  70.439  1.00  0.00    -0.173 C  
HETATM   13  O   UNL     1      -8.562   8.589  70.006  1.00  0.00    -0.128 OA 
BRANCH  12  14
HETATM   14  C   UNL     1     -10.371   7.058  70.617  1.00  0.00    -0.223 C  
HETATM   15  C   UNL     1     -11.816   7.160  71.178  1.00  0.00    -0.363 C  
HETATM   16  C   UNL     1      -9.636   6.375  71.801  1.00  0.00    -0.162 C  
HETATM   17  C   UNL     1     -10.631   5.384  72.375  1.00  0.00    -0.276 C  
HETATM   18  C   UNL     1     -11.961   6.107  72.285  1.00  0.00    -0.285 C  
BRANCH  14  19
HETATM   19  C   UNL     1     -10.350   6.295  69.278  1.00  0.00    -0.266 A  
HETATM   20  C   UNL     1     -10.934   6.034  66.920  1.00  0.00    -0.350 A  
HETATM   21  C   UNL     1     -10.316   4.789  66.879  1.00  0.00    -0.202 A  
HETATM   22  C   UNL     1     -10.954   6.776  68.105  1.00  0.00    -0.277 A  
HETATM   23  C   UNL     1      -9.706   4.290  68.023  1.00  0.00    -0.168 A  
HETATM   24  C   UNL     1      -9.716   5.038  69.206  1.00  0.00    -0.249 A  
ENDBRANCH  14  19
ENDBRANCH  12  14
ENDBRANCH  11  12
ENDBRANCH  10  11
ENDBRANCH   9  10
ENDBRANCH   8   9
ENDBRANCH   7   8
ENDBRANCH   6   7
ENDBRANCH   3   6
ENDBRANCH   2   3
TORSDOF 11
ENDMDL
MODEL      243
REMARK 921   NORMALIZED FREE ENERGY PREDICTED BY IDOCK:   -3.91 KCAL/MOL
REMARK 922        TOTAL FREE ENERGY PREDICTED BY IDOCK:   -7.24 KCAL/MOL
REMARK 923 INTER-LIGAND FREE ENERGY PREDICTED BY IDOCK:   -5.96 KCAL/MOL
REMARK 924 INTRA-LIGAND FREE ENERGY PREDICTED BY IDOCK:   -1.28 KCAL/MOL
REMARK 927      BINDING AFFINITY PREDICTED BY RF-SCORE:    0.00 PKD
ROOT
HETATM    1  C   UNL     1     -12.261  13.891  66.831  1.00  0.00    -0.415 C  
HETATM    2  C   UNL     1     -11.892  12.882  67.917  1.00  0.00    -0.339 C  
ENDROOT
BRANCH   2   3
HETATM    3  N   UNL     1     -11.694  13.466  69.257  1.00  0.00    -0.310 NA 
BRANCH   3   4
HETATM    4  C   UNL     1     -12.277  14.807  69.412  1.00  0.00    -0.216 C  
HETATM    5  C   UNL     1     -12.939  15.105  70.752  1.00  0.00    -0.468 C  
ENDBRANCH   3   4
BRANCH   3   6
HETATM    6  C   UNL     1     -12.133  12.500  70.289  1.00  0.00    -0.294 C  
BRANCH   6   7
HETATM    7  C   UNL     1     -12.210  11.037  69.823  1.00  0.00    -0.318 C  
BRANCH   7   8
HETATM    8  O   UNL     1     -11.470  10.195  70.719  1.00  0.00    -0.310 OA 
BRANCH   8   9
HETATM    9  C   UNL     1     -12.277   9.827  71.840  1.00  0.00    -0.299 C  
BRANCH   9  10
HETATM   10  C   UNL     1     -13.050   8.545  71.543  1.00  0.00    -0.299 C  
BRANCH  10  11
HETATM   11  O   UNL     1     -12.280   7.647  70.721  1.00  0.00    -0.213 OA 
BRANCH  11  12
HETATM   12  C   UNL     1     -11.593   6.680  71.395  1.00  0.00    -0.313 C  
HETATM   13  O   UNL     1     -12.024   6.115  72.396  1.00  0.00    -0.290 OA 
BRANCH  12  14
HETATM   14  C   UNL     1     -10.192   6.429  70.805  1.00  0.00    -0.228 C  
HETATM   15  C   UNL     1      -9.872   7.353  69.597  1.00  0.00    -0.175 C  
HETATM   16  C   UNL     1     -10.264   5.043  70.111  1.00  0.00    -0.329 C  
HETATM   17  C   UNL     1      -9.186   5.070  69.044  1.00  0.00    -0.157 C  
HETATM   18  C   UNL     1      -9.248   6.484  68.498  1.00  0.00    -0.125 C  
BRANCH  14  19
HETATM   19  C   UNL     1      -9.130   6.578  71.911  1.00  0.00    -0.148 A  
HETATM   20  C   UNL     1      -7.657   5.677  73.641  1.00  0.00    -0.094 A  
HETATM   21  C   UNL     1      -7.227   6.957  73.974  1.00  0.00    -0.094 A  
HETATM   22  C   UNL     1      -8.600   5.491  72.625  1.00  0.00    -0.124 A  
HETATM   23  C   UNL     1      -7.730   8.051  73.283  1.00  0.00    -0.205 A  
HETATM   24  C   UNL     1      -8.664   7.863  72.257  1.00  0.00    -0.198 A  
ENDBRANCH  14  19
ENDBRANCH  12  14
ENDBRANCH  11  12
ENDBRANCH  10  11
ENDBRANCH   9  10
ENDBRANCH   8   9
ENDBRANCH   7   8
ENDBRANCH   6   7
ENDBRANCH   3   6
ENDBRANCH   2   3
TORSDOF 11
ENDMDL
MODEL      244
REMARK 921   NORMALIZED FREE ENERGY PREDICTED BY IDOCK:   -3.90 KCAL/MOL
REMARK 922        TOTAL FREE ENERGY PREDICTED BY IDOCK:   -7.23 KCAL/MOL
REMARK 923 INTER-LIGAND FREE ENERGY PREDICTED BY IDOCK:   -5.62 KCAL/MOL
REMARK 924 INTRA-LIGAND FREE ENERGY PREDICTED BY IDOCK:   -1.62 KCAL/MOL
REMARK 927      BINDING AFFINITY PREDICTED BY RF-SCORE:    0.00 PKD
ROOT
HETATM    1  C   UNL     1     -10.849   9.166  71.306  1.00  0.00    -0.402 C  
HETATM    2  C   UNL     1      -9.992   9.842  70.238  1.00  0.00    -0.203 C  
ENDROOT
BRANCH   2   3
HETATM    3  N   UNL     1      -9.488   8.935  69.189  1.00  0.00    -0.156 NA 
BRANCH   3   4
HETATM    4  C   UNL     1     -10.386   8.808  68.031  1.00  0.00    -0.220 C  
HETATM    5  C   UNL     1     -11.060  10.090  67.554  1.00  0.00    -0.190 C  
ENDBRANCH   3   4
BRANCH   3   6
HETATM    6  C   UNL     1      -8.102   9.312  68.832  1.00  0.00    -0.103 C  
BRANCH   6   7
HETATM    7  C   UNL     1      -7.473  10.401  69.715  1.00  0.00    -0.149 C  
BRANCH   7   8
HETATM    8  O   UNL     1      -6.113  10.632  69.319  1.00  0.00    -0.041 OA 
BRANCH   8   9
HETATM    9  C   UNL     1      -5.845  12.033  69.244  1.00  0.00    -0.074 C  
BRANCH   9  10
HETATM   10  C   UNL     1      -5.580  12.449  67.799  1.00  0.00    -0.099 C  
BRANCH  10  11
HETATM   11  O   UNL     1      -6.364  13.599  67.431  1.00  0.00    -0.307 OA 
BRANCH  11  12
HETATM   12  C   UNL     1      -7.688  13.356  67.205  1.00  0.00    -0.079 C  
HETATM   13  O   UNL     1      -8.128  12.263  66.864  1.00  0.00    -0.163 OA 
BRANCH  12  14
HETATM   14  C   UNL     1      -8.555  14.622  67.355  1.00  0.00    -0.212 C  
HETATM   15  C   UNL     1      -7.866  15.895  66.792  1.00  0.00    -0.273 C  
HETATM   16  C   UNL     1      -8.583  14.942  68.873  1.00  0.00    -0.177 C  
HETATM   17  C   UNL     1      -8.853  16.431  68.966  1.00  0.00    -0.240 C  
HETATM   18  C   UNL     1      -8.056  17.020  67.818  1.00  0.00    -0.196 C  
BRANCH  14  19
HETATM   19  C   UNL     1      -9.925  14.393  66.687  1.00  0.00    -0.278 A  
HETATM   20  C   UNL     1     -11.456  14.498  64.786  1.00  0.00    -0.408 A  
HETATM   21  C   UNL     1     -12.495  13.999  65.565  1.00  0.00    -0.533 A  
HETATM   22  C   UNL     1     -10.188  14.696  65.341  1.00  0.00    -0.415 A  
HETATM   23  C   UNL     1     -12.263  13.686  66.897  1.00  0.00    -0.398 A  
HETATM   24  C   UNL     1     -10.990  13.873  67.449  1.00  0.00    -0.299 A  
ENDBRANCH  14  19
ENDBRANCH  12  14
ENDBRANCH  11  12
ENDBRANCH  10  11
ENDBRANCH   9  10
ENDBRANCH   8   9
ENDBRANCH   7   8
ENDBRANCH   6   7
ENDBRANCH   3   6
ENDBRANCH   2   3
TORSDOF 11
ENDMDL
MODEL      245
REMARK 921   NORMALIZED FREE ENERGY PREDICTED BY IDOCK:   -3.90 KCAL/MOL
REMARK 922        TOTAL FREE ENERGY PREDICTED BY IDOCK:   -7.23 KCAL/MOL
REMARK 923 INTER-LIGAND FREE ENERGY PREDICTED BY IDOCK:   -6.22 KCAL/MOL
REMARK 924 INTRA-LIGAND FREE ENERGY PREDICTED BY IDOCK:   -1.01 KCAL/MOL
REMARK 927      BINDING AFFINITY PREDICTED BY RF-SCORE:    0.00 PKD
ROOT
HETATM    1  C   UNL     1      -6.019  20.176  69.048  1.00  0.00    -0.336 C  
HETATM    2  C   UNL     1      -7.154  19.157  68.981  1.00  0.00    -0.342 C  
ENDROOT
BRANCH   2   3
HETATM    3  N   UNL     1      -8.377  19.642  68.313  1.00  0.00    -0.330 NA 
BRANCH   3   4
HETATM    4  C   UNL     1      -8.124  20.629  67.253  1.00  0.00    -0.255 C  
HETATM    5  C   UNL     1      -7.835  20.071  65.865  1.00  0.00    -0.277 C  
ENDBRANCH   3   4
BRANCH   3   6
HETATM    6  C   UNL     1      -9.193  18.487  67.873  1.00  0.00    -0.290 C  
BRANCH   6   7
HETATM    7  C   UNL     1     -10.233  17.996  68.892  1.00  0.00    -0.311 C  
BRANCH   7   8
HETATM    8  O   UNL     1      -9.973  16.629  69.241  1.00  0.00    -0.259 OA 
BRANCH   8   9
HETATM    9  C   UNL     1     -11.077  16.077  69.960  1.00  0.00    -0.362 C  
BRANCH   9  10
HETATM   10  C   UNL     1     -11.288  14.615  69.575  1.00  0.00    -0.280 C  
BRANCH  10  11
HETATM   11  O   UNL     1     -10.538  14.270  68.395  1.00  0.00    -0.240 OA 
BRANCH  11  12
HETATM   12  C   UNL     1     -11.282  13.838  67.335  1.00  0.00    -0.310 C  
HETATM   13  O   UNL     1     -12.474  14.094  67.194  1.00  0.00    -0.284 OA 
BRANCH  12  14
HETATM   14  C   UNL     1     -10.479  12.938  66.377  1.00  0.00    -0.278 C  
HETATM   15  C   UNL     1     -10.077  13.662  65.062  1.00  0.00    -0.293 C  
HETATM   16  C   UNL     1     -11.482  11.881  65.843  1.00  0.00    -0.340 C  
HETATM   17  C   UNL     1     -10.924  11.434  64.506  1.00  0.00    -0.346 C  
HETATM   18  C   UNL     1     -10.369  12.707  63.897  1.00  0.00    -0.405 C  
BRANCH  14  19
HETATM   19  C   UNL     1      -9.238  12.384  67.105  1.00  0.00    -0.199 A  
HETATM   20  C   UNL     1      -6.832  12.279  67.518  1.00  0.00    -0.135 A  
HETATM   21  C   UNL     1      -7.012  11.260  68.447  1.00  0.00    -0.070 A  
HETATM   22  C   UNL     1      -7.931  12.832  66.852  1.00  0.00     0.042 A  
HETATM   23  C   UNL     1      -8.294  10.801  68.720  1.00  0.00    -0.147 A  
HETATM   24  C   UNL     1      -9.394  11.363  68.064  1.00  0.00    -0.171 A  
ENDBRANCH  14  19
ENDBRANCH  12  14
ENDBRANCH  11  12
ENDBRANCH  10  11
ENDBRANCH   9  10
ENDBRANCH   8   9
ENDBRANCH   7   8
ENDBRANCH   6   7
ENDBRANCH   3   6
ENDBRANCH   2   3
TORSDOF 11
ENDMDL
MODEL      246
REMARK 921   NORMALIZED FREE ENERGY PREDICTED BY IDOCK:   -3.90 KCAL/MOL
REMARK 922        TOTAL FREE ENERGY PREDICTED BY IDOCK:   -7.22 KCAL/MOL
REMARK 923 INTER-LIGAND FREE ENERGY PREDICTED BY IDOCK:   -6.66 KCAL/MOL
REMARK 924 INTRA-LIGAND FREE ENERGY PREDICTED BY IDOCK:   -0.56 KCAL/MOL
REMARK 927      BINDING AFFINITY PREDICTED BY RF-SCORE:    0.00 PKD
ROOT
HETATM    1  C   UNL     1     -12.910  15.001  73.229  1.00  0.00    -0.647 C  
HETATM    2  C   UNL     1     -13.395  13.759  72.484  1.00  0.00    -0.552 C  
ENDROOT
BRANCH   2   3
HETATM    3  N   UNL     1     -13.158  13.785  71.028  1.00  0.00    -0.251 NA 
BRANCH   3   4
HETATM    4  C   UNL     1     -13.122  15.140  70.455  1.00  0.00    -0.277 C  
HETATM    5  C   UNL     1     -11.887  15.495  69.637  1.00  0.00    -0.384 C  
ENDBRANCH   3   4
BRANCH   3   6
HETATM    6  C   UNL     1     -11.967  12.968  70.704  1.00  0.00    -0.138 C  
BRANCH   6   7
HETATM    7  C   UNL     1     -12.256  11.667  69.939  1.00  0.00    -0.239 C  
BRANCH   7   8
HETATM    8  O   UNL     1     -13.152  10.840  70.696  1.00  0.00    -0.288 OA 
BRANCH   8   9
HETATM    9  C   UNL     1     -12.423   9.853  71.428  1.00  0.00    -0.398 C  
BRANCH   9  10
HETATM   10  C   UNL     1     -11.103   9.536  70.730  1.00  0.00    -0.323 C  
BRANCH  10  11
HETATM   11  O   UNL     1     -10.145   8.976  71.647  1.00  0.00    -0.316 OA 
BRANCH  11  12
HETATM   12  C   UNL     1     -10.507   7.790  72.218  1.00  0.00    -0.246 C  
HETATM   13  O   UNL     1     -11.048   7.704  73.317  1.00  0.00    -0.382 OA 
BRANCH  12  14
HETATM   14  C   UNL     1     -10.096   6.574  71.366  1.00  0.00    -0.213 C  
HETATM   15  C   UNL     1      -8.957   6.899  70.360  1.00  0.00    -0.152 C  
HETATM   16  C   UNL     1     -11.282   6.310  70.401  1.00  0.00    -0.439 C  
HETATM   17  C   UNL     1     -10.678   5.598  69.205  1.00  0.00    -0.350 C  
HETATM   18  C   UNL     1      -9.341   6.285  69.008  1.00  0.00    -0.127 C  
BRANCH  14  19
HETATM   19  C   UNL     1      -9.702   5.404  72.289  1.00  0.00    -0.187 A  
HETATM   20  C   UNL     1     -10.217   3.418  73.615  1.00  0.00    -0.211 A  
HETATM   21  C   UNL     1      -8.895   3.326  74.036  1.00  0.00    -0.083 A  
HETATM   22  C   UNL     1     -10.616   4.446  72.755  1.00  0.00    -0.254 A  
HETATM   23  C   UNL     1      -7.967   4.257  73.587  1.00  0.00    -0.090 A  
HETATM   24  C   UNL     1      -8.364   5.278  72.716  1.00  0.00    -0.113 A  
ENDBRANCH  14  19
ENDBRANCH  12  14
ENDBRANCH  11  12
ENDBRANCH  10  11
ENDBRANCH   9  10
ENDBRANCH   8   9
ENDBRANCH   7   8
ENDBRANCH   6   7
ENDBRANCH   3   6
ENDBRANCH   2   3
TORSDOF 11
ENDMDL
MODEL      247
REMARK 921   NORMALIZED FREE ENERGY PREDICTED BY IDOCK:   -3.90 KCAL/MOL
REMARK 922        TOTAL FREE ENERGY PREDICTED BY IDOCK:   -7.22 KCAL/MOL
REMARK 923 INTER-LIGAND FREE ENERGY PREDICTED BY IDOCK:   -6.16 KCAL/MOL
REMARK 924 INTRA-LIGAND FREE ENERGY PREDICTED BY IDOCK:   -1.07 KCAL/MOL
REMARK 927      BINDING AFFINITY PREDICTED BY RF-SCORE:    0.00 PKD
ROOT
HETATM    1  C   UNL     1     -10.478  16.521  69.481  1.00  0.00    -0.298 C  
HETATM    2  C   UNL     1     -11.685  15.597  69.329  1.00  0.00    -0.375 C  
ENDROOT
BRANCH   2   3
HETATM    3  N   UNL     1     -12.179  15.020  70.593  1.00  0.00    -0.300 NA 
BRANCH   3   4
HETATM    4  C   UNL     1     -13.283  15.779  71.202  1.00  0.00    -0.229 C  
HETATM    5  C   UNL     1     -13.590  15.473  72.663  1.00  0.00    -0.657 C  
ENDBRANCH   3   4
BRANCH   3   6
HETATM    6  C   UNL     1     -12.479  13.583  70.399  1.00  0.00    -0.275 C  
BRANCH   6   7
HETATM    7  C   UNL     1     -11.737  12.914  69.231  1.00  0.00    -0.321 C  
BRANCH   7   8
HETATM    8  O   UNL     1     -11.354  11.579  69.591  1.00  0.00    -0.266 OA 
BRANCH   8   9
HETATM    9  C   UNL     1     -12.474  10.860  70.110  1.00  0.00    -0.283 C  
BRANCH   9  10
HETATM   10  C   UNL     1     -12.107  10.178  71.426  1.00  0.00    -0.382 C  
BRANCH  10  11
HETATM   11  O   UNL     1     -12.198   8.745  71.318  1.00  0.00    -0.295 OA 
BRANCH  11  12
HETATM   12  C   UNL     1     -11.466   8.042  72.230  1.00  0.00    -0.360 C  
HETATM   13  O   UNL     1     -11.580   8.180  73.444  1.00  0.00    -0.021 OA 
BRANCH  12  14
HETATM   14  C   UNL     1     -10.432   7.112  71.566  1.00  0.00    -0.221 C  
HETATM   15  C   UNL     1     -10.857   6.653  70.144  1.00  0.00    -0.330 C  
HETATM   16  C   UNL     1     -10.501   5.772  72.346  1.00  0.00    -0.252 C  
HETATM   17  C   UNL     1     -10.013   4.714  71.374  1.00  0.00    -0.267 C  
HETATM   18  C   UNL     1     -10.595   5.146  70.042  1.00  0.00    -0.219 C  
BRANCH  14  19
HETATM   19  C   UNL     1      -9.056   7.806  71.535  1.00  0.00    -0.158 A  
HETATM   20  C   UNL     1      -6.838   8.269  72.450  1.00  0.00    -0.100 A  
HETATM   21  C   UNL     1      -6.580   9.178  71.429  1.00  0.00    -0.059 A  
HETATM   22  C   UNL     1      -8.062   7.594  72.504  1.00  0.00    -0.140 A  
HETATM   23  C   UNL     1      -7.543   9.404  70.454  1.00  0.00    -0.152 A  
HETATM   24  C   UNL     1      -8.763   8.719  70.502  1.00  0.00    -0.196 A  
ENDBRANCH  14  19
ENDBRANCH  12  14
ENDBRANCH  11  12
ENDBRANCH  10  11
ENDBRANCH   9  10
ENDBRANCH   8   9
ENDBRANCH   7   8
ENDBRANCH   6   7
ENDBRANCH   3   6
ENDBRANCH   2   3
TORSDOF 11
ENDMDL
MODEL      248
REMARK 921   NORMALIZED FREE ENERGY PREDICTED BY IDOCK:   -3.89 KCAL/MOL
REMARK 922        TOTAL FREE ENERGY PREDICTED BY IDOCK:   -7.21 KCAL/MOL
REMARK 923 INTER-LIGAND FREE ENERGY PREDICTED BY IDOCK:   -6.17 KCAL/MOL
REMARK 924 INTRA-LIGAND FREE ENERGY PREDICTED BY IDOCK:   -1.04 KCAL/MOL
REMARK 927      BINDING AFFINITY PREDICTED BY RF-SCORE:    0.00 PKD
ROOT
HETATM    1  C   UNL     1     -11.096  15.648  65.401  1.00  0.00    -0.271 C  
HETATM    2  C   UNL     1     -11.798  14.734  64.399  1.00  0.00    -0.380 C  
ENDROOT
BRANCH   2   3
HETATM    3  N   UNL     1     -12.684  13.722  65.006  1.00  0.00    -0.688 NA 
BRANCH   3   4
HETATM    4  C   UNL     1     -12.637  12.413  64.338  1.00  0.00    -0.399 C  
HETATM    5  C   UNL     1     -11.414  12.140  63.471  1.00  0.00    -0.544 C  
ENDBRANCH   3   4
BRANCH   3   6
HETATM    6  C   UNL     1     -12.436  13.658  66.465  1.00  0.00    -0.285 C  
BRANCH   6   7
HETATM    7  C   UNL     1     -11.772  12.363  66.957  1.00  0.00    -0.353 C  
BRANCH   7   8
HETATM    8  O   UNL     1     -11.514  12.447  68.366  1.00  0.00    -0.261 OA 
BRANCH   8   9
HETATM    9  C   UNL     1     -10.596  11.428  68.768  1.00  0.00    -0.204 C  
BRANCH   9  10
HETATM   10  C   UNL     1     -11.229  10.527  69.825  1.00  0.00    -0.298 C  
BRANCH  10  11
HETATM   11  O   UNL     1     -10.282   9.567  70.332  1.00  0.00    -0.240 OA 
BRANCH  11  12
HETATM   12  C   UNL     1     -10.679   8.263  70.266  1.00  0.00    -0.235 C  
HETATM   13  O   UNL     1     -11.519   7.771  71.014  1.00  0.00    -0.275 OA 
BRANCH  12  14
HETATM   14  C   UNL     1      -9.906   7.463  69.200  1.00  0.00    -0.168 C  
HETATM   15  C   UNL     1     -10.591   7.495  67.806  1.00  0.00    -0.274 C  
HETATM   16  C   UNL     1     -10.076   5.968  69.583  1.00  0.00    -0.244 C  
HETATM   17  C   UNL     1      -9.899   5.198  68.288  1.00  0.00    -0.212 C  
HETATM   18  C   UNL     1     -10.585   6.066  67.250  1.00  0.00    -0.367 C  
BRANCH  14  19
HETATM   19  C   UNL     1      -8.456   7.979  69.116  1.00  0.00    -0.136 A  
HETATM   20  C   UNL     1      -6.215   8.313  70.030  1.00  0.00    -0.035 A  
HETATM   21  C   UNL     1      -5.832   9.021  68.896  1.00  0.00    -0.040 A  
HETATM   22  C   UNL     1      -7.512   7.802  70.140  1.00  0.00    -0.083 A  
HETATM   23  C   UNL     1      -6.743   9.208  67.865  1.00  0.00    -0.068 A  
HETATM   24  C   UNL     1      -8.037   8.685  67.969  1.00  0.00    -0.111 A  
ENDBRANCH  14  19
ENDBRANCH  12  14
ENDBRANCH  11  12
ENDBRANCH  10  11
ENDBRANCH   9  10
ENDBRANCH   8   9
ENDBRANCH   7   8
ENDBRANCH   6   7
ENDBRANCH   3   6
ENDBRANCH   2   3
TORSDOF 11
ENDMDL
MODEL      249
REMARK 921   NORMALIZED FREE ENERGY PREDICTED BY IDOCK:   -3.89 KCAL/MOL
REMARK 922        TOTAL FREE ENERGY PREDICTED BY IDOCK:   -7.21 KCAL/MOL
REMARK 923 INTER-LIGAND FREE ENERGY PREDICTED BY IDOCK:   -6.04 KCAL/MOL
REMARK 924 INTRA-LIGAND FREE ENERGY PREDICTED BY IDOCK:   -1.17 KCAL/MOL
REMARK 927      BINDING AFFINITY PREDICTED BY RF-SCORE:    0.00 PKD
ROOT
HETATM    1  C   UNL     1     -10.047  15.386  65.466  1.00  0.00    -0.405 C  
HETATM    2  C   UNL     1     -11.403  14.936  64.926  1.00  0.00    -0.413 C  
ENDROOT
BRANCH   2   3
HETATM    3  N   UNL     1     -11.886  13.653  65.471  1.00  0.00    -0.345 NA 
BRANCH   3   4
HETATM    4  C   UNL     1     -10.980  12.522  65.223  1.00  0.00    -0.293 C  
HETATM    5  C   UNL     1     -11.201  11.750  63.927  1.00  0.00    -0.493 C  
ENDBRANCH   3   4
BRANCH   3   6
HETATM    6  C   UNL     1     -12.249  13.826  66.897  1.00  0.00    -0.366 C  
BRANCH   6   7
HETATM    7  C   UNL     1     -11.538  12.874  67.871  1.00  0.00    -0.345 C  
BRANCH   7   8
HETATM    8  O   UNL     1     -12.119  12.983  69.178  1.00  0.00    -0.276 OA 
BRANCH   8   9
HETATM    9  C   UNL     1     -12.175  11.702  69.810  1.00  0.00    -0.219 C  
BRANCH   9  10
HETATM   10  C   UNL     1     -11.266  10.711  69.087  1.00  0.00    -0.265 C  
BRANCH  10  11
HETATM   11  O   UNL     1     -11.110   9.495  69.843  1.00  0.00    -0.236 OA 
BRANCH  11  12
HETATM   12  C   UNL     1      -9.829   9.191  70.204  1.00  0.00    -0.198 C  
HETATM   13  O   UNL     1      -8.967  10.038  70.422  1.00  0.00    -0.056 OA 
BRANCH  12  14
HETATM   14  C   UNL     1      -9.568   7.673  70.235  1.00  0.00    -0.172 C  
HETATM   15  C   UNL     1      -8.417   7.238  69.286  1.00  0.00    -0.133 C  
HETATM   16  C   UNL     1     -10.792   7.016  69.542  1.00  0.00    -0.265 C  
HETATM   17  C   UNL     1     -10.290   5.686  69.013  1.00  0.00    -0.314 C  
HETATM   18  C   UNL     1      -8.888   5.994  68.522  1.00  0.00    -0.112 C  
BRANCH  14  19
HETATM   19  C   UNL     1      -9.290   7.225  71.683  1.00  0.00    -0.160 A  
HETATM   20  C   UNL     1      -7.948   6.099  73.387  1.00  0.00    -0.106 A  
HETATM   21  C   UNL     1      -8.898   6.388  74.361  1.00  0.00    -0.164 A  
HETATM   22  C   UNL     1      -8.144   6.509  72.064  1.00  0.00    -0.107 A  
HETATM   23  C   UNL     1     -10.040   7.099  74.014  1.00  0.00    -0.303 A  
HETATM   24  C   UNL     1     -10.229   7.520  72.693  1.00  0.00    -0.297 A  
ENDBRANCH  14  19
ENDBRANCH  12  14
ENDBRANCH  11  12
ENDBRANCH  10  11
ENDBRANCH   9  10
ENDBRANCH   8   9
ENDBRANCH   7   8
ENDBRANCH   6   7
ENDBRANCH   3   6
ENDBRANCH   2   3
TORSDOF 11
ENDMDL
MODEL      250
REMARK 921   NORMALIZED FREE ENERGY PREDICTED BY IDOCK:   -3.89 KCAL/MOL
REMARK 922        TOTAL FREE ENERGY PREDICTED BY IDOCK:   -7.21 KCAL/MOL
REMARK 923 INTER-LIGAND FREE ENERGY PREDICTED BY IDOCK:   -6.06 KCAL/MOL
REMARK 924 INTRA-LIGAND FREE ENERGY PREDICTED BY IDOCK:   -1.15 KCAL/MOL
REMARK 927      BINDING AFFINITY PREDICTED BY RF-SCORE:    0.00 PKD
ROOT
HETATM    1  C   UNL     1     -10.680   4.653  73.735  1.00  0.00    -0.356 C  
HETATM    2  C   UNL     1     -10.091   5.544  72.643  1.00  0.00    -0.181 C  
ENDROOT
BRANCH   2   3
HETATM    3  N   UNL     1     -11.060   6.454  72.004  1.00  0.00    -0.252 NA 
BRANCH   3   4
HETATM    4  C   UNL     1     -11.128   7.783  72.630  1.00  0.00    -0.376 C  
HETATM    5  C   UNL     1     -12.391   8.594  72.361  1.00  0.00    -0.426 C  
ENDBRANCH   3   4
BRANCH   3   6
HETATM    6  C   UNL     1     -10.816   6.493  70.544  1.00  0.00    -0.271 C  
BRANCH   6   7
HETATM    7  C   UNL     1      -9.571   7.284  70.111  1.00  0.00    -0.168 C  
BRANCH   7   8
HETATM    8  O   UNL     1      -9.769   7.837  68.802  1.00  0.00    -0.153 OA 
BRANCH   8   9
HETATM    9  C   UNL     1      -9.810   9.264  68.862  1.00  0.00    -0.165 C  
BRANCH   9  10
HETATM   10  C   UNL     1     -11.223   9.770  68.582  1.00  0.00    -0.015 C  
BRANCH  10  11
HETATM   11  O   UNL     1     -11.309  10.393  67.286  1.00  0.00    -0.327 OA 
BRANCH  11  12
HETATM   12  C   UNL     1     -11.415  11.754  67.298  1.00  0.00    -0.303 C  
HETATM   13  O   UNL     1     -12.369  12.356  67.782  1.00  0.00    -0.281 OA 
BRANCH  12  14
HETATM   14  C   UNL     1     -10.243  12.444  66.573  1.00  0.00    -0.244 C  
HETATM   15  C   UNL     1      -9.008  12.657  67.491  1.00  0.00    -0.187 C  
HETATM   16  C   UNL     1     -10.694  13.910  66.333  1.00  0.00    -0.281 C  
HETATM   17  C   UNL     1      -9.412  14.714  66.228  1.00  0.00    -0.322 C  
HETATM   18  C   UNL     1      -8.502  14.088  67.268  1.00  0.00    -0.220 C  
BRANCH  14  19
HETATM   19  C   UNL     1      -9.865  11.638  65.315  1.00  0.00    -0.279 A  
HETATM   20  C   UNL     1      -8.400  10.143  64.056  1.00  0.00    -0.172 A  
HETATM   21  C   UNL     1      -9.219  10.244  62.936  1.00  0.00    -0.316 A  
HETATM   22  C   UNL     1      -8.717  10.834  65.229  1.00  0.00    -0.183 A  
HETATM   23  C   UNL     1     -10.363  11.029  62.994  1.00  0.00    -0.162 A  
HETATM   24  C   UNL     1     -10.687  11.710  64.172  1.00  0.00    -0.418 A  
ENDBRANCH  14  19
ENDBRANCH  12  14
ENDBRANCH  11  12
ENDBRANCH  10  11
ENDBRANCH   9  10
ENDBRANCH   8   9
ENDBRANCH   7   8
ENDBRANCH   6   7
ENDBRANCH   3   6
ENDBRANCH   2   3
TORSDOF 11
ENDMDL
MODEL      251
REMARK 921   NORMALIZED FREE ENERGY PREDICTED BY IDOCK:   -3.89 KCAL/MOL
REMARK 922        TOTAL FREE ENERGY PREDICTED BY IDOCK:   -7.20 KCAL/MOL
REMARK 923 INTER-LIGAND FREE ENERGY PREDICTED BY IDOCK:   -5.55 KCAL/MOL
REMARK 924 INTRA-LIGAND FREE ENERGY PREDICTED BY IDOCK:   -1.66 KCAL/MOL
REMARK 927      BINDING AFFINITY PREDICTED BY RF-SCORE:    0.00 PKD
ROOT
HETATM    1  C   UNL     1      -8.454   7.668  65.073  1.00  0.00    -0.027 C  
HETATM    2  C   UNL     1      -7.726   8.894  64.526  1.00  0.00    -0.119 C  
ENDROOT
BRANCH   2   3
HETATM    3  N   UNL     1      -8.358  10.184  64.862  1.00  0.00    -0.158 NA 
BRANCH   3   4
HETATM    4  C   UNL     1      -9.744  10.310  64.385  1.00  0.00    -0.315 C  
HETATM    5  C   UNL     1     -10.575  11.425  65.008  1.00  0.00    -0.359 C  
ENDBRANCH   3   4
BRANCH   3   6
HETATM    6  C   UNL     1      -8.198  10.452  66.310  1.00  0.00    -0.144 C  
BRANCH   6   7
HETATM    7  C   UNL     1      -6.858  11.088  66.711  1.00  0.00    -0.128 C  
BRANCH   7   8
HETATM    8  O   UNL     1      -6.463  10.624  68.010  1.00  0.00    -0.061 OA 
BRANCH   8   9
HETATM    9  C   UNL     1      -6.307   9.203  68.008  1.00  0.00    -0.055 C  
BRANCH   9  10
HETATM   10  C   UNL     1      -6.473   8.646  69.419  1.00  0.00    -0.045 C  
BRANCH  10  11
HETATM   11  O   UNL     1      -7.773   8.052  69.600  1.00  0.00    -0.097 OA 
BRANCH  11  12
HETATM   12  C   UNL     1      -8.509   8.558  70.632  1.00  0.00    -0.146 C  
HETATM   13  O   UNL     1      -8.019   9.160  71.583  1.00  0.00    -0.342 OA 
BRANCH  12  14
HETATM   14  C   UNL     1     -10.009   8.229  70.505  1.00  0.00    -0.198 C  
HETATM   15  C   UNL     1     -10.554   7.423  71.716  1.00  0.00    -0.228 C  
HETATM   16  C   UNL     1     -10.119   7.175  69.370  1.00  0.00    -0.178 C  
HETATM   17  C   UNL     1     -11.397   6.409  69.654  1.00  0.00    -0.479 C  
HETATM   18  C   UNL     1     -11.418   6.281  71.165  1.00  0.00    -0.362 C  
BRANCH  14  19
HETATM   19  C   UNL     1     -10.810   9.529  70.300  1.00  0.00    -0.319 A  
HETATM   20  C   UNL     1     -12.496  11.167  70.967  1.00  0.00    -0.506 A  
HETATM   21  C   UNL     1     -12.279  11.900  69.805  1.00  0.00    -0.241 A  
HETATM   22  C   UNL     1     -11.773   9.994  71.210  1.00  0.00    -0.452 A  
HETATM   23  C   UNL     1     -11.329  11.466  68.890  1.00  0.00    -0.334 A  
HETATM   24  C   UNL     1     -10.597  10.300  69.139  1.00  0.00    -0.254 A  
ENDBRANCH  14  19
ENDBRANCH  12  14
ENDBRANCH  11  12
ENDBRANCH  10  11
ENDBRANCH   9  10
ENDBRANCH   8   9
ENDBRANCH   7   8
ENDBRANCH   6   7
ENDBRANCH   3   6
ENDBRANCH   2   3
TORSDOF 11
ENDMDL
MODEL      252
REMARK 921   NORMALIZED FREE ENERGY PREDICTED BY IDOCK:   -3.88 KCAL/MOL
REMARK 922        TOTAL FREE ENERGY PREDICTED BY IDOCK:   -7.19 KCAL/MOL
REMARK 923 INTER-LIGAND FREE ENERGY PREDICTED BY IDOCK:   -5.57 KCAL/MOL
REMARK 924 INTRA-LIGAND FREE ENERGY PREDICTED BY IDOCK:   -1.62 KCAL/MOL
REMARK 927      BINDING AFFINITY PREDICTED BY RF-SCORE:    0.00 PKD
ROOT
HETATM    1  C   UNL     1      -6.055   8.293  70.898  1.00  0.00    -0.033 C  
HETATM    2  C   UNL     1      -6.393   7.031  71.690  1.00  0.00    -0.037 C  
ENDROOT
BRANCH   2   3
HETATM    3  N   UNL     1      -7.072   5.980  70.909  1.00  0.00    -0.067 NA 
BRANCH   3   4
HETATM    4  C   UNL     1      -6.471   5.738  69.588  1.00  0.00    -0.042 C  
HETATM    5  C   UNL     1      -7.392   5.158  68.522  1.00  0.00    -0.070 C  
ENDBRANCH   3   4
BRANCH   3   6
HETATM    6  C   UNL     1      -7.209   4.759  71.736  1.00  0.00    -0.062 C  
BRANCH   6   7
HETATM    7  C   UNL     1      -8.489   4.685  72.583  1.00  0.00    -0.115 C  
BRANCH   7   8
HETATM    8  O   UNL     1      -8.181   4.926  73.963  1.00  0.00    -0.103 OA 
BRANCH   8   9
HETATM    9  C   UNL     1      -9.085   5.884  74.517  1.00  0.00    -0.137 C  
BRANCH   9  10
HETATM   10  C   UNL     1     -10.303   6.054  73.613  1.00  0.00    -0.256 C  
BRANCH  10  11
HETATM   11  O   UNL     1     -10.769   7.417  73.611  1.00  0.00    -0.371 OA 
BRANCH  11  12
HETATM   12  C   UNL     1     -10.326   8.186  72.574  1.00  0.00    -0.330 C  
HETATM   13  O   UNL     1      -9.186   8.635  72.502  1.00  0.00    -0.293 OA 
BRANCH  12  14
HETATM   14  C   UNL     1     -11.433   8.485  71.545  1.00  0.00    -0.350 C  
HETATM   15  C   UNL     1     -11.737  10.003  71.410  1.00  0.00    -0.414 C  
HETATM   16  C   UNL     1     -12.754   7.971  72.178  1.00  0.00    -0.293 C  
HETATM   17  C   UNL     1     -13.856   8.786  71.529  1.00  0.00    -0.391 C  
HETATM   18  C   UNL     1     -13.261  10.175  71.408  1.00  0.00    -0.474 C  
BRANCH  14  19
HETATM   19  C   UNL     1     -11.053   7.874  70.183  1.00  0.00    -0.204 A  
HETATM   20  C   UNL     1     -10.164   8.018  67.912  1.00  0.00    -0.267 A  
HETATM   21  C   UNL     1     -10.451   6.675  67.688  1.00  0.00    -0.282 A  
HETATM   22  C   UNL     1     -10.465   8.610  69.142  1.00  0.00    -0.223 A  
HETATM   23  C   UNL     1     -11.029   5.921  68.701  1.00  0.00    -0.289 A  
HETATM   24  C   UNL     1     -11.318   6.511  69.936  1.00  0.00    -0.469 A  
ENDBRANCH  14  19
ENDBRANCH  12  14
ENDBRANCH  11  12
ENDBRANCH  10  11
ENDBRANCH   9  10
ENDBRANCH   8   9
ENDBRANCH   7   8
ENDBRANCH   6   7
ENDBRANCH   3   6
ENDBRANCH   2   3
TORSDOF 11
ENDMDL
MODEL      253
REMARK 921   NORMALIZED FREE ENERGY PREDICTED BY IDOCK:   -3.87 KCAL/MOL
REMARK 922        TOTAL FREE ENERGY PREDICTED BY IDOCK:   -7.18 KCAL/MOL
REMARK 923 INTER-LIGAND FREE ENERGY PREDICTED BY IDOCK:   -5.69 KCAL/MOL
REMARK 924 INTRA-LIGAND FREE ENERGY PREDICTED BY IDOCK:   -1.49 KCAL/MOL
REMARK 927      BINDING AFFINITY PREDICTED BY RF-SCORE:    0.00 PKD
ROOT
HETATM    1  C   UNL     1      -8.373   7.089  68.940  1.00  0.00    -0.125 C  
HETATM    2  C   UNL     1      -9.824   6.614  68.990  1.00  0.00    -0.144 C  
ENDROOT
BRANCH   2   3
HETATM    3  N   UNL     1     -10.557   7.007  70.209  1.00  0.00    -0.219 NA 
BRANCH   3   4
HETATM    4  C   UNL     1     -10.052   6.374  71.437  1.00  0.00    -0.189 C  
HETATM    5  C   UNL     1     -10.003   4.851  71.442  1.00  0.00    -0.266 C  
ENDBRANCH   3   4
BRANCH   3   6
HETATM    6  C   UNL     1     -10.635   8.484  70.286  1.00  0.00    -0.226 C  
BRANCH   6   7
HETATM    7  C   UNL     1     -11.895   9.035  70.972  1.00  0.00    -0.285 C  
BRANCH   7   8
HETATM    8  O   UNL     1     -11.757  10.447  71.191  1.00  0.00    -0.352 OA 
BRANCH   8   9
HETATM    9  C   UNL     1     -12.631  11.174  70.325  1.00  0.00    -0.210 C  
BRANCH   9  10
HETATM   10  C   UNL     1     -12.057  12.557  70.027  1.00  0.00    -0.266 C  
BRANCH  10  11
HETATM   11  O   UNL     1     -11.756  12.709  68.626  1.00  0.00    -0.289 OA 
BRANCH  11  12
HETATM   12  C   UNL     1     -10.529  12.254  68.239  1.00  0.00    -0.226 C  
HETATM   13  O   UNL     1      -9.658  11.899  69.028  1.00  0.00     0.015 OA 
BRANCH  12  14
HETATM   14  C   UNL     1     -10.335  12.304  66.712  1.00  0.00    -0.238 C  
HETATM   15  C   UNL     1      -9.666  13.621  66.231  1.00  0.00    -0.295 C  
HETATM   16  C   UNL     1     -11.757  12.451  66.106  1.00  0.00    -0.460 C  
HETATM   17  C   UNL     1     -11.554  13.115  64.758  1.00  0.00    -0.368 C  
HETATM   18  C   UNL     1     -10.446  14.121  65.008  1.00  0.00    -0.447 C  
BRANCH  14  19
HETATM   19  C   UNL     1      -9.529  11.073  66.251  1.00  0.00    -0.219 A  
HETATM   20  C   UNL     1      -9.337   8.731  65.582  1.00  0.00    -0.219 A  
HETATM   21  C   UNL     1      -7.955   8.851  65.474  1.00  0.00    -0.107 A  
HETATM   22  C   UNL     1     -10.113   9.828  65.970  1.00  0.00    -0.322 A  
HETATM   23  C   UNL     1      -7.350  10.072  65.742  1.00  0.00    -0.117 A  
HETATM   24  C   UNL     1      -8.129  11.172  66.118  1.00  0.00    -0.111 A  
ENDBRANCH  14  19
ENDBRANCH  12  14
ENDBRANCH  11  12
ENDBRANCH  10  11
ENDBRANCH   9  10
ENDBRANCH   8   9
ENDBRANCH   7   8
ENDBRANCH   6   7
ENDBRANCH   3   6
ENDBRANCH   2   3
TORSDOF 11
ENDMDL
MODEL      254
REMARK 921   NORMALIZED FREE ENERGY PREDICTED BY IDOCK:   -3.86 KCAL/MOL
REMARK 922        TOTAL FREE ENERGY PREDICTED BY IDOCK:   -7.17 KCAL/MOL
REMARK 923 INTER-LIGAND FREE ENERGY PREDICTED BY IDOCK:   -5.54 KCAL/MOL
REMARK 924 INTRA-LIGAND FREE ENERGY PREDICTED BY IDOCK:   -1.63 KCAL/MOL
REMARK 927      BINDING AFFINITY PREDICTED BY RF-SCORE:    0.00 PKD
ROOT
HETATM    1  C   UNL     1     -11.215  15.807  64.844  1.00  0.00    -0.358 C  
HETATM    2  C   UNL     1     -10.782  14.353  64.662  1.00  0.00    -0.336 C  
ENDROOT
BRANCH   2   3
HETATM    3  N   UNL     1     -10.593  13.606  65.919  1.00  0.00    -0.284 NA 
BRANCH   3   4
HETATM    4  C   UNL     1     -11.816  13.486  66.728  1.00  0.00    -0.406 C  
HETATM    5  C   UNL     1     -11.730  13.994  68.163  1.00  0.00    -0.387 C  
ENDBRANCH   3   4
BRANCH   3   6
HETATM    6  C   UNL     1      -9.937  12.310  65.632  1.00  0.00    -0.251 C  
BRANCH   6   7
HETATM    7  C   UNL     1     -10.823  11.273  64.924  1.00  0.00    -0.229 C  
BRANCH   7   8
HETATM    8  O   UNL     1     -10.005  10.318  64.233  1.00  0.00    -0.328 OA 
BRANCH   8   9
HETATM    9  C   UNL     1      -8.673  10.332  64.750  1.00  0.00    -0.188 C  
BRANCH   9  10
HETATM   10  C   UNL     1      -8.108   8.915  64.808  1.00  0.00    -0.144 C  
BRANCH  10  11
HETATM   11  O   UNL     1      -8.794   8.117  65.792  1.00  0.00    -0.156 OA 
BRANCH  11  12
HETATM   12  C   UNL     1      -8.177   8.030  67.007  1.00  0.00    -0.116 C  
HETATM   13  O   UNL     1      -7.030   7.621  67.157  1.00  0.00    -0.075 OA 
BRANCH  12  14
HETATM   14  C   UNL     1      -9.104   8.432  68.170  1.00  0.00    -0.138 C  
HETATM   15  C   UNL     1     -10.510   8.889  67.691  1.00  0.00    -0.320 C  
HETATM   16  C   UNL     1      -8.532   9.761  68.731  1.00  0.00    -0.122 C  
HETATM   17  C   UNL     1      -9.708  10.462  69.386  1.00  0.00    -0.222 C  
HETATM   18  C   UNL     1     -10.871  10.167  68.459  1.00  0.00    -0.278 C  
BRANCH  14  19
HETATM   19  C   UNL     1      -9.213   7.267  69.173  1.00  0.00    -0.139 A  
HETATM   20  C   UNL     1      -8.505   6.047  71.168  1.00  0.00    -0.125 A  
HETATM   21  C   UNL     1      -9.445   5.052  70.923  1.00  0.00    -0.222 A  
HETATM   22  C   UNL     1      -8.388   7.139  70.301  1.00  0.00    -0.136 A  
HETATM   23  C   UNL     1     -10.278   5.155  69.817  1.00  0.00    -0.357 A  
HETATM   24  C   UNL     1     -10.170   6.253  68.957  1.00  0.00    -0.224 A  
ENDBRANCH  14  19
ENDBRANCH  12  14
ENDBRANCH  11  12
ENDBRANCH  10  11
ENDBRANCH   9  10
ENDBRANCH   8   9
ENDBRANCH   7   8
ENDBRANCH   6   7
ENDBRANCH   3   6
ENDBRANCH   2   3
TORSDOF 11
ENDMDL
MODEL      255
REMARK 921   NORMALIZED FREE ENERGY PREDICTED BY IDOCK:   -3.86 KCAL/MOL
REMARK 922        TOTAL FREE ENERGY PREDICTED BY IDOCK:   -7.16 KCAL/MOL
REMARK 923 INTER-LIGAND FREE ENERGY PREDICTED BY IDOCK:   -5.74 KCAL/MOL
REMARK 924 INTRA-LIGAND FREE ENERGY PREDICTED BY IDOCK:   -1.42 KCAL/MOL
REMARK 927      BINDING AFFINITY PREDICTED BY RF-SCORE:    0.00 PKD
ROOT
HETATM    1  C   UNL     1      -5.764   9.444  71.844  1.00  0.00    -0.041 C  
HETATM    2  C   UNL     1      -6.743   8.936  70.788  1.00  0.00    -0.059 C  
ENDROOT
BRANCH   2   3
HETATM    3  N   UNL     1      -7.629   7.848  71.245  1.00  0.00    -0.078 NA 
BRANCH   3   4
HETATM    4  C   UNL     1      -8.494   8.220  72.374  1.00  0.00    -0.190 C  
HETATM    5  C   UNL     1      -9.866   8.779  72.019  1.00  0.00    -0.376 C  
ENDBRANCH   3   4
BRANCH   3   6
HETATM    6  C   UNL     1      -8.364   7.289  70.087  1.00  0.00    -0.137 C  
BRANCH   6   7
HETATM    7  C   UNL     1      -8.033   7.931  68.731  1.00  0.00    -0.124 C  
BRANCH   7   8
HETATM    8  O   UNL     1      -9.241   8.197  68.004  1.00  0.00    -0.133 OA 
BRANCH   8   9
HETATM    9  C   UNL     1      -9.772   9.474  68.367  1.00  0.00    -0.154 C  
BRANCH   9  10
HETATM   10  C   UNL     1      -8.697  10.551  68.253  1.00  0.00    -0.135 C  
BRANCH  10  11
HETATM   11  O   UNL     1      -9.153  11.807  68.792  1.00  0.00    -0.110 OA 
BRANCH  11  12
HETATM   12  C   UNL     1      -9.193  12.843  67.905  1.00  0.00    -0.208 C  
HETATM   13  O   UNL     1      -8.232  13.193  67.226  1.00  0.00    -0.182 OA 
BRANCH  12  14
HETATM   14  C   UNL     1     -10.553  13.568  67.904  1.00  0.00    -0.255 C  
HETATM   15  C   UNL     1     -10.452  15.042  68.384  1.00  0.00    -0.238 C  
HETATM   16  C   UNL     1     -11.374  12.933  69.058  1.00  0.00    -0.341 C  
HETATM   17  C   UNL     1     -12.378  13.994  69.469  1.00  0.00    -0.275 C  
HETATM   18  C   UNL     1     -11.600  15.292  69.370  1.00  0.00    -0.347 C  
BRANCH  14  19
HETATM   19  C   UNL     1     -11.183  13.485  66.500  1.00  0.00    -0.322 A  
HETATM   20  C   UNL     1     -12.204  14.484  64.518  1.00  0.00    -0.483 A  
HETATM   21  C   UNL     1     -12.392  13.227  63.952  1.00  0.00    -0.422 A  
HETATM   22  C   UNL     1     -11.610  14.611  65.778  1.00  0.00    -0.328 A  
HETATM   23  C   UNL     1     -11.975  12.096  64.642  1.00  0.00    -0.398 A  
HETATM   24  C   UNL     1     -11.370  12.224  65.897  1.00  0.00    -0.406 A  
ENDBRANCH  14  19
ENDBRANCH  12  14
ENDBRANCH  11  12
ENDBRANCH  10  11
ENDBRANCH   9  10
ENDBRANCH   8   9
ENDBRANCH   7   8
ENDBRANCH   6   7
ENDBRANCH   3   6
ENDBRANCH   2   3
TORSDOF 11
ENDMDL
MODEL      256
REMARK 921   NORMALIZED FREE ENERGY PREDICTED BY IDOCK:   -3.85 KCAL/MOL
REMARK 922        TOTAL FREE ENERGY PREDICTED BY IDOCK:   -7.14 KCAL/MOL
REMARK 923 INTER-LIGAND FREE ENERGY PREDICTED BY IDOCK:   -5.81 KCAL/MOL
REMARK 924 INTRA-LIGAND FREE ENERGY PREDICTED BY IDOCK:   -1.34 KCAL/MOL
REMARK 927      BINDING AFFINITY PREDICTED BY RF-SCORE:    0.00 PKD
ROOT
HETATM    1  C   UNL     1     -12.271   8.927  71.855  1.00  0.00    -0.445 C  
HETATM    2  C   UNL     1     -11.455   7.907  72.646  1.00  0.00    -0.395 C  
ENDROOT
BRANCH   2   3
HETATM    3  N   UNL     1     -10.907   6.800  71.839  1.00  0.00    -0.228 NA 
BRANCH   3   4
HETATM    4  C   UNL     1     -10.752   5.542  72.584  1.00  0.00    -0.243 C  
HETATM    5  C   UNL     1      -9.825   5.582  73.793  1.00  0.00    -0.174 C  
ENDBRANCH   3   4
BRANCH   3   6
HETATM    6  C   UNL     1     -11.691   6.663  70.590  1.00  0.00    -0.394 C  
BRANCH   6   7
HETATM    7  C   UNL     1     -10.905   6.922  69.295  1.00  0.00    -0.237 C  
BRANCH   7   8
HETATM    8  O   UNL     1     -11.161   5.877  68.346  1.00  0.00    -0.202 OA 
BRANCH   8   9
HETATM    9  C   UNL     1     -11.012   6.365  67.011  1.00  0.00    -0.389 C  
BRANCH   9  10
HETATM   10  C   UNL     1     -10.018   7.523  66.975  1.00  0.00    -0.234 C  
BRANCH  10  11
HETATM   11  O   UNL     1     -10.660   8.754  66.592  1.00  0.00    -0.226 OA 
BRANCH  11  12
HETATM   12  C   UNL     1      -9.848   9.851  66.560  1.00  0.00    -0.215 C  
HETATM   13  O   UNL     1      -9.056  10.083  65.651  1.00  0.00    -0.163 OA 
BRANCH  12  14
HETATM   14  C   UNL     1      -9.984  10.724  67.823  1.00  0.00    -0.195 C  
HETATM   15  C   UNL     1     -11.387  10.616  68.482  1.00  0.00    -0.348 C  
HETATM   16  C   UNL     1      -9.999  12.194  67.326  1.00  0.00    -0.211 C  
HETATM   17  C   UNL     1     -10.739  12.974  68.396  1.00  0.00    -0.273 C  
HETATM   18  C   UNL     1     -11.849  12.037  68.830  1.00  0.00    -0.358 C  
BRANCH  14  19
HETATM   19  C   UNL     1      -8.872  10.360  68.826  1.00  0.00    -0.157 A  
HETATM   20  C   UNL     1      -8.045   9.252  70.840  1.00  0.00    -0.168 A  
HETATM   21  C   UNL     1      -6.781   9.802  70.653  1.00  0.00    -0.111 A  
HETATM   22  C   UNL     1      -9.078   9.531  69.940  1.00  0.00    -0.237 A  
HETATM   23  C   UNL     1      -6.547  10.623  69.557  1.00  0.00    -0.091 A  
HETATM   24  C   UNL     1      -7.578  10.891  68.650  1.00  0.00    -0.114 A  
ENDBRANCH  14  19
ENDBRANCH  12  14
ENDBRANCH  11  12
ENDBRANCH  10  11
ENDBRANCH   9  10
ENDBRANCH   8   9
ENDBRANCH   7   8
ENDBRANCH   6   7
ENDBRANCH   3   6
ENDBRANCH   2   3
TORSDOF 11
ENDMDL
MODEL      257
REMARK 921   NORMALIZED FREE ENERGY PREDICTED BY IDOCK:   -3.84 KCAL/MOL
REMARK 922        TOTAL FREE ENERGY PREDICTED BY IDOCK:   -7.13 KCAL/MOL
REMARK 923 INTER-LIGAND FREE ENERGY PREDICTED BY IDOCK:   -5.57 KCAL/MOL
REMARK 924 INTRA-LIGAND FREE ENERGY PREDICTED BY IDOCK:   -1.56 KCAL/MOL
REMARK 927      BINDING AFFINITY PREDICTED BY RF-SCORE:    0.00 PKD
ROOT
HETATM    1  C   UNL     1      -8.175   8.520  65.909  1.00  0.00    -0.125 C  
HETATM    2  C   UNL     1      -9.395   9.145  66.581  1.00  0.00    -0.177 C  
ENDROOT
BRANCH   2   3
HETATM    3  N   UNL     1      -9.081  10.153  67.612  1.00  0.00    -0.137 NA 
BRANCH   3   4
HETATM    4  C   UNL     1      -7.702  10.660  67.546  1.00  0.00    -0.101 C  
HETATM    5  C   UNL     1      -7.542  12.144  67.237  1.00  0.00    -0.156 C  
ENDBRANCH   3   4
BRANCH   3   6
HETATM    6  C   UNL     1     -10.111  11.217  67.596  1.00  0.00    -0.179 C  
BRANCH   6   7
HETATM    7  C   UNL     1     -11.508  10.780  68.065  1.00  0.00    -0.256 C  
BRANCH   7   8
HETATM    8  O   UNL     1     -11.413  10.093  69.321  1.00  0.00    -0.197 OA 
BRANCH   8   9
HETATM    9  C   UNL     1     -11.858  10.936  70.386  1.00  0.00    -0.357 C  
BRANCH   9  10
HETATM   10  C   UNL     1     -12.445  10.098  71.519  1.00  0.00    -0.427 C  
BRANCH  10  11
HETATM   11  O   UNL     1     -11.534   9.063  71.934  1.00  0.00    -0.348 OA 
BRANCH  11  12
HETATM   12  C   UNL     1     -11.905   7.791  71.605  1.00  0.00    -0.287 C  
HETATM   13  O   UNL     1     -12.980   7.512  71.085  1.00  0.00    -0.292 OA 
BRANCH  12  14
HETATM   14  C   UNL     1     -10.857   6.743  72.026  1.00  0.00    -0.257 C  
HETATM   15  C   UNL     1     -11.496   5.433  72.564  1.00  0.00    -0.259 C  
HETATM   16  C   UNL     1     -10.189   7.300  73.312  1.00  0.00    -0.365 C  
HETATM   17  C   UNL     1      -9.668   6.085  74.055  1.00  0.00    -0.194 C  
HETATM   18  C   UNL     1     -10.743   5.037  73.841  1.00  0.00    -0.356 C  
BRANCH  14  19
HETATM   19  C   UNL     1      -9.911   6.452  70.845  1.00  0.00    -0.211 A  
HETATM   20  C   UNL     1      -8.020   6.993  69.395  1.00  0.00    -0.118 A  
HETATM   21  C   UNL     1      -8.266   5.869  68.614  1.00  0.00    -0.109 A  
HETATM   22  C   UNL     1      -8.835   7.283  70.495  1.00  0.00    -0.153 A  
HETATM   23  C   UNL     1      -9.322   5.027  68.939  1.00  0.00    -0.174 A  
HETATM   24  C   UNL     1     -10.129   5.310  70.047  1.00  0.00    -0.336 A  
ENDBRANCH  14  19
ENDBRANCH  12  14
ENDBRANCH  11  12
ENDBRANCH  10  11
ENDBRANCH   9  10
ENDBRANCH   8   9
ENDBRANCH   7   8
ENDBRANCH   6   7
ENDBRANCH   3   6
ENDBRANCH   2   3
TORSDOF 11
ENDMDL
MODEL      258
REMARK 921   NORMALIZED FREE ENERGY PREDICTED BY IDOCK:   -3.84 KCAL/MOL
REMARK 922        TOTAL FREE ENERGY PREDICTED BY IDOCK:   -7.13 KCAL/MOL
REMARK 923 INTER-LIGAND FREE ENERGY PREDICTED BY IDOCK:   -6.05 KCAL/MOL
REMARK 924 INTRA-LIGAND FREE ENERGY PREDICTED BY IDOCK:   -1.08 KCAL/MOL
REMARK 927      BINDING AFFINITY PREDICTED BY RF-SCORE:    0.00 PKD
ROOT
HETATM    1  C   UNL     1      -7.146  18.998  67.960  1.00  0.00    -0.263 C  
HETATM    2  C   UNL     1      -8.564  18.604  68.366  1.00  0.00    -0.337 C  
ENDROOT
BRANCH   2   3
HETATM    3  N   UNL     1      -9.327  17.895  67.321  1.00  0.00    -0.255 NA 
BRANCH   3   4
HETATM    4  C   UNL     1     -10.088  18.786  66.433  1.00  0.00    -0.404 C  
HETATM    5  C   UNL     1     -10.355  20.193  66.953  1.00  0.00    -0.503 C  
ENDBRANCH   3   4
BRANCH   3   6
HETATM    6  C   UNL     1      -8.432  16.957  66.604  1.00  0.00    -0.250 C  
BRANCH   6   7
HETATM    7  C   UNL     1      -9.100  15.661  66.119  1.00  0.00    -0.342 C  
BRANCH   7   8
HETATM    8  O   UNL     1      -9.002  14.648  67.131  1.00  0.00    -0.202 OA 
BRANCH   8   9
HETATM    9  C   UNL     1      -7.698  14.650  67.716  1.00  0.00    -0.157 C  
BRANCH   9  10
HETATM   10  C   UNL     1      -7.554  13.493  68.701  1.00  0.00    -0.108 C  
BRANCH  10  11
HETATM   11  O   UNL     1      -7.629  12.220  68.031  1.00  0.00    -0.106 OA 
BRANCH  11  12
HETATM   12  C   UNL     1      -7.767  11.136  68.848  1.00  0.00    -0.137 C  
HETATM   13  O   UNL     1      -7.085  10.951  69.851  1.00  0.00    -0.138 OA 
BRANCH  12  14
HETATM   14  C   UNL     1      -8.823  10.139  68.333  1.00  0.00    -0.123 C  
HETATM   15  C   UNL     1      -8.193   8.864  67.706  1.00  0.00    -0.110 C  
HETATM   16  C   UNL     1      -9.462  10.802  67.083  1.00  0.00    -0.180 C  
HETATM   17  C   UNL     1      -9.987   9.655  66.242  1.00  0.00    -0.335 C  
HETATM   18  C   UNL     1      -8.931   8.577  66.392  1.00  0.00    -0.201 C  
BRANCH  14  19
HETATM   19  C   UNL     1      -9.792   9.773  69.474  1.00  0.00    -0.230 A  
HETATM   20  C   UNL     1     -11.702  10.229  70.928  1.00  0.00    -0.472 A  
HETATM   21  C   UNL     1     -11.480   9.048  71.629  1.00  0.00    -0.431 A  
HETATM   22  C   UNL     1     -10.865  10.589  69.867  1.00  0.00    -0.334 A  
HETATM   23  C   UNL     1     -10.428   8.220  71.260  1.00  0.00    -0.262 A  
HETATM   24  C   UNL     1      -9.600   8.574  70.190  1.00  0.00    -0.174 A  
ENDBRANCH  14  19
ENDBRANCH  12  14
ENDBRANCH  11  12
ENDBRANCH  10  11
ENDBRANCH   9  10
ENDBRANCH   8   9
ENDBRANCH   7   8
ENDBRANCH   6   7
ENDBRANCH   3   6
ENDBRANCH   2   3
TORSDOF 11
ENDMDL
MODEL      259
REMARK 921   NORMALIZED FREE ENERGY PREDICTED BY IDOCK:   -3.83 KCAL/MOL
REMARK 922        TOTAL FREE ENERGY PREDICTED BY IDOCK:   -7.11 KCAL/MOL
REMARK 923 INTER-LIGAND FREE ENERGY PREDICTED BY IDOCK:   -6.03 KCAL/MOL
REMARK 924 INTRA-LIGAND FREE ENERGY PREDICTED BY IDOCK:   -1.09 KCAL/MOL
REMARK 927      BINDING AFFINITY PREDICTED BY RF-SCORE:    0.00 PKD
ROOT
HETATM    1  C   UNL     1     -10.646  15.812  66.297  1.00  0.00    -0.313 C  
HETATM    2  C   UNL     1      -9.355  16.581  66.027  1.00  0.00    -0.267 C  
ENDROOT
BRANCH   2   3
HETATM    3  N   UNL     1      -8.576  16.918  67.234  1.00  0.00    -0.193 NA 
BRANCH   3   4
HETATM    4  C   UNL     1      -8.604  18.347  67.580  1.00  0.00    -0.259 C  
HETATM    5  C   UNL     1      -9.184  19.286  66.529  1.00  0.00    -0.388 C  
ENDBRANCH   3   4
BRANCH   3   6
HETATM    6  C   UNL     1      -8.976  16.025  68.346  1.00  0.00    -0.188 C  
BRANCH   6   7
HETATM    7  C   UNL     1      -7.819  15.515  69.221  1.00  0.00    -0.227 C  
BRANCH   7   8
HETATM    8  O   UNL     1      -6.970  14.648  68.456  1.00  0.00    -0.099 OA 
BRANCH   8   9
HETATM    9  C   UNL     1      -6.605  13.499  69.224  1.00  0.00    -0.103 C  
BRANCH   9  10
HETATM   10  C   UNL     1      -6.960  12.219  68.472  1.00  0.00    -0.092 C  
BRANCH  10  11
HETATM   11  O   UNL     1      -8.032  11.509  69.121  1.00  0.00    -0.036 OA 
BRANCH  11  12
HETATM   12  C   UNL     1      -9.209  11.470  68.430  1.00  0.00    -0.190 C  
HETATM   13  O   UNL     1      -9.664  12.427  67.811  1.00  0.00    -0.190 OA 
BRANCH  12  14
HETATM   14  C   UNL     1      -9.935  10.119  68.575  1.00  0.00    -0.177 C  
HETATM   15  C   UNL     1      -8.964   8.941  68.865  1.00  0.00    -0.137 C  
HETATM   16  C   UNL     1     -10.438   9.750  67.154  1.00  0.00    -0.316 C  
HETATM   17  C   UNL     1     -10.562   8.238  67.150  1.00  0.00    -0.340 C  
HETATM   18  C   UNL     1      -9.367   7.771  67.958  1.00  0.00    -0.146 C  
BRANCH  14  19
HETATM   19  C   UNL     1     -11.016  10.226  69.669  1.00  0.00    -0.314 A  
HETATM   20  C   UNL     1     -12.878  11.356  70.776  1.00  0.00    -0.255 A  
HETATM   21  C   UNL     1     -12.926  10.370  71.755  1.00  0.00    -0.580 A  
HETATM   22  C   UNL     1     -11.932  11.287  69.748  1.00  0.00    -0.431 A  
HETATM   23  C   UNL     1     -12.034   9.306  71.700  1.00  0.00    -0.448 A  
HETATM   24  C   UNL     1     -11.097   9.230  70.664  1.00  0.00    -0.335 A  
ENDBRANCH  14  19
ENDBRANCH  12  14
ENDBRANCH  11  12
ENDBRANCH  10  11
ENDBRANCH   9  10
ENDBRANCH   8   9
ENDBRANCH   7   8
ENDBRANCH   6   7
ENDBRANCH   3   6
ENDBRANCH   2   3
TORSDOF 11
ENDMDL
MODEL      260
REMARK 921   NORMALIZED FREE ENERGY PREDICTED BY IDOCK:   -3.81 KCAL/MOL
REMARK 922        TOTAL FREE ENERGY PREDICTED BY IDOCK:   -7.08 KCAL/MOL
REMARK 923 INTER-LIGAND FREE ENERGY PREDICTED BY IDOCK:   -5.90 KCAL/MOL
REMARK 924 INTRA-LIGAND FREE ENERGY PREDICTED BY IDOCK:   -1.19 KCAL/MOL
REMARK 927      BINDING AFFINITY PREDICTED BY RF-SCORE:    0.00 PKD
ROOT
HETATM    1  C   UNL     1      -7.748   4.505  70.354  1.00  0.00    -0.053 C  
HETATM    2  C   UNL     1      -8.951   4.813  69.466  1.00  0.00    -0.093 C  
ENDROOT
BRANCH   2   3
HETATM    3  N   UNL     1      -9.614   6.099  69.753  1.00  0.00    -0.149 NA 
BRANCH   3   4
HETATM    4  C   UNL     1      -9.220   6.697  71.038  1.00  0.00    -0.160 C  
HETATM    5  C   UNL     1     -10.272   6.682  72.141  1.00  0.00    -0.209 C  
ENDBRANCH   3   4
BRANCH   3   6
HETATM    6  C   UNL     1      -9.452   7.010  68.596  1.00  0.00    -0.135 C  
BRANCH   6   7
HETATM    7  C   UNL     1      -9.412   8.506  68.944  1.00  0.00    -0.147 C  
BRANCH   7   8
HETATM    8  O   UNL     1     -10.746   9.016  69.082  1.00  0.00    -0.222 OA 
BRANCH   8   9
HETATM    9  C   UNL     1     -10.752  10.188  69.899  1.00  0.00    -0.295 C  
BRANCH   9  10
HETATM   10  C   UNL     1     -11.987  11.036  69.607  1.00  0.00    -0.353 C  
BRANCH  10  11
HETATM   11  O   UNL     1     -11.912  11.640  68.301  1.00  0.00    -0.516 OA 
BRANCH  11  12
HETATM   12  C   UNL     1     -11.782  12.998  68.291  1.00  0.00    -0.353 C  
HETATM   13  O   UNL     1     -12.340  13.739  69.096  1.00  0.00    -0.303 OA 
BRANCH  12  14
HETATM   14  C   UNL     1     -10.918  13.501  67.118  1.00  0.00    -0.302 C  
HETATM   15  C   UNL     1     -10.229  14.861  67.415  1.00  0.00    -0.234 C  
HETATM   16  C   UNL     1     -11.914  13.907  65.999  1.00  0.00    -0.436 C  
HETATM   17  C   UNL     1     -11.181  14.938  65.162  1.00  0.00    -0.389 C  
HETATM   18  C   UNL     1     -10.408  15.754  66.181  1.00  0.00    -0.333 C  
BRANCH  14  19
HETATM   19  C   UNL     1      -9.880  12.426  66.742  1.00  0.00    -0.228 A  
HETATM   20  C   UNL     1      -9.190  10.386  65.587  1.00  0.00    -0.220 A  
HETATM   21  C   UNL     1      -7.925  10.461  66.161  1.00  0.00    -0.138 A  
HETATM   22  C   UNL     1     -10.157  11.354  65.878  1.00  0.00    -0.286 A  
HETATM   23  C   UNL     1      -7.622  11.512  67.016  1.00  0.00    -0.154 A  
HETATM   24  C   UNL     1      -8.585  12.488  67.296  1.00  0.00    -0.191 A  
ENDBRANCH  14  19
ENDBRANCH  12  14
ENDBRANCH  11  12
ENDBRANCH  10  11
ENDBRANCH   9  10
ENDBRANCH   8   9
ENDBRANCH   7   8
ENDBRANCH   6   7
ENDBRANCH   3   6
ENDBRANCH   2   3
TORSDOF 11
ENDMDL
MODEL      261
REMARK 921   NORMALIZED FREE ENERGY PREDICTED BY IDOCK:   -3.79 KCAL/MOL
REMARK 922        TOTAL FREE ENERGY PREDICTED BY IDOCK:   -7.05 KCAL/MOL
REMARK 923 INTER-LIGAND FREE ENERGY PREDICTED BY IDOCK:   -6.47 KCAL/MOL
REMARK 924 INTRA-LIGAND FREE ENERGY PREDICTED BY IDOCK:   -0.57 KCAL/MOL
REMARK 927      BINDING AFFINITY PREDICTED BY RF-SCORE:    0.00 PKD
ROOT
HETATM    1  C   UNL     1      -7.543  14.917  70.075  1.00  0.00     0.187 C  
HETATM    2  C   UNL     1      -6.455  15.696  69.338  1.00  0.00    -0.156 C  
ENDROOT
BRANCH   2   3
HETATM    3  N   UNL     1      -6.212  15.251  67.953  1.00  0.00    -0.142 NA 
BRANCH   3   4
HETATM    4  C   UNL     1      -5.232  14.160  67.842  1.00  0.00    -0.054 C  
HETATM    5  C   UNL     1      -5.798  12.746  67.773  1.00  0.00    -0.134 C  
ENDBRANCH   3   4
BRANCH   3   6
HETATM    6  C   UNL     1      -7.505  14.961  67.291  1.00  0.00    -0.161 C  
BRANCH   6   7
HETATM    7  C   UNL     1      -8.110  16.132  66.501  1.00  0.00    -0.296 C  
BRANCH   7   8
HETATM    8  O   UNL     1      -8.917  16.945  67.365  1.00  0.00    -0.206 OA 
BRANCH   8   9
HETATM    9  C   UNL     1     -10.286  16.906  66.956  1.00  0.00    -0.297 C  
BRANCH   9  10
HETATM   10  C   UNL     1     -11.118  16.106  67.956  1.00  0.00    -0.317 C  
BRANCH  10  11
HETATM   11  O   UNL     1     -11.495  14.824  67.418  1.00  0.00    -0.342 OA 
BRANCH  11  12
HETATM   12  C   UNL     1     -11.703  13.841  68.342  1.00  0.00    -0.358 C  
HETATM   13  O   UNL     1     -12.192  14.043  69.449  1.00  0.00    -0.336 OA 
BRANCH  12  14
HETATM   14  C   UNL     1     -11.190  12.467  67.868  1.00  0.00    -0.312 C  
HETATM   15  C   UNL     1     -11.816  11.284  68.656  1.00  0.00    -0.369 C  
HETATM   16  C   UNL     1      -9.710  12.383  68.326  1.00  0.00    -0.218 C  
HETATM   17  C   UNL     1      -9.408  10.902  68.446  1.00  0.00    -0.172 C  
HETATM   18  C   UNL     1     -10.684  10.314  69.018  1.00  0.00    -0.257 C  
BRANCH  14  19
HETATM   19  C   UNL     1     -11.439  12.316  66.354  1.00  0.00    -0.434 A  
HETATM   20  C   UNL     1     -10.869  11.463  64.136  1.00  0.00    -0.431 A  
HETATM   21  C   UNL     1     -11.938  12.151  63.571  1.00  0.00    -0.619 A  
HETATM   22  C   UNL     1     -10.621  11.548  65.510  1.00  0.00    -0.334 A  
HETATM   23  C   UNL     1     -12.766  12.915  64.382  1.00  0.00    -0.322 A  
HETATM   24  C   UNL     1     -12.525  12.989  65.759  1.00  0.00    -0.394 A  
ENDBRANCH  14  19
ENDBRANCH  12  14
ENDBRANCH  11  12
ENDBRANCH  10  11
ENDBRANCH   9  10
ENDBRANCH   8   9
ENDBRANCH   7   8
ENDBRANCH   6   7
ENDBRANCH   3   6
ENDBRANCH   2   3
TORSDOF 11
ENDMDL
MODEL      262
REMARK 921   NORMALIZED FREE ENERGY PREDICTED BY IDOCK:   -3.79 KCAL/MOL
REMARK 922        TOTAL FREE ENERGY PREDICTED BY IDOCK:   -7.04 KCAL/MOL
REMARK 923 INTER-LIGAND FREE ENERGY PREDICTED BY IDOCK:   -5.95 KCAL/MOL
REMARK 924 INTRA-LIGAND FREE ENERGY PREDICTED BY IDOCK:   -1.09 KCAL/MOL
REMARK 927      BINDING AFFINITY PREDICTED BY RF-SCORE:    0.00 PKD
ROOT
HETATM    1  C   UNL     1      -7.566   7.470  70.763  1.00  0.00    -0.081 C  
HETATM    2  C   UNL     1      -8.573   6.411  70.320  1.00  0.00    -0.135 C  
ENDROOT
BRANCH   2   3
HETATM    3  N   UNL     1      -8.750   6.305  68.859  1.00  0.00    -0.125 NA 
BRANCH   3   4
HETATM    4  C   UNL     1     -10.104   5.898  68.452  1.00  0.00    -0.167 C  
HETATM    5  C   UNL     1     -11.218   6.155  69.459  1.00  0.00    -0.482 C  
ENDBRANCH   3   4
BRANCH   3   6
HETATM    6  C   UNL     1      -8.281   7.551  68.211  1.00  0.00    -0.125 C  
BRANCH   6   7
HETATM    7  C   UNL     1      -9.199   8.098  67.107  1.00  0.00    -0.145 C  
BRANCH   7   8
HETATM    8  O   UNL     1     -10.099   9.073  67.655  1.00  0.00    -0.188 OA 
BRANCH   8   9
HETATM    9  C   UNL     1      -9.450  10.342  67.773  1.00  0.00    -0.148 C  
BRANCH   9  10
HETATM   10  C   UNL     1      -9.754  10.971  69.130  1.00  0.00    -0.076 C  
BRANCH  10  11
HETATM   11  O   UNL     1      -9.785  12.409  69.046  1.00  0.00     0.089 OA 
BRANCH  11  12
HETATM   12  C   UNL     1     -10.860  12.933  68.386  1.00  0.00    -0.254 C  
HETATM   13  O   UNL     1     -12.024  12.708  68.702  1.00  0.00    -0.304 OA 
BRANCH  12  14
HETATM   14  C   UNL     1     -10.449  13.775  67.163  1.00  0.00    -0.272 C  
HETATM   15  C   UNL     1      -8.909  13.924  67.023  1.00  0.00    -0.231 C  
HETATM   16  C   UNL     1     -10.862  15.234  67.492  1.00  0.00    -0.304 C  
HETATM   17  C   UNL     1      -9.945  16.110  66.659  1.00  0.00    -0.270 C  
HETATM   18  C   UNL     1      -8.609  15.396  66.713  1.00  0.00    -0.308 C  
BRANCH  14  19
HETATM   19  C   UNL     1     -11.064  13.169  65.887  1.00  0.00    -0.298 A  
HETATM   20  C   UNL     1     -10.938  11.864  63.825  1.00  0.00    -0.494 A  
HETATM   21  C   UNL     1     -12.266  12.154  63.532  1.00  0.00    -0.670 A  
HETATM   22  C   UNL     1     -10.343  12.369  64.986  1.00  0.00    -0.319 A  
HETATM   23  C   UNL     1     -13.005  12.939  64.407  1.00  0.00    -0.107 A  
HETATM   24  C   UNL     1     -12.414  13.433  65.575  1.00  0.00    -0.534 A  
ENDBRANCH  14  19
ENDBRANCH  12  14
ENDBRANCH  11  12
ENDBRANCH  10  11
ENDBRANCH   9  10
ENDBRANCH   8   9
ENDBRANCH   7   8
ENDBRANCH   6   7
ENDBRANCH   3   6
ENDBRANCH   2   3
TORSDOF 11
ENDMDL
MODEL      263
REMARK 921   NORMALIZED FREE ENERGY PREDICTED BY IDOCK:   -3.78 KCAL/MOL
REMARK 922        TOTAL FREE ENERGY PREDICTED BY IDOCK:   -7.03 KCAL/MOL
REMARK 923 INTER-LIGAND FREE ENERGY PREDICTED BY IDOCK:   -5.68 KCAL/MOL
REMARK 924 INTRA-LIGAND FREE ENERGY PREDICTED BY IDOCK:   -1.36 KCAL/MOL
REMARK 927      BINDING AFFINITY PREDICTED BY RF-SCORE:    0.00 PKD
ROOT
HETATM    1  C   UNL     1      -9.824   7.855  67.087  1.00  0.00    -0.273 C  
HETATM    2  C   UNL     1      -9.088   8.810  66.150  1.00  0.00    -0.202 C  
ENDROOT
BRANCH   2   3
HETATM    3  N   UNL     1      -7.850   8.263  65.564  1.00  0.00    -0.100 NA 
BRANCH   3   4
HETATM    4  C   UNL     1      -7.654   8.617  64.150  1.00  0.00    -0.121 C  
HETATM    5  C   UNL     1      -7.701   7.466  63.152  1.00  0.00    -0.128 C  
ENDBRANCH   3   4
BRANCH   3   6
HETATM    6  C   UNL     1      -6.699   8.605  66.431  1.00  0.00    -0.070 C  
BRANCH   6   7
HETATM    7  C   UNL     1      -5.504   9.244  65.706  1.00  0.00    -0.040 C  
BRANCH   7   8
HETATM    8  O   UNL     1      -5.474  10.656  65.957  1.00  0.00    -0.076 OA 
BRANCH   8   9
HETATM    9  C   UNL     1      -6.010  10.946  67.250  1.00  0.00    -0.054 C  
BRANCH   9  10
HETATM   10  C   UNL     1      -6.815  12.243  67.216  1.00  0.00    -0.140 C  
BRANCH  10  11
HETATM   11  O   UNL     1      -8.227  11.987  67.331  1.00  0.00    -0.150 OA 
BRANCH  11  12
HETATM   12  C   UNL     1      -8.929  12.899  68.066  1.00  0.00    -0.196 C  
HETATM   13  O   UNL     1      -8.409  13.851  68.641  1.00  0.00    -0.152 OA 
BRANCH  12  14
HETATM   14  C   UNL     1     -10.429  12.559  68.153  1.00  0.00    -0.238 C  
HETATM   15  C   UNL     1     -11.173  13.386  69.237  1.00  0.00    -0.275 C  
HETATM   16  C   UNL     1     -10.508  11.131  68.758  1.00  0.00    -0.227 C  
HETATM   17  C   UNL     1     -11.873  11.047  69.415  1.00  0.00    -0.407 C  
HETATM   18  C   UNL     1     -12.070  12.422  70.025  1.00  0.00    -0.335 C  
BRANCH  14  19
HETATM   19  C   UNL     1     -11.083  12.744  66.770  1.00  0.00    -0.314 A  
HETATM   20  C   UNL     1     -11.420  12.131  64.429  1.00  0.00    -0.417 A  
HETATM   21  C   UNL     1     -12.285  13.205  64.247  1.00  0.00    -0.463 A  
HETATM   22  C   UNL     1     -10.824  11.906  65.674  1.00  0.00    -0.333 A  
HETATM   23  C   UNL     1     -12.563  14.048  65.315  1.00  0.00    -0.495 A  
HETATM   24  C   UNL     1     -11.977  13.815  66.563  1.00  0.00    -0.470 A  
ENDBRANCH  14  19
ENDBRANCH  12  14
ENDBRANCH  11  12
ENDBRANCH  10  11
ENDBRANCH   9  10
ENDBRANCH   8   9
ENDBRANCH   7   8
ENDBRANCH   6   7
ENDBRANCH   3   6
ENDBRANCH   2   3
TORSDOF 11
ENDMDL
MODEL      264
REMARK 921   NORMALIZED FREE ENERGY PREDICTED BY IDOCK:   -3.78 KCAL/MOL
REMARK 922        TOTAL FREE ENERGY PREDICTED BY IDOCK:   -7.03 KCAL/MOL
REMARK 923 INTER-LIGAND FREE ENERGY PREDICTED BY IDOCK:   -5.76 KCAL/MOL
REMARK 924 INTRA-LIGAND FREE ENERGY PREDICTED BY IDOCK:   -1.27 KCAL/MOL
REMARK 927      BINDING AFFINITY PREDICTED BY RF-SCORE:    0.00 PKD
ROOT
HETATM    1  C   UNL     1      -7.655   3.938  68.752  1.00  0.00    -0.054 C  
HETATM    2  C   UNL     1      -7.714   5.448  68.528  1.00  0.00    -0.084 C  
ENDROOT
BRANCH   2   3
HETATM    3  N   UNL     1      -8.968   6.086  68.972  1.00  0.00    -0.124 NA 
BRANCH   3   4
HETATM    4  C   UNL     1      -9.087   6.211  70.432  1.00  0.00    -0.153 C  
HETATM    5  C   UNL     1     -10.353   5.638  71.058  1.00  0.00    -0.297 C  
ENDBRANCH   3   4
BRANCH   3   6
HETATM    6  C   UNL     1      -9.157   7.363  68.246  1.00  0.00    -0.128 C  
BRANCH   6   7
HETATM    7  C   UNL     1     -10.593   7.636  67.769  1.00  0.00    -0.196 C  
BRANCH   7   8
HETATM    8  O   UNL     1     -10.583   8.068  66.401  1.00  0.00    -0.036 OA 
BRANCH   8   9
HETATM    9  C   UNL     1      -9.538   9.018  66.184  1.00  0.00    -0.272 C  
BRANCH   9  10
HETATM   10  C   UNL     1     -10.093  10.283  65.534  1.00  0.00    -0.281 C  
BRANCH  10  11
HETATM   11  O   UNL     1      -9.989  11.416  66.418  1.00  0.00    -0.203 OA 
BRANCH  11  12
HETATM   12  C   UNL     1     -11.145  11.772  67.051  1.00  0.00    -0.304 C  
HETATM   13  O   UNL     1     -12.175  12.080  66.458  1.00  0.00    -0.548 OA 
BRANCH  12  14
HETATM   14  C   UNL     1     -10.991  11.813  68.583  1.00  0.00    -0.269 C  
HETATM   15  C   UNL     1      -9.763  11.007  69.088  1.00  0.00    -0.096 C  
HETATM   16  C   UNL     1     -12.160  10.966  69.152  1.00  0.00    -0.292 C  
HETATM   17  C   UNL     1     -11.685  10.483  70.509  1.00  0.00    -0.443 C  
HETATM   18  C   UNL     1     -10.216  10.173  70.293  1.00  0.00    -0.180 C  
BRANCH  14  19
HETATM   19  C   UNL     1     -10.924  13.278  69.057  1.00  0.00    -0.249 A  
HETATM   20  C   UNL     1      -9.809  15.442  69.267  1.00  0.00    -0.262 A  
HETATM   21  C   UNL     1     -10.863  15.939  70.028  1.00  0.00    -0.356 A  
HETATM   22  C   UNL     1      -9.838  14.127  68.792  1.00  0.00    -0.168 A  
HETATM   23  C   UNL     1     -11.952  15.123  70.302  1.00  0.00    -0.361 A  
HETATM   24  C   UNL     1     -11.987  13.811  69.815  1.00  0.00    -0.406 A  
ENDBRANCH  14  19
ENDBRANCH  12  14
ENDBRANCH  11  12
ENDBRANCH  10  11
ENDBRANCH   9  10
ENDBRANCH   8   9
ENDBRANCH   7   8
ENDBRANCH   6   7
ENDBRANCH   3   6
ENDBRANCH   2   3
TORSDOF 11
ENDMDL
MODEL      265
REMARK 921   NORMALIZED FREE ENERGY PREDICTED BY IDOCK:   -3.77 KCAL/MOL
REMARK 922        TOTAL FREE ENERGY PREDICTED BY IDOCK:   -7.01 KCAL/MOL
REMARK 923 INTER-LIGAND FREE ENERGY PREDICTED BY IDOCK:   -5.95 KCAL/MOL
REMARK 924 INTRA-LIGAND FREE ENERGY PREDICTED BY IDOCK:   -1.06 KCAL/MOL
REMARK 927      BINDING AFFINITY PREDICTED BY RF-SCORE:    0.00 PKD
ROOT
HETATM    1  C   UNL     1      -7.452  16.627  69.048  1.00  0.00    -0.232 C  
HETATM    2  C   UNL     1      -7.046  18.083  68.830  1.00  0.00    -0.276 C  
ENDROOT
BRANCH   2   3
HETATM    3  N   UNL     1      -7.254  18.579  67.456  1.00  0.00    -0.210 NA 
BRANCH   3   4
HETATM    4  C   UNL     1      -6.011  18.958  66.767  1.00  0.00    -0.161 C  
HETATM    5  C   UNL     1      -6.003  18.799  65.251  1.00  0.00    -0.297 C  
ENDBRANCH   3   4
BRANCH   3   6
HETATM    6  C   UNL     1      -8.086  17.614  66.701  1.00  0.00    -0.254 C  
BRANCH   6   7
HETATM    7  C   UNL     1      -9.497  18.108  66.346  1.00  0.00    -0.278 C  
BRANCH   7   8
HETATM    8  O   UNL     1     -10.444  17.625  67.310  1.00  0.00    -0.346 OA 
BRANCH   8   9
HETATM    9  C   UNL     1     -11.007  16.384  66.880  1.00  0.00    -0.018 C  
BRANCH   9  10
HETATM   10  C   UNL     1     -10.249  15.212  67.499  1.00  0.00    -0.238 C  
BRANCH  10  11
HETATM   11  O   UNL     1      -9.991  14.181  66.527  1.00  0.00    -0.266 OA 
BRANCH  11  12
HETATM   12  C   UNL     1      -9.052  13.259  66.888  1.00  0.00    -0.232 C  
HETATM   13  O   UNL     1      -7.962  13.553  67.369  1.00  0.00    -0.162 OA 
BRANCH  12  14
HETATM   14  C   UNL     1      -9.483  11.817  66.557  1.00  0.00    -0.225 C  
HETATM   15  C   UNL     1      -8.313  10.943  66.028  1.00  0.00    -0.165 C  
HETATM   16  C   UNL     1     -10.377  11.918  65.293  1.00  0.00    -0.316 C  
HETATM   17  C   UNL     1     -10.277  10.564  64.618  1.00  0.00    -0.364 C  
HETATM   18  C   UNL     1      -8.825  10.168  64.807  1.00  0.00    -0.219 C  
BRANCH  14  19
HETATM   19  C   UNL     1     -10.136  11.175  67.797  1.00  0.00    -0.200 A  
HETATM   20  C   UNL     1     -11.938  10.956  69.433  1.00  0.00    -0.393 A  
HETATM   21  C   UNL     1     -11.225   9.981  70.123  1.00  0.00    -0.367 A  
HETATM   22  C   UNL     1     -11.398  11.548  68.286  1.00  0.00    -0.352 A  
HETATM   23  C   UNL     1      -9.976   9.589  69.660  1.00  0.00    -0.220 A  
HETATM   24  C   UNL     1      -9.442  10.172  68.506  1.00  0.00    -0.159 A  
ENDBRANCH  14  19
ENDBRANCH  12  14
ENDBRANCH  11  12
ENDBRANCH  10  11
ENDBRANCH   9  10
ENDBRANCH   8   9
ENDBRANCH   7   8
ENDBRANCH   6   7
ENDBRANCH   3   6
ENDBRANCH   2   3
TORSDOF 11
ENDMDL
MODEL      266
REMARK 921   NORMALIZED FREE ENERGY PREDICTED BY IDOCK:   -3.77 KCAL/MOL
REMARK 922        TOTAL FREE ENERGY PREDICTED BY IDOCK:   -7.01 KCAL/MOL
REMARK 923 INTER-LIGAND FREE ENERGY PREDICTED BY IDOCK:   -5.74 KCAL/MOL
REMARK 924 INTRA-LIGAND FREE ENERGY PREDICTED BY IDOCK:   -1.28 KCAL/MOL
REMARK 927      BINDING AFFINITY PREDICTED BY RF-SCORE:    0.00 PKD
ROOT
HETATM    1  C   UNL     1      -7.707   7.190  67.250  1.00  0.00    -0.109 C  
HETATM    2  C   UNL     1      -7.160   7.838  65.980  1.00  0.00    -0.065 C  
ENDROOT
BRANCH   2   3
HETATM    3  N   UNL     1      -7.633   7.224  64.725  1.00  0.00    -0.097 NA 
BRANCH   3   4
HETATM    4  C   UNL     1      -8.584   6.120  64.925  1.00  0.00     0.032 C  
HETATM    5  C   UNL     1      -8.254   4.808  64.224  1.00  0.00    -0.117 C  
ENDBRANCH   3   4
BRANCH   3   6
HETATM    6  C   UNL     1      -8.126   8.280  63.811  1.00  0.00    -0.126 C  
BRANCH   6   7
HETATM    7  C   UNL     1      -8.281   9.671  64.445  1.00  0.00    -0.157 C  
BRANCH   7   8
HETATM    8  O   UNL     1      -9.555  10.231  64.099  1.00  0.00    -0.289 OA 
BRANCH   8   9
HETATM    9  C   UNL     1     -10.301  10.546  65.277  1.00  0.00    -0.229 C  
BRANCH   9  10
HETATM   10  C   UNL     1     -11.127  11.811  65.063  1.00  0.00    -0.284 C  
BRANCH  10  11
HETATM   11  O   UNL     1     -12.013  12.053  66.173  1.00  0.00    -0.581 OA 
BRANCH  11  12
HETATM   12  C   UNL     1     -12.032  13.337  66.638  1.00  0.00    -0.388 C  
HETATM   13  O   UNL     1     -12.442  14.290  65.982  1.00  0.00    -0.442 OA 
BRANCH  12  14
HETATM   14  C   UNL     1     -11.415  13.464  68.044  1.00  0.00    -0.339 C  
HETATM   15  C   UNL     1     -11.803  12.289  68.982  1.00  0.00    -0.358 C  
HETATM   16  C   UNL     1     -12.151  14.648  68.726  1.00  0.00    -0.237 C  
HETATM   17  C   UNL     1     -12.037  14.389  70.216  1.00  0.00    -0.396 C  
HETATM   18  C   UNL     1     -12.197  12.886  70.339  1.00  0.00    -0.381 C  
BRANCH  14  19
HETATM   19  C   UNL     1      -9.884  13.597  67.928  1.00  0.00    -0.237 A  
HETATM   20  C   UNL     1      -7.848  14.832  67.381  1.00  0.00    -0.224 A  
HETATM   21  C   UNL     1      -7.065  13.723  67.684  1.00  0.00    -0.187 A  
HETATM   22  C   UNL     1      -9.240  14.768  67.498  1.00  0.00    -0.198 A  
HETATM   23  C   UNL     1      -7.674  12.553  68.116  1.00  0.00    -0.141 A  
HETATM   24  C   UNL     1      -9.066  12.493  68.245  1.00  0.00    -0.183 A  
ENDBRANCH  14  19
ENDBRANCH  12  14
ENDBRANCH  11  12
ENDBRANCH  10  11
ENDBRANCH   9  10
ENDBRANCH   8   9
ENDBRANCH   7   8
ENDBRANCH   6   7
ENDBRANCH   3   6
ENDBRANCH   2   3
TORSDOF 11
ENDMDL
MODEL      267
REMARK 921   NORMALIZED FREE ENERGY PREDICTED BY IDOCK:   -3.77 KCAL/MOL
REMARK 922        TOTAL FREE ENERGY PREDICTED BY IDOCK:   -7.01 KCAL/MOL
REMARK 923 INTER-LIGAND FREE ENERGY PREDICTED BY IDOCK:   -5.85 KCAL/MOL
REMARK 924 INTRA-LIGAND FREE ENERGY PREDICTED BY IDOCK:   -1.16 KCAL/MOL
REMARK 927      BINDING AFFINITY PREDICTED BY RF-SCORE:    0.00 PKD
ROOT
HETATM    1  C   UNL     1     -12.879  15.479  71.347  1.00  0.00    -0.531 C  
HETATM    2  C   UNL     1     -11.536  15.838  70.715  1.00  0.00    -0.393 C  
ENDROOT
BRANCH   2   3
HETATM    3  N   UNL     1     -11.585  16.073  69.259  1.00  0.00    -0.351 NA 
BRANCH   3   4
HETATM    4  C   UNL     1     -10.318  16.559  68.692  1.00  0.00    -0.287 C  
HETATM    5  C   UNL     1     -10.226  18.058  68.431  1.00  0.00    -0.399 C  
ENDBRANCH   3   4
BRANCH   3   6
HETATM    6  C   UNL     1     -12.121  14.870  68.582  1.00  0.00    -0.170 C  
BRANCH   6   7
HETATM    7  C   UNL     1     -11.488  14.554  67.217  1.00  0.00    -0.365 C  
BRANCH   7   8
HETATM    8  O   UNL     1     -11.152  13.161  67.141  1.00  0.00    -0.267 OA 
BRANCH   8   9
HETATM    9  C   UNL     1     -11.601  12.473  68.311  1.00  0.00    -0.328 C  
BRANCH   9  10
HETATM   10  C   UNL     1     -11.531  10.963  68.102  1.00  0.00    -0.295 C  
BRANCH  10  11
HETATM   11  O   UNL     1     -10.179  10.528  67.864  1.00  0.00    -0.170 OA 
BRANCH  11  12
HETATM   12  C   UNL     1     -10.005   9.732  66.769  1.00  0.00    -0.218 C  
HETATM   13  O   UNL     1     -10.567   9.924  65.695  1.00  0.00    -0.039 OA 
BRANCH  12  14
HETATM   14  C   UNL     1      -9.084   8.530  67.052  1.00  0.00    -0.170 C  
HETATM   15  C   UNL     1      -7.602   8.942  67.269  1.00  0.00    -0.089 C  
HETATM   16  C   UNL     1      -8.984   7.745  65.717  1.00  0.00    -0.109 C  
HETATM   17  C   UNL     1      -7.667   6.997  65.786  1.00  0.00    -0.103 C  
HETATM   18  C   UNL     1      -6.726   7.975  66.463  1.00  0.00    -0.062 C  
BRANCH  14  19
HETATM   19  C   UNL     1      -9.621   7.740  68.262  1.00  0.00    -0.162 A  
HETATM   20  C   UNL     1     -11.211   6.224  69.331  1.00  0.00    -0.489 A  
HETATM   21  C   UNL     1     -10.573   6.380  70.557  1.00  0.00    -0.291 A  
HETATM   22  C   UNL     1     -10.744   6.899  68.199  1.00  0.00    -0.260 A  
HETATM   23  C   UNL     1      -9.457   7.201  70.648  1.00  0.00    -0.161 A  
HETATM   24  C   UNL     1      -8.982   7.866  69.512  1.00  0.00    -0.142 A  
ENDBRANCH  14  19
ENDBRANCH  12  14
ENDBRANCH  11  12
ENDBRANCH  10  11
ENDBRANCH   9  10
ENDBRANCH   8   9
ENDBRANCH   7   8
ENDBRANCH   6   7
ENDBRANCH   3   6
ENDBRANCH   2   3
TORSDOF 11
ENDMDL
MODEL      268
REMARK 921   NORMALIZED FREE ENERGY PREDICTED BY IDOCK:   -3.76 KCAL/MOL
REMARK 922        TOTAL FREE ENERGY PREDICTED BY IDOCK:   -6.99 KCAL/MOL
REMARK 923 INTER-LIGAND FREE ENERGY PREDICTED BY IDOCK:   -6.22 KCAL/MOL
REMARK 924 INTRA-LIGAND FREE ENERGY PREDICTED BY IDOCK:   -0.78 KCAL/MOL
REMARK 927      BINDING AFFINITY PREDICTED BY RF-SCORE:    0.00 PKD
ROOT
HETATM    1  C   UNL     1     -12.239  12.003  63.213  1.00  0.00    -0.531 C  
HETATM    2  C   UNL     1     -10.783  11.580  63.391  1.00  0.00    -0.373 C  
ENDROOT
BRANCH   2   3
HETATM    3  N   UNL     1     -10.519  10.780  64.602  1.00  0.00    -0.329 NA 
BRANCH   3   4
HETATM    4  C   UNL     1      -9.484   9.750  64.421  1.00  0.00    -0.166 C  
HETATM    5  C   UNL     1      -9.100   8.952  65.661  1.00  0.00    -0.269 C  
ENDBRANCH   3   4
BRANCH   3   6
HETATM    6  C   UNL     1     -10.269  11.683  65.749  1.00  0.00    -0.240 C  
BRANCH   6   7
HETATM    7  C   UNL     1     -11.485  11.942  66.652  1.00  0.00    -0.314 C  
BRANCH   7   8
HETATM    8  O   UNL     1     -12.323  12.951  66.072  1.00  0.00    -0.504 OA 
BRANCH   8   9
HETATM    9  C   UNL     1     -12.510  14.034  66.986  1.00  0.00    -0.091 C  
BRANCH   9  10
HETATM   10  C   UNL     1     -11.178  14.435  67.616  1.00  0.00    -0.313 C  
BRANCH  10  11
HETATM   11  O   UNL     1     -10.901  15.833  67.410  1.00  0.00    -0.315 OA 
BRANCH  11  12
HETATM   12  C   UNL     1     -10.215  16.448  68.418  1.00  0.00    -0.259 C  
HETATM   13  O   UNL     1     -10.671  16.617  69.545  1.00  0.00    -0.316 OA 
BRANCH  12  14
HETATM   14  C   UNL     1      -8.837  16.968  67.963  1.00  0.00    -0.223 C  
HETATM   15  C   UNL     1      -8.444  18.308  68.643  1.00  0.00    -0.301 C  
HETATM   16  C   UNL     1      -9.018  17.421  66.490  1.00  0.00    -0.285 C  
HETATM   17  C   UNL     1      -7.941  18.462  66.253  1.00  0.00    -0.264 C  
HETATM   18  C   UNL     1      -7.889  19.237  67.555  1.00  0.00    -0.284 C  
BRANCH  14  19
HETATM   19  C   UNL     1      -7.768  15.886  68.212  1.00  0.00    -0.137 A  
HETATM   20  C   UNL     1      -6.471  13.924  67.550  1.00  0.00    -0.077 A  
HETATM   21  C   UNL     1      -5.833  13.899  68.786  1.00  0.00    -0.084 A  
HETATM   22  C   UNL     1      -7.429  14.904  67.268  1.00  0.00    -0.193 A  
HETATM   23  C   UNL     1      -6.146  14.861  69.737  1.00  0.00    -0.135 A  
HETATM   24  C   UNL     1      -7.095  15.848  69.450  1.00  0.00    -0.215 A  
ENDBRANCH  14  19
ENDBRANCH  12  14
ENDBRANCH  11  12
ENDBRANCH  10  11
ENDBRANCH   9  10
ENDBRANCH   8   9
ENDBRANCH   7   8
ENDBRANCH   6   7
ENDBRANCH   3   6
ENDBRANCH   2   3
TORSDOF 11
ENDMDL
MODEL      269
REMARK 921   NORMALIZED FREE ENERGY PREDICTED BY IDOCK:   -3.76 KCAL/MOL
REMARK 922        TOTAL FREE ENERGY PREDICTED BY IDOCK:   -6.99 KCAL/MOL
REMARK 923 INTER-LIGAND FREE ENERGY PREDICTED BY IDOCK:   -5.40 KCAL/MOL
REMARK 924 INTRA-LIGAND FREE ENERGY PREDICTED BY IDOCK:   -1.59 KCAL/MOL
REMARK 927      BINDING AFFINITY PREDICTED BY RF-SCORE:    0.00 PKD
ROOT
HETATM    1  C   UNL     1     -10.512   4.749  65.936  1.00  0.00    -0.313 C  
HETATM    2  C   UNL     1      -9.735   4.494  67.225  1.00  0.00    -0.186 C  
ENDROOT
BRANCH   2   3
HETATM    3  N   UNL     1      -8.457   3.781  67.042  1.00  0.00    -0.102 NA 
BRANCH   3   4
HETATM    4  C   UNL     1      -7.392   4.610  66.457  1.00  0.00    -0.081 C  
HETATM    5  C   UNL     1      -7.070   5.910  67.185  1.00  0.00    -0.070 C  
ENDBRANCH   3   4
BRANCH   3   6
HETATM    6  C   UNL     1      -8.072   3.120  68.310  1.00  0.00    -0.069 C  
BRANCH   6   7
HETATM    7  C   UNL     1      -9.191   3.016  69.358  1.00  0.00    -0.144 C  
BRANCH   7   8
HETATM    8  O   UNL     1      -8.707   3.447  70.638  1.00  0.00    -0.068 OA 
BRANCH   8   9
HETATM    9  C   UNL     1      -9.377   4.640  71.051  1.00  0.00    -0.147 C  
BRANCH   9  10
HETATM   10  C   UNL     1      -8.375   5.776  71.240  1.00  0.00    -0.127 C  
BRANCH  10  11
HETATM   11  O   UNL     1      -8.511   6.773  70.210  1.00  0.00    -0.132 OA 
BRANCH  11  12
HETATM   12  C   UNL     1      -8.987   7.983  70.627  1.00  0.00    -0.148 C  
HETATM   13  O   UNL     1      -8.570   8.570  71.621  1.00  0.00    -0.156 OA 
BRANCH  12  14
HETATM   14  C   UNL     1     -10.151   8.492  69.755  1.00  0.00    -0.197 C  
HETATM   15  C   UNL     1     -10.329   7.673  68.447  1.00  0.00    -0.228 C  
HETATM   16  C   UNL     1      -9.692   9.863  69.189  1.00  0.00    -0.204 C  
HETATM   17  C   UNL     1     -10.481  10.055  67.908  1.00  0.00    -0.276 C  
HETATM   18  C   UNL     1     -10.529   8.667  67.297  1.00  0.00    -0.360 C  
BRANCH  14  19
HETATM   19  C   UNL     1     -11.451   8.504  70.582  1.00  0.00    -0.249 A  
HETATM   20  C   UNL     1     -13.279   7.397  71.767  1.00  0.00    -0.371 A  
HETATM   21  C   UNL     1     -13.876   8.623  72.041  1.00  0.00    -0.491 A  
HETATM   22  C   UNL     1     -12.084   7.338  71.043  1.00  0.00    -0.361 A  
HETATM   23  C   UNL     1     -13.270   9.793  71.601  1.00  0.00    -0.514 A  
HETATM   24  C   UNL     1     -12.068   9.734  70.888  1.00  0.00    -0.407 A  
ENDBRANCH  14  19
ENDBRANCH  12  14
ENDBRANCH  11  12
ENDBRANCH  10  11
ENDBRANCH   9  10
ENDBRANCH   8   9
ENDBRANCH   7   8
ENDBRANCH   6   7
ENDBRANCH   3   6
ENDBRANCH   2   3
TORSDOF 11
ENDMDL
MODEL      270
REMARK 921   NORMALIZED FREE ENERGY PREDICTED BY IDOCK:   -3.73 KCAL/MOL
REMARK 922        TOTAL FREE ENERGY PREDICTED BY IDOCK:   -6.95 KCAL/MOL
REMARK 923 INTER-LIGAND FREE ENERGY PREDICTED BY IDOCK:   -5.72 KCAL/MOL
REMARK 924 INTRA-LIGAND FREE ENERGY PREDICTED BY IDOCK:   -1.23 KCAL/MOL
REMARK 927      BINDING AFFINITY PREDICTED BY RF-SCORE:    0.00 PKD
ROOT
HETATM    1  C   UNL     1      -8.014  20.694  66.867  1.00  0.00    -0.242 C  
HETATM    2  C   UNL     1      -7.029  19.848  67.671  1.00  0.00    -0.247 C  
ENDROOT
BRANCH   2   3
HETATM    3  N   UNL     1      -7.206  18.391  67.523  1.00  0.00    -0.208 NA 
BRANCH   3   4
HETATM    4  C   UNL     1      -7.676  17.722  68.746  1.00  0.00    -0.252 C  
HETATM    5  C   UNL     1      -6.740  16.682  69.350  1.00  0.00    -0.218 C  
ENDBRANCH   3   4
BRANCH   3   6
HETATM    6  C   UNL     1      -8.040  18.112  66.331  1.00  0.00    -0.261 C  
BRANCH   6   7
HETATM    7  C   UNL     1      -9.344  17.349  66.611  1.00  0.00    -0.265 C  
BRANCH   7   8
HETATM    8  O   UNL     1     -10.088  17.184  65.396  1.00  0.00    -0.571 OA 
BRANCH   8   9
HETATM    9  C   UNL     1     -10.460  15.816  65.218  1.00  0.00    -0.401 C  
BRANCH   9  10
HETATM   10  C   UNL     1     -10.714  15.152  66.569  1.00  0.00    -0.310 C  
BRANCH  10  11
HETATM   11  O   UNL     1     -10.317  13.768  66.557  1.00  0.00    -0.277 OA 
BRANCH  11  12
HETATM   12  C   UNL     1     -10.441  13.113  67.749  1.00  0.00    -0.228 C  
HETATM   13  O   UNL     1     -10.978  13.602  68.738  1.00  0.00    -0.251 OA 
BRANCH  12  14
HETATM   14  C   UNL     1      -9.768  11.727  67.734  1.00  0.00    -0.185 C  
HETATM   15  C   UNL     1     -10.332  10.795  66.626  1.00  0.00    -0.294 C  
HETATM   16  C   UNL     1     -10.259  11.001  69.015  1.00  0.00    -0.217 C  
HETATM   17  C   UNL     1     -10.148   9.520  68.707  1.00  0.00    -0.202 C  
HETATM   18  C   UNL     1     -10.571   9.416  67.255  1.00  0.00    -0.314 C  
BRANCH  14  19
HETATM   19  C   UNL     1      -8.243  11.893  67.593  1.00  0.00    -0.148 A  
HETATM   20  C   UNL     1      -6.072  11.287  66.649  1.00  0.00    -0.143 A  
HETATM   21  C   UNL     1      -5.433  12.226  67.453  1.00  0.00    -0.127 A  
HETATM   22  C   UNL     1      -7.458  11.120  66.722  1.00  0.00    -0.146 A  
HETATM   23  C   UNL     1      -6.184  13.008  68.320  1.00  0.00    -0.085 A  
HETATM   24  C   UNL     1      -7.573  12.850  68.383  1.00  0.00    -0.133 A  
ENDBRANCH  14  19
ENDBRANCH  12  14
ENDBRANCH  11  12
ENDBRANCH  10  11
ENDBRANCH   9  10
ENDBRANCH   8   9
ENDBRANCH   7   8
ENDBRANCH   6   7
ENDBRANCH   3   6
ENDBRANCH   2   3
TORSDOF 11
ENDMDL
MODEL      271
REMARK 921   NORMALIZED FREE ENERGY PREDICTED BY IDOCK:   -3.73 KCAL/MOL
REMARK 922        TOTAL FREE ENERGY PREDICTED BY IDOCK:   -6.95 KCAL/MOL
REMARK 923 INTER-LIGAND FREE ENERGY PREDICTED BY IDOCK:   -5.73 KCAL/MOL
REMARK 924 INTRA-LIGAND FREE ENERGY PREDICTED BY IDOCK:   -1.22 KCAL/MOL
REMARK 927      BINDING AFFINITY PREDICTED BY RF-SCORE:    0.00 PKD
ROOT
HETATM    1  C   UNL     1      -7.613  16.123  69.126  1.00  0.00    -0.230 C  
HETATM    2  C   UNL     1      -8.244  17.096  68.132  1.00  0.00    -0.224 C  
ENDROOT
BRANCH   2   3
HETATM    3  N   UNL     1      -9.720  17.113  68.143  1.00  0.00    -0.266 NA 
BRANCH   3   4
HETATM    4  C   UNL     1     -10.320  17.386  66.828  1.00  0.00    -0.305 C  
HETATM    5  C   UNL     1     -10.492  18.854  66.455  1.00  0.00    -0.500 C  
ENDBRANCH   3   4
BRANCH   3   6
HETATM    6  C   UNL     1     -10.225  15.879  68.786  1.00  0.00    -0.220 C  
BRANCH   6   7
HETATM    7  C   UNL     1     -11.756  15.762  68.860  1.00  0.00    -0.394 C  
BRANCH   7   8
HETATM    8  O   UNL     1     -12.153  14.392  68.701  1.00  0.00    -0.311 OA 
BRANCH   8   9
HETATM    9  C   UNL     1     -11.191  13.681  67.918  1.00  0.00    -0.274 C  
BRANCH   9  10
HETATM   10  C   UNL     1     -11.883  12.637  67.044  1.00  0.00    -0.345 C  
BRANCH  10  11
HETATM   11  O   UNL     1     -11.845  11.333  67.655  1.00  0.00    -0.614 OA 
BRANCH  11  12
HETATM   12  C   UNL     1     -10.731  10.592  67.382  1.00  0.00    -0.281 C  
HETATM   13  O   UNL     1     -10.251  10.478  66.259  1.00  0.00    -0.229 OA 
BRANCH  12  14
HETATM   14  C   UNL     1     -10.191   9.859  68.625  1.00  0.00    -0.197 C  
HETATM   15  C   UNL     1     -10.829   8.457  68.825  1.00  0.00     0.013 C  
HETATM   16  C   UNL     1     -10.758  10.624  69.851  1.00  0.00    -0.260 C  
HETATM   17  C   UNL     1     -10.782   9.613  70.982  1.00  0.00    -0.393 C  
HETATM   18  C   UNL     1     -11.201   8.321  70.307  1.00  0.00    -0.176 C  
BRANCH  14  19
HETATM   19  C   UNL     1      -8.655   9.761  68.541  1.00  0.00    -0.120 A  
HETATM   20  C   UNL     1      -6.403  10.655  68.856  1.00  0.00    -0.045 A  
HETATM   21  C   UNL     1      -5.845   9.516  68.285  1.00  0.00    -0.040 A  
HETATM   22  C   UNL     1      -7.791  10.778  68.978  1.00  0.00    -0.138 A  
HETATM   23  C   UNL     1      -6.676   8.492  67.849  1.00  0.00    -0.066 A  
HETATM   24  C   UNL     1      -8.063   8.609  67.983  1.00  0.00    -0.111 A  
ENDBRANCH  14  19
ENDBRANCH  12  14
ENDBRANCH  11  12
ENDBRANCH  10  11
ENDBRANCH   9  10
ENDBRANCH   8   9
ENDBRANCH   7   8
ENDBRANCH   6   7
ENDBRANCH   3   6
ENDBRANCH   2   3
TORSDOF 11
ENDMDL
MODEL      272
REMARK 921   NORMALIZED FREE ENERGY PREDICTED BY IDOCK:   -3.73 KCAL/MOL
REMARK 922        TOTAL FREE ENERGY PREDICTED BY IDOCK:   -6.95 KCAL/MOL
REMARK 923 INTER-LIGAND FREE ENERGY PREDICTED BY IDOCK:   -5.88 KCAL/MOL
REMARK 924 INTRA-LIGAND FREE ENERGY PREDICTED BY IDOCK:   -1.07 KCAL/MOL
REMARK 927      BINDING AFFINITY PREDICTED BY RF-SCORE:    0.00 PKD
ROOT
HETATM    1  C   UNL     1     -13.053  15.575  71.055  1.00  0.00    -0.551 C  
HETATM    2  C   UNL     1     -11.709  15.752  70.354  1.00  0.00    -0.370 C  
ENDROOT
BRANCH   2   3
HETATM    3  N   UNL     1     -11.782  15.774  68.881  1.00  0.00    -0.401 NA 
BRANCH   3   4
HETATM    4  C   UNL     1     -10.610  16.386  68.236  1.00  0.00    -0.318 C  
HETATM    5  C   UNL     1     -10.678  17.889  67.996  1.00  0.00    -0.307 C  
ENDBRANCH   3   4
BRANCH   3   6
HETATM    6  C   UNL     1     -12.100  14.418  68.379  1.00  0.00    -0.243 C  
BRANCH   6   7
HETATM    7  C   UNL     1     -11.668  14.139  66.931  1.00  0.00    -0.414 C  
BRANCH   7   8
HETATM    8  O   UNL     1     -11.109  12.822  66.829  1.00  0.00    -0.261 OA 
BRANCH   8   9
HETATM    9  C   UNL     1     -11.062  12.197  68.114  1.00  0.00    -0.248 C  
BRANCH   9  10
HETATM   10  C   UNL     1     -11.463  10.728  68.007  1.00  0.00    -0.256 C  
BRANCH  10  11
HETATM   11  O   UNL     1     -10.484   9.871  68.625  1.00  0.00    -0.190 OA 
BRANCH  11  12
HETATM   12  C   UNL     1     -10.403   8.610  68.109  1.00  0.00    -0.216 C  
HETATM   13  O   UNL     1     -10.665   8.336  66.942  1.00  0.00    -0.299 OA 
BRANCH  12  14
HETATM   14  C   UNL     1     -10.016   7.561  69.171  1.00  0.00    -0.179 C  
HETATM   15  C   UNL     1     -10.960   6.327  69.172  1.00  0.00    -0.442 C  
HETATM   16  C   UNL     1     -10.356   8.200  70.544  1.00  0.00    -0.211 C  
HETATM   17  C   UNL     1     -10.587   7.033  71.485  1.00  0.00    -0.232 C  
HETATM   18  C   UNL     1     -11.314   6.013  70.631  1.00  0.00    -0.301 C  
BRANCH  14  19
HETATM   19  C   UNL     1      -8.549   7.135  68.967  1.00  0.00    -0.129 A  
HETATM   20  C   UNL     1      -6.140   7.468  69.204  1.00  0.00    -0.034 A  
HETATM   21  C   UNL     1      -5.885   6.304  68.487  1.00  0.00    -0.016 A  
HETATM   22  C   UNL     1      -7.456   7.881  69.437  1.00  0.00    -0.091 A  
HETATM   23  C   UNL     1      -6.946   5.544  68.015  1.00  0.00    -0.065 A  
HETATM   24  C   UNL     1      -8.263   5.950  68.259  1.00  0.00    -0.109 A  
ENDBRANCH  14  19
ENDBRANCH  12  14
ENDBRANCH  11  12
ENDBRANCH  10  11
ENDBRANCH   9  10
ENDBRANCH   8   9
ENDBRANCH   7   8
ENDBRANCH   6   7
ENDBRANCH   3   6
ENDBRANCH   2   3
TORSDOF 11
ENDMDL
MODEL      273
REMARK 921   NORMALIZED FREE ENERGY PREDICTED BY IDOCK:   -3.72 KCAL/MOL
REMARK 922        TOTAL FREE ENERGY PREDICTED BY IDOCK:   -6.93 KCAL/MOL
REMARK 923 INTER-LIGAND FREE ENERGY PREDICTED BY IDOCK:   -6.21 KCAL/MOL
REMARK 924 INTRA-LIGAND FREE ENERGY PREDICTED BY IDOCK:   -0.72 KCAL/MOL
REMARK 927      BINDING AFFINITY PREDICTED BY RF-SCORE:    0.00 PKD
ROOT
HETATM    1  C   UNL     1      -8.682   4.099  72.041  1.00  0.00    -0.123 C  
HETATM    2  C   UNL     1      -8.702   5.473  71.376  1.00  0.00    -0.132 C  
ENDROOT
BRANCH   2   3
HETATM    3  N   UNL     1      -9.865   5.716  70.501  1.00  0.00    -0.182 NA 
BRANCH   3   4
HETATM    4  C   UNL     1     -11.159   5.622  71.194  1.00  0.00    -0.132 C  
HETATM    5  C   UNL     1     -11.446   6.692  72.240  1.00  0.00    -0.319 C  
ENDBRANCH   3   4
BRANCH   3   6
HETATM    6  C   UNL     1      -9.673   6.985  69.762  1.00  0.00    -0.168 C  
BRANCH   6   7
HETATM    7  C   UNL     1      -8.209   7.398  69.544  1.00  0.00    -0.131 C  
BRANCH   7   8
HETATM    8  O   UNL     1      -8.141   8.772  69.136  1.00  0.00    -0.113 OA 
BRANCH   8   9
HETATM    9  C   UNL     1      -9.275   9.494  69.621  1.00  0.00    -0.200 C  
BRANCH   9  10
HETATM   10  C   UNL     1      -9.269  10.922  69.080  1.00  0.00    -0.115 C  
BRANCH  10  11
HETATM   11  O   UNL     1      -9.934  11.002  67.805  1.00  0.00    -0.169 OA 
BRANCH  11  12
HETATM   12  C   UNL     1     -11.186  11.546  67.831  1.00  0.00    -0.279 C  
HETATM   13  O   UNL     1     -12.198  10.905  68.099  1.00  0.00    -0.503 OA 
BRANCH  12  14
HETATM   14  C   UNL     1     -11.194  13.030  67.417  1.00  0.00    -0.325 C  
HETATM   15  C   UNL     1     -12.411  13.402  66.526  1.00  0.00    -0.354 C  
HETATM   16  C   UNL     1     -10.024  13.198  66.411  1.00  0.00    -0.282 C  
HETATM   17  C   UNL     1     -10.396  14.395  65.556  1.00  0.00    -0.382 C  
HETATM   18  C   UNL     1     -11.893  14.252  65.359  1.00  0.00    -0.363 C  
BRANCH  14  19
HETATM   19  C   UNL     1     -11.137  13.919  68.674  1.00  0.00    -0.290 A  
HETATM   20  C   UNL     1     -10.230  15.773  69.981  1.00  0.00    -0.241 A  
HETATM   21  C   UNL     1     -11.058  15.455  71.053  1.00  0.00    -0.377 A  
HETATM   22  C   UNL     1     -10.266  15.012  68.809  1.00  0.00    -0.235 A  
HETATM   23  C   UNL     1     -11.933  14.382  70.946  1.00  0.00    -0.393 A  
HETATM   24  C   UNL     1     -11.978  13.628  69.768  1.00  0.00    -0.404 A  
ENDBRANCH  14  19
ENDBRANCH  12  14
ENDBRANCH  11  12
ENDBRANCH  10  11
ENDBRANCH   9  10
ENDBRANCH   8   9
ENDBRANCH   7   8
ENDBRANCH   6   7
ENDBRANCH   3   6
ENDBRANCH   2   3
TORSDOF 11
ENDMDL
MODEL      274
REMARK 921   NORMALIZED FREE ENERGY PREDICTED BY IDOCK:   -3.72 KCAL/MOL
REMARK 922        TOTAL FREE ENERGY PREDICTED BY IDOCK:   -6.93 KCAL/MOL
REMARK 923 INTER-LIGAND FREE ENERGY PREDICTED BY IDOCK:   -6.27 KCAL/MOL
REMARK 924 INTRA-LIGAND FREE ENERGY PREDICTED BY IDOCK:   -0.66 KCAL/MOL
REMARK 927      BINDING AFFINITY PREDICTED BY RF-SCORE:    0.00 PKD
ROOT
HETATM    1  C   UNL     1      -6.185  10.339  70.041  1.00  0.00    -0.088 C  
HETATM    2  C   UNL     1      -5.989  11.795  69.621  1.00  0.00    -0.112 C  
ENDROOT
BRANCH   2   3
HETATM    3  N   UNL     1      -5.640  11.982  68.200  1.00  0.00    -0.048 NA 
BRANCH   3   4
HETATM    4  C   UNL     1      -5.889  10.797  67.366  1.00  0.00    -0.045 C  
HETATM    5  C   UNL     1      -5.358  10.851  65.938  1.00  0.00    -0.142 C  
ENDBRANCH   3   4
BRANCH   3   6
HETATM    6  C   UNL     1      -6.281  13.216  67.691  1.00  0.00    -0.153 C  
BRANCH   6   7
HETATM    7  C   UNL     1      -7.169  13.956  68.704  1.00  0.00    -0.108 C  
BRANCH   7   8
HETATM    8  O   UNL     1      -8.553  13.743  68.393  1.00  0.00    -0.166 OA 
BRANCH   8   9
HETATM    9  C   UNL     1      -9.180  14.976  68.032  1.00  0.00    -0.183 C  
BRANCH   9  10
HETATM   10  C   UNL     1      -9.038  15.228  66.533  1.00  0.00    -0.300 C  
BRANCH  10  11
HETATM   11  O   UNL     1     -10.325  15.338  65.895  1.00  0.00    -0.288 OA 
BRANCH  11  12
HETATM   12  C   UNL     1     -11.295  14.516  66.391  1.00  0.00    -0.349 C  
HETATM   13  O   UNL     1     -12.008  14.807  67.347  1.00  0.00    -0.357 OA 
BRANCH  12  14
HETATM   14  C   UNL     1     -11.347  13.158  65.665  1.00  0.00    -0.328 C  
HETATM   15  C   UNL     1     -10.439  13.113  64.404  1.00  0.00    -0.427 C  
HETATM   16  C   UNL     1     -12.757  13.071  65.022  1.00  0.00    -0.475 C  
HETATM   17  C   UNL     1     -12.607  12.123  63.847  1.00  0.00    -0.545 C  
HETATM   18  C   UNL     1     -11.247  12.467  63.271  1.00  0.00    -0.377 C  
BRANCH  14  19
HETATM   19  C   UNL     1     -10.982  12.029  66.649  1.00  0.00    -0.330 A  
HETATM   20  C   UNL     1      -9.707  10.052  67.307  1.00  0.00    -0.206 A  
HETATM   21  C   UNL     1     -10.429   9.952  68.493  1.00  0.00    -0.232 A  
HETATM   22  C   UNL     1      -9.983  11.076  66.396  1.00  0.00    -0.264 A  
HETATM   23  C   UNL     1     -11.419  10.884  68.772  1.00  0.00    -0.376 A  
HETATM   24  C   UNL     1     -11.687  11.915  67.865  1.00  0.00    -0.368 A  
ENDBRANCH  14  19
ENDBRANCH  12  14
ENDBRANCH  11  12
ENDBRANCH  10  11
ENDBRANCH   9  10
ENDBRANCH   8   9
ENDBRANCH   7   8
ENDBRANCH   6   7
ENDBRANCH   3   6
ENDBRANCH   2   3
TORSDOF 11
ENDMDL
MODEL      275
REMARK 921   NORMALIZED FREE ENERGY PREDICTED BY IDOCK:   -3.71 KCAL/MOL
REMARK 922        TOTAL FREE ENERGY PREDICTED BY IDOCK:   -6.92 KCAL/MOL
REMARK 923 INTER-LIGAND FREE ENERGY PREDICTED BY IDOCK:   -5.97 KCAL/MOL
REMARK 924 INTRA-LIGAND FREE ENERGY PREDICTED BY IDOCK:   -0.95 KCAL/MOL
REMARK 927      BINDING AFFINITY PREDICTED BY RF-SCORE:    0.00 PKD
ROOT
HETATM    1  C   UNL     1     -13.533  12.875  72.075  1.00  0.00    -0.568 C  
HETATM    2  C   UNL     1     -12.547  13.528  71.108  1.00  0.00    -0.355 C  
ENDROOT
BRANCH   2   3
HETATM    3  N   UNL     1     -12.450  14.995  71.228  1.00  0.00    -0.307 NA 
BRANCH   3   4
HETATM    4  C   UNL     1     -11.650  15.446  72.377  1.00  0.00    -0.447 C  
HETATM    5  C   UNL     1     -12.358  16.345  73.383  1.00  0.00    -0.561 C  
ENDBRANCH   3   4
BRANCH   3   6
HETATM    6  C   UNL     1     -12.015  15.570  69.934  1.00  0.00    -0.362 C  
BRANCH   6   7
HETATM    7  C   UNL     1     -11.449  14.557  68.927  1.00  0.00    -0.300 C  
BRANCH   7   8
HETATM    8  O   UNL     1     -12.072  14.735  67.647  1.00  0.00    -0.299 OA 
BRANCH   8   9
HETATM    9  C   UNL     1     -11.873  13.580  66.829  1.00  0.00    -0.406 C  
BRANCH   9  10
HETATM   10  C   UNL     1     -10.479  12.999  67.056  1.00  0.00    -0.247 C  
BRANCH  10  11
HETATM   11  O   UNL     1     -10.538  11.588  67.335  1.00  0.00    -0.198 OA 
BRANCH  11  12
HETATM   12  C   UNL     1     -10.051  10.776  66.351  1.00  0.00    -0.227 C  
HETATM   13  O   UNL     1     -10.428  10.825  65.184  1.00  0.00    -0.285 OA 
BRANCH  12  14
HETATM   14  C   UNL     1      -9.034   9.748  66.882  1.00  0.00    -0.154 C  
HETATM   15  C   UNL     1      -9.645   8.331  67.062  1.00  0.00    -0.249 C  
HETATM   16  C   UNL     1      -8.758  10.145  68.358  1.00  0.00    -0.123 C  
HETATM   17  C   UNL     1      -8.309   8.867  69.041  1.00  0.00    -0.124 C  
HETATM   18  C   UNL     1      -9.186   7.795  68.424  1.00  0.00    -0.137 C  
BRANCH  14  19
HETATM   19  C   UNL     1      -7.805   9.707  65.952  1.00  0.00    -0.102 A  
HETATM   20  C   UNL     1      -5.542  10.372  65.317  1.00  0.00    -0.129 A  
HETATM   21  C   UNL     1      -5.623   9.621  64.149  1.00  0.00    -0.076 A  
HETATM   22  C   UNL     1      -6.621  10.417  66.206  1.00  0.00    -0.107 A  
HETATM   23  C   UNL     1      -6.781   8.905  63.875  1.00  0.00    -0.087 A  
HETATM   24  C   UNL     1      -7.856   8.941  64.770  1.00  0.00    -0.121 A  
ENDBRANCH  14  19
ENDBRANCH  12  14
ENDBRANCH  11  12
ENDBRANCH  10  11
ENDBRANCH   9  10
ENDBRANCH   8   9
ENDBRANCH   7   8
ENDBRANCH   6   7
ENDBRANCH   3   6
ENDBRANCH   2   3
TORSDOF 11
ENDMDL
MODEL      276
REMARK 921   NORMALIZED FREE ENERGY PREDICTED BY IDOCK:   -3.70 KCAL/MOL
REMARK 922        TOTAL FREE ENERGY PREDICTED BY IDOCK:   -6.90 KCAL/MOL
REMARK 923 INTER-LIGAND FREE ENERGY PREDICTED BY IDOCK:   -6.33 KCAL/MOL
REMARK 924 INTRA-LIGAND FREE ENERGY PREDICTED BY IDOCK:   -0.58 KCAL/MOL
REMARK 927      BINDING AFFINITY PREDICTED BY RF-SCORE:    0.00 PKD
ROOT
HETATM    1  C   UNL     1      -5.158   7.386  72.403  1.00  0.00    -0.036 C  
HETATM    2  C   UNL     1      -6.530   7.785  71.863  1.00  0.00    -0.043 C  
ENDROOT
BRANCH   2   3
HETATM    3  N   UNL     1      -7.414   6.650  71.534  1.00  0.00    -0.087 NA 
BRANCH   3   4
HETATM    4  C   UNL     1      -8.457   6.399  72.539  1.00  0.00    -0.123 C  
HETATM    5  C   UNL     1      -8.417   5.042  73.231  1.00  0.00    -0.110 C  
ENDBRANCH   3   4
BRANCH   3   6
HETATM    6  C   UNL     1      -7.936   6.812  70.158  1.00  0.00    -0.112 C  
BRANCH   6   7
HETATM    7  C   UNL     1      -7.100   7.723  69.245  1.00  0.00    -0.076 C  
BRANCH   7   8
HETATM    8  O   UNL     1      -7.963   8.553  68.454  1.00  0.00    -0.114 OA 
BRANCH   8   9
HETATM    9  C   UNL     1      -8.493   9.620  69.243  1.00  0.00    -0.150 C  
BRANCH   9  10
HETATM   10  C   UNL     1      -9.846  10.068  68.696  1.00  0.00    -0.160 C  
BRANCH  10  11
HETATM   11  O   UNL     1      -9.985  11.500  68.746  1.00  0.00    -0.205 OA 
BRANCH  11  12
HETATM   12  C   UNL     1     -11.260  11.969  68.620  1.00  0.00    -0.258 C  
HETATM   13  O   UNL     1     -12.218  11.260  68.325  1.00  0.00    -0.611 OA 
BRANCH  12  14
HETATM   14  C   UNL     1     -11.351  13.495  68.818  1.00  0.00    -0.329 C  
HETATM   15  C   UNL     1     -11.843  14.240  67.547  1.00  0.00    -0.429 C  
HETATM   16  C   UNL     1      -9.887  14.000  68.915  1.00  0.00    -0.077 C  
HETATM   17  C   UNL     1      -9.932  15.452  68.479  1.00  0.00    -0.213 C  
HETATM   18  C   UNL     1     -10.938  15.462  67.344  1.00  0.00    -0.312 C  
BRANCH  14  19
HETATM   19  C   UNL     1     -12.255  13.807  70.027  1.00  0.00    -0.407 A  
HETATM   20  C   UNL     1     -13.594  15.319  71.401  1.00  0.00    -0.598 A  
HETATM   21  C   UNL     1     -13.853  14.301  72.312  1.00  0.00    -0.622 A  
HETATM   22  C   UNL     1     -12.802  15.076  70.275  1.00  0.00    -0.270 A  
HETATM   23  C   UNL     1     -13.329  13.034  72.090  1.00  0.00    -0.622 A  
HETATM   24  C   UNL     1     -12.547  12.788  70.957  1.00  0.00    -0.362 A  
ENDBRANCH  14  19
ENDBRANCH  12  14
ENDBRANCH  11  12
ENDBRANCH  10  11
ENDBRANCH   9  10
ENDBRANCH   8   9
ENDBRANCH   7   8
ENDBRANCH   6   7
ENDBRANCH   3   6
ENDBRANCH   2   3
TORSDOF 11
ENDMDL
MODEL      277
REMARK 921   NORMALIZED FREE ENERGY PREDICTED BY IDOCK:   -3.69 KCAL/MOL
REMARK 922        TOTAL FREE ENERGY PREDICTED BY IDOCK:   -6.88 KCAL/MOL
REMARK 923 INTER-LIGAND FREE ENERGY PREDICTED BY IDOCK:   -5.82 KCAL/MOL
REMARK 924 INTRA-LIGAND FREE ENERGY PREDICTED BY IDOCK:   -1.06 KCAL/MOL
REMARK 927      BINDING AFFINITY PREDICTED BY RF-SCORE:    0.00 PKD
ROOT
HETATM    1  C   UNL     1      -7.374   5.666  72.316  1.00  0.00    -0.095 C  
HETATM    2  C   UNL     1      -8.501   5.688  73.346  1.00  0.00    -0.116 C  
ENDROOT
BRANCH   2   3
HETATM    3  N   UNL     1      -9.809   5.234  72.835  1.00  0.00    -0.154 NA 
BRANCH   3   4
HETATM    4  C   UNL     1     -10.665   4.615  73.859  1.00  0.00    -0.294 C  
HETATM    5  C   UNL     1     -11.175   3.212  73.555  1.00  0.00    -0.286 C  
ENDBRANCH   3   4
BRANCH   3   6
HETATM    6  C   UNL     1     -10.463   6.339  72.098  1.00  0.00    -0.199 C  
BRANCH   6   7
HETATM    7  C   UNL     1     -10.975   7.494  72.973  1.00  0.00    -0.390 C  
BRANCH   7   8
HETATM    8  O   UNL     1     -10.748   8.749  72.314  1.00  0.00    -0.344 OA 
BRANCH   8   9
HETATM    9  C   UNL     1     -11.346   8.748  71.016  1.00  0.00    -0.278 C  
BRANCH   9  10
HETATM   10  C   UNL     1     -10.902   9.974  70.222  1.00  0.00    -0.313 C  
BRANCH  10  11
HETATM   11  O   UNL     1      -9.791   9.665  69.358  1.00  0.00    -0.173 OA 
BRANCH  11  12
HETATM   12  C   UNL     1     -10.093   9.569  68.030  1.00  0.00    -0.188 C  
HETATM   13  O   UNL     1     -10.784   8.672  67.555  1.00  0.00    -0.249 OA 
BRANCH  12  14
HETATM   14  C   UNL     1      -9.413  10.665  67.189  1.00  0.00    -0.177 C  
HETATM   15  C   UNL     1      -8.638  10.096  65.968  1.00  0.00    -0.150 C  
HETATM   16  C   UNL     1      -8.246  11.207  68.058  1.00  0.00    -0.125 C  
HETATM   17  C   UNL     1      -7.239  11.772  67.074  1.00  0.00    -0.134 C  
HETATM   18  C   UNL     1      -7.274  10.796  65.914  1.00  0.00    -0.091 C  
BRANCH  14  19
HETATM   19  C   UNL     1     -10.462  11.702  66.743  1.00  0.00    -0.265 A  
HETATM   20  C   UNL     1     -11.737  13.765  67.041  1.00  0.00    -0.420 A  
HETATM   21  C   UNL     1     -12.455  13.518  65.876  1.00  0.00    -0.484 A  
HETATM   22  C   UNL     1     -10.756  12.866  67.471  1.00  0.00    -0.241 A  
HETATM   23  C   UNL     1     -12.183  12.377  65.133  1.00  0.00    -0.449 A  
HETATM   24  C   UNL     1     -11.192  11.484  65.556  1.00  0.00    -0.204 A  
ENDBRANCH  14  19
ENDBRANCH  12  14
ENDBRANCH  11  12
ENDBRANCH  10  11
ENDBRANCH   9  10
ENDBRANCH   8   9
ENDBRANCH   7   8
ENDBRANCH   6   7
ENDBRANCH   3   6
ENDBRANCH   2   3
TORSDOF 11
ENDMDL
MODEL      278
REMARK 921   NORMALIZED FREE ENERGY PREDICTED BY IDOCK:   -3.68 KCAL/MOL
REMARK 922        TOTAL FREE ENERGY PREDICTED BY IDOCK:   -6.87 KCAL/MOL
REMARK 923 INTER-LIGAND FREE ENERGY PREDICTED BY IDOCK:   -5.79 KCAL/MOL
REMARK 924 INTRA-LIGAND FREE ENERGY PREDICTED BY IDOCK:   -1.07 KCAL/MOL
REMARK 927      BINDING AFFINITY PREDICTED BY RF-SCORE:    0.00 PKD
ROOT
HETATM    1  C   UNL     1      -9.214   9.403  66.045  1.00  0.00    -0.253 C  
HETATM    2  C   UNL     1     -10.637   9.470  66.596  1.00  0.00    -0.104 C  
ENDROOT
BRANCH   2   3
HETATM    3  N   UNL     1     -10.723   9.548  68.066  1.00  0.00    -0.234 NA 
BRANCH   3   4
HETATM    4  C   UNL     1      -9.632   8.851  68.764  1.00  0.00    -0.157 C  
HETATM    5  C   UNL     1      -9.822   8.623  70.259  1.00  0.00    -0.195 C  
ENDBRANCH   3   4
BRANCH   3   6
HETATM    6  C   UNL     1     -10.891  10.960  68.479  1.00  0.00    -0.220 C  
BRANCH   6   7
HETATM    7  C   UNL     1     -12.156  11.255  69.299  1.00  0.00    -0.303 C  
BRANCH   7   8
HETATM    8  O   UNL     1     -11.814  11.984  70.487  1.00  0.00    -0.302 OA 
BRANCH   8   9
HETATM    9  C   UNL     1     -12.462  13.258  70.495  1.00  0.00    -0.260 C  
BRANCH   9  10
HETATM   10  C   UNL     1     -11.442  14.376  70.294  1.00  0.00    -0.196 C  
BRANCH  10  11
HETATM   11  O   UNL     1     -10.916  14.373  68.953  1.00  0.00    -0.238 OA 
BRANCH  11  12
HETATM   12  C   UNL     1     -10.963  15.573  68.304  1.00  0.00    -0.305 C  
HETATM   13  O   UNL     1     -11.521  16.568  68.756  1.00  0.00    -0.291 OA 
BRANCH  12  14
HETATM   14  C   UNL     1     -10.301  15.517  66.913  1.00  0.00    -0.290 C  
HETATM   15  C   UNL     1     -10.876  16.573  65.929  1.00  0.00    -0.096 C  
HETATM   16  C   UNL     1     -10.794  14.199  66.259  1.00  0.00    -0.300 C  
HETATM   17  C   UNL     1     -10.695  14.429  64.763  1.00  0.00    -0.423 C  
HETATM   18  C   UNL     1     -11.124  15.873  64.587  1.00  0.00    -0.368 C  
BRANCH  14  19
HETATM   19  C   UNL     1      -8.775  15.671  67.059  1.00  0.00    -0.256 A  
HETATM   20  C   UNL     1      -6.605  15.014  67.971  1.00  0.00    -0.156 A  
HETATM   21  C   UNL     1      -5.983  16.073  67.318  1.00  0.00    -0.106 A  
HETATM   22  C   UNL     1      -7.985  14.818  67.846  1.00  0.00    -0.147 A  
HETATM   23  C   UNL     1      -6.739  16.930  66.530  1.00  0.00    -0.236 A  
HETATM   24  C   UNL     1      -8.117  16.726  66.394  1.00  0.00    -0.355 A  
ENDBRANCH  14  19
ENDBRANCH  12  14
ENDBRANCH  11  12
ENDBRANCH  10  11
ENDBRANCH   9  10
ENDBRANCH   8   9
ENDBRANCH   7   8
ENDBRANCH   6   7
ENDBRANCH   3   6
ENDBRANCH   2   3
TORSDOF 11
ENDMDL
MODEL      279
REMARK 921   NORMALIZED FREE ENERGY PREDICTED BY IDOCK:   -3.67 KCAL/MOL
REMARK 922        TOTAL FREE ENERGY PREDICTED BY IDOCK:   -6.85 KCAL/MOL
REMARK 923 INTER-LIGAND FREE ENERGY PREDICTED BY IDOCK:   -5.75 KCAL/MOL
REMARK 924 INTRA-LIGAND FREE ENERGY PREDICTED BY IDOCK:   -1.10 KCAL/MOL
REMARK 927      BINDING AFFINITY PREDICTED BY RF-SCORE:    0.00 PKD
ROOT
HETATM    1  C   UNL     1      -9.762   5.794  73.278  1.00  0.00    -0.157 C  
HETATM    2  C   UNL     1      -9.771   7.258  72.844  1.00  0.00    -0.169 C  
ENDROOT
BRANCH   2   3
HETATM    3  N   UNL     1     -10.707   7.568  71.747  1.00  0.00    -0.210 NA 
BRANCH   3   4
HETATM    4  C   UNL     1     -12.013   8.069  72.203  1.00  0.00    -0.348 C  
HETATM    5  C   UNL     1     -12.175   9.584  72.256  1.00  0.00    -0.161 C  
ENDBRANCH   3   4
BRANCH   3   6
HETATM    6  C   UNL     1     -10.041   8.448  70.760  1.00  0.00    -0.193 C  
BRANCH   6   7
HETATM    7  C   UNL     1      -8.565   8.759  71.055  1.00  0.00    -0.192 C  
BRANCH   7   8
HETATM    8  O   UNL     1      -7.922   9.262  69.875  1.00  0.00    -0.087 OA 
BRANCH   8   9
HETATM    9  C   UNL     1      -6.913  10.213  70.221  1.00  0.00    -0.145 C  
BRANCH   9  10
HETATM   10  C   UNL     1      -6.740  11.238  69.103  1.00  0.00    -0.099 C  
BRANCH  10  11
HETATM   11  O   UNL     1      -7.792  11.130  68.125  1.00  0.00    -0.107 OA 
BRANCH  11  12
HETATM   12  C   UNL     1      -8.375  12.309  67.762  1.00  0.00    -0.162 C  
HETATM   13  O   UNL     1      -7.742  13.331  67.513  1.00  0.00    -0.154 OA 
BRANCH  12  14
HETATM   14  C   UNL     1      -9.914  12.234  67.771  1.00  0.00    -0.200 C  
HETATM   15  C   UNL     1     -10.559  13.197  68.806  1.00  0.00    -0.225 C  
HETATM   16  C   UNL     1     -10.270  10.853  68.385  1.00  0.00    -0.193 C  
HETATM   17  C   UNL     1     -11.660  11.017  68.968  1.00  0.00    -0.392 C  
HETATM   18  C   UNL     1     -11.648  12.416  69.554  1.00  0.00    -0.353 C  
BRANCH  14  19
HETATM   19  C   UNL     1     -10.455  12.504  66.354  1.00  0.00    -0.269 A  
HETATM   20  C   UNL     1     -11.296  13.978  64.596  1.00  0.00    -0.378 A  
HETATM   21  C   UNL     1     -11.504  12.892  63.752  1.00  0.00    -0.519 A  
HETATM   22  C   UNL     1     -10.782  13.785  65.882  1.00  0.00    -0.285 A  
HETATM   23  C   UNL     1     -11.186  11.614  64.190  1.00  0.00    -0.421 A  
HETATM   24  C   UNL     1     -10.659  11.423  65.472  1.00  0.00    -0.328 A  
ENDBRANCH  14  19
ENDBRANCH  12  14
ENDBRANCH  11  12
ENDBRANCH  10  11
ENDBRANCH   9  10
ENDBRANCH   8   9
ENDBRANCH   7   8
ENDBRANCH   6   7
ENDBRANCH   3   6
ENDBRANCH   2   3
TORSDOF 11
ENDMDL
MODEL      280
REMARK 921   NORMALIZED FREE ENERGY PREDICTED BY IDOCK:   -3.65 KCAL/MOL
REMARK 922        TOTAL FREE ENERGY PREDICTED BY IDOCK:   -6.82 KCAL/MOL
REMARK 923 INTER-LIGAND FREE ENERGY PREDICTED BY IDOCK:   -5.73 KCAL/MOL
REMARK 924 INTRA-LIGAND FREE ENERGY PREDICTED BY IDOCK:   -1.10 KCAL/MOL
REMARK 927      BINDING AFFINITY PREDICTED BY RF-SCORE:    0.00 PKD
ROOT
HETATM    1  C   UNL     1     -12.424  13.771  66.351  1.00  0.00    -0.404 C  
HETATM    2  C   UNL     1     -11.871  12.843  67.431  1.00  0.00    -0.360 C  
ENDROOT
BRANCH   2   3
HETATM    3  N   UNL     1     -11.461  13.524  68.674  1.00  0.00    -0.285 NA 
BRANCH   3   4
HETATM    4  C   UNL     1     -11.909  14.923  68.762  1.00  0.00    -0.296 C  
HETATM    5  C   UNL     1     -12.375  15.399  70.132  1.00  0.00    -0.395 C  
ENDBRANCH   3   4
BRANCH   3   6
HETATM    6  C   UNL     1     -11.846  12.699  69.842  1.00  0.00    -0.294 C  
BRANCH   6   7
HETATM    7  C   UNL     1     -12.367  11.293  69.504  1.00  0.00    -0.175 C  
BRANCH   7   8
HETATM    8  O   UNL     1     -11.265  10.397  69.298  1.00  0.00    -0.230 OA 
BRANCH   8   9
HETATM    9  C   UNL     1     -10.747   9.945  70.551  1.00  0.00    -0.317 C  
BRANCH   9  10
HETATM   10  C   UNL     1     -11.524   8.725  71.040  1.00  0.00    -0.285 C  
BRANCH  10  11
HETATM   11  O   UNL     1     -11.217   7.557  70.254  1.00  0.00    -0.272 OA 
BRANCH  11  12
HETATM   12  C   UNL     1      -9.887   7.279  70.114  1.00  0.00    -0.179 C  
HETATM   13  O   UNL     1      -9.061   7.455  71.005  1.00  0.00    -0.151 OA 
BRANCH  12  14
HETATM   14  C   UNL     1      -9.531   6.790  68.697  1.00  0.00    -0.132 C  
HETATM   15  C   UNL     1     -10.621   5.867  68.085  1.00  0.00    -0.312 C  
HETATM   16  C   UNL     1      -8.357   5.791  68.873  1.00  0.00    -0.101 C  
HETATM   17  C   UNL     1      -8.424   4.873  67.668  1.00  0.00    -0.104 C  
HETATM   18  C   UNL     1      -9.911   4.666  67.449  1.00  0.00    -0.207 C  
BRANCH  14  19
HETATM   19  C   UNL     1      -9.257   8.002  67.785  1.00  0.00    -0.142 A  
HETATM   20  C   UNL     1      -7.977   9.975  67.125  1.00  0.00    -0.109 A  
HETATM   21  C   UNL     1      -8.873  10.243  66.096  1.00  0.00    -0.166 A  
HETATM   22  C   UNL     1      -8.169   8.871  67.961  1.00  0.00    -0.110 A  
HETATM   23  C   UNL     1      -9.957   9.398  65.895  1.00  0.00    -0.327 A  
HETATM   24  C   UNL     1     -10.142   8.286  66.724  1.00  0.00    -0.373 A  
ENDBRANCH  14  19
ENDBRANCH  12  14
ENDBRANCH  11  12
ENDBRANCH  10  11
ENDBRANCH   9  10
ENDBRANCH   8   9
ENDBRANCH   7   8
ENDBRANCH   6   7
ENDBRANCH   3   6
ENDBRANCH   2   3
TORSDOF 11
ENDMDL
MODEL      281
REMARK 921   NORMALIZED FREE ENERGY PREDICTED BY IDOCK:   -3.65 KCAL/MOL
REMARK 922        TOTAL FREE ENERGY PREDICTED BY IDOCK:   -6.82 KCAL/MOL
REMARK 923 INTER-LIGAND FREE ENERGY PREDICTED BY IDOCK:   -5.31 KCAL/MOL
REMARK 924 INTRA-LIGAND FREE ENERGY PREDICTED BY IDOCK:   -1.51 KCAL/MOL
REMARK 927      BINDING AFFINITY PREDICTED BY RF-SCORE:    0.00 PKD
ROOT
HETATM    1  C   UNL     1     -11.422  15.834  64.268  1.00  0.00    -0.203 C  
HETATM    2  C   UNL     1     -11.014  14.472  64.826  1.00  0.00    -0.391 C  
ENDROOT
BRANCH   2   3
HETATM    3  N   UNL     1     -10.814  14.443  66.287  1.00  0.00    -0.308 NA 
BRANCH   3   4
HETATM    4  C   UNL     1     -11.683  13.485  66.987  1.00  0.00    -0.383 C  
HETATM    5  C   UNL     1     -12.117  13.870  68.397  1.00  0.00    -0.327 C  
ENDBRANCH   3   4
BRANCH   3   6
HETATM    6  C   UNL     1      -9.373  14.272  66.587  1.00  0.00    -0.284 C  
BRANCH   6   7
HETATM    7  C   UNL     1      -8.910  12.816  66.753  1.00  0.00    -0.159 C  
BRANCH   7   8
HETATM    8  O   UNL     1      -7.521  12.779  67.110  1.00  0.00    -0.126 OA 
BRANCH   8   9
HETATM    9  C   UNL     1      -7.350  13.103  68.491  1.00  0.00    -0.111 C  
BRANCH   9  10
HETATM   10  C   UNL     1      -6.564  12.004  69.203  1.00  0.00    -0.107 C  
BRANCH  10  11
HETATM   11  O   UNL     1      -7.099  10.700  68.908  1.00  0.00    -0.066 OA 
BRANCH  11  12
HETATM   12  C   UNL     1      -7.730  10.079  69.947  1.00  0.00    -0.175 C  
HETATM   13  O   UNL     1      -7.218   9.915  71.051  1.00  0.00    -0.330 OA 
BRANCH  12  14
HETATM   14  C   UNL     1      -9.122   9.545  69.559  1.00  0.00    -0.193 C  
HETATM   15  C   UNL     1     -10.154  10.678  69.306  1.00  0.00    -0.227 C  
HETATM   16  C   UNL     1      -9.702   8.892  70.842  1.00  0.00    -0.300 C  
HETATM   17  C   UNL     1     -11.208   8.947  70.677  1.00  0.00    -0.308 C  
HETATM   18  C   UNL     1     -11.456  10.291  70.020  1.00  0.00    -0.367 C  
BRANCH  14  19
HETATM   19  C   UNL     1      -8.999   8.625  68.329  1.00  0.00    -0.142 A  
HETATM   20  C   UNL     1      -8.189   6.619  67.192  1.00  0.00    -0.113 A  
HETATM   21  C   UNL     1      -8.772   7.032  65.998  1.00  0.00    -0.156 A  
HETATM   22  C   UNL     1      -8.297   7.408  68.341  1.00  0.00    -0.125 A  
HETATM   23  C   UNL     1      -9.476   8.228  65.957  1.00  0.00    -0.189 A  
HETATM   24  C   UNL     1      -9.595   9.011  67.111  1.00  0.00    -0.218 A  
ENDBRANCH  14  19
ENDBRANCH  12  14
ENDBRANCH  11  12
ENDBRANCH  10  11
ENDBRANCH   9  10
ENDBRANCH   8   9
ENDBRANCH   7   8
ENDBRANCH   6   7
ENDBRANCH   3   6
ENDBRANCH   2   3
TORSDOF 11
ENDMDL
MODEL      282
REMARK 921   NORMALIZED FREE ENERGY PREDICTED BY IDOCK:   -3.65 KCAL/MOL
REMARK 922        TOTAL FREE ENERGY PREDICTED BY IDOCK:   -6.81 KCAL/MOL
REMARK 923 INTER-LIGAND FREE ENERGY PREDICTED BY IDOCK:   -5.57 KCAL/MOL
REMARK 924 INTRA-LIGAND FREE ENERGY PREDICTED BY IDOCK:   -1.24 KCAL/MOL
REMARK 927      BINDING AFFINITY PREDICTED BY RF-SCORE:    0.00 PKD
ROOT
HETATM    1  C   UNL     1      -7.361  14.960  70.300  1.00  0.00     0.336 C  
HETATM    2  C   UNL     1      -6.185  15.735  69.710  1.00  0.00    -0.172 C  
ENDROOT
BRANCH   2   3
HETATM    3  N   UNL     1      -6.004  15.562  68.256  1.00  0.00    -0.108 NA 
BRANCH   3   4
HETATM    4  C   UNL     1      -5.146  14.424  67.894  1.00  0.00    -0.044 C  
HETATM    5  C   UNL     1      -5.861  13.137  67.499  1.00  0.00    -0.075 C  
ENDBRANCH   3   4
BRANCH   3   6
HETATM    6  C   UNL     1      -7.327  15.549  67.590  1.00  0.00    -0.174 C  
BRANCH   6   7
HETATM    7  C   UNL     1      -7.837  16.922  67.124  1.00  0.00    -0.177 C  
BRANCH   7   8
HETATM    8  O   UNL     1      -8.682  17.500  68.130  1.00  0.00    -0.246 OA 
BRANCH   8   9
HETATM    9  C   UNL     1     -10.006  17.685  67.625  1.00  0.00    -0.323 C  
BRANCH   9  10
HETATM   10  C   UNL     1     -10.978  16.730  68.313  1.00  0.00    -0.327 C  
BRANCH  10  11
HETATM   11  O   UNL     1     -11.407  15.684  67.420  1.00  0.00    -0.281 OA 
BRANCH  11  12
HETATM   12  C   UNL     1     -11.676  14.484  68.012  1.00  0.00    -0.342 C  
HETATM   13  O   UNL     1     -12.104  14.373  69.157  1.00  0.00    -0.318 OA 
BRANCH  12  14
HETATM   14  C   UNL     1     -11.315  13.287  67.112  1.00  0.00    -0.351 C  
HETATM   15  C   UNL     1     -10.160  13.602  66.123  1.00  0.00    -0.311 C  
HETATM   16  C   UNL     1     -12.508  13.114  66.134  1.00  0.00    -0.274 C  
HETATM   17  C   UNL     1     -11.931  12.426  64.911  1.00  0.00    -0.458 C  
HETATM   18  C   UNL     1     -10.564  13.062  64.745  1.00  0.00    -0.380 C  
BRANCH  14  19
HETATM   19  C   UNL     1     -10.976  12.064  67.987  1.00  0.00    -0.267 A  
HETATM   20  C   UNL     1     -11.548  10.339  69.621  1.00  0.00    -0.267 A  
HETATM   21  C   UNL     1     -10.241   9.861  69.609  1.00  0.00    -0.261 A  
HETATM   22  C   UNL     1     -11.909  11.430  68.823  1.00  0.00    -0.388 A  
HETATM   23  C   UNL     1      -9.299  10.467  68.788  1.00  0.00    -0.175 A  
HETATM   24  C   UNL     1      -9.664  11.549  67.980  1.00  0.00    -0.187 A  
ENDBRANCH  14  19
ENDBRANCH  12  14
ENDBRANCH  11  12
ENDBRANCH  10  11
ENDBRANCH   9  10
ENDBRANCH   8   9
ENDBRANCH   7   8
ENDBRANCH   6   7
ENDBRANCH   3   6
ENDBRANCH   2   3
TORSDOF 11
ENDMDL
MODEL      283
REMARK 921   NORMALIZED FREE ENERGY PREDICTED BY IDOCK:   -3.65 KCAL/MOL
REMARK 922        TOTAL FREE ENERGY PREDICTED BY IDOCK:   -6.81 KCAL/MOL
REMARK 923 INTER-LIGAND FREE ENERGY PREDICTED BY IDOCK:   -5.72 KCAL/MOL
REMARK 924 INTRA-LIGAND FREE ENERGY PREDICTED BY IDOCK:   -1.09 KCAL/MOL
REMARK 927      BINDING AFFINITY PREDICTED BY RF-SCORE:    0.00 PKD
ROOT
HETATM    1  C   UNL     1     -10.259  17.055  67.855  1.00  0.00    -0.317 C  
HETATM    2  C   UNL     1     -10.191  15.683  67.188  1.00  0.00    -0.270 C  
ENDROOT
BRANCH   2   3
HETATM    3  N   UNL     1     -11.495  15.009  67.034  1.00  0.00    -0.323 NA 
BRANCH   3   4
HETATM    4  C   UNL     1     -11.682  14.369  65.723  1.00  0.00    -0.362 C  
HETATM    5  C   UNL     1     -11.301  15.201  64.504  1.00  0.00    -0.297 C  
ENDBRANCH   3   4
BRANCH   3   6
HETATM    6  C   UNL     1     -11.721  14.100  68.181  1.00  0.00    -0.355 C  
BRANCH   6   7
HETATM    7  C   UNL     1     -11.879  12.616  67.815  1.00  0.00    -0.323 C  
BRANCH   7   8
HETATM    8  O   UNL     1     -10.938  11.824  68.556  1.00  0.00    -0.200 OA 
BRANCH   8   9
HETATM    9  C   UNL     1      -9.613  12.332  68.384  1.00  0.00    -0.183 C  
BRANCH   9  10
HETATM   10  C   UNL     1      -8.603  11.187  68.360  1.00  0.00    -0.152 C  
BRANCH  10  11
HETATM   11  O   UNL     1      -8.893  10.209  69.376  1.00  0.00    -0.170 OA 
BRANCH  11  12
HETATM   12  C   UNL     1      -8.331   8.980  69.183  1.00  0.00    -0.123 C  
HETATM   13  O   UNL     1      -7.911   8.590  68.097  1.00  0.00    -0.101 OA 
BRANCH  12  14
HETATM   14  C   UNL     1      -8.350   8.114  70.457  1.00  0.00    -0.123 C  
HETATM   15  C   UNL     1      -7.529   8.735  71.621  1.00  0.00    -0.099 C  
HETATM   16  C   UNL     1      -7.503   6.856  70.130  1.00  0.00    -0.090 C  
HETATM   17  C   UNL     1      -6.998   6.351  71.469  1.00  0.00    -0.076 C  
HETATM   18  C   UNL     1      -6.681   7.618  72.241  1.00  0.00    -0.057 C  
BRANCH  14  19
HETATM   19  C   UNL     1      -9.808   7.855  70.885  1.00  0.00    -0.192 A  
HETATM   20  C   UNL     1     -11.993   6.795  70.616  1.00  0.00    -0.418 A  
HETATM   21  C   UNL     1     -12.494   7.494  71.710  1.00  0.00    -0.360 A  
HETATM   22  C   UNL     1     -10.668   6.977  70.206  1.00  0.00    -0.266 A  
HETATM   23  C   UNL     1     -11.664   8.366  72.403  1.00  0.00    -0.452 A  
HETATM   24  C   UNL     1     -10.335   8.537  72.001  1.00  0.00    -0.408 A  
ENDBRANCH  14  19
ENDBRANCH  12  14
ENDBRANCH  11  12
ENDBRANCH  10  11
ENDBRANCH   9  10
ENDBRANCH   8   9
ENDBRANCH   7   8
ENDBRANCH   6   7
ENDBRANCH   3   6
ENDBRANCH   2   3
TORSDOF 11
ENDMDL
MODEL      284
REMARK 921   NORMALIZED FREE ENERGY PREDICTED BY IDOCK:   -3.64 KCAL/MOL
REMARK 922        TOTAL FREE ENERGY PREDICTED BY IDOCK:   -6.81 KCAL/MOL
REMARK 923 INTER-LIGAND FREE ENERGY PREDICTED BY IDOCK:   -5.68 KCAL/MOL
REMARK 924 INTRA-LIGAND FREE ENERGY PREDICTED BY IDOCK:   -1.13 KCAL/MOL
REMARK 927      BINDING AFFINITY PREDICTED BY RF-SCORE:    0.00 PKD
ROOT
HETATM    1  C   UNL     1     -12.090  15.634  70.419  1.00  0.00    -0.425 C  
HETATM    2  C   UNL     1     -10.910  15.534  69.455  1.00  0.00    -0.267 C  
ENDROOT
BRANCH   2   3
HETATM    3  N   UNL     1     -11.173  16.066  68.105  1.00  0.00    -0.344 NA 
BRANCH   3   4
HETATM    4  C   UNL     1     -10.188  17.062  67.656  1.00  0.00    -0.317 C  
HETATM    5  C   UNL     1     -10.694  18.492  67.504  1.00  0.00    -0.419 C  
ENDBRANCH   3   4
BRANCH   3   6
HETATM    6  C   UNL     1     -11.362  14.944  67.158  1.00  0.00    -0.343 C  
BRANCH   6   7
HETATM    7  C   UNL     1     -10.847  15.199  65.733  1.00  0.00    -0.353 C  
BRANCH   7   8
HETATM    8  O   UNL     1     -10.436  13.964  65.129  1.00  0.00    -0.346 OA 
BRANCH   8   9
HETATM    9  C   UNL     1     -10.456  12.907  66.091  1.00  0.00    -0.269 C  
BRANCH   9  10
HETATM   10  C   UNL     1     -10.064  11.584  65.438  1.00  0.00    -0.260 C  
BRANCH  10  11
HETATM   11  O   UNL     1     -10.070  10.505  66.392  1.00  0.00    -0.213 OA 
BRANCH  11  12
HETATM   12  C   UNL     1      -8.841  10.105  66.831  1.00  0.00    -0.132 C  
HETATM   13  O   UNL     1      -7.846  10.823  66.805  1.00  0.00    -0.123 OA 
BRANCH  12  14
HETATM   14  C   UNL     1      -8.828   8.635  67.293  1.00  0.00    -0.141 C  
HETATM   15  C   UNL     1      -7.710   7.798  66.612  1.00  0.00    -0.098 C  
HETATM   16  C   UNL     1     -10.100   7.986  66.685  1.00  0.00    -0.329 C  
HETATM   17  C   UNL     1      -9.788   6.506  66.582  1.00  0.00    -0.203 C  
HETATM   18  C   UNL     1      -8.330   6.468  66.166  1.00  0.00    -0.129 C  
BRANCH  14  19
HETATM   19  C   UNL     1      -8.707   8.576  68.828  1.00  0.00    -0.139 A  
HETATM   20  C   UNL     1      -7.432   8.307  70.895  1.00  0.00    -0.064 A  
HETATM   21  C   UNL     1      -8.593   8.415  71.653  1.00  0.00    -0.223 A  
HETATM   22  C   UNL     1      -7.489   8.382  69.499  1.00  0.00    -0.088 A  
HETATM   23  C   UNL     1      -9.811   8.611  71.016  1.00  0.00    -0.267 A  
HETATM   24  C   UNL     1      -9.866   8.700  69.621  1.00  0.00    -0.186 A  
ENDBRANCH  14  19
ENDBRANCH  12  14
ENDBRANCH  11  12
ENDBRANCH  10  11
ENDBRANCH   9  10
ENDBRANCH   8   9
ENDBRANCH   7   8
ENDBRANCH   6   7
ENDBRANCH   3   6
ENDBRANCH   2   3
TORSDOF 11
ENDMDL
MODEL      285
REMARK 921   NORMALIZED FREE ENERGY PREDICTED BY IDOCK:   -3.64 KCAL/MOL
REMARK 922        TOTAL FREE ENERGY PREDICTED BY IDOCK:   -6.80 KCAL/MOL
REMARK 923 INTER-LIGAND FREE ENERGY PREDICTED BY IDOCK:   -5.68 KCAL/MOL
REMARK 924 INTRA-LIGAND FREE ENERGY PREDICTED BY IDOCK:   -1.12 KCAL/MOL
REMARK 927      BINDING AFFINITY PREDICTED BY RF-SCORE:    0.00 PKD
ROOT
HETATM    1  C   UNL     1     -11.764  14.878  68.848  1.00  0.00    -0.343 C  
HETATM    2  C   UNL     1     -11.027  14.393  67.602  1.00  0.00    -0.286 C  
ENDROOT
BRANCH   2   3
HETATM    3  N   UNL     1     -11.651  14.789  66.326  1.00  0.00    -0.336 NA 
BRANCH   3   4
HETATM    4  C   UNL     1     -10.749  15.522  65.425  1.00  0.00    -0.405 C  
HETATM    5  C   UNL     1      -9.456  16.044  66.041  1.00  0.00    -0.384 C  
ENDBRANCH   3   4
BRANCH   3   6
HETATM    6  C   UNL     1     -12.292  13.610  65.700  1.00  0.00    -0.478 C  
BRANCH   6   7
HETATM    7  C   UNL     1     -11.530  12.287  65.869  1.00  0.00    -0.376 C  
BRANCH   7   8
HETATM    8  O   UNL     1     -10.838  11.958  64.656  1.00  0.00    -0.287 OA 
BRANCH   8   9
HETATM    9  C   UNL     1      -9.585  11.335  64.947  1.00  0.00    -0.232 C  
BRANCH   9  10
HETATM   10  C   UNL     1      -9.798   9.890  65.390  1.00  0.00    -0.313 C  
BRANCH  10  11
HETATM   11  O   UNL     1      -8.663   9.394  66.126  1.00  0.00    -0.138 OA 
BRANCH  11  12
HETATM   12  C   UNL     1      -8.842   8.183  66.729  1.00  0.00    -0.138 C  
HETATM   13  O   UNL     1      -9.236   7.182  66.137  1.00  0.00    -0.155 OA 
BRANCH  12  14
HETATM   14  C   UNL     1      -8.563   8.230  68.244  1.00  0.00    -0.133 C  
HETATM   15  C   UNL     1      -9.210   9.460  68.938  1.00  0.00    -0.140 C  
HETATM   16  C   UNL     1      -7.054   8.563  68.390  1.00  0.00    -0.084 C  
HETATM   17  C   UNL     1      -6.915   9.216  69.752  1.00  0.00    -0.056 C  
HETATM   18  C   UNL     1      -8.161  10.072  69.876  1.00  0.00    -0.180 C  
BRANCH  14  19
HETATM   19  C   UNL     1      -9.032   6.916  68.898  1.00  0.00    -0.131 A  
HETATM   20  C   UNL     1      -8.697   4.597  69.592  1.00  0.00    -0.111 A  
HETATM   21  C   UNL     1     -10.006   4.523  70.058  1.00  0.00    -0.280 A  
HETATM   22  C   UNL     1      -8.218   5.778  69.015  1.00  0.00    -0.101 A  
HETATM   23  C   UNL     1     -10.832   5.634  69.960  1.00  0.00    -0.366 A  
HETATM   24  C   UNL     1     -10.348   6.819  69.394  1.00  0.00    -0.221 A  
ENDBRANCH  14  19
ENDBRANCH  12  14
ENDBRANCH  11  12
ENDBRANCH  10  11
ENDBRANCH   9  10
ENDBRANCH   8   9
ENDBRANCH   7   8
ENDBRANCH   6   7
ENDBRANCH   3   6
ENDBRANCH   2   3
TORSDOF 11
ENDMDL
MODEL      286
REMARK 921   NORMALIZED FREE ENERGY PREDICTED BY IDOCK:   -3.64 KCAL/MOL
REMARK 922        TOTAL FREE ENERGY PREDICTED BY IDOCK:   -6.80 KCAL/MOL
REMARK 923 INTER-LIGAND FREE ENERGY PREDICTED BY IDOCK:   -6.04 KCAL/MOL
REMARK 924 INTRA-LIGAND FREE ENERGY PREDICTED BY IDOCK:   -0.76 KCAL/MOL
REMARK 927      BINDING AFFINITY PREDICTED BY RF-SCORE:    0.00 PKD
ROOT
HETATM    1  C   UNL     1     -10.513  11.303  63.286  1.00  0.00    -0.370 C  
HETATM    2  C   UNL     1      -9.039  10.964  63.076  1.00  0.00    -0.299 C  
ENDROOT
BRANCH   2   3
HETATM    3  N   UNL     1      -8.579   9.754  63.784  1.00  0.00    -0.183 NA 
BRANCH   3   4
HETATM    4  C   UNL     1      -8.185   8.655  62.889  1.00  0.00    -0.184 C  
HETATM    5  C   UNL     1      -7.891   7.315  63.553  1.00  0.00    -0.108 C  
ENDBRANCH   3   4
BRANCH   3   6
HETATM    6  C   UNL     1      -7.539  10.123  64.771  1.00  0.00    -0.139 C  
BRANCH   6   7
HETATM    7  C   UNL     1      -7.912   9.865  66.240  1.00  0.00    -0.108 C  
BRANCH   7   8
HETATM    8  O   UNL     1      -9.060  10.647  66.601  1.00  0.00    -0.157 OA 
BRANCH   8   9
HETATM    9  C   UNL     1      -8.975  11.060  67.966  1.00  0.00    -0.145 C  
BRANCH   9  10
HETATM   10  C   UNL     1      -9.760  12.351  68.183  1.00  0.00    -0.214 C  
BRANCH  10  11
HETATM   11  O   UNL     1      -9.271  13.411  67.340  1.00  0.00    -0.196 OA 
BRANCH  11  12
HETATM   12  C   UNL     1      -9.859  14.628  67.531  1.00  0.00    -0.218 C  
HETATM   13  O   UNL     1     -11.072  14.811  67.478  1.00  0.00    -0.297 OA 
BRANCH  12  14
HETATM   14  C   UNL     1      -8.830  15.754  67.746  1.00  0.00    -0.173 C  
HETATM   15  C   UNL     1      -7.581  15.613  66.833  1.00  0.00    -0.201 C  
HETATM   16  C   UNL     1      -8.207  15.501  69.146  1.00  0.00    -0.247 C  
HETATM   17  C   UNL     1      -6.838  16.151  69.102  1.00  0.00    -0.196 C  
HETATM   18  C   UNL     1      -6.339  15.859  67.699  1.00  0.00    -0.189 C  
BRANCH  14  19
HETATM   19  C   UNL     1      -9.510  17.123  67.547  1.00  0.00    -0.247 A  
HETATM   20  C   UNL     1     -10.625  18.812  66.179  1.00  0.00    -0.435 A  
HETATM   21  C   UNL     1     -10.683  19.685  67.261  1.00  0.00    -0.583 A  
HETATM   22  C   UNL     1     -10.042  17.549  66.319  1.00  0.00    -0.341 A  
HETATM   23  C   UNL     1     -10.168  19.288  68.488  1.00  0.00    -0.471 A  
HETATM   24  C   UNL     1      -9.597  18.019  68.632  1.00  0.00    -0.335 A  
ENDBRANCH  14  19
ENDBRANCH  12  14
ENDBRANCH  11  12
ENDBRANCH  10  11
ENDBRANCH   9  10
ENDBRANCH   8   9
ENDBRANCH   7   8
ENDBRANCH   6   7
ENDBRANCH   3   6
ENDBRANCH   2   3
TORSDOF 11
ENDMDL
MODEL      287
REMARK 921   NORMALIZED FREE ENERGY PREDICTED BY IDOCK:   -3.62 KCAL/MOL
REMARK 922        TOTAL FREE ENERGY PREDICTED BY IDOCK:   -6.77 KCAL/MOL
REMARK 923 INTER-LIGAND FREE ENERGY PREDICTED BY IDOCK:   -5.45 KCAL/MOL
REMARK 924 INTRA-LIGAND FREE ENERGY PREDICTED BY IDOCK:   -1.32 KCAL/MOL
REMARK 927      BINDING AFFINITY PREDICTED BY RF-SCORE:    0.00 PKD
ROOT
HETATM    1  C   UNL     1      -8.524  19.122  67.008  1.00  0.00    -0.304 C  
HETATM    2  C   UNL     1      -7.390  18.191  67.431  1.00  0.00    -0.210 C  
ENDROOT
BRANCH   2   3
HETATM    3  N   UNL     1      -7.420  16.859  66.798  1.00  0.00    -0.213 NA 
BRANCH   3   4
HETATM    4  C   UNL     1      -7.189  15.750  67.737  1.00  0.00    -0.153 C  
HETATM    5  C   UNL     1      -5.785  15.158  67.750  1.00  0.00    -0.119 C  
ENDBRANCH   3   4
BRANCH   3   6
HETATM    6  C   UNL     1      -8.659  16.718  65.999  1.00  0.00    -0.178 C  
BRANCH   6   7
HETATM    7  C   UNL     1      -9.522  15.495  66.345  1.00  0.00    -0.291 C  
BRANCH   7   8
HETATM    8  O   UNL     1     -10.807  15.605  65.715  1.00  0.00    -0.327 OA 
BRANCH   8   9
HETATM    9  C   UNL     1     -11.350  14.309  65.456  1.00  0.00    -0.325 C  
BRANCH   9  10
HETATM   10  C   UNL     1     -11.106  13.381  66.644  1.00  0.00    -0.295 C  
BRANCH  10  11
HETATM   11  O   UNL     1     -11.123  11.998  66.241  1.00  0.00    -0.289 OA 
BRANCH  11  12
HETATM   12  C   UNL     1     -10.952  11.094  67.250  1.00  0.00    -0.296 C  
HETATM   13  O   UNL     1     -11.687  11.023  68.230  1.00  0.00    -0.461 OA 
BRANCH  12  14
HETATM   14  C   UNL     1      -9.695  10.224  67.055  1.00  0.00    -0.217 C  
HETATM   15  C   UNL     1      -9.120  10.307  65.614  1.00  0.00    -0.208 C  
HETATM   16  C   UNL     1     -10.184   8.752  67.099  1.00  0.00    -0.346 C  
HETATM   17  C   UNL     1      -9.155   7.962  66.312  1.00  0.00    -0.224 C  
HETATM   18  C   UNL     1      -8.793   8.879  65.160  1.00  0.00    -0.209 C  
BRANCH  14  19
HETATM   19  C   UNL     1      -8.629  10.614  68.098  1.00  0.00    -0.123 A  
HETATM   20  C   UNL     1      -6.859  12.064  68.954  1.00  0.00    -0.103 A  
HETATM   21  C   UNL     1      -6.649  11.212  70.034  1.00  0.00    -0.105 A  
HETATM   22  C   UNL     1      -7.834  11.766  67.997  1.00  0.00    -0.134 A  
HETATM   23  C   UNL     1      -7.425  10.067  70.162  1.00  0.00    -0.176 A  
HETATM   24  C   UNL     1      -8.409   9.776  69.211  1.00  0.00    -0.142 A  
ENDBRANCH  14  19
ENDBRANCH  12  14
ENDBRANCH  11  12
ENDBRANCH  10  11
ENDBRANCH   9  10
ENDBRANCH   8   9
ENDBRANCH   7   8
ENDBRANCH   6   7
ENDBRANCH   3   6
ENDBRANCH   2   3
TORSDOF 11
ENDMDL
MODEL      288
REMARK 921   NORMALIZED FREE ENERGY PREDICTED BY IDOCK:   -3.62 KCAL/MOL
REMARK 922        TOTAL FREE ENERGY PREDICTED BY IDOCK:   -6.77 KCAL/MOL
REMARK 923 INTER-LIGAND FREE ENERGY PREDICTED BY IDOCK:   -5.23 KCAL/MOL
REMARK 924 INTRA-LIGAND FREE ENERGY PREDICTED BY IDOCK:   -1.53 KCAL/MOL
REMARK 927      BINDING AFFINITY PREDICTED BY RF-SCORE:    0.00 PKD
ROOT
HETATM    1  C   UNL     1     -10.308  15.517  65.617  1.00  0.00    -0.407 C  
HETATM    2  C   UNL     1      -9.371  16.619  66.108  1.00  0.00    -0.284 C  
ENDROOT
BRANCH   2   3
HETATM    3  N   UNL     1      -9.672  17.124  67.461  1.00  0.00    -0.251 NA 
BRANCH   3   4
HETATM    4  C   UNL     1     -10.675  18.199  67.485  1.00  0.00    -0.345 C  
HETATM    5  C   UNL     1     -10.426  19.377  66.550  1.00  0.00    -0.572 C  
ENDBRANCH   3   4
BRANCH   3   6
HETATM    6  C   UNL     1      -9.993  15.987  68.354  1.00  0.00    -0.220 C  
BRANCH   6   7
HETATM    7  C   UNL     1      -9.077  15.840  69.579  1.00  0.00    -0.202 C  
BRANCH   7   8
HETATM    8  O   UNL     1      -7.709  16.043  69.197  1.00  0.00    -0.210 OA 
BRANCH   8   9
HETATM    9  C   UNL     1      -6.847  15.182  69.945  1.00  0.00    -0.154 C  
BRANCH   9  10
HETATM   10  C   UNL     1      -6.335  14.044  69.065  1.00  0.00    -0.097 C  
BRANCH  10  11
HETATM   11  O   UNL     1      -7.249  12.931  69.063  1.00  0.00    -0.076 OA 
BRANCH  11  12
HETATM   12  C   UNL     1      -7.896  12.708  67.881  1.00  0.00    -0.154 C  
HETATM   13  O   UNL     1      -7.946  13.529  66.970  1.00  0.00    -0.101 OA 
BRANCH  12  14
HETATM   14  C   UNL     1      -8.613  11.345  67.849  1.00  0.00    -0.140 C  
HETATM   15  C   UNL     1     -10.065  11.413  68.398  1.00  0.00    -0.207 C  
HETATM   16  C   UNL     1      -7.923  10.474  68.933  1.00  0.00    -0.128 C  
HETATM   17  C   UNL     1      -8.960   9.445  69.344  1.00  0.00    -0.157 C  
HETATM   18  C   UNL     1     -10.264  10.218  69.340  1.00  0.00    -0.255 C  
BRANCH  14  19
HETATM   19  C   UNL     1      -8.591  10.781  66.415  1.00  0.00    -0.159 A  
HETATM   20  C   UNL     1      -7.512   9.614  64.559  1.00  0.00    -0.128 A  
HETATM   21  C   UNL     1      -8.617   9.840  63.743  1.00  0.00    -0.208 A  
HETATM   22  C   UNL     1      -7.498  10.083  65.876  1.00  0.00    -0.115 A  
HETATM   23  C   UNL     1      -9.713  10.525  64.251  1.00  0.00    -0.391 A  
HETATM   24  C   UNL     1      -9.704  10.982  65.573  1.00  0.00    -0.274 A  
ENDBRANCH  14  19
ENDBRANCH  12  14
ENDBRANCH  11  12
ENDBRANCH  10  11
ENDBRANCH   9  10
ENDBRANCH   8   9
ENDBRANCH   7   8
ENDBRANCH   6   7
ENDBRANCH   3   6
ENDBRANCH   2   3
TORSDOF 11
ENDMDL
MODEL      289
REMARK 921   NORMALIZED FREE ENERGY PREDICTED BY IDOCK:   -3.62 KCAL/MOL
REMARK 922        TOTAL FREE ENERGY PREDICTED BY IDOCK:   -6.76 KCAL/MOL
REMARK 923 INTER-LIGAND FREE ENERGY PREDICTED BY IDOCK:   -5.57 KCAL/MOL
REMARK 924 INTRA-LIGAND FREE ENERGY PREDICTED BY IDOCK:   -1.19 KCAL/MOL
REMARK 927      BINDING AFFINITY PREDICTED BY RF-SCORE:    0.00 PKD
ROOT
HETATM    1  C   UNL     1     -11.322   8.050  72.455  1.00  0.00    -0.443 C  
HETATM    2  C   UNL     1      -9.916   7.548  72.780  1.00  0.00    -0.227 C  
ENDROOT
BRANCH   2   3
HETATM    3  N   UNL     1      -9.308   6.704  71.734  1.00  0.00    -0.149 NA 
BRANCH   3   4
HETATM    4  C   UNL     1      -9.035   5.325  72.168  1.00  0.00    -0.129 C  
HETATM    5  C   UNL     1     -10.238   4.394  72.261  1.00  0.00    -0.255 C  
ENDBRANCH   3   4
BRANCH   3   6
HETATM    6  C   UNL     1     -10.114   6.791  70.495  1.00  0.00    -0.183 C  
BRANCH   6   7
HETATM    7  C   UNL     1      -9.336   6.554  69.192  1.00  0.00    -0.133 C  
BRANCH   7   8
HETATM    8  O   UNL     1     -10.118   5.759  68.289  1.00  0.00    -0.142 OA 
BRANCH   8   9
HETATM    9  C   UNL     1     -11.016   6.585  67.544  1.00  0.00    -0.359 C  
BRANCH   9  10
HETATM   10  C   UNL     1     -10.243   7.655  66.776  1.00  0.00    -0.263 C  
BRANCH  10  11
HETATM   11  O   UNL     1     -10.651   8.979  67.169  1.00  0.00    -0.272 OA 
BRANCH  11  12
HETATM   12  C   UNL     1     -10.138   9.996  66.416  1.00  0.00    -0.241 C  
HETATM   13  O   UNL     1     -10.271  10.072  65.199  1.00  0.00    -0.288 OA 
BRANCH  12  14
HETATM   14  C   UNL     1      -9.315  10.994  67.254  1.00  0.00    -0.167 C  
HETATM   15  C   UNL     1      -7.874  11.195  66.709  1.00  0.00    -0.153 C  
HETATM   16  C   UNL     1      -9.028  10.283  68.604  1.00  0.00    -0.144 C  
HETATM   17  C   UNL     1      -7.764  10.928  69.139  1.00  0.00    -0.127 C  
HETATM   18  C   UNL     1      -6.912  11.145  67.903  1.00  0.00    -0.069 C  
BRANCH  14  19
HETATM   19  C   UNL     1     -10.065  12.337  67.343  1.00  0.00    -0.207 A  
HETATM   20  C   UNL     1     -10.490  14.636  66.634  1.00  0.00    -0.278 A  
HETATM   21  C   UNL     1     -11.451  14.790  67.628  1.00  0.00    -0.363 A  
HETATM   22  C   UNL     1      -9.803  13.426  66.497  1.00  0.00    -0.286 A  
HETATM   23  C   UNL     1     -11.734  13.729  68.477  1.00  0.00    -0.391 A  
HETATM   24  C   UNL     1     -11.056  12.514  68.331  1.00  0.00    -0.293 A  
ENDBRANCH  14  19
ENDBRANCH  12  14
ENDBRANCH  11  12
ENDBRANCH  10  11
ENDBRANCH   9  10
ENDBRANCH   8   9
ENDBRANCH   7   8
ENDBRANCH   6   7
ENDBRANCH   3   6
ENDBRANCH   2   3
TORSDOF 11
ENDMDL
MODEL      290
REMARK 921   NORMALIZED FREE ENERGY PREDICTED BY IDOCK:   -3.61 KCAL/MOL
REMARK 922        TOTAL FREE ENERGY PREDICTED BY IDOCK:   -6.75 KCAL/MOL
REMARK 923 INTER-LIGAND FREE ENERGY PREDICTED BY IDOCK:   -5.33 KCAL/MOL
REMARK 924 INTRA-LIGAND FREE ENERGY PREDICTED BY IDOCK:   -1.42 KCAL/MOL
REMARK 927      BINDING AFFINITY PREDICTED BY RF-SCORE:    0.00 PKD
ROOT
HETATM    1  C   UNL     1      -7.591   6.301  65.668  1.00  0.00    -0.085 C  
HETATM    2  C   UNL     1      -8.714   5.501  66.324  1.00  0.00    -0.128 C  
ENDROOT
BRANCH   2   3
HETATM    3  N   UNL     1      -8.287   4.654  67.453  1.00  0.00    -0.105 NA 
BRANCH   3   4
HETATM    4  C   UNL     1      -9.019   3.382  67.551  1.00  0.00    -0.147 C  
HETATM    5  C   UNL     1      -8.175   2.113  67.550  1.00  0.00    -0.074 C  
ENDBRANCH   3   4
BRANCH   3   6
HETATM    6  C   UNL     1      -6.815   4.495  67.424  1.00  0.00    -0.059 C  
BRANCH   6   7
HETATM    7  C   UNL     1      -6.096   4.836  68.738  1.00  0.00    -0.030 C  
BRANCH   7   8
HETATM    8  O   UNL     1      -6.931   5.670  69.554  1.00  0.00    -0.059 OA 
BRANCH   8   9
HETATM    9  C   UNL     1      -6.507   5.621  70.918  1.00  0.00    -0.036 C  
BRANCH   9  10
HETATM   10  C   UNL     1      -7.388   6.519  71.783  1.00  0.00    -0.087 C  
BRANCH  10  11
HETATM   11  O   UNL     1      -7.900   7.635  71.030  1.00  0.00    -0.087 OA 
BRANCH  11  12
HETATM   12  C   UNL     1      -9.012   8.232  71.551  1.00  0.00    -0.173 C  
HETATM   13  O   UNL     1      -9.039   8.768  72.655  1.00  0.00    -0.354 OA 
BRANCH  12  14
HETATM   14  C   UNL     1     -10.241   8.094  70.633  1.00  0.00    -0.211 C  
HETATM   15  C   UNL     1     -10.947   6.717  70.771  1.00  0.00    -0.318 C  
HETATM   16  C   UNL     1      -9.686   8.003  69.187  1.00  0.00    -0.163 C  
HETATM   17  C   UNL     1     -10.745   7.262  68.394  1.00  0.00    -0.165 C  
HETATM   18  C   UNL     1     -11.250   6.205  69.357  1.00  0.00    -0.466 C  
BRANCH  14  19
HETATM   19  C   UNL     1     -11.225   9.249  70.908  1.00  0.00    -0.372 A  
HETATM   20  C   UNL     1     -13.184  10.216  72.001  1.00  0.00    -0.534 A  
HETATM   21  C   UNL     1     -13.019  11.405  71.298  1.00  0.00    -0.415 A  
HETATM   22  C   UNL     1     -12.300   9.150  71.805  1.00  0.00    -0.444 A  
HETATM   23  C   UNL     1     -11.961  11.533  70.407  1.00  0.00    -0.459 A  
HETATM   24  C   UNL     1     -11.070  10.471  70.221  1.00  0.00    -0.359 A  
ENDBRANCH  14  19
ENDBRANCH  12  14
ENDBRANCH  11  12
ENDBRANCH  10  11
ENDBRANCH   9  10
ENDBRANCH   8   9
ENDBRANCH   7   8
ENDBRANCH   6   7
ENDBRANCH   3   6
ENDBRANCH   2   3
TORSDOF 11
ENDMDL
MODEL      291
REMARK 921   NORMALIZED FREE ENERGY PREDICTED BY IDOCK:   -3.61 KCAL/MOL
REMARK 922        TOTAL FREE ENERGY PREDICTED BY IDOCK:   -6.74 KCAL/MOL
REMARK 923 INTER-LIGAND FREE ENERGY PREDICTED BY IDOCK:   -5.60 KCAL/MOL
REMARK 924 INTRA-LIGAND FREE ENERGY PREDICTED BY IDOCK:   -1.14 KCAL/MOL
REMARK 927      BINDING AFFINITY PREDICTED BY RF-SCORE:    0.00 PKD
ROOT
HETATM    1  C   UNL     1     -10.313   6.922  73.958  1.00  0.00    -0.355 C  
HETATM    2  C   UNL     1      -9.836   7.944  72.929  1.00  0.00    -0.282 C  
ENDROOT
BRANCH   2   3
HETATM    3  N   UNL     1     -10.697   8.065  71.738  1.00  0.00    -0.230 NA 
BRANCH   3   4
HETATM    4  C   UNL     1     -11.580   9.241  71.760  1.00  0.00    -0.388 C  
HETATM    5  C   UNL     1     -11.355  10.276  70.665  1.00  0.00    -0.431 C  
ENDBRANCH   3   4
BRANCH   3   6
HETATM    6  C   UNL     1      -9.869   7.962  70.514  1.00  0.00    -0.186 C  
BRANCH   6   7
HETATM    7  C   UNL     1      -8.437   7.451  70.737  1.00  0.00    -0.131 C  
BRANCH   7   8
HETATM    8  O   UNL     1      -7.534   8.108  69.836  1.00  0.00    -0.067 OA 
BRANCH   8   9
HETATM    9  C   UNL     1      -6.720   9.048  70.540  1.00  0.00    -0.058 C  
BRANCH   9  10
HETATM   10  C   UNL     1      -6.726  10.398  69.826  1.00  0.00    -0.117 C  
BRANCH  10  11
HETATM   11  O   UNL     1      -7.353  10.305  68.533  1.00  0.00    -0.078 OA 
BRANCH  11  12
HETATM   12  C   UNL     1      -8.190  11.335  68.214  1.00  0.00    -0.143 C  
HETATM   13  O   UNL     1      -8.131  12.444  68.737  1.00  0.00    -0.058 OA 
BRANCH  12  14
HETATM   14  C   UNL     1      -9.259  10.929  67.181  1.00  0.00    -0.159 C  
HETATM   15  C   UNL     1     -10.119   9.721  67.645  1.00  0.00    -0.236 C  
HETATM   16  C   UNL     1      -8.485  10.305  65.989  1.00  0.00    -0.144 C  
HETATM   17  C   UNL     1      -9.471   9.373  65.311  1.00  0.00    -0.296 C  
HETATM   18  C   UNL     1     -10.237   8.751  66.463  1.00  0.00    -0.314 C  
BRANCH  14  19
HETATM   19  C   UNL     1     -10.147  12.144  66.849  1.00  0.00    -0.222 A  
HETATM   20  C   UNL     1     -12.272  13.349  66.870  1.00  0.00    -0.343 A  
HETATM   21  C   UNL     1     -11.716  14.391  66.135  1.00  0.00    -0.384 A  
HETATM   22  C   UNL     1     -11.498  12.238  67.219  1.00  0.00    -0.426 A  
HETATM   23  C   UNL     1     -10.381  14.328  65.760  1.00  0.00    -0.341 A  
HETATM   24  C   UNL     1      -9.603  13.222  66.120  1.00  0.00    -0.211 A  
ENDBRANCH  14  19
ENDBRANCH  12  14
ENDBRANCH  11  12
ENDBRANCH  10  11
ENDBRANCH   9  10
ENDBRANCH   8   9
ENDBRANCH   7   8
ENDBRANCH   6   7
ENDBRANCH   3   6
ENDBRANCH   2   3
TORSDOF 11
ENDMDL
MODEL      292
REMARK 921   NORMALIZED FREE ENERGY PREDICTED BY IDOCK:   -3.60 KCAL/MOL
REMARK 922        TOTAL FREE ENERGY PREDICTED BY IDOCK:   -6.74 KCAL/MOL
REMARK 923 INTER-LIGAND FREE ENERGY PREDICTED BY IDOCK:   -6.01 KCAL/MOL
REMARK 924 INTRA-LIGAND FREE ENERGY PREDICTED BY IDOCK:   -0.73 KCAL/MOL
REMARK 927      BINDING AFFINITY PREDICTED BY RF-SCORE:    0.00 PKD
ROOT
HETATM    1  C   UNL     1     -10.207   9.461  70.880  1.00  0.00    -0.373 C  
HETATM    2  C   UNL     1      -8.921   9.529  70.059  1.00  0.00    -0.223 C  
ENDROOT
BRANCH   2   3
HETATM    3  N   UNL     1      -8.354   8.216  69.697  1.00  0.00    -0.123 NA 
BRANCH   3   4
HETATM    4  C   UNL     1      -9.324   7.112  69.758  1.00  0.00    -0.146 C  
HETATM    5  C   UNL     1      -8.773   5.750  70.164  1.00  0.00    -0.140 C  
ENDBRANCH   3   4
BRANCH   3   6
HETATM    6  C   UNL     1      -7.650   8.322  68.399  1.00  0.00    -0.101 C  
BRANCH   6   7
HETATM    7  C   UNL     1      -8.006   9.561  67.562  1.00  0.00    -0.106 C  
BRANCH   7   8
HETATM    8  O   UNL     1      -8.566   9.160  66.303  1.00  0.00    -0.120 OA 
BRANCH   8   9
HETATM    9  C   UNL     1      -9.609  10.056  65.911  1.00  0.00    -0.224 C  
BRANCH   9  10
HETATM   10  C   UNL     1     -10.704  10.097  66.974  1.00  0.00    -0.196 C  
BRANCH  10  11
HETATM   11  O   UNL     1     -11.459  11.322  66.903  1.00  0.00    -0.431 OA 
BRANCH  11  12
HETATM   12  C   UNL     1     -11.768  11.888  68.105  1.00  0.00    -0.320 C  
HETATM   13  O   UNL     1     -12.353  11.293  69.005  1.00  0.00    -0.446 OA 
BRANCH  12  14
HETATM   14  C   UNL     1     -11.368  13.374  68.178  1.00  0.00    -0.321 C  
HETATM   15  C   UNL     1      -9.953  13.590  68.782  1.00  0.00    -0.078 C  
HETATM   16  C   UNL     1     -12.263  14.003  69.281  1.00  0.00    -0.319 C  
HETATM   17  C   UNL     1     -11.490  15.205  69.790  1.00  0.00    -0.321 C  
HETATM   18  C   UNL     1     -10.048  14.737  69.796  1.00  0.00     0.059 C  
BRANCH  14  19
HETATM   19  C   UNL     1     -11.475  14.009  66.778  1.00  0.00    -0.379 A  
HETATM   20  C   UNL     1     -10.729  15.543  65.029  1.00  0.00    -0.463 A  
HETATM   21  C   UNL     1     -11.791  15.167  64.213  1.00  0.00    -0.263 A  
HETATM   22  C   UNL     1     -10.576  14.974  66.297  1.00  0.00    -0.309 A  
HETATM   23  C   UNL     1     -12.694  14.211  64.661  1.00  0.00    -0.159 A  
HETATM   24  C   UNL     1     -12.532  13.633  65.925  1.00  0.00    -0.502 A  
ENDBRANCH  14  19
ENDBRANCH  12  14
ENDBRANCH  11  12
ENDBRANCH  10  11
ENDBRANCH   9  10
ENDBRANCH   8   9
ENDBRANCH   7   8
ENDBRANCH   6   7
ENDBRANCH   3   6
ENDBRANCH   2   3
TORSDOF 11
ENDMDL
MODEL      293
REMARK 921   NORMALIZED FREE ENERGY PREDICTED BY IDOCK:   -3.59 KCAL/MOL
REMARK 922        TOTAL FREE ENERGY PREDICTED BY IDOCK:   -6.72 KCAL/MOL
REMARK 923 INTER-LIGAND FREE ENERGY PREDICTED BY IDOCK:   -5.52 KCAL/MOL
REMARK 924 INTRA-LIGAND FREE ENERGY PREDICTED BY IDOCK:   -1.20 KCAL/MOL
REMARK 927      BINDING AFFINITY PREDICTED BY RF-SCORE:    0.00 PKD
ROOT
HETATM    1  C   UNL     1     -10.258  16.837  68.094  1.00  0.00    -0.301 C  
HETATM    2  C   UNL     1     -10.115  15.322  67.966  1.00  0.00    -0.229 C  
ENDROOT
BRANCH   2   3
HETATM    3  N   UNL     1     -10.842  14.731  66.827  1.00  0.00    -0.310 NA 
BRANCH   3   4
HETATM    4  C   UNL     1     -10.280  15.083  65.515  1.00  0.00    -0.378 C  
HETATM    5  C   UNL     1     -11.217  15.795  64.547  1.00  0.00    -0.334 C  
ENDBRANCH   3   4
BRANCH   3   6
HETATM    6  C   UNL     1     -10.995  13.273  67.040  1.00  0.00    -0.276 C  
BRANCH   6   7
HETATM    7  C   UNL     1     -12.160  12.866  67.956  1.00  0.00    -0.152 C  
BRANCH   7   8
HETATM    8  O   UNL     1     -12.104  11.458  68.228  1.00  0.00    -0.606 OA 
BRANCH   8   9
HETATM    9  C   UNL     1     -10.752  10.995  68.192  1.00  0.00    -0.205 C  
BRANCH   9  10
HETATM   10  C   UNL     1     -10.468  10.085  69.384  1.00  0.00    -0.232 C  
BRANCH  10  11
HETATM   11  O   UNL     1     -10.942   8.746  69.146  1.00  0.00    -0.113 OA 
BRANCH  11  12
HETATM   12  C   UNL     1     -10.006   7.761  69.287  1.00  0.00    -0.182 C  
HETATM   13  O   UNL     1      -9.508   7.448  70.364  1.00  0.00    -0.165 OA 
BRANCH  12  14
HETATM   14  C   UNL     1      -9.594   7.141  67.938  1.00  0.00    -0.145 C  
HETATM   15  C   UNL     1     -10.810   6.659  67.099  1.00  0.00    -0.471 C  
HETATM   16  C   UNL     1      -8.912   5.790  68.281  1.00  0.00    -0.115 C  
HETATM   17  C   UNL     1      -9.082   4.927  67.045  1.00  0.00    -0.120 C  
HETATM   18  C   UNL     1     -10.475   5.266  66.551  1.00  0.00    -0.354 C  
BRANCH  14  19
HETATM   19  C   UNL     1      -8.739   8.148  67.144  1.00  0.00    -0.130 A  
HETATM   20  C   UNL     1      -6.784   9.585  66.862  1.00  0.00    -0.072 A  
HETATM   21  C   UNL     1      -7.270  10.048  65.643  1.00  0.00    -0.120 A  
HETATM   22  C   UNL     1      -7.512   8.650  67.605  1.00  0.00    -0.090 A  
HETATM   23  C   UNL     1      -8.479   9.565  65.161  1.00  0.00    -0.160 A  
HETATM   24  C   UNL     1      -9.201   8.619  65.898  1.00  0.00    -0.264 A  
ENDBRANCH  14  19
ENDBRANCH  12  14
ENDBRANCH  11  12
ENDBRANCH  10  11
ENDBRANCH   9  10
ENDBRANCH   8   9
ENDBRANCH   7   8
ENDBRANCH   6   7
ENDBRANCH   3   6
ENDBRANCH   2   3
TORSDOF 11
ENDMDL
MODEL      294
REMARK 921   NORMALIZED FREE ENERGY PREDICTED BY IDOCK:   -3.59 KCAL/MOL
REMARK 922        TOTAL FREE ENERGY PREDICTED BY IDOCK:   -6.72 KCAL/MOL
REMARK 923 INTER-LIGAND FREE ENERGY PREDICTED BY IDOCK:   -5.65 KCAL/MOL
REMARK 924 INTRA-LIGAND FREE ENERGY PREDICTED BY IDOCK:   -1.07 KCAL/MOL
REMARK 927      BINDING AFFINITY PREDICTED BY RF-SCORE:    0.00 PKD
ROOT
HETATM    1  C   UNL     1     -12.703  15.326  70.740  1.00  0.00    -0.491 C  
HETATM    2  C   UNL     1     -11.627  14.820  69.781  1.00  0.00    -0.297 C  
ENDROOT
BRANCH   2   3
HETATM    3  N   UNL     1     -12.055  14.723  68.373  1.00  0.00    -0.228 NA 
BRANCH   3   4
HETATM    4  C   UNL     1     -11.208  15.482  67.441  1.00  0.00    -0.248 C  
HETATM    5  C   UNL     1     -10.445  16.663  68.029  1.00  0.00    -0.320 C  
ENDBRANCH   3   4
BRANCH   3   6
HETATM    6  C   UNL     1     -12.224  13.299  68.003  1.00  0.00    -0.077 C  
BRANCH   6   7
HETATM    7  C   UNL     1     -11.883  12.959  66.544  1.00  0.00    -0.407 C  
BRANCH   7   8
HETATM    8  O   UNL     1     -11.503  11.580  66.436  1.00  0.00    -0.375 OA 
BRANCH   8   9
HETATM    9  C   UNL     1     -11.547  10.947  67.716  1.00  0.00    -0.146 C  
BRANCH   9  10
HETATM   10  C   UNL     1     -10.807   9.612  67.678  1.00  0.00    -0.212 C  
BRANCH  10  11
HETATM   11  O   UNL     1     -10.904   8.922  68.938  1.00  0.00    -0.150 OA 
BRANCH  11  12
HETATM   12  C   UNL     1      -9.815   9.035  69.753  1.00  0.00    -0.180 C  
HETATM   13  O   UNL     1      -8.895   9.821  69.549  1.00  0.00    -0.163 OA 
BRANCH  12  14
HETATM   14  C   UNL     1      -9.836   8.020  70.911  1.00  0.00    -0.195 C  
HETATM   15  C   UNL     1     -11.251   7.830  71.522  1.00  0.00    -0.278 C  
HETATM   16  C   UNL     1      -9.090   8.702  72.089  1.00  0.00    -0.301 C  
HETATM   17  C   UNL     1      -9.632   8.045  73.344  1.00  0.00    -0.277 C  
HETATM   18  C   UNL     1     -11.107   7.854  73.049  1.00  0.00    -0.379 C  
BRANCH  14  19
HETATM   19  C   UNL     1      -9.255   6.675  70.432  1.00  0.00    -0.156 A  
HETATM   20  C   UNL     1      -9.415   4.278  69.987  1.00  0.00    -0.254 A  
HETATM   21  C   UNL     1      -8.080   4.237  69.596  1.00  0.00    -0.062 A  
HETATM   22  C   UNL     1      -9.993   5.481  70.403  1.00  0.00    -0.279 A  
HETATM   23  C   UNL     1      -7.327   5.403  69.611  1.00  0.00    -0.065 A  
HETATM   24  C   UNL     1      -7.910   6.609  70.015  1.00  0.00    -0.111 A  
ENDBRANCH  14  19
ENDBRANCH  12  14
ENDBRANCH  11  12
ENDBRANCH  10  11
ENDBRANCH   9  10
ENDBRANCH   8   9
ENDBRANCH   7   8
ENDBRANCH   6   7
ENDBRANCH   3   6
ENDBRANCH   2   3
TORSDOF 11
ENDMDL
MODEL      295
REMARK 921   NORMALIZED FREE ENERGY PREDICTED BY IDOCK:   -3.59 KCAL/MOL
REMARK 922        TOTAL FREE ENERGY PREDICTED BY IDOCK:   -6.72 KCAL/MOL
REMARK 923 INTER-LIGAND FREE ENERGY PREDICTED BY IDOCK:   -5.84 KCAL/MOL
REMARK 924 INTRA-LIGAND FREE ENERGY PREDICTED BY IDOCK:   -0.88 KCAL/MOL
REMARK 927      BINDING AFFINITY PREDICTED BY RF-SCORE:    0.00 PKD
ROOT
HETATM    1  C   UNL     1      -7.232   6.374  69.788  1.00  0.00    -0.074 C  
HETATM    2  C   UNL     1      -8.374   5.703  69.028  1.00  0.00    -0.100 C  
ENDROOT
BRANCH   2   3
HETATM    3  N   UNL     1      -8.322   5.876  67.564  1.00  0.00    -0.105 NA 
BRANCH   3   4
HETATM    4  C   UNL     1      -9.637   5.804  66.910  1.00  0.00    -0.141 C  
HETATM    5  C   UNL     1     -10.841   6.165  67.772  1.00  0.00    -0.413 C  
ENDBRANCH   3   4
BRANCH   3   6
HETATM    6  C   UNL     1      -7.557   7.101  67.236  1.00  0.00    -0.104 C  
BRANCH   6   7
HETATM    7  C   UNL     1      -7.843   7.697  65.849  1.00  0.00    -0.103 C  
BRANCH   7   8
HETATM    8  O   UNL     1      -8.907   8.656  65.935  1.00  0.00    -0.163 OA 
BRANCH   8   9
HETATM    9  C   UNL     1      -8.432   9.881  66.497  1.00  0.00    -0.125 C  
BRANCH   9  10
HETATM   10  C   UNL     1      -9.180  10.201  67.789  1.00  0.00    -0.137 C  
BRANCH  10  11
HETATM   11  O   UNL     1      -9.582  11.583  67.835  1.00  0.00    -0.167 OA 
BRANCH  11  12
HETATM   12  C   UNL     1     -10.814  11.852  67.312  1.00  0.00    -0.247 C  
HETATM   13  O   UNL     1     -11.690  11.004  67.170  1.00  0.00    -0.456 OA 
BRANCH  12  14
HETATM   14  C   UNL     1     -10.955  13.317  66.855  1.00  0.00    -0.298 C  
HETATM   15  C   UNL     1     -12.291  13.591  66.112  1.00  0.00    -0.463 C  
HETATM   16  C   UNL     1      -9.929  13.506  65.706  1.00  0.00    -0.266 C  
HETATM   17  C   UNL     1     -10.469  14.648  64.867  1.00  0.00    -0.415 C  
HETATM   18  C   UNL     1     -11.969  14.422  64.864  1.00  0.00    -0.430 C  
BRANCH  14  19
HETATM   19  C   UNL     1     -10.793  14.255  68.067  1.00  0.00    -0.247 A  
HETATM   20  C   UNL     1      -9.565  15.908  69.383  1.00  0.00    -0.265 A  
HETATM   21  C   UNL     1     -10.553  15.897  70.362  1.00  0.00    -0.193 A  
HETATM   22  C   UNL     1      -9.682  15.094  68.252  1.00  0.00    -0.219 A  
HETATM   23  C   UNL     1     -11.665  15.081  70.204  1.00  0.00    -0.340 A  
HETATM   24  C   UNL     1     -11.788  14.276  69.066  1.00  0.00    -0.370 A  
ENDBRANCH  14  19
ENDBRANCH  12  14
ENDBRANCH  11  12
ENDBRANCH  10  11
ENDBRANCH   9  10
ENDBRANCH   8   9
ENDBRANCH   7   8
ENDBRANCH   6   7
ENDBRANCH   3   6
ENDBRANCH   2   3
TORSDOF 11
ENDMDL
MODEL      296
REMARK 921   NORMALIZED FREE ENERGY PREDICTED BY IDOCK:   -3.58 KCAL/MOL
REMARK 922        TOTAL FREE ENERGY PREDICTED BY IDOCK:   -6.70 KCAL/MOL
REMARK 923 INTER-LIGAND FREE ENERGY PREDICTED BY IDOCK:   -5.47 KCAL/MOL
REMARK 924 INTRA-LIGAND FREE ENERGY PREDICTED BY IDOCK:   -1.23 KCAL/MOL
REMARK 927      BINDING AFFINITY PREDICTED BY RF-SCORE:    0.00 PKD
ROOT
HETATM    1  C   UNL     1     -10.784  11.159  63.459  1.00  0.00    -0.340 C  
HETATM    2  C   UNL     1     -11.338  12.582  63.464  1.00  0.00    -0.486 C  
ENDROOT
BRANCH   2   3
HETATM    3  N   UNL     1     -10.762  13.462  64.498  1.00  0.00    -0.402 NA 
BRANCH   3   4
HETATM    4  C   UNL     1     -11.644  14.570  64.895  1.00  0.00    -0.401 C  
HETATM    5  C   UNL     1     -11.054  15.972  64.797  1.00  0.00    -0.378 C  
ENDBRANCH   3   4
BRANCH   3   6
HETATM    6  C   UNL     1     -10.283  12.642  65.636  1.00  0.00    -0.273 C  
BRANCH   6   7
HETATM    7  C   UNL     1     -10.923  12.974  66.993  1.00  0.00    -0.265 C  
BRANCH   7   8
HETATM    8  O   UNL     1      -9.902  13.212  67.973  1.00  0.00    -0.217 OA 
BRANCH   8   9
HETATM    9  C   UNL     1      -8.641  12.722  67.511  1.00  0.00    -0.187 C  
BRANCH   9  10
HETATM   10  C   UNL     1      -7.990  11.840  68.574  1.00  0.00    -0.145 C  
BRANCH  10  11
HETATM   11  O   UNL     1      -8.783  10.668  68.841  1.00  0.00    -0.149 OA 
BRANCH  11  12
HETATM   12  C   UNL     1      -8.297   9.502  68.322  1.00  0.00    -0.118 C  
HETATM   13  O   UNL     1      -8.183   9.292  67.118  1.00  0.00    -0.115 OA 
BRANCH  12  14
HETATM   14  C   UNL     1      -7.978   8.459  69.410  1.00  0.00    -0.112 C  
HETATM   15  C   UNL     1      -6.735   8.835  70.262  1.00  0.00    -0.041 C  
HETATM   16  C   UNL     1      -7.458   7.205  68.658  1.00  0.00    -0.102 C  
HETATM   17  C   UNL     1      -6.585   6.469  69.657  1.00  0.00    -0.048 C  
HETATM   18  C   UNL     1      -5.867   7.578  70.402  1.00  0.00    -0.027 C  
BRANCH  14  19
HETATM   19  C   UNL     1      -9.217   8.246  70.303  1.00  0.00    -0.155 A  
HETATM   20  C   UNL     1     -11.521   7.528  70.681  1.00  0.00    -0.291 A  
HETATM   21  C   UNL     1     -11.463   7.956  72.003  1.00  0.00    -0.351 A  
HETATM   22  C   UNL     1     -10.413   7.675  69.840  1.00  0.00    -0.231 A  
HETATM   23  C   UNL     1     -10.291   8.521  72.489  1.00  0.00    -0.315 A  
HETATM   24  C   UNL     1      -9.178   8.656  71.651  1.00  0.00    -0.326 A  
ENDBRANCH  14  19
ENDBRANCH  12  14
ENDBRANCH  11  12
ENDBRANCH  10  11
ENDBRANCH   9  10
ENDBRANCH   8   9
ENDBRANCH   7   8
ENDBRANCH   6   7
ENDBRANCH   3   6
ENDBRANCH   2   3
TORSDOF 11
ENDMDL
MODEL      297
REMARK 921   NORMALIZED FREE ENERGY PREDICTED BY IDOCK:   -3.58 KCAL/MOL
REMARK 922        TOTAL FREE ENERGY PREDICTED BY IDOCK:   -6.70 KCAL/MOL
REMARK 923 INTER-LIGAND FREE ENERGY PREDICTED BY IDOCK:   -5.95 KCAL/MOL
REMARK 924 INTRA-LIGAND FREE ENERGY PREDICTED BY IDOCK:   -0.74 KCAL/MOL
REMARK 927      BINDING AFFINITY PREDICTED BY RF-SCORE:    0.00 PKD
ROOT
HETATM    1  C   UNL     1     -12.512   7.932  71.661  1.00  0.00    -0.344 C  
HETATM    2  C   UNL     1     -11.141   7.410  72.083  1.00  0.00    -0.252 C  
ENDROOT
BRANCH   2   3
HETATM    3  N   UNL     1     -10.043   7.748  71.157  1.00  0.00    -0.187 NA 
BRANCH   3   4
HETATM    4  C   UNL     1      -9.791   6.721  70.134  1.00  0.00    -0.177 C  
HETATM    5  C   UNL     1      -8.555   5.853  70.338  1.00  0.00    -0.135 C  
ENDBRANCH   3   4
BRANCH   3   6
HETATM    6  C   UNL     1     -10.262   9.103  70.602  1.00  0.00    -0.246 C  
BRANCH   6   7
HETATM    7  C   UNL     1      -9.159   9.608  69.659  1.00  0.00    -0.210 C  
BRANCH   7   8
HETATM    8  O   UNL     1      -9.736  10.372  68.591  1.00  0.00    -0.161 OA 
BRANCH   8   9
HETATM    9  C   UNL     1      -9.590  11.772  68.841  1.00  0.00     0.046 C  
BRANCH   9  10
HETATM   10  C   UNL     1      -8.270  12.281  68.269  1.00  0.00    -0.167 C  
BRANCH  10  11
HETATM   11  O   UNL     1      -8.477  13.030  67.056  1.00  0.00    -0.193 OA 
BRANCH  11  12
HETATM   12  C   UNL     1      -8.307  14.380  67.166  1.00  0.00    -0.191 C  
HETATM   13  O   UNL     1      -7.226  14.909  67.408  1.00  0.00    -0.194 OA 
BRANCH  12  14
HETATM   14  C   UNL     1      -9.630  15.155  67.025  1.00  0.00    -0.235 C  
HETATM   15  C   UNL     1      -9.433  16.587  66.455  1.00  0.00    -0.314 C  
HETATM   16  C   UNL     1     -10.096  15.471  68.471  1.00  0.00    -0.211 C  
HETATM   17  C   UNL     1     -10.972  16.703  68.353  1.00  0.00    -0.345 C  
HETATM   18  C   UNL     1     -10.276  17.547  67.303  1.00  0.00    -0.335 C  
BRANCH  14  19
HETATM   19  C   UNL     1     -10.615  14.346  66.159  1.00  0.00    -0.298 A  
HETATM   20  C   UNL     1     -11.304  13.294  64.064  1.00  0.00    -0.403 A  
HETATM   21  C   UNL     1     -12.517  12.911  64.627  1.00  0.00    -0.499 A  
HETATM   22  C   UNL     1     -10.367  14.006  64.819  1.00  0.00    -0.407 A  
HETATM   23  C   UNL     1     -12.788  13.230  65.951  1.00  0.00    -0.045 A  
HETATM   24  C   UNL     1     -11.845  13.931  66.710  1.00  0.00    -0.452 A  
ENDBRANCH  14  19
ENDBRANCH  12  14
ENDBRANCH  11  12
ENDBRANCH  10  11
ENDBRANCH   9  10
ENDBRANCH   8   9
ENDBRANCH   7   8
ENDBRANCH   6   7
ENDBRANCH   3   6
ENDBRANCH   2   3
TORSDOF 11
ENDMDL
MODEL      298
REMARK 921   NORMALIZED FREE ENERGY PREDICTED BY IDOCK:   -3.58 KCAL/MOL
REMARK 922        TOTAL FREE ENERGY PREDICTED BY IDOCK:   -6.70 KCAL/MOL
REMARK 923 INTER-LIGAND FREE ENERGY PREDICTED BY IDOCK:   -5.69 KCAL/MOL
REMARK 924 INTRA-LIGAND FREE ENERGY PREDICTED BY IDOCK:   -1.00 KCAL/MOL
REMARK 927      BINDING AFFINITY PREDICTED BY RF-SCORE:    0.00 PKD
ROOT
HETATM    1  C   UNL     1     -10.505   7.821  66.922  1.00  0.00    -0.388 C  
HETATM    2  C   UNL     1     -10.021   8.968  66.038  1.00  0.00    -0.176 C  
ENDROOT
BRANCH   2   3
HETATM    3  N   UNL     1      -8.631   8.833  65.563  1.00  0.00    -0.164 NA 
BRANCH   3   4
HETATM    4  C   UNL     1      -8.261   9.804  64.522  1.00  0.00    -0.156 C  
HETATM    5  C   UNL     1      -9.315  10.090  63.459  1.00  0.00    -0.301 C  
ENDBRANCH   3   4
BRANCH   3   6
HETATM    6  C   UNL     1      -7.710   8.820  66.723  1.00  0.00    -0.094 C  
BRANCH   6   7
HETATM    7  C   UNL     1      -6.351   9.495  66.485  1.00  0.00    -0.066 C  
BRANCH   7   8
HETATM    8  O   UNL     1      -5.992  10.294  67.621  1.00  0.00    -0.052 OA 
BRANCH   8   9
HETATM    9  C   UNL     1      -7.117  11.046  68.080  1.00  0.00    -0.077 C  
BRANCH   9  10
HETATM   10  C   UNL     1      -6.916  12.533  67.798  1.00  0.00    -0.121 C  
BRANCH  10  11
HETATM   11  O   UNL     1      -8.154  13.261  67.914  1.00  0.00    -0.132 OA 
BRANCH  11  12
HETATM   12  C   UNL     1      -8.025  14.612  68.063  1.00  0.00    -0.136 C  
HETATM   13  O   UNL     1      -7.116  15.141  68.695  1.00  0.00    -0.108 OA 
BRANCH  12  14
HETATM   14  C   UNL     1      -9.185  15.391  67.414  1.00  0.00    -0.204 C  
HETATM   15  C   UNL     1      -8.699  16.467  66.405  1.00  0.00    -0.357 C  
HETATM   16  C   UNL     1      -9.782  16.281  68.537  1.00  0.00    -0.224 C  
HETATM   17  C   UNL     1     -10.437  17.447  67.821  1.00  0.00    -0.376 C  
HETATM   18  C   UNL     1      -9.490  17.753  66.678  1.00  0.00    -0.299 C  
BRANCH  14  19
HETATM   19  C   UNL     1     -10.160  14.404  66.743  1.00  0.00    -0.266 A  
HETATM   20  C   UNL     1     -11.779  12.574  66.802  1.00  0.00    -0.453 A  
HETATM   21  C   UNL     1     -11.878  12.585  65.414  1.00  0.00    -0.479 A  
HETATM   22  C   UNL     1     -10.927  13.470  67.457  1.00  0.00    -0.283 A  
HETATM   23  C   UNL     1     -11.134  13.501  64.682  1.00  0.00    -0.383 A  
HETATM   24  C   UNL     1     -10.292  14.406  65.339  1.00  0.00    -0.400 A  
ENDBRANCH  14  19
ENDBRANCH  12  14
ENDBRANCH  11  12
ENDBRANCH  10  11
ENDBRANCH   9  10
ENDBRANCH   8   9
ENDBRANCH   7   8
ENDBRANCH   6   7
ENDBRANCH   3   6
ENDBRANCH   2   3
TORSDOF 11
ENDMDL
MODEL      299
REMARK 921   NORMALIZED FREE ENERGY PREDICTED BY IDOCK:   -3.57 KCAL/MOL
REMARK 922        TOTAL FREE ENERGY PREDICTED BY IDOCK:   -6.68 KCAL/MOL
REMARK 923 INTER-LIGAND FREE ENERGY PREDICTED BY IDOCK:   -5.88 KCAL/MOL
REMARK 924 INTRA-LIGAND FREE ENERGY PREDICTED BY IDOCK:   -0.81 KCAL/MOL
REMARK 927      BINDING AFFINITY PREDICTED BY RF-SCORE:    0.00 PKD
ROOT
HETATM    1  C   UNL     1      -6.913   8.334  63.810  1.00  0.00    -0.080 C  
HETATM    2  C   UNL     1      -8.123   7.670  64.463  1.00  0.00    -0.098 C  
ENDROOT
BRANCH   2   3
HETATM    3  N   UNL     1      -8.300   7.985  65.893  1.00  0.00    -0.126 NA 
BRANCH   3   4
HETATM    4  C   UNL     1      -7.054   8.369  66.576  1.00  0.00    -0.072 C  
HETATM    5  C   UNL     1      -6.356   7.275  67.374  1.00  0.00    -0.054 C  
ENDBRANCH   3   4
BRANCH   3   6
HETATM    6  C   UNL     1      -9.396   8.968  66.053  1.00  0.00    -0.242 C  
BRANCH   6   7
HETATM    7  C   UNL     1      -9.307  10.199  65.137  1.00  0.00    -0.235 C  
BRANCH   7   8
HETATM    8  O   UNL     1     -10.624  10.640  64.777  1.00  0.00    -0.291 OA 
BRANCH   8   9
HETATM    9  C   UNL     1     -10.563  11.555  63.680  1.00  0.00    -0.429 C  
BRANCH   9  10
HETATM   10  C   UNL     1     -10.180  12.949  64.170  1.00  0.00    -0.286 C  
BRANCH  10  11
HETATM   11  O   UNL     1     -10.885  13.293  65.378  1.00  0.00    -0.282 OA 
BRANCH  11  12
HETATM   12  C   UNL     1     -10.751  14.589  65.786  1.00  0.00    -0.315 C  
HETATM   13  O   UNL     1     -10.707  15.541  65.013  1.00  0.00    -0.413 OA 
BRANCH  12  14
HETATM   14  C   UNL     1     -10.588  14.714  67.313  1.00  0.00    -0.284 C  
HETATM   15  C   UNL     1      -9.815  13.520  67.937  1.00  0.00    -0.235 C  
HETATM   16  C   UNL     1     -12.004  14.501  67.912  1.00  0.00    -0.322 C  
HETATM   17  C   UNL     1     -11.773  14.001  69.325  1.00  0.00    -0.372 C  
HETATM   18  C   UNL     1     -10.575  13.080  69.195  1.00  0.00     0.005 C  
BRANCH  14  19
HETATM   19  C   UNL     1      -9.905  16.053  67.652  1.00  0.00    -0.235 A  
HETATM   20  C   UNL     1      -7.953  17.414  68.208  1.00  0.00    -0.253 A  
HETATM   21  C   UNL     1      -8.749  18.547  68.336  1.00  0.00    -0.351 A  
HETATM   22  C   UNL     1      -8.524  16.182  67.874  1.00  0.00    -0.166 A  
HETATM   23  C   UNL     1     -10.117  18.451  68.118  1.00  0.00    -0.408 A  
HETATM   24  C   UNL     1     -10.687  17.221  67.771  1.00  0.00    -0.333 A  
ENDBRANCH  14  19
ENDBRANCH  12  14
ENDBRANCH  11  12
ENDBRANCH  10  11
ENDBRANCH   9  10
ENDBRANCH   8   9
ENDBRANCH   7   8
ENDBRANCH   6   7
ENDBRANCH   3   6
ENDBRANCH   2   3
TORSDOF 11
ENDMDL
MODEL      300
REMARK 921   NORMALIZED FREE ENERGY PREDICTED BY IDOCK:   -3.57 KCAL/MOL
REMARK 922        TOTAL FREE ENERGY PREDICTED BY IDOCK:   -6.68 KCAL/MOL
REMARK 923 INTER-LIGAND FREE ENERGY PREDICTED BY IDOCK:   -5.70 KCAL/MOL
REMARK 924 INTRA-LIGAND FREE ENERGY PREDICTED BY IDOCK:   -0.97 KCAL/MOL
REMARK 927      BINDING AFFINITY PREDICTED BY RF-SCORE:    0.00 PKD
ROOT
HETATM    1  C   UNL     1      -8.038   9.599  63.400  1.00  0.00    -0.151 C  
HETATM    2  C   UNL     1      -8.081  10.284  64.765  1.00  0.00    -0.151 C  
ENDROOT
BRANCH   2   3
HETATM    3  N   UNL     1      -9.070   9.721  65.704  1.00  0.00    -0.164 NA 
BRANCH   3   4
HETATM    4  C   UNL     1      -8.757   9.974  67.119  1.00  0.00    -0.128 C  
HETATM    5  C   UNL     1      -9.567   9.186  68.141  1.00  0.00    -0.160 C  
ENDBRANCH   3   4
BRANCH   3   6
HETATM    6  C   UNL     1     -10.430  10.150  65.307  1.00  0.00     0.057 C  
BRANCH   6   7
HETATM    7  C   UNL     1     -10.729  11.644  65.512  1.00  0.00    -0.281 C  
BRANCH   7   8
HETATM    8  O   UNL     1     -11.740  11.809  66.517  1.00  0.00    -0.530 OA 
BRANCH   8   9
HETATM    9  C   UNL     1     -11.796  13.170  66.951  1.00  0.00    -0.386 C  
BRANCH   9  10
HETATM   10  C   UNL     1     -11.756  13.245  68.476  1.00  0.00    -0.352 C  
BRANCH  10  11
HETATM   11  O   UNL     1     -10.760  14.182  68.929  1.00  0.00    -0.251 OA 
BRANCH  11  12
HETATM   12  C   UNL     1     -11.150  15.490  68.940  1.00  0.00    -0.282 C  
HETATM   13  O   UNL     1     -12.200  15.880  69.443  1.00  0.00    -0.284 OA 
BRANCH  12  14
HETATM   14  C   UNL     1     -10.165  16.407  68.190  1.00  0.00    -0.262 C  
HETATM   15  C   UNL     1     -10.141  17.855  68.752  1.00  0.00    -0.384 C  
HETATM   16  C   UNL     1     -10.784  16.640  66.786  1.00  0.00    -0.133 C  
HETATM   17  C   UNL     1     -10.213  17.962  66.308  1.00  0.00    -0.363 C  
HETATM   18  C   UNL     1     -10.179  18.819  67.559  1.00  0.00    -0.444 C  
BRANCH  14  19
HETATM   19  C   UNL     1      -8.756  15.782  68.213  1.00  0.00    -0.172 A  
HETATM   20  C   UNL     1      -7.094  14.151  67.474  1.00  0.00    -0.184 A  
HETATM   21  C   UNL     1      -6.161  14.658  68.373  1.00  0.00    -0.102 A  
HETATM   22  C   UNL     1      -8.376  14.704  67.398  1.00  0.00    -0.223 A  
HETATM   23  C   UNL     1      -6.508  15.727  69.189  1.00  0.00    -0.143 A  
HETATM   24  C   UNL     1      -7.787  16.288  69.104  1.00  0.00    -0.231 A  
ENDBRANCH  14  19
ENDBRANCH  12  14
ENDBRANCH  11  12
ENDBRANCH  10  11
ENDBRANCH   9  10
ENDBRANCH   8   9
ENDBRANCH   7   8
ENDBRANCH   6   7
ENDBRANCH   3   6
ENDBRANCH   2   3
TORSDOF 11
ENDMDL
MODEL      301
REMARK 921   NORMALIZED FREE ENERGY PREDICTED BY IDOCK:   -3.56 KCAL/MOL
REMARK 922        TOTAL FREE ENERGY PREDICTED BY IDOCK:   -6.67 KCAL/MOL
REMARK 923 INTER-LIGAND FREE ENERGY PREDICTED BY IDOCK:   -5.49 KCAL/MOL
REMARK 924 INTRA-LIGAND FREE ENERGY PREDICTED BY IDOCK:   -1.18 KCAL/MOL
REMARK 927      BINDING AFFINITY PREDICTED BY RF-SCORE:    0.00 PKD
ROOT
HETATM    1  C   UNL     1      -8.859   4.426  73.121  1.00  0.00    -0.107 C  
HETATM    2  C   UNL     1      -8.851   5.925  72.827  1.00  0.00    -0.124 C  
ENDROOT
BRANCH   2   3
HETATM    3  N   UNL     1      -8.521   6.276  71.433  1.00  0.00    -0.127 NA 
BRANCH   3   4
HETATM    4  C   UNL     1      -8.775   5.193  70.471  1.00  0.00    -0.119 C  
HETATM    5  C   UNL     1     -10.126   5.219  69.765  1.00  0.00    -0.334 C  
ENDBRANCH   3   4
BRANCH   3   6
HETATM    6  C   UNL     1      -9.173   7.557  71.076  1.00  0.00    -0.152 C  
BRANCH   6   7
HETATM    7  C   UNL     1      -8.251   8.598  70.422  1.00  0.00    -0.120 C  
BRANCH   7   8
HETATM    8  O   UNL     1      -9.018   9.480  69.589  1.00  0.00    -0.159 OA 
BRANCH   8   9
HETATM    9  C   UNL     1     -10.296   9.737  70.176  1.00  0.00    -0.282 C  
BRANCH   9  10
HETATM   10  C   UNL     1     -11.407   9.521  69.152  1.00  0.00     0.133 C  
BRANCH  10  11
HETATM   11  O   UNL     1     -10.966   9.855  67.822  1.00  0.00    -0.282 OA 
BRANCH  11  12
HETATM   12  C   UNL     1     -11.223  11.136  67.425  1.00  0.00    -0.294 C  
HETATM   13  O   UNL     1     -12.127  11.822  67.893  1.00  0.00    -0.592 OA 
BRANCH  12  14
HETATM   14  C   UNL     1     -10.303  11.596  66.279  1.00  0.00    -0.273 C  
HETATM   15  C   UNL     1     -10.862  11.236  64.874  1.00  0.00    -0.299 C  
HETATM   16  C   UNL     1      -9.050  10.682  66.345  1.00  0.00    -0.183 C  
HETATM   17  C   UNL     1      -8.481  10.674  64.939  1.00  0.00    -0.116 C  
HETATM   18  C   UNL     1      -9.708  10.653  64.048  1.00  0.00    -0.373 C  
BRANCH  14  19
HETATM   19  C   UNL     1     -10.042  13.110  66.399  1.00  0.00    -0.281 A  
HETATM   20  C   UNL     1     -10.299  15.422  65.652  1.00  0.00    -0.395 A  
HETATM   21  C   UNL     1      -9.451  15.868  66.661  1.00  0.00    -0.263 A  
HETATM   22  C   UNL     1     -10.587  14.060  65.521  1.00  0.00    -0.327 A  
HETATM   23  C   UNL     1      -8.901  14.951  67.547  1.00  0.00    -0.195 A  
HETATM   24  C   UNL     1      -9.200  13.590  67.423  1.00  0.00    -0.223 A  
ENDBRANCH  14  19
ENDBRANCH  12  14
ENDBRANCH  11  12
ENDBRANCH  10  11
ENDBRANCH   9  10
ENDBRANCH   8   9
ENDBRANCH   7   8
ENDBRANCH   6   7
ENDBRANCH   3   6
ENDBRANCH   2   3
TORSDOF 11
ENDMDL
MODEL      302
REMARK 921   NORMALIZED FREE ENERGY PREDICTED BY IDOCK:   -3.51 KCAL/MOL
REMARK 922        TOTAL FREE ENERGY PREDICTED BY IDOCK:   -6.58 KCAL/MOL
REMARK 923 INTER-LIGAND FREE ENERGY PREDICTED BY IDOCK:   -5.29 KCAL/MOL
REMARK 924 INTRA-LIGAND FREE ENERGY PREDICTED BY IDOCK:   -1.30 KCAL/MOL
REMARK 927      BINDING AFFINITY PREDICTED BY RF-SCORE:    0.00 PKD
ROOT
HETATM    1  C   UNL     1      -9.801  15.210  66.220  1.00  0.00    -0.317 C  
HETATM    2  C   UNL     1     -10.135  13.804  65.724  1.00  0.00    -0.307 C  
ENDROOT
BRANCH   2   3
HETATM    3  N   UNL     1     -11.515  13.366  66.005  1.00  0.00    -0.318 NA 
BRANCH   3   4
HETATM    4  C   UNL     1     -12.114  12.562  64.929  1.00  0.00    -0.440 C  
HETATM    5  C   UNL     1     -11.811  13.007  63.503  1.00  0.00    -0.582 C  
ENDBRANCH   3   4
BRANCH   3   6
HETATM    6  C   UNL     1     -11.568  12.717  67.336  1.00  0.00    -0.356 C  
BRANCH   6   7
HETATM    7  C   UNL     1     -11.358  11.195  67.328  1.00  0.00    -0.226 C  
BRANCH   7   8
HETATM    8  O   UNL     1      -9.985  10.886  67.612  1.00  0.00    -0.169 OA 
BRANCH   8   9
HETATM    9  C   UNL     1      -9.632  11.335  68.922  1.00  0.00    -0.105 C  
BRANCH   9  10
HETATM   10  C   UNL     1      -8.153  11.072  69.195  1.00  0.00    -0.061 C  
BRANCH  10  11
HETATM   11  O   UNL     1      -7.855   9.664  69.158  1.00  0.00    -0.081 OA 
BRANCH  11  12
HETATM   12  C   UNL     1      -8.336   8.936  70.208  1.00  0.00    -0.147 C  
HETATM   13  O   UNL     1      -8.154   9.239  71.383  1.00  0.00    -0.330 OA 
BRANCH  12  14
HETATM   14  C   UNL     1      -9.070   7.659  69.754  1.00  0.00    -0.147 C  
HETATM   15  C   UNL     1     -10.609   7.848  69.662  1.00  0.00    -0.234 C  
HETATM   16  C   UNL     1      -8.961   6.662  70.938  1.00  0.00    -0.147 C  
HETATM   17  C   UNL     1     -10.144   5.725  70.787  1.00  0.00    -0.260 C  
HETATM   18  C   UNL     1     -11.269   6.629  70.320  1.00  0.00    -0.408 C  
BRANCH  14  19
HETATM   19  C   UNL     1      -8.490   7.179  68.410  1.00  0.00    -0.124 A  
HETATM   20  C   UNL     1      -8.639   6.763  66.006  1.00  0.00    -0.149 A  
HETATM   21  C   UNL     1      -7.363   6.209  65.998  1.00  0.00    -0.080 A  
HETATM   22  C   UNL     1      -9.197   7.238  67.198  1.00  0.00    -0.156 A  
HETATM   23  C   UNL     1      -6.639   6.142  67.181  1.00  0.00    -0.055 A  
HETATM   24  C   UNL     1      -7.192   6.629  68.371  1.00  0.00    -0.085 A  
ENDBRANCH  14  19
ENDBRANCH  12  14
ENDBRANCH  11  12
ENDBRANCH  10  11
ENDBRANCH   9  10
ENDBRANCH   8   9
ENDBRANCH   7   8
ENDBRANCH   6   7
ENDBRANCH   3   6
ENDBRANCH   2   3
TORSDOF 11
ENDMDL
MODEL      303
REMARK 921   NORMALIZED FREE ENERGY PREDICTED BY IDOCK:   -3.51 KCAL/MOL
REMARK 922        TOTAL FREE ENERGY PREDICTED BY IDOCK:   -6.58 KCAL/MOL
REMARK 923 INTER-LIGAND FREE ENERGY PREDICTED BY IDOCK:   -5.29 KCAL/MOL
REMARK 924 INTRA-LIGAND FREE ENERGY PREDICTED BY IDOCK:   -1.29 KCAL/MOL
REMARK 927      BINDING AFFINITY PREDICTED BY RF-SCORE:    0.00 PKD
ROOT
HETATM    1  C   UNL     1     -10.785  16.852  68.043  1.00  0.00    -0.364 C  
HETATM    2  C   UNL     1     -10.598  15.349  67.847  1.00  0.00    -0.267 C  
ENDROOT
BRANCH   2   3
HETATM    3  N   UNL     1     -11.362  14.776  66.723  1.00  0.00    -0.347 NA 
BRANCH   3   4
HETATM    4  C   UNL     1     -10.699  14.921  65.418  1.00  0.00    -0.377 C  
HETATM    5  C   UNL     1     -11.408  15.798  64.393  1.00  0.00    -0.274 C  
ENDBRANCH   3   4
BRANCH   3   6
HETATM    6  C   UNL     1     -11.750  13.384  67.046  1.00  0.00    -0.381 C  
BRANCH   6   7
HETATM    7  C   UNL     1     -11.883  13.074  68.545  1.00  0.00    -0.325 C  
BRANCH   7   8
HETATM    8  O   UNL     1     -10.969  12.031  68.915  1.00  0.00    -0.221 OA 
BRANCH   8   9
HETATM    9  C   UNL     1     -10.128  11.689  67.812  1.00  0.00    -0.187 C  
BRANCH   9  10
HETATM   10  C   UNL     1      -8.686  12.105  68.092  1.00  0.00    -0.185 C  
BRANCH  10  11
HETATM   11  O   UNL     1      -8.068  11.238  69.063  1.00  0.00    -0.127 OA 
BRANCH  11  12
HETATM   12  C   UNL     1      -7.667  10.022  68.589  1.00  0.00    -0.086 C  
HETATM   13  O   UNL     1      -6.934   9.882  67.615  1.00  0.00    -0.084 OA 
BRANCH  12  14
HETATM   14  C   UNL     1      -8.294   8.849  69.368  1.00  0.00    -0.112 C  
HETATM   15  C   UNL     1      -9.241   9.318  70.507  1.00  0.00    -0.311 C  
HETATM   16  C   UNL     1      -7.136   8.213  70.184  1.00  0.00    -0.048 C  
HETATM   17  C   UNL     1      -7.802   7.535  71.366  1.00  0.00    -0.093 C  
HETATM   18  C   UNL     1      -8.915   8.488  71.755  1.00  0.00    -0.288 C  
BRANCH  14  19
HETATM   19  C   UNL     1      -9.027   7.911  68.390  1.00  0.00    -0.133 A  
HETATM   20  C   UNL     1     -11.021   7.139  67.207  1.00  0.00    -0.333 A  
HETATM   21  C   UNL     1     -10.303   6.096  66.629  1.00  0.00    -0.249 A  
HETATM   22  C   UNL     1     -10.391   8.032  68.080  1.00  0.00    -0.262 A  
HETATM   23  C   UNL     1      -8.952   5.955  66.914  1.00  0.00    -0.115 A  
HETATM   24  C   UNL     1      -8.319   6.857  67.777  1.00  0.00    -0.120 A  
ENDBRANCH  14  19
ENDBRANCH  12  14
ENDBRANCH  11  12
ENDBRANCH  10  11
ENDBRANCH   9  10
ENDBRANCH   8   9
ENDBRANCH   7   8
ENDBRANCH   6   7
ENDBRANCH   3   6
ENDBRANCH   2   3
TORSDOF 11
ENDMDL
MODEL      304
REMARK 921   NORMALIZED FREE ENERGY PREDICTED BY IDOCK:   -3.50 KCAL/MOL
REMARK 922        TOTAL FREE ENERGY PREDICTED BY IDOCK:   -6.56 KCAL/MOL
REMARK 923 INTER-LIGAND FREE ENERGY PREDICTED BY IDOCK:   -5.26 KCAL/MOL
REMARK 924 INTRA-LIGAND FREE ENERGY PREDICTED BY IDOCK:   -1.30 KCAL/MOL
REMARK 927      BINDING AFFINITY PREDICTED BY RF-SCORE:    0.00 PKD
ROOT
HETATM    1  C   UNL     1     -10.745  10.834  66.794  1.00  0.00    -0.291 C  
HETATM    2  C   UNL     1     -11.436  11.173  68.113  1.00  0.00    -0.303 C  
ENDROOT
BRANCH   2   3
HETATM    3  N   UNL     1     -10.596  10.987  69.311  1.00  0.00    -0.219 NA 
BRANCH   3   4
HETATM    4  C   UNL     1     -11.253  10.227  70.386  1.00  0.00    -0.332 C  
HETATM    5  C   UNL     1     -12.668  10.660  70.752  1.00  0.00    -0.468 C  
ENDBRANCH   3   4
BRANCH   3   6
HETATM    6  C   UNL     1      -9.278  10.440  68.913  1.00  0.00    -0.177 C  
BRANCH   6   7
HETATM    7  C   UNL     1      -9.050   8.963  69.270  1.00  0.00    -0.145 C  
BRANCH   7   8
HETATM    8  O   UNL     1      -7.648   8.712  69.450  1.00  0.00    -0.088 OA 
BRANCH   8   9
HETATM    9  C   UNL     1      -7.312   8.726  70.839  1.00  0.00    -0.087 C  
BRANCH   9  10
HETATM   10  C   UNL     1      -7.043   7.308  71.337  1.00  0.00    -0.064 C  
BRANCH  10  11
HETATM   11  O   UNL     1      -7.352   6.329  70.327  1.00  0.00    -0.083 OA 
BRANCH  11  12
HETATM   12  C   UNL     1      -7.569   5.062  70.787  1.00  0.00    -0.074 C  
HETATM   13  O   UNL     1      -6.804   4.477  71.547  1.00  0.00    -0.029 OA 
BRANCH  12  14
HETATM   14  C   UNL     1      -8.840   4.427  70.191  1.00  0.00    -0.126 C  
HETATM   15  C   UNL     1      -8.955   2.908  70.495  1.00  0.00    -0.169 C  
HETATM   16  C   UNL     1      -8.627   4.410  68.654  1.00  0.00    -0.108 C  
HETATM   17  C   UNL     1      -9.499   3.280  68.139  1.00  0.00    -0.215 C  
HETATM   18  C   UNL     1      -9.362   2.202  69.196  1.00  0.00    -0.184 C  
BRANCH  14  19
HETATM   19  C   UNL     1     -10.083   5.187  70.693  1.00  0.00    -0.309 A  
HETATM   20  C   UNL     1     -12.031   6.623  70.356  1.00  0.00    -0.342 A  
HETATM   21  C   UNL     1     -12.310   6.605  71.719  1.00  0.00    -0.385 A  
HETATM   22  C   UNL     1     -10.929   5.926  69.851  1.00  0.00    -0.444 A  
HETATM   23  C   UNL     1     -11.493   5.879  72.575  1.00  0.00    -0.347 A  
HETATM   24  C   UNL     1     -10.398   5.171  72.067  1.00  0.00    -0.274 A  
ENDBRANCH  14  19
ENDBRANCH  12  14
ENDBRANCH  11  12
ENDBRANCH  10  11
ENDBRANCH   9  10
ENDBRANCH   8   9
ENDBRANCH   7   8
ENDBRANCH   6   7
ENDBRANCH   3   6
ENDBRANCH   2   3
TORSDOF 11
ENDMDL
MODEL      305
REMARK 921   NORMALIZED FREE ENERGY PREDICTED BY IDOCK:   -3.49 KCAL/MOL
REMARK 922        TOTAL FREE ENERGY PREDICTED BY IDOCK:   -6.56 KCAL/MOL
REMARK 923 INTER-LIGAND FREE ENERGY PREDICTED BY IDOCK:   -5.62 KCAL/MOL
REMARK 924 INTRA-LIGAND FREE ENERGY PREDICTED BY IDOCK:   -0.94 KCAL/MOL
REMARK 927      BINDING AFFINITY PREDICTED BY RF-SCORE:    0.00 PKD
ROOT
HETATM    1  C   UNL     1      -8.518  16.026  68.616  1.00  0.00    -0.208 C  
HETATM    2  C   UNL     1      -8.316  14.657  67.972  1.00  0.00    -0.146 C  
ENDROOT
BRANCH   2   3
HETATM    3  N   UNL     1      -9.531  14.078  67.367  1.00  0.00    -0.218 NA 
BRANCH   3   4
HETATM    4  C   UNL     1      -9.733  14.457  65.960  1.00  0.00    -0.294 C  
HETATM    5  C   UNL     1     -11.050  15.147  65.628  1.00  0.00    -0.334 C  
ENDBRANCH   3   4
BRANCH   3   6
HETATM    6  C   UNL     1      -9.553  12.616  67.601  1.00  0.00    -0.188 C  
BRANCH   6   7
HETATM    7  C   UNL     1      -9.112  11.757  66.406  1.00  0.00    -0.213 C  
BRANCH   7   8
HETATM    8  O   UNL     1      -8.866  10.409  66.832  1.00  0.00    -0.133 OA 
BRANCH   8   9
HETATM    9  C   UNL     1      -9.994   9.580  66.544  1.00  0.00    -0.261 C  
BRANCH   9  10
HETATM   10  C   UNL     1     -10.857   9.401  67.791  1.00  0.00    -0.159 C  
BRANCH  10  11
HETATM   11  O   UNL     1     -10.303   8.407  68.674  1.00  0.00    -0.203 OA 
BRANCH  11  12
HETATM   12  C   UNL     1      -9.991   8.847  69.927  1.00  0.00    -0.188 C  
HETATM   13  O   UNL     1      -9.153   9.715  70.152  1.00  0.00    -0.222 OA 
BRANCH  12  14
HETATM   14  C   UNL     1     -10.752   8.084  71.028  1.00  0.00    -0.245 C  
HETATM   15  C   UNL     1     -11.704   6.996  70.460  1.00  0.00    -0.359 C  
HETATM   16  C   UNL     1     -11.771   9.095  71.620  1.00  0.00    -0.448 C  
HETATM   17  C   UNL     1     -12.890   8.248  72.197  1.00  0.00    -0.348 C  
HETATM   18  C   UNL     1     -13.044   7.116  71.199  1.00  0.00    -0.294 C  
BRANCH  14  19
HETATM   19  C   UNL     1      -9.748   7.474  72.025  1.00  0.00    -0.195 A  
HETATM   20  C   UNL     1      -8.538   5.594  73.010  1.00  0.00    -0.121 A  
HETATM   21  C   UNL     1      -7.937   6.436  73.940  1.00  0.00    -0.100 A  
HETATM   22  C   UNL     1      -9.435   6.106  72.068  1.00  0.00    -0.161 A  
HETATM   23  C   UNL     1      -8.224   7.795  73.919  1.00  0.00    -0.263 A  
HETATM   24  C   UNL     1      -9.112   8.309  72.967  1.00  0.00    -0.319 A  
ENDBRANCH  14  19
ENDBRANCH  12  14
ENDBRANCH  11  12
ENDBRANCH  10  11
ENDBRANCH   9  10
ENDBRANCH   8   9
ENDBRANCH   7   8
ENDBRANCH   6   7
ENDBRANCH   3   6
ENDBRANCH   2   3
TORSDOF 11
ENDMDL
MODEL      306
REMARK 921   NORMALIZED FREE ENERGY PREDICTED BY IDOCK:   -3.49 KCAL/MOL
REMARK 922        TOTAL FREE ENERGY PREDICTED BY IDOCK:   -6.55 KCAL/MOL
REMARK 923 INTER-LIGAND FREE ENERGY PREDICTED BY IDOCK:   -5.49 KCAL/MOL
REMARK 924 INTRA-LIGAND FREE ENERGY PREDICTED BY IDOCK:   -1.06 KCAL/MOL
REMARK 927      BINDING AFFINITY PREDICTED BY RF-SCORE:    0.00 PKD
ROOT
HETATM    1  C   UNL     1      -8.452   7.676  67.259  1.00  0.00    -0.121 C  
HETATM    2  C   UNL     1      -9.901   7.648  67.742  1.00  0.00    -0.158 C  
ENDROOT
BRANCH   2   3
HETATM    3  N   UNL     1     -10.066   7.809  69.199  1.00  0.00    -0.191 NA 
BRANCH   3   4
HETATM    4  C   UNL     1      -8.895   7.383  69.980  1.00  0.00    -0.141 C  
HETATM    5  C   UNL     1      -9.105   7.226  71.481  1.00  0.00    -0.145 C  
ENDBRANCH   3   4
BRANCH   3   6
HETATM    6  C   UNL     1     -10.514   9.189  69.498  1.00  0.00    -0.219 C  
BRANCH   6   7
HETATM    7  C   UNL     1     -11.831   9.291  70.283  1.00  0.00     0.024 C  
BRANCH   7   8
HETATM    8  O   UNL     1     -11.693  10.236  71.354  1.00  0.00    -0.341 OA 
BRANCH   8   9
HETATM    9  C   UNL     1     -12.681  11.264  71.244  1.00  0.00    -0.405 C  
BRANCH   9  10
HETATM   10  C   UNL     1     -12.039  12.576  70.801  1.00  0.00    -0.146 C  
BRANCH  10  11
HETATM   11  O   UNL     1     -11.626  12.519  69.423  1.00  0.00    -0.284 OA 
BRANCH  11  12
HETATM   12  C   UNL     1     -12.072  13.543  68.637  1.00  0.00    -0.268 C  
HETATM   13  O   UNL     1     -12.864  14.398  69.022  1.00  0.00     0.300 OA 
BRANCH  12  14
HETATM   14  C   UNL     1     -11.527  13.463  67.198  1.00  0.00    -0.373 C  
HETATM   15  C   UNL     1     -12.469  14.129  66.158  1.00  0.00    -0.426 C  
HETATM   16  C   UNL     1     -11.633  11.970  66.785  1.00  0.00    -0.391 C  
HETATM   17  C   UNL     1     -11.718  11.976  65.270  1.00  0.00    -0.312 C  
HETATM   18  C   UNL     1     -12.584  13.181  64.957  1.00  0.00    -0.499 C  
BRANCH  14  19
HETATM   19  C   UNL     1     -10.117  14.081  67.142  1.00  0.00    -0.259 A  
HETATM   20  C   UNL     1      -7.788  14.243  67.865  1.00  0.00    -0.156 A  
HETATM   21  C   UNL     1      -7.576  15.326  67.018  1.00  0.00    -0.161 A  
HETATM   22  C   UNL     1      -9.044  13.631  67.929  1.00  0.00    -0.198 A  
HETATM   23  C   UNL     1      -8.617  15.790  66.226  1.00  0.00    -0.307 A  
HETATM   24  C   UNL     1      -9.870  15.169  66.280  1.00  0.00    -0.317 A  
ENDBRANCH  14  19
ENDBRANCH  12  14
ENDBRANCH  11  12
ENDBRANCH  10  11
ENDBRANCH   9  10
ENDBRANCH   8   9
ENDBRANCH   7   8
ENDBRANCH   6   7
ENDBRANCH   3   6
ENDBRANCH   2   3
TORSDOF 11
ENDMDL
MODEL      307
REMARK 921   NORMALIZED FREE ENERGY PREDICTED BY IDOCK:   -3.47 KCAL/MOL
REMARK 922        TOTAL FREE ENERGY PREDICTED BY IDOCK:   -6.52 KCAL/MOL
REMARK 923 INTER-LIGAND FREE ENERGY PREDICTED BY IDOCK:   -5.03 KCAL/MOL
REMARK 924 INTRA-LIGAND FREE ENERGY PREDICTED BY IDOCK:   -1.50 KCAL/MOL
REMARK 927      BINDING AFFINITY PREDICTED BY RF-SCORE:    0.00 PKD
ROOT
HETATM    1  C   UNL     1      -8.287  13.671  67.299  1.00  0.00    -0.182 C  
HETATM    2  C   UNL     1      -8.952  12.337  66.968  1.00  0.00    -0.204 C  
ENDROOT
BRANCH   2   3
HETATM    3  N   UNL     1     -10.425  12.385  66.902  1.00  0.00    -0.223 NA 
BRANCH   3   4
HETATM    4  C   UNL     1     -10.969  13.742  66.742  1.00  0.00    -0.304 C  
HETATM    5  C   UNL     1     -12.375  13.843  66.163  1.00  0.00    -0.504 C  
ENDBRANCH   3   4
BRANCH   3   6
HETATM    6  C   UNL     1     -10.906  11.424  65.882  1.00  0.00    -0.234 C  
BRANCH   6   7
HETATM    7  C   UNL     1     -10.193  11.502  64.524  1.00  0.00    -0.288 C  
BRANCH   7   8
HETATM    8  O   UNL     1      -9.868  10.183  64.062  1.00  0.00    -0.290 OA 
BRANCH   8   9
HETATM    9  C   UNL     1      -8.566  10.165  63.474  1.00  0.00    -0.200 C  
BRANCH   9  10
HETATM   10  C   UNL     1      -7.683   9.129  64.165  1.00  0.00    -0.121 C  
BRANCH  10  11
HETATM   11  O   UNL     1      -8.434   8.347  65.112  1.00  0.00    -0.168 OA 
BRANCH  11  12
HETATM   12  C   UNL     1      -7.867   8.219  66.347  1.00  0.00    -0.095 C  
HETATM   13  O   UNL     1      -6.750   8.644  66.627  1.00  0.00    -0.066 OA 
BRANCH  12  14
HETATM   14  C   UNL     1      -8.752   7.423  67.325  1.00  0.00    -0.121 C  
HETATM   15  C   UNL     1      -8.618   5.886  67.146  1.00  0.00    -0.106 C  
HETATM   16  C   UNL     1     -10.215   7.652  66.858  1.00  0.00    -0.365 C  
HETATM   17  C   UNL     1     -10.990   6.447  67.356  1.00  0.00    -0.463 C  
HETATM   18  C   UNL     1     -10.031   5.289  67.162  1.00  0.00    -0.211 C  
BRANCH  14  19
HETATM   19  C   UNL     1      -8.431   7.842  68.773  1.00  0.00    -0.128 A  
HETATM   20  C   UNL     1      -7.402   7.479  70.959  1.00  0.00    -0.071 A  
HETATM   21  C   UNL     1      -7.950   8.664  71.440  1.00  0.00    -0.174 A  
HETATM   22  C   UNL     1      -7.643   7.072  69.643  1.00  0.00    -0.104 A  
HETATM   23  C   UNL     1      -8.731   9.448  70.601  1.00  0.00    -0.263 A  
HETATM   24  C   UNL     1      -8.961   9.046  69.280  1.00  0.00    -0.144 A  
ENDBRANCH  14  19
ENDBRANCH  12  14
ENDBRANCH  11  12
ENDBRANCH  10  11
ENDBRANCH   9  10
ENDBRANCH   8   9
ENDBRANCH   7   8
ENDBRANCH   6   7
ENDBRANCH   3   6
ENDBRANCH   2   3
TORSDOF 11
ENDMDL
MODEL      308
REMARK 921   NORMALIZED FREE ENERGY PREDICTED BY IDOCK:   -3.47 KCAL/MOL
REMARK 922        TOTAL FREE ENERGY PREDICTED BY IDOCK:   -6.52 KCAL/MOL
REMARK 923 INTER-LIGAND FREE ENERGY PREDICTED BY IDOCK:   -5.43 KCAL/MOL
REMARK 924 INTRA-LIGAND FREE ENERGY PREDICTED BY IDOCK:   -1.10 KCAL/MOL
REMARK 927      BINDING AFFINITY PREDICTED BY RF-SCORE:    0.00 PKD
ROOT
HETATM    1  C   UNL     1     -11.348  16.225  71.003  1.00  0.00    -0.315 C  
HETATM    2  C   UNL     1     -12.411  15.266  70.472  1.00  0.00    -0.405 C  
ENDROOT
BRANCH   2   3
HETATM    3  N   UNL     1     -12.034  13.841  70.526  1.00  0.00    -0.319 NA 
BRANCH   3   4
HETATM    4  C   UNL     1     -12.834  13.050  71.474  1.00  0.00    -0.290 C  
HETATM    5  C   UNL     1     -13.607  13.836  72.527  1.00  0.00    -0.680 C  
ENDBRANCH   3   4
BRANCH   3   6
HETATM    6  C   UNL     1     -12.008  13.282  69.155  1.00  0.00    -0.296 C  
BRANCH   6   7
HETATM    7  C   UNL     1     -11.730  14.303  68.040  1.00  0.00    -0.351 C  
BRANCH   7   8
HETATM    8  O   UNL     1     -10.934  13.701  67.009  1.00  0.00    -0.284 OA 
BRANCH   8   9
HETATM    9  C   UNL     1     -10.666  12.332  67.319  1.00  0.00    -0.231 C  
BRANCH   9  10
HETATM   10  C   UNL     1     -10.103  11.609  66.098  1.00  0.00    -0.224 C  
BRANCH  10  11
HETATM   11  O   UNL     1      -9.734  10.253  66.415  1.00  0.00    -0.183 OA 
BRANCH  11  12
HETATM   12  C   UNL     1      -8.525  10.106  67.032  1.00  0.00    -0.129 C  
HETATM   13  O   UNL     1      -7.495  10.648  66.644  1.00  0.00    -0.115 OA 
BRANCH  12  14
HETATM   14  C   UNL     1      -8.585   9.128  68.222  1.00  0.00    -0.129 C  
HETATM   15  C   UNL     1      -9.801   9.385  69.153  1.00  0.00    -0.174 C  
HETATM   16  C   UNL     1      -7.406   9.518  69.153  1.00  0.00    -0.072 C  
HETATM   17  C   UNL     1      -7.811   9.044  70.536  1.00  0.00    -0.138 C  
HETATM   18  C   UNL     1      -9.298   9.335  70.602  1.00  0.00    -0.329 C  
BRANCH  14  19
HETATM   19  C   UNL     1      -8.584   7.678  67.701  1.00  0.00    -0.116 A  
HETATM   20  C   UNL     1      -7.460   5.654  66.920  1.00  0.00    -0.088 A  
HETATM   21  C   UNL     1      -8.684   5.036  66.684  1.00  0.00    -0.108 A  
HETATM   22  C   UNL     1      -7.411   6.959  67.419  1.00  0.00    -0.092 A  
HETATM   23  C   UNL     1      -9.860   5.721  66.958  1.00  0.00    -0.171 A  
HETATM   24  C   UNL     1      -9.811   7.023  67.469  1.00  0.00    -0.186 A  
ENDBRANCH  14  19
ENDBRANCH  12  14
ENDBRANCH  11  12
ENDBRANCH  10  11
ENDBRANCH   9  10
ENDBRANCH   8   9
ENDBRANCH   7   8
ENDBRANCH   6   7
ENDBRANCH   3   6
ENDBRANCH   2   3
TORSDOF 11
ENDMDL
MODEL      309
REMARK 921   NORMALIZED FREE ENERGY PREDICTED BY IDOCK:   -3.47 KCAL/MOL
REMARK 922        TOTAL FREE ENERGY PREDICTED BY IDOCK:   -6.51 KCAL/MOL
REMARK 923 INTER-LIGAND FREE ENERGY PREDICTED BY IDOCK:   -5.62 KCAL/MOL
REMARK 924 INTRA-LIGAND FREE ENERGY PREDICTED BY IDOCK:   -0.89 KCAL/MOL
REMARK 927      BINDING AFFINITY PREDICTED BY RF-SCORE:    0.00 PKD
ROOT
HETATM    1  C   UNL     1      -8.520  19.118  66.988  1.00  0.00    -0.304 C  
HETATM    2  C   UNL     1      -7.408  18.130  67.335  1.00  0.00    -0.210 C  
ENDROOT
BRANCH   2   3
HETATM    3  N   UNL     1      -7.480  16.845  66.614  1.00  0.00    -0.239 NA 
BRANCH   3   4
HETATM    4  C   UNL     1      -7.300  15.668  67.477  1.00  0.00    -0.185 C  
HETATM    5  C   UNL     1      -5.924  15.012  67.447  1.00  0.00     0.158 C  
ENDBRANCH   3   4
BRANCH   3   6
HETATM    6  C   UNL     1      -8.715  16.804  65.797  1.00  0.00     0.165 C  
BRANCH   6   7
HETATM    7  C   UNL     1      -9.631  15.598  66.060  1.00  0.00    -0.351 C  
BRANCH   7   8
HETATM    8  O   UNL     1     -10.905  15.801  65.431  1.00  0.00    -0.360 OA 
BRANCH   8   9
HETATM    9  C   UNL     1     -11.499  14.547  65.089  1.00  0.00    -0.368 C  
BRANCH   9  10
HETATM   10  C   UNL     1     -11.306  13.539  66.219  1.00  0.00    -0.309 C  
BRANCH  10  11
HETATM   11  O   UNL     1     -11.389  12.185  65.734  1.00  0.00    -0.330 OA 
BRANCH  11  12
HETATM   12  C   UNL     1     -11.268  11.214  66.686  1.00  0.00    -0.114 C  
HETATM   13  O   UNL     1     -12.008  11.126  67.662  1.00  0.00    -0.613 OA 
BRANCH  12  14
HETATM   14  C   UNL     1     -10.060  10.291  66.438  1.00  0.00    -0.296 C  
HETATM   15  C   UNL     1      -8.701  10.978  66.747  1.00  0.00    -0.152 C  
HETATM   16  C   UNL     1      -9.965  10.117  64.899  1.00  0.00    -0.358 C  
HETATM   17  C   UNL     1      -8.512   9.784  64.619  1.00  0.00    -0.179 C  
HETATM   18  C   UNL     1      -7.743  10.656  65.593  1.00  0.00    -0.109 C  
BRANCH  14  19
HETATM   19  C   UNL     1     -10.222   8.995  67.256  1.00  0.00    -0.323 A  
HETATM   20  C   UNL     1     -10.114   7.712  69.332  1.00  0.00    -0.196 A  
HETATM   21  C   UNL     1     -10.484   6.550  68.662  1.00  0.00    -0.252 A  
HETATM   22  C   UNL     1      -9.981   8.918  68.637  1.00  0.00    -0.192 A  
HETATM   23  C   UNL     1     -10.734   6.598  67.297  1.00  0.00    -0.427 A  
HETATM   24  C   UNL     1     -10.613   7.807  66.604  1.00  0.00    -0.080 A  
ENDBRANCH  14  19
ENDBRANCH  12  14
ENDBRANCH  11  12
ENDBRANCH  10  11
ENDBRANCH   9  10
ENDBRANCH   8   9
ENDBRANCH   7   8
ENDBRANCH   6   7
ENDBRANCH   3   6
ENDBRANCH   2   3
TORSDOF 11
ENDMDL
MODEL      310
REMARK 921   NORMALIZED FREE ENERGY PREDICTED BY IDOCK:   -3.47 KCAL/MOL
REMARK 922        TOTAL FREE ENERGY PREDICTED BY IDOCK:   -6.51 KCAL/MOL
REMARK 923 INTER-LIGAND FREE ENERGY PREDICTED BY IDOCK:   -5.60 KCAL/MOL
REMARK 924 INTRA-LIGAND FREE ENERGY PREDICTED BY IDOCK:   -0.91 KCAL/MOL
REMARK 927      BINDING AFFINITY PREDICTED BY RF-SCORE:    0.00 PKD
ROOT
HETATM    1  C   UNL     1      -9.895  15.251  65.606  1.00  0.00    -0.383 C  
HETATM    2  C   UNL     1     -11.394  14.979  65.495  1.00  0.00    -0.312 C  
ENDROOT
BRANCH   2   3
HETATM    3  N   UNL     1     -11.779  13.570  65.706  1.00  0.00    -0.332 NA 
BRANCH   3   4
HETATM    4  C   UNL     1     -11.158  12.635  64.756  1.00  0.00    -0.300 C  
HETATM    5  C   UNL     1     -11.977  12.284  63.519  1.00  0.00    -0.625 C  
ENDBRANCH   3   4
BRANCH   3   6
HETATM    6  C   UNL     1     -11.570  13.206  67.126  1.00  0.00    -0.361 C  
BRANCH   6   7
HETATM    7  C   UNL     1     -10.498  12.134  67.374  1.00  0.00    -0.213 C  
BRANCH   7   8
HETATM    8  O   UNL     1     -10.906  11.268  68.443  1.00  0.00    -0.180 OA 
BRANCH   8   9
HETATM    9  C   UNL     1     -10.792   9.899  68.050  1.00  0.00    -0.243 C  
BRANCH   9  10
HETATM   10  C   UNL     1     -10.660   9.000  69.277  1.00  0.00    -0.213 C  
BRANCH  10  11
HETATM   11  O   UNL     1      -9.707   7.944  69.054  1.00  0.00    -0.158 OA 
BRANCH  11  12
HETATM   12  C   UNL     1     -10.240   6.693  68.927  1.00  0.00    -0.177 C  
HETATM   13  O   UNL     1     -11.305   6.464  68.362  1.00  0.00    -0.280 OA 
BRANCH  12  14
HETATM   14  C   UNL     1      -9.394   5.616  69.633  1.00  0.00    -0.171 C  
HETATM   15  C   UNL     1     -10.049   5.097  70.943  1.00  0.00    -0.302 C  
HETATM   16  C   UNL     1      -8.148   6.353  70.193  1.00  0.00    -0.120 C  
HETATM   17  C   UNL     1      -7.674   5.511  71.363  1.00  0.00    -0.109 C  
HETATM   18  C   UNL     1      -8.958   5.043  72.020  1.00  0.00    -0.145 C  
BRANCH  14  19
HETATM   19  C   UNL     1      -9.113   4.457  68.658  1.00  0.00    -0.171 A  
HETATM   20  C   UNL     1      -8.388   3.561  66.503  1.00  0.00    -0.101 A  
HETATM   21  C   UNL     1      -8.690   2.267  66.912  1.00  0.00    -0.135 A  
HETATM   22  C   UNL     1      -8.600   4.643  67.364  1.00  0.00    -0.104 A  
HETATM   23  C   UNL     1      -9.195   2.052  68.188  1.00  0.00    -0.235 A  
HETATM   24  C   UNL     1      -9.395   3.133  69.053  1.00  0.00    -0.230 A  
ENDBRANCH  14  19
ENDBRANCH  12  14
ENDBRANCH  11  12
ENDBRANCH  10  11
ENDBRANCH   9  10
ENDBRANCH   8   9
ENDBRANCH   7   8
ENDBRANCH   6   7
ENDBRANCH   3   6
ENDBRANCH   2   3
TORSDOF 11
ENDMDL
MODEL      311
REMARK 921   NORMALIZED FREE ENERGY PREDICTED BY IDOCK:   -3.46 KCAL/MOL
REMARK 922        TOTAL FREE ENERGY PREDICTED BY IDOCK:   -6.51 KCAL/MOL
REMARK 923 INTER-LIGAND FREE ENERGY PREDICTED BY IDOCK:   -5.64 KCAL/MOL
REMARK 924 INTRA-LIGAND FREE ENERGY PREDICTED BY IDOCK:   -0.87 KCAL/MOL
REMARK 927      BINDING AFFINITY PREDICTED BY RF-SCORE:    0.00 PKD
ROOT
HETATM    1  C   UNL     1     -10.860   5.768  69.811  1.00  0.00    -0.419 C  
HETATM    2  C   UNL     1     -10.306   5.693  71.232  1.00  0.00    -0.228 C  
ENDROOT
BRANCH   2   3
HETATM    3  N   UNL     1      -8.833   5.671  71.317  1.00  0.00    -0.135 NA 
BRANCH   3   4
HETATM    4  C   UNL     1      -8.221   4.472  70.726  1.00  0.00    -0.079 C  
HETATM    5  C   UNL     1      -8.704   3.131  71.266  1.00  0.00    -0.120 C  
ENDBRANCH   3   4
BRANCH   3   6
HETATM    6  C   UNL     1      -8.288   6.943  70.788  1.00  0.00    -0.127 C  
BRANCH   6   7
HETATM    7  C   UNL     1      -7.291   6.793  69.627  1.00  0.00    -0.087 C  
BRANCH   7   8
HETATM    8  O   UNL     1      -7.996   6.727  68.379  1.00  0.00    -0.112 OA 
BRANCH   8   9
HETATM    9  C   UNL     1      -7.611   7.810  67.530  1.00  0.00    -0.109 C  
BRANCH   9  10
HETATM   10  C   UNL     1      -7.783   9.143  68.255  1.00  0.00    -0.091 C  
BRANCH  10  11
HETATM   11  O   UNL     1      -8.441  10.114  67.419  1.00  0.00    -0.121 OA 
BRANCH  11  12
HETATM   12  C   UNL     1      -9.804  10.033  67.390  1.00  0.00    -0.185 C  
HETATM   13  O   UNL     1     -10.417   9.108  66.865  1.00  0.00    -0.253 OA 
BRANCH  12  14
HETATM   14  C   UNL     1     -10.482  11.262  68.025  1.00  0.00    -0.215 C  
HETATM   15  C   UNL     1     -11.462  11.979  67.055  1.00  0.00    -0.402 C  
HETATM   16  C   UNL     1      -9.369  12.334  68.173  1.00  0.00    -0.205 C  
HETATM   17  C   UNL     1     -10.092  13.667  68.178  1.00  0.00    -0.245 C  
HETATM   18  C   UNL     1     -11.200  13.487  67.158  1.00  0.00    -0.324 C  
BRANCH  14  19
HETATM   19  C   UNL     1     -11.197  10.846  69.325  1.00  0.00    -0.327 A  
HETATM   20  C   UNL     1     -12.999  11.030  70.965  1.00  0.00    -0.369 A  
HETATM   21  C   UNL     1     -12.403  10.060  71.764  1.00  0.00    -0.434 A  
HETATM   22  C   UNL     1     -12.401  11.420  69.762  1.00  0.00    -0.250 A  
HETATM   23  C   UNL     1     -11.214   9.471  71.354  1.00  0.00    -0.452 A  
HETATM   24  C   UNL     1     -10.623   9.853  70.145  1.00  0.00    -0.350 A  
ENDBRANCH  14  19
ENDBRANCH  12  14
ENDBRANCH  11  12
ENDBRANCH  10  11
ENDBRANCH   9  10
ENDBRANCH   8   9
ENDBRANCH   7   8
ENDBRANCH   6   7
ENDBRANCH   3   6
ENDBRANCH   2   3
TORSDOF 11
ENDMDL
MODEL      312
REMARK 921   NORMALIZED FREE ENERGY PREDICTED BY IDOCK:   -3.46 KCAL/MOL
REMARK 922        TOTAL FREE ENERGY PREDICTED BY IDOCK:   -6.50 KCAL/MOL
REMARK 923 INTER-LIGAND FREE ENERGY PREDICTED BY IDOCK:   -5.98 KCAL/MOL
REMARK 924 INTRA-LIGAND FREE ENERGY PREDICTED BY IDOCK:   -0.51 KCAL/MOL
REMARK 927      BINDING AFFINITY PREDICTED BY RF-SCORE:    0.00 PKD
ROOT
HETATM    1  C   UNL     1     -12.131  15.699  64.261  1.00  0.00    -0.071 C  
HETATM    2  C   UNL     1     -12.126  14.390  65.049  1.00  0.00    -0.415 C  
ENDROOT
BRANCH   2   3
HETATM    3  N   UNL     1     -11.204  14.370  66.200  1.00  0.00    -0.330 NA 
BRANCH   3   4
HETATM    4  C   UNL     1     -11.848  13.999  67.470  1.00  0.00    -0.407 C  
HETATM    5  C   UNL     1     -11.743  15.013  68.603  1.00  0.00    -0.363 C  
ENDBRANCH   3   4
BRANCH   3   6
HETATM    6  C   UNL     1     -10.016  13.549  65.870  1.00  0.00    -0.283 C  
BRANCH   6   7
HETATM    7  C   UNL     1     -10.323  12.170  65.266  1.00  0.00    -0.277 C  
BRANCH   7   8
HETATM    8  O   UNL     1      -9.221  11.279  65.488  1.00  0.00    -0.215 OA 
BRANCH   8   9
HETATM    9  C   UNL     1      -8.484  11.674  66.647  1.00  0.00    -0.165 C  
BRANCH   9  10
HETATM   10  C   UNL     1      -7.752  10.476  67.247  1.00  0.00    -0.106 C  
BRANCH  10  11
HETATM   11  O   UNL     1      -8.206  10.200  68.586  1.00  0.00    -0.102 OA 
BRANCH  11  12
HETATM   12  C   UNL     1      -9.536   9.916  68.705  1.00  0.00    -0.157 C  
HETATM   13  O   UNL     1     -10.407  10.776  68.800  1.00  0.00    -0.174 OA 
BRANCH  12  14
HETATM   14  C   UNL     1      -9.813   8.403  68.780  1.00  0.00    -0.180 C  
HETATM   15  C   UNL     1      -8.557   7.543  68.470  1.00  0.00    -0.129 C  
HETATM   16  C   UNL     1     -10.711   8.073  67.558  1.00  0.00    -0.238 C  
HETATM   17  C   UNL     1     -10.468   6.605  67.263  1.00  0.00    -0.342 C  
HETATM   18  C   UNL     1      -8.983   6.423  67.512  1.00  0.00    -0.116 C  
BRANCH  14  19
HETATM   19  C   UNL     1     -10.397   8.051  70.162  1.00  0.00    -0.215 A  
HETATM   20  C   UNL     1     -10.421   8.173  72.603  1.00  0.00    -0.401 A  
HETATM   21  C   UNL     1     -11.498   7.294  72.660  1.00  0.00    -0.304 A  
HETATM   22  C   UNL     1      -9.875   8.543  71.369  1.00  0.00    -0.296 A  
HETATM   23  C   UNL     1     -12.037   6.795  71.482  1.00  0.00    -0.410 A  
HETATM   24  C   UNL     1     -11.499   7.176  70.248  1.00  0.00    -0.287 A  
ENDBRANCH  14  19
ENDBRANCH  12  14
ENDBRANCH  11  12
ENDBRANCH  10  11
ENDBRANCH   9  10
ENDBRANCH   8   9
ENDBRANCH   7   8
ENDBRANCH   6   7
ENDBRANCH   3   6
ENDBRANCH   2   3
TORSDOF 11
ENDMDL
MODEL      313
REMARK 921   NORMALIZED FREE ENERGY PREDICTED BY IDOCK:   -3.45 KCAL/MOL
REMARK 922        TOTAL FREE ENERGY PREDICTED BY IDOCK:   -6.49 KCAL/MOL
REMARK 923 INTER-LIGAND FREE ENERGY PREDICTED BY IDOCK:   -5.50 KCAL/MOL
REMARK 924 INTRA-LIGAND FREE ENERGY PREDICTED BY IDOCK:   -1.00 KCAL/MOL
REMARK 927      BINDING AFFINITY PREDICTED BY RF-SCORE:    0.00 PKD
ROOT
HETATM    1  C   UNL     1     -10.274   8.522  72.091  1.00  0.00    -0.403 C  
HETATM    2  C   UNL     1      -9.313   7.500  71.486  1.00  0.00    -0.139 C  
ENDROOT
BRANCH   2   3
HETATM    3  N   UNL     1      -8.074   7.290  72.258  1.00  0.00    -0.100 NA 
BRANCH   3   4
HETATM    4  C   UNL     1      -7.354   6.058  71.902  1.00  0.00    -0.094 C  
HETATM    5  C   UNL     1      -8.152   4.762  71.978  1.00  0.00    -0.106 C  
ENDBRANCH   3   4
BRANCH   3   6
HETATM    6  C   UNL     1      -7.238   8.511  72.196  1.00  0.00    -0.072 C  
BRANCH   6   7
HETATM    7  C   UNL     1      -6.821   8.945  70.782  1.00  0.00    -0.067 C  
BRANCH   7   8
HETATM    8  O   UNL     1      -6.663  10.370  70.731  1.00  0.00    -0.340 OA 
BRANCH   8   9
HETATM    9  C   UNL     1      -6.714  10.831  69.380  1.00  0.00    -0.097 C  
BRANCH   9  10
HETATM   10  C   UNL     1      -8.162  11.016  68.933  1.00  0.00    -0.127 C  
BRANCH  10  11
HETATM   11  O   UNL     1      -8.497  12.411  68.806  1.00  0.00    -0.023 OA 
BRANCH  11  12
HETATM   12  C   UNL     1      -9.152  12.753  67.658  1.00  0.00    -0.193 C  
HETATM   13  O   UNL     1      -8.854  12.313  66.551  1.00  0.00    -0.197 OA 
BRANCH  12  14
HETATM   14  C   UNL     1     -10.255  13.802  67.896  1.00  0.00    -0.245 C  
HETATM   15  C   UNL     1      -9.726  15.086  68.592  1.00  0.00    -0.219 C  
HETATM   16  C   UNL     1     -11.169  13.215  69.005  1.00  0.00    -0.309 C  
HETATM   17  C   UNL     1     -11.818  14.415  69.668  1.00  0.00    -0.372 C  
HETATM   18  C   UNL     1     -10.714  15.454  69.706  1.00  0.00    -0.300 C  
BRANCH  14  19
HETATM   19  C   UNL     1     -10.944  14.141  66.560  1.00  0.00    -0.309 A  
HETATM   20  C   UNL     1     -12.506  13.665  64.742  1.00  0.00    -0.391 A  
HETATM   21  C   UNL     1     -12.108  14.815  64.067  1.00  0.00    -0.189 A  
HETATM   22  C   UNL     1     -11.928  13.331  65.971  1.00  0.00    -0.473 A  
HETATM   23  C   UNL     1     -11.140  15.637  64.628  1.00  0.00    -0.387 A  
HETATM   24  C   UNL     1     -10.572  15.309  65.864  1.00  0.00    -0.345 A  
ENDBRANCH  14  19
ENDBRANCH  12  14
ENDBRANCH  11  12
ENDBRANCH  10  11
ENDBRANCH   9  10
ENDBRANCH   8   9
ENDBRANCH   7   8
ENDBRANCH   6   7
ENDBRANCH   3   6
ENDBRANCH   2   3
TORSDOF 11
ENDMDL
MODEL      314
REMARK 921   NORMALIZED FREE ENERGY PREDICTED BY IDOCK:   -3.45 KCAL/MOL
REMARK 922        TOTAL FREE ENERGY PREDICTED BY IDOCK:   -6.49 KCAL/MOL
REMARK 923 INTER-LIGAND FREE ENERGY PREDICTED BY IDOCK:   -4.95 KCAL/MOL
REMARK 924 INTRA-LIGAND FREE ENERGY PREDICTED BY IDOCK:   -1.54 KCAL/MOL
REMARK 927      BINDING AFFINITY PREDICTED BY RF-SCORE:    0.00 PKD
ROOT
HETATM    1  C   UNL     1      -6.882   4.166  68.615  1.00  0.00    -0.047 C  
HETATM    2  C   UNL     1      -6.989   5.638  69.010  1.00  0.00    -0.063 C  
ENDROOT
BRANCH   2   3
HETATM    3  N   UNL     1      -8.328   6.229  68.823  1.00  0.00    -0.119 NA 
BRANCH   3   4
HETATM    4  C   UNL     1      -8.910   6.784  70.054  1.00  0.00    -0.142 C  
HETATM    5  C   UNL     1      -9.345   8.244  69.997  1.00  0.00    -0.162 C  
ENDBRANCH   3   4
BRANCH   3   6
HETATM    6  C   UNL     1      -8.293   7.185  67.693  1.00  0.00    -0.117 C  
BRANCH   6   7
HETATM    7  C   UNL     1      -9.053   6.736  66.435  1.00  0.00    -0.152 C  
BRANCH   7   8
HETATM    8  O   UNL     1      -8.350   7.159  65.258  1.00  0.00    -0.136 OA 
BRANCH   8   9
HETATM    9  C   UNL     1      -7.327   8.098  65.597  1.00  0.00    -0.076 C  
BRANCH   9  10
HETATM   10  C   UNL     1      -7.638   9.467  64.997  1.00  0.00    -0.109 C  
BRANCH  10  11
HETATM   11  O   UNL     1      -8.315  10.314  65.945  1.00  0.00    -0.134 OA 
BRANCH  11  12
HETATM   12  C   UNL     1      -9.608  10.622  65.635  1.00  0.00    -0.218 C  
HETATM   13  O   UNL     1     -10.171  10.238  64.613  1.00  0.00    -0.322 OA 
BRANCH  12  14
HETATM   14  C   UNL     1     -10.257  11.561  66.670  1.00  0.00    -0.254 C  
HETATM   15  C   UNL     1      -9.265  12.018  67.775  1.00  0.00    -0.190 C  
HETATM   16  C   UNL     1     -11.235  10.679  67.492  1.00  0.00    -0.326 C  
HETATM   17  C   UNL     1     -11.375  11.374  68.833  1.00  0.00    -0.334 C  
HETATM   18  C   UNL     1      -9.979  11.889  69.126  1.00  0.00     0.196 C  
BRANCH  14  19
HETATM   19  C   UNL     1     -10.881  12.773  65.951  1.00  0.00    -0.295 A  
HETATM   20  C   UNL     1     -12.747  13.946  64.899  1.00  0.00    -0.315 A  
HETATM   21  C   UNL     1     -11.922  15.018  64.574  1.00  0.00    -0.379 A  
HETATM   22  C   UNL     1     -12.232  12.836  65.576  1.00  0.00    -0.519 A  
HETATM   23  C   UNL     1     -10.582  14.984  64.937  1.00  0.00    -0.400 A  
HETATM   24  C   UNL     1     -10.070  13.879  65.626  1.00  0.00    -0.332 A  
ENDBRANCH  14  19
ENDBRANCH  12  14
ENDBRANCH  11  12
ENDBRANCH  10  11
ENDBRANCH   9  10
ENDBRANCH   8   9
ENDBRANCH   7   8
ENDBRANCH   6   7
ENDBRANCH   3   6
ENDBRANCH   2   3
TORSDOF 11
ENDMDL
MODEL      315
REMARK 921   NORMALIZED FREE ENERGY PREDICTED BY IDOCK:   -3.43 KCAL/MOL
REMARK 922        TOTAL FREE ENERGY PREDICTED BY IDOCK:   -6.46 KCAL/MOL
REMARK 923 INTER-LIGAND FREE ENERGY PREDICTED BY IDOCK:   -5.34 KCAL/MOL
REMARK 924 INTRA-LIGAND FREE ENERGY PREDICTED BY IDOCK:   -1.12 KCAL/MOL
REMARK 927      BINDING AFFINITY PREDICTED BY RF-SCORE:    0.00 PKD
ROOT
HETATM    1  C   UNL     1     -12.384  11.976  63.674  1.00  0.00    -0.648 C  
HETATM    2  C   UNL     1     -12.310  12.731  65.000  1.00  0.00    -0.499 C  
ENDROOT
BRANCH   2   3
HETATM    3  N   UNL     1     -11.073  13.512  65.194  1.00  0.00    -0.307 NA 
BRANCH   3   4
HETATM    4  C   UNL     1     -11.304  14.952  65.390  1.00  0.00    -0.346 C  
HETATM    5  C   UNL     1     -11.582  15.769  64.134  1.00  0.00    -0.079 C  
ENDBRANCH   3   4
BRANCH   3   6
HETATM    6  C   UNL     1     -10.254  12.888  66.258  1.00  0.00    -0.278 C  
BRANCH   6   7
HETATM    7  C   UNL     1     -10.930  11.728  67.005  1.00  0.00    -0.285 C  
BRANCH   7   8
HETATM    8  O   UNL     1     -10.170  11.386  68.173  1.00  0.00    -0.176 OA 
BRANCH   8   9
HETATM    9  C   UNL     1      -9.008  10.635  67.812  1.00  0.00    -0.140 C  
BRANCH   9  10
HETATM   10  C   UNL     1      -9.406   9.260  67.281  1.00  0.00    -0.131 C  
BRANCH  10  11
HETATM   11  O   UNL     1     -10.044   8.468  68.301  1.00  0.00    -0.179 OA 
BRANCH  11  12
HETATM   12  C   UNL     1      -9.276   7.474  68.835  1.00  0.00    -0.142 C  
HETATM   13  O   UNL     1      -8.440   6.844  68.194  1.00  0.00    -0.124 OA 
BRANCH  12  14
HETATM   14  C   UNL     1      -9.627   7.183  70.307  1.00  0.00    -0.169 C  
HETATM   15  C   UNL     1     -11.047   6.579  70.482  1.00  0.00    -0.375 C  
HETATM   16  C   UNL     1      -9.805   8.568  70.985  1.00  0.00    -0.245 C  
HETATM   17  C   UNL     1     -10.724   8.324  72.167  1.00  0.00    -0.389 C  
HETATM   18  C   UNL     1     -11.725   7.310  71.648  1.00  0.00    -0.316 C  
BRANCH  14  19
HETATM   19  C   UNL     1      -8.555   6.262  70.923  1.00  0.00    -0.135 A  
HETATM   20  C   UNL     1      -7.716   4.079  71.629  1.00  0.00    -0.065 A  
HETATM   21  C   UNL     1      -6.556   4.660  72.130  1.00  0.00    -0.034 A  
HETATM   22  C   UNL     1      -8.705   4.871  71.036  1.00  0.00    -0.143 A  
HETATM   23  C   UNL     1      -6.378   6.033  72.027  1.00  0.00    -0.049 A  
HETATM   24  C   UNL     1      -7.362   6.824  71.423  1.00  0.00    -0.082 A  
ENDBRANCH  14  19
ENDBRANCH  12  14
ENDBRANCH  11  12
ENDBRANCH  10  11
ENDBRANCH   9  10
ENDBRANCH   8   9
ENDBRANCH   7   8
ENDBRANCH   6   7
ENDBRANCH   3   6
ENDBRANCH   2   3
TORSDOF 11
ENDMDL
MODEL      316
REMARK 921   NORMALIZED FREE ENERGY PREDICTED BY IDOCK:   -3.43 KCAL/MOL
REMARK 922        TOTAL FREE ENERGY PREDICTED BY IDOCK:   -6.45 KCAL/MOL
REMARK 923 INTER-LIGAND FREE ENERGY PREDICTED BY IDOCK:   -5.43 KCAL/MOL
REMARK 924 INTRA-LIGAND FREE ENERGY PREDICTED BY IDOCK:   -1.02 KCAL/MOL
REMARK 927      BINDING AFFINITY PREDICTED BY RF-SCORE:    0.00 PKD
ROOT
HETATM    1  C   UNL     1     -12.468  13.202  65.231  1.00  0.00    -0.550 C  
HETATM    2  C   UNL     1     -11.341  13.175  66.262  1.00  0.00    -0.315 C  
ENDROOT
BRANCH   2   3
HETATM    3  N   UNL     1     -10.343  14.250  66.109  1.00  0.00    -0.290 NA 
BRANCH   3   4
HETATM    4  C   UNL     1     -10.831  15.576  66.519  1.00  0.00    -0.284 C  
HETATM    5  C   UNL     1     -10.641  16.706  65.514  1.00  0.00    -0.273 C  
ENDBRANCH   3   4
BRANCH   3   6
HETATM    6  C   UNL     1      -9.078  13.849  66.766  1.00  0.00    -0.223 C  
BRANCH   6   7
HETATM    7  C   UNL     1      -9.217  12.752  67.834  1.00  0.00    -0.205 C  
BRANCH   7   8
HETATM    8  O   UNL     1      -7.978  12.042  67.973  1.00  0.00    -0.130 OA 
BRANCH   8   9
HETATM    9  C   UNL     1      -8.137  10.677  67.581  1.00  0.00    -0.107 C  
BRANCH   9  10
HETATM   10  C   UNL     1      -9.584  10.230  67.780  1.00  0.00    -0.152 C  
BRANCH  10  11
HETATM   11  O   UNL     1      -9.653   8.969  68.472  1.00  0.00    -0.149 OA 
BRANCH  11  12
HETATM   12  C   UNL     1     -10.036   7.904  67.709  1.00  0.00    -0.173 C  
HETATM   13  O   UNL     1     -10.744   8.003  66.712  1.00  0.00    -0.289 OA 
BRANCH  12  14
HETATM   14  C   UNL     1      -9.542   6.561  68.280  1.00  0.00    -0.131 C  
HETATM   15  C   UNL     1      -7.992   6.456  68.323  1.00  0.00    -0.106 C  
HETATM   16  C   UNL     1      -9.885   5.490  67.210  1.00  0.00    -0.169 C  
HETATM   17  C   UNL     1      -8.896   4.362  67.436  1.00  0.00    -0.116 C  
HETATM   18  C   UNL     1      -7.603   5.074  67.784  1.00  0.00    -0.083 C  
BRANCH  14  19
HETATM   19  C   UNL     1     -10.149   6.337  69.679  1.00  0.00    -0.215 A  
HETATM   20  C   UNL     1     -11.998   6.395  71.276  1.00  0.00    -0.288 A  
HETATM   21  C   UNL     1     -11.160   5.958  72.297  1.00  0.00    -0.330 A  
HETATM   22  C   UNL     1     -11.497   6.586  69.984  1.00  0.00    -0.476 A  
HETATM   23  C   UNL     1      -9.824   5.700  72.023  1.00  0.00    -0.197 A  
HETATM   24  C   UNL     1      -9.326   5.879  70.728  1.00  0.00    -0.180 A  
ENDBRANCH  14  19
ENDBRANCH  12  14
ENDBRANCH  11  12
ENDBRANCH  10  11
ENDBRANCH   9  10
ENDBRANCH   8   9
ENDBRANCH   7   8
ENDBRANCH   6   7
ENDBRANCH   3   6
ENDBRANCH   2   3
TORSDOF 11
ENDMDL
MODEL      317
REMARK 921   NORMALIZED FREE ENERGY PREDICTED BY IDOCK:   -3.43 KCAL/MOL
REMARK 922        TOTAL FREE ENERGY PREDICTED BY IDOCK:   -6.45 KCAL/MOL
REMARK 923 INTER-LIGAND FREE ENERGY PREDICTED BY IDOCK:   -5.57 KCAL/MOL
REMARK 924 INTRA-LIGAND FREE ENERGY PREDICTED BY IDOCK:   -0.88 KCAL/MOL
REMARK 927      BINDING AFFINITY PREDICTED BY RF-SCORE:    0.00 PKD
ROOT
HETATM    1  C   UNL     1      -6.644  10.394  70.140  1.00  0.00    -0.146 C  
HETATM    2  C   UNL     1      -5.841  11.660  69.848  1.00  0.00    -0.125 C  
ENDROOT
BRANCH   2   3
HETATM    3  N   UNL     1      -5.339  11.764  68.465  1.00  0.00    -0.045 NA 
BRANCH   3   4
HETATM    4  C   UNL     1      -5.596  10.568  67.648  1.00  0.00    -0.044 C  
HETATM    5  C   UNL     1      -6.305  10.797  66.319  1.00  0.00    -0.129 C  
ENDBRANCH   3   4
BRANCH   3   6
HETATM    6  C   UNL     1      -5.825  13.021  67.854  1.00  0.00    -0.128 C  
BRANCH   6   7
HETATM    7  C   UNL     1      -6.047  14.182  68.837  1.00  0.00    -0.085 C  
BRANCH   7   8
HETATM    8  O   UNL     1      -7.448  14.477  68.942  1.00  0.00    -0.122 OA 
BRANCH   8   9
HETATM    9  C   UNL     1      -7.842  15.401  67.925  1.00  0.00    -0.133 C  
BRANCH   9  10
HETATM   10  C   UNL     1      -8.545  14.671  66.784  1.00  0.00    -0.162 C  
BRANCH  10  11
HETATM   11  O   UNL     1      -9.977  14.774  66.899  1.00  0.00    -0.237 OA 
BRANCH  11  12
HETATM   12  C   UNL     1     -10.537  14.040  67.904  1.00  0.00    -0.244 C  
HETATM   13  O   UNL     1     -10.790  14.494  69.016  1.00  0.00    -0.240 OA 
BRANCH  12  14
HETATM   14  C   UNL     1     -10.747  12.564  67.511  1.00  0.00    -0.250 C  
HETATM   15  C   UNL     1     -11.770  11.836  68.426  1.00  0.00    -0.389 C  
HETATM   16  C   UNL     1      -9.432  11.831  67.890  1.00  0.00    -0.191 C  
HETATM   17  C   UNL     1      -9.826  10.383  68.109  1.00  0.00    -0.168 C  
HETATM   18  C   UNL     1     -11.175  10.472  68.797  1.00  0.00    -0.317 C  
BRANCH  14  19
HETATM   19  C   UNL     1     -11.167  12.477  66.031  1.00  0.00    -0.354 A  
HETATM   20  C   UNL     1     -12.785  12.727  64.217  1.00  0.00    -0.338 A  
HETATM   21  C   UNL     1     -11.871  12.219  63.300  1.00  0.00    -0.476 A  
HETATM   22  C   UNL     1     -12.439  12.851  65.566  1.00  0.00    -0.462 A  
HETATM   23  C   UNL     1     -10.604  11.845  63.731  1.00  0.00    -0.475 A  
HETATM   24  C   UNL     1     -10.254  11.981  65.079  1.00  0.00    -0.308 A  
ENDBRANCH  14  19
ENDBRANCH  12  14
ENDBRANCH  11  12
ENDBRANCH  10  11
ENDBRANCH   9  10
ENDBRANCH   8   9
ENDBRANCH   7   8
ENDBRANCH   6   7
ENDBRANCH   3   6
ENDBRANCH   2   3
TORSDOF 11
ENDMDL
MODEL      318
REMARK 921   NORMALIZED FREE ENERGY PREDICTED BY IDOCK:   -3.42 KCAL/MOL
REMARK 922        TOTAL FREE ENERGY PREDICTED BY IDOCK:   -6.44 KCAL/MOL
REMARK 923 INTER-LIGAND FREE ENERGY PREDICTED BY IDOCK:   -5.04 KCAL/MOL
REMARK 924 INTRA-LIGAND FREE ENERGY PREDICTED BY IDOCK:   -1.40 KCAL/MOL
REMARK 927      BINDING AFFINITY PREDICTED BY RF-SCORE:    0.00 PKD
ROOT
HETATM    1  C   UNL     1     -12.606   9.275  71.469  1.00  0.00    -0.430 C  
HETATM    2  C   UNL     1     -11.103   9.413  71.241  1.00  0.00    -0.376 C  
ENDROOT
BRANCH   2   3
HETATM    3  N   UNL     1     -10.386   8.135  71.075  1.00  0.00    -0.194 NA 
BRANCH   3   4
HETATM    4  C   UNL     1     -11.209   7.063  70.494  1.00  0.00    -0.295 C  
HETATM    5  C   UNL     1     -11.042   5.676  71.103  1.00  0.00    -0.202 C  
ENDBRANCH   3   4
BRANCH   3   6
HETATM    6  C   UNL     1      -9.114   8.369  70.355  1.00  0.00    -0.149 C  
BRANCH   6   7
HETATM    7  C   UNL     1      -8.923   9.794  69.813  1.00  0.00    -0.221 C  
BRANCH   7   8
HETATM    8  O   UNL     1      -7.664  10.324  70.254  1.00  0.00    -0.183 OA 
BRANCH   8   9
HETATM    9  C   UNL     1      -7.258  11.409  69.417  1.00  0.00    -0.030 C  
BRANCH   9  10
HETATM   10  C   UNL     1      -6.531  10.887  68.180  1.00  0.00    -0.058 C  
BRANCH  10  11
HETATM   11  O   UNL     1      -7.194  11.298  66.969  1.00  0.00    -0.113 OA 
BRANCH  11  12
HETATM   12  C   UNL     1      -7.071  10.438  65.916  1.00  0.00    -0.135 C  
HETATM   13  O   UNL     1      -5.992  10.052  65.477  1.00  0.00    -0.071 OA 
BRANCH  12  14
HETATM   14  C   UNL     1      -8.432  10.067  65.295  1.00  0.00    -0.161 C  
HETATM   15  C   UNL     1      -8.470  10.272  63.756  1.00  0.00    -0.179 C  
HETATM   16  C   UNL     1      -9.428  11.159  65.768  1.00  0.00    -0.248 C  
HETATM   17  C   UNL     1     -10.525  11.184  64.720  1.00  0.00    -0.388 C  
HETATM   18  C   UNL     1      -9.786  10.980  63.412  1.00  0.00    -0.404 C  
BRANCH  14  19
HETATM   19  C   UNL     1      -8.792   8.616  65.669  1.00  0.00    -0.227 A  
HETATM   20  C   UNL     1      -9.965   6.950  67.018  1.00  0.00    -0.257 A  
HETATM   21  C   UNL     1      -9.342   5.916  66.326  1.00  0.00    -0.168 A  
HETATM   22  C   UNL     1      -9.691   8.283  66.696  1.00  0.00    -0.321 A  
HETATM   23  C   UNL     1      -8.453   6.216  65.303  1.00  0.00    -0.121 A  
HETATM   24  C   UNL     1      -8.188   7.549  64.972  1.00  0.00    -0.105 A  
ENDBRANCH  14  19
ENDBRANCH  12  14
ENDBRANCH  11  12
ENDBRANCH  10  11
ENDBRANCH   9  10
ENDBRANCH   8   9
ENDBRANCH   7   8
ENDBRANCH   6   7
ENDBRANCH   3   6
ENDBRANCH   2   3
TORSDOF 11
ENDMDL
MODEL      319
REMARK 921   NORMALIZED FREE ENERGY PREDICTED BY IDOCK:   -3.42 KCAL/MOL
REMARK 922        TOTAL FREE ENERGY PREDICTED BY IDOCK:   -6.43 KCAL/MOL
REMARK 923 INTER-LIGAND FREE ENERGY PREDICTED BY IDOCK:   -6.12 KCAL/MOL
REMARK 924 INTRA-LIGAND FREE ENERGY PREDICTED BY IDOCK:   -0.31 KCAL/MOL
REMARK 927      BINDING AFFINITY PREDICTED BY RF-SCORE:    0.00 PKD
ROOT
HETATM    1  C   UNL     1      -9.704  15.040  65.930  1.00  0.00    -0.376 C  
HETATM    2  C   UNL     1     -10.577  14.221  64.982  1.00  0.00    -0.425 C  
ENDROOT
BRANCH   2   3
HETATM    3  N   UNL     1     -11.424  13.211  65.645  1.00  0.00    -0.314 NA 
BRANCH   3   4
HETATM    4  C   UNL     1     -11.579  11.967  64.876  1.00  0.00    -0.273 C  
HETATM    5  C   UNL     1     -12.109  12.113  63.454  1.00  0.00    -0.608 C  
ENDBRANCH   3   4
BRANCH   3   6
HETATM    6  C   UNL     1     -10.951  13.001  67.033  1.00  0.00    -0.265 C  
BRANCH   6   7
HETATM    7  C   UNL     1     -10.532  11.561  67.368  1.00  0.00    -0.209 C  
BRANCH   7   8
HETATM    8  O   UNL     1     -10.755  11.295  68.760  1.00  0.00    -0.184 OA 
BRANCH   8   9
HETATM    9  C   UNL     1     -11.283   9.979  68.939  1.00  0.00    -0.131 C  
BRANCH   9  10
HETATM   10  C   UNL     1     -11.764   9.788  70.376  1.00  0.00    -0.231 C  
BRANCH  10  11
HETATM   11  O   UNL     1     -11.893   8.392  70.705  1.00  0.00    -0.264 OA 
BRANCH  11  12
HETATM   12  C   UNL     1     -10.921   7.580  70.197  1.00  0.00    -0.254 C  
HETATM   13  O   UNL     1     -10.956   7.107  69.065  1.00  0.00    -0.182 OA 
BRANCH  12  14
HETATM   14  C   UNL     1      -9.817   7.266  71.225  1.00  0.00    -0.183 C  
HETATM   15  C   UNL     1      -9.725   8.327  72.355  1.00  0.00    -0.373 C  
HETATM   16  C   UNL     1      -8.470   7.496  70.487  1.00  0.00    -0.133 C  
HETATM   17  C   UNL     1      -7.463   7.811  71.577  1.00  0.00    -0.077 C  
HETATM   18  C   UNL     1      -8.242   8.664  72.559  1.00  0.00    -0.062 C  
BRANCH  14  19
HETATM   19  C   UNL     1     -10.037   5.856  71.807  1.00  0.00    -0.228 A  
HETATM   20  C   UNL     1     -11.046   4.297  73.394  1.00  0.00    -0.371 A  
HETATM   21  C   UNL     1     -10.325   3.239  72.850  1.00  0.00    -0.246 A  
HETATM   22  C   UNL     1     -10.900   5.590  72.881  1.00  0.00    -0.312 A  
HETATM   23  C   UNL     1      -9.467   3.472  71.784  1.00  0.00    -0.212 A  
HETATM   24  C   UNL     1      -9.331   4.763  71.263  1.00  0.00    -0.204 A  
ENDBRANCH  14  19
ENDBRANCH  12  14
ENDBRANCH  11  12
ENDBRANCH  10  11
ENDBRANCH   9  10
ENDBRANCH   8   9
ENDBRANCH   7   8
ENDBRANCH   6   7
ENDBRANCH   3   6
ENDBRANCH   2   3
TORSDOF 11
ENDMDL
MODEL      320
REMARK 921   NORMALIZED FREE ENERGY PREDICTED BY IDOCK:   -3.40 KCAL/MOL
REMARK 922        TOTAL FREE ENERGY PREDICTED BY IDOCK:   -6.41 KCAL/MOL
REMARK 923 INTER-LIGAND FREE ENERGY PREDICTED BY IDOCK:   -4.79 KCAL/MOL
REMARK 924 INTRA-LIGAND FREE ENERGY PREDICTED BY IDOCK:   -1.62 KCAL/MOL
REMARK 927      BINDING AFFINITY PREDICTED BY RF-SCORE:    0.00 PKD
ROOT
HETATM    1  C   UNL     1     -10.299   8.173  72.665  1.00  0.00    -0.398 C  
HETATM    2  C   UNL     1      -9.543   6.849  72.575  1.00  0.00    -0.149 C  
ENDROOT
BRANCH   2   3
HETATM    3  N   UNL     1      -8.714   6.534  73.754  1.00  0.00    -0.123 NA 
BRANCH   3   4
HETATM    4  C   UNL     1      -8.160   5.172  73.744  1.00  0.00    -0.109 C  
HETATM    5  C   UNL     1      -9.164   4.035  73.593  1.00  0.00    -0.101 C  
ENDBRANCH   3   4
BRANCH   3   6
HETATM    6  C   UNL     1      -7.694   7.592  73.939  1.00  0.00    -0.142 C  
BRANCH   6   7
HETATM    7  C   UNL     1      -6.700   7.750  72.778  1.00  0.00    -0.070 C  
BRANCH   7   8
HETATM    8  O   UNL     1      -6.449   9.142  72.531  1.00  0.00    -0.300 OA 
BRANCH   8   9
HETATM    9  C   UNL     1      -6.113   9.353  71.158  1.00  0.00    -0.078 C  
BRANCH   9  10
HETATM   10  C   UNL     1      -7.282   8.961  70.256  1.00  0.00    -0.054 C  
BRANCH  10  11
HETATM   11  O   UNL     1      -8.149  10.083  70.005  1.00  0.00    -0.180 OA 
BRANCH  11  12
HETATM   12  C   UNL     1      -8.453  10.304  68.692  1.00  0.00    -0.127 C  
HETATM   13  O   UNL     1      -7.639  10.703  67.865  1.00  0.00    -0.090 OA 
BRANCH  12  14
HETATM   14  C   UNL     1      -9.944  10.067  68.384  1.00  0.00    -0.178 C  
HETATM   15  C   UNL     1     -10.462  10.936  67.205  1.00  0.00    -0.281 C  
HETATM   16  C   UNL     1     -10.729  10.679  69.575  1.00  0.00    -0.290 C  
HETATM   17  C   UNL     1     -12.099  11.021  69.022  1.00  0.00    -0.285 C  
HETATM   18  C   UNL     1     -11.812  11.533  67.623  1.00  0.00    -0.194 C  
BRANCH  14  19
HETATM   19  C   UNL     1     -10.186   8.569  68.114  1.00  0.00    -0.254 A  
HETATM   20  C   UNL     1     -10.696   6.289  68.832  1.00  0.00    -0.357 A  
HETATM   21  C   UNL     1     -10.546   5.820  67.530  1.00  0.00    -0.327 A  
HETATM   22  C   UNL     1     -10.514   7.646  69.120  1.00  0.00    -0.220 A  
HETATM   23  C   UNL     1     -10.226   6.711  66.514  1.00  0.00    -0.129 A  
HETATM   24  C   UNL     1     -10.057   8.070  66.801  1.00  0.00    -0.357 A  
ENDBRANCH  14  19
ENDBRANCH  12  14
ENDBRANCH  11  12
ENDBRANCH  10  11
ENDBRANCH   9  10
ENDBRANCH   8   9
ENDBRANCH   7   8
ENDBRANCH   6   7
ENDBRANCH   3   6
ENDBRANCH   2   3
TORSDOF 11
ENDMDL
MODEL      321
REMARK 921   NORMALIZED FREE ENERGY PREDICTED BY IDOCK:   -3.40 KCAL/MOL
REMARK 922        TOTAL FREE ENERGY PREDICTED BY IDOCK:   -6.40 KCAL/MOL
REMARK 923 INTER-LIGAND FREE ENERGY PREDICTED BY IDOCK:   -5.53 KCAL/MOL
REMARK 924 INTRA-LIGAND FREE ENERGY PREDICTED BY IDOCK:   -0.86 KCAL/MOL
REMARK 927      BINDING AFFINITY PREDICTED BY RF-SCORE:    0.00 PKD
ROOT
HETATM    1  C   UNL     1     -12.644  12.844  65.101  1.00  0.00    -0.536 C  
HETATM    2  C   UNL     1     -11.480  12.571  66.050  1.00  0.00    -0.377 C  
ENDROOT
BRANCH   2   3
HETATM    3  N   UNL     1     -10.341  13.498  65.907  1.00  0.00    -0.293 NA 
BRANCH   3   4
HETATM    4  C   UNL     1     -10.679  14.903  66.183  1.00  0.00    -0.317 C  
HETATM    5  C   UNL     1      -9.551  15.914  66.022  1.00  0.00    -0.385 C  
ENDBRANCH   3   4
BRANCH   3   6
HETATM    6  C   UNL     1      -9.191  12.995  66.693  1.00  0.00    -0.219 C  
BRANCH   6   7
HETATM    7  C   UNL     1      -9.533  11.916  67.732  1.00  0.00    -0.184 C  
BRANCH   7   8
HETATM    8  O   UNL     1      -8.436  11.742  68.641  1.00  0.00    -0.142 OA 
BRANCH   8   9
HETATM    9  C   UNL     1      -8.220  10.354  68.904  1.00  0.00    -0.132 C  
BRANCH   9  10
HETATM   10  C   UNL     1      -9.550   9.641  69.134  1.00  0.00    -0.174 C  
BRANCH  10  11
HETATM   11  O   UNL     1      -9.682   9.202  70.499  1.00  0.00    -0.199 OA 
BRANCH  11  12
HETATM   12  C   UNL     1     -10.003   7.885  70.662  1.00  0.00    -0.186 C  
HETATM   13  O   UNL     1     -10.784   7.283  69.931  1.00  0.00    -0.233 OA 
BRANCH  12  14
HETATM   14  C   UNL     1      -9.335   7.263  71.903  1.00  0.00    -0.152 C  
HETATM   15  C   UNL     1      -9.869   7.855  73.236  1.00  0.00    -0.345 C  
HETATM   16  C   UNL     1      -7.874   7.785  71.907  1.00  0.00    -0.106 C  
HETATM   17  C   UNL     1      -7.428   7.725  73.356  1.00  0.00    -0.144 C  
HETATM   18  C   UNL     1      -8.660   8.146  74.134  1.00  0.00    -0.195 C  
BRANCH  14  19
HETATM   19  C   UNL     1      -9.506   5.732  71.870  1.00  0.00    -0.169 A  
HETATM   20  C   UNL     1      -9.129   3.527  70.886  1.00  0.00    -0.182 A  
HETATM   21  C   UNL     1      -9.931   2.931  71.854  1.00  0.00    -0.213 A  
HETATM   22  C   UNL     1      -8.923   4.910  70.891  1.00  0.00    -0.167 A  
HETATM   23  C   UNL     1     -10.517   3.719  72.836  1.00  0.00    -0.246 A  
HETATM   24  C   UNL     1     -10.300   5.101  72.849  1.00  0.00    -0.238 A  
ENDBRANCH  14  19
ENDBRANCH  12  14
ENDBRANCH  11  12
ENDBRANCH  10  11
ENDBRANCH   9  10
ENDBRANCH   8   9
ENDBRANCH   7   8
ENDBRANCH   6   7
ENDBRANCH   3   6
ENDBRANCH   2   3
TORSDOF 11
ENDMDL
MODEL      322
REMARK 921   NORMALIZED FREE ENERGY PREDICTED BY IDOCK:   -3.39 KCAL/MOL
REMARK 922        TOTAL FREE ENERGY PREDICTED BY IDOCK:   -6.39 KCAL/MOL
REMARK 923 INTER-LIGAND FREE ENERGY PREDICTED BY IDOCK:   -5.07 KCAL/MOL
REMARK 924 INTRA-LIGAND FREE ENERGY PREDICTED BY IDOCK:   -1.32 KCAL/MOL
REMARK 927      BINDING AFFINITY PREDICTED BY RF-SCORE:    0.00 PKD
ROOT
HETATM    1  C   UNL     1      -7.778  14.014  67.482  1.00  0.00    -0.197 C  
HETATM    2  C   UNL     1      -8.721  12.839  67.729  1.00  0.00    -0.184 C  
ENDROOT
BRANCH   2   3
HETATM    3  N   UNL     1     -10.143  13.210  67.858  1.00  0.00    -0.226 NA 
BRANCH   3   4
HETATM    4  C   UNL     1     -10.433  14.598  67.470  1.00  0.00    -0.247 C  
HETATM    5  C   UNL     1     -11.585  15.278  68.201  1.00  0.00    -0.344 C  
ENDBRANCH   3   4
BRANCH   3   6
HETATM    6  C   UNL     1     -10.981  12.207  67.161  1.00  0.00    -0.268 C  
BRANCH   6   7
HETATM    7  C   UNL     1     -11.384  12.578  65.726  1.00  0.00    -0.336 C  
BRANCH   7   8
HETATM    8  O   UNL     1     -11.303  11.423  64.878  1.00  0.00    -0.176 OA 
BRANCH   8   9
HETATM    9  C   UNL     1     -10.764  11.776  63.602  1.00  0.00    -0.440 C  
BRANCH   9  10
HETATM   10  C   UNL     1      -9.420  11.085  63.382  1.00  0.00    -0.310 C  
BRANCH  10  11
HETATM   11  O   UNL     1      -9.014  10.343  64.548  1.00  0.00    -0.187 OA 
BRANCH  11  12
HETATM   12  C   UNL     1      -8.486   9.109  64.301  1.00  0.00    -0.187 C  
HETATM   13  O   UNL     1      -8.467   8.590  63.189  1.00  0.00    -0.155 OA 
BRANCH  12  14
HETATM   14  C   UNL     1      -7.986   8.414  65.582  1.00  0.00    -0.115 C  
HETATM   15  C   UNL     1      -7.800   9.398  66.770  1.00  0.00    -0.105 C  
HETATM   16  C   UNL     1      -6.516   8.005  65.298  1.00  0.00    -0.048 C  
HETATM   17  C   UNL     1      -5.851   7.922  66.659  1.00  0.00    -0.044 C  
HETATM   18  C   UNL     1      -6.452   9.081  67.431  1.00  0.00    -0.064 C  
BRANCH  14  19
HETATM   19  C   UNL     1      -8.946   7.268  65.958  1.00  0.00    -0.149 A  
HETATM   20  C   UNL     1     -10.818   6.331  67.217  1.00  0.00    -0.457 A  
HETATM   21  C   UNL     1     -10.618   5.084  66.634  1.00  0.00    -0.256 A  
HETATM   22  C   UNL     1      -9.990   7.408  66.886  1.00  0.00    -0.307 A  
HETATM   23  C   UNL     1      -9.596   4.918  65.709  1.00  0.00    -0.181 A  
HETATM   24  C   UNL     1      -8.776   5.999  65.368  1.00  0.00    -0.090 A  
ENDBRANCH  14  19
ENDBRANCH  12  14
ENDBRANCH  11  12
ENDBRANCH  10  11
ENDBRANCH   9  10
ENDBRANCH   8   9
ENDBRANCH   7   8
ENDBRANCH   6   7
ENDBRANCH   3   6
ENDBRANCH   2   3
TORSDOF 11
ENDMDL
MODEL      323
REMARK 921   NORMALIZED FREE ENERGY PREDICTED BY IDOCK:   -3.39 KCAL/MOL
REMARK 922        TOTAL FREE ENERGY PREDICTED BY IDOCK:   -6.39 KCAL/MOL
REMARK 923 INTER-LIGAND FREE ENERGY PREDICTED BY IDOCK:   -5.40 KCAL/MOL
REMARK 924 INTRA-LIGAND FREE ENERGY PREDICTED BY IDOCK:   -0.99 KCAL/MOL
REMARK 927      BINDING AFFINITY PREDICTED BY RF-SCORE:    0.00 PKD
ROOT
HETATM    1  C   UNL     1     -10.253  16.845  68.093  1.00  0.00    -0.311 C  
HETATM    2  C   UNL     1     -10.051  15.338  67.954  1.00  0.00    -0.233 C  
ENDROOT
BRANCH   2   3
HETATM    3  N   UNL     1     -10.795  14.719  66.840  1.00  0.00    -0.309 NA 
BRANCH   3   4
HETATM    4  C   UNL     1     -10.332  15.138  65.509  1.00  0.00    -0.375 C  
HETATM    5  C   UNL     1     -11.369  15.799  64.609  1.00  0.00    -0.343 C  
ENDBRANCH   3   4
BRANCH   3   6
HETATM    6  C   UNL     1     -10.832  13.250  67.025  1.00  0.00    -0.269 C  
BRANCH   6   7
HETATM    7  C   UNL     1     -11.880  12.744  68.029  1.00  0.00    -0.336 C  
BRANCH   7   8
HETATM    8  O   UNL     1     -11.702  11.340  68.262  1.00  0.00    -0.427 OA 
BRANCH   8   9
HETATM    9  C   UNL     1     -10.336  10.970  68.062  1.00  0.00    -0.185 C  
BRANCH   9  10
HETATM   10  C   UNL     1      -9.844  10.102  69.217  1.00  0.00    -0.220 C  
BRANCH  10  11
HETATM   11  O   UNL     1     -10.267   8.734  69.063  1.00  0.00    -0.197 OA 
BRANCH  11  12
HETATM   12  C   UNL     1     -10.652   8.108  70.214  1.00  0.00    -0.228 C  
HETATM   13  O   UNL     1     -11.624   8.451  70.880  1.00  0.00    -0.277 OA 
BRANCH  12  14
HETATM   14  C   UNL     1      -9.692   6.973  70.619  1.00  0.00    -0.174 C  
HETATM   15  C   UNL     1      -9.431   5.963  69.467  1.00  0.00    -0.166 C  
HETATM   16  C   UNL     1     -10.477   6.087  71.622  1.00  0.00    -0.276 C  
HETATM   17  C   UNL     1      -9.842   4.713  71.530  1.00  0.00    -0.259 C  
HETATM   18  C   UNL     1      -9.535   4.550  70.054  1.00  0.00    -0.247 C  
BRANCH  14  19
HETATM   19  C   UNL     1      -8.370   7.573  71.137  1.00  0.00    -0.109 A  
HETATM   20  C   UNL     1      -6.058   8.307  70.846  1.00  0.00    -0.033 A  
HETATM   21  C   UNL     1      -5.962   8.621  72.197  1.00  0.00    -0.070 A  
HETATM   22  C   UNL     1      -7.246   7.785  70.323  1.00  0.00    -0.062 A  
HETATM   23  C   UNL     1      -7.060   8.426  73.025  1.00  0.00    -0.111 A  
HETATM   24  C   UNL     1      -8.252   7.917  72.500  1.00  0.00    -0.184 A  
ENDBRANCH  14  19
ENDBRANCH  12  14
ENDBRANCH  11  12
ENDBRANCH  10  11
ENDBRANCH   9  10
ENDBRANCH   8   9
ENDBRANCH   7   8
ENDBRANCH   6   7
ENDBRANCH   3   6
ENDBRANCH   2   3
TORSDOF 11
ENDMDL
MODEL      324
REMARK 921   NORMALIZED FREE ENERGY PREDICTED BY IDOCK:   -3.38 KCAL/MOL
REMARK 922        TOTAL FREE ENERGY PREDICTED BY IDOCK:   -6.37 KCAL/MOL
REMARK 923 INTER-LIGAND FREE ENERGY PREDICTED BY IDOCK:   -5.93 KCAL/MOL
REMARK 924 INTRA-LIGAND FREE ENERGY PREDICTED BY IDOCK:   -0.44 KCAL/MOL
REMARK 927      BINDING AFFINITY PREDICTED BY RF-SCORE:    0.00 PKD
ROOT
HETATM    1  C   UNL     1      -5.717   7.700  72.149  1.00  0.00    -0.036 C  
HETATM    2  C   UNL     1      -7.155   8.110  71.841  1.00  0.00    -0.081 C  
ENDROOT
BRANCH   2   3
HETATM    3  N   UNL     1      -8.173   7.109  72.214  1.00  0.00    -0.101 NA 
BRANCH   3   4
HETATM    4  C   UNL     1      -8.521   7.119  73.643  1.00  0.00    -0.140 C  
HETATM    5  C   UNL     1      -8.188   5.857  74.429  1.00  0.00    -0.112 C  
ENDBRANCH   3   4
BRANCH   3   6
HETATM    6  C   UNL     1      -9.341   7.231  71.313  1.00  0.00    -0.154 C  
BRANCH   6   7
HETATM    7  C   UNL     1      -9.032   7.789  69.915  1.00  0.00    -0.146 C  
BRANCH   7   8
HETATM    8  O   UNL     1     -10.107   8.630  69.472  1.00  0.00    -0.192 OA 
BRANCH   8   9
HETATM    9  C   UNL     1      -9.851   9.993  69.818  1.00  0.00    -0.235 C  
BRANCH   9  10
HETATM   10  C   UNL     1     -11.112  10.835  69.639  1.00  0.00    -0.279 C  
BRANCH  10  11
HETATM   11  O   UNL     1     -10.876  11.953  68.761  1.00  0.00    -0.216 OA 
BRANCH  11  12
HETATM   12  C   UNL     1     -11.363  13.151  69.197  1.00  0.00    -0.281 C  
HETATM   13  O   UNL     1     -12.280  13.257  70.006  1.00  0.00    -0.317 OA 
BRANCH  12  14
HETATM   14  C   UNL     1     -10.685  14.351  68.508  1.00  0.00    -0.258 C  
HETATM   15  C   UNL     1      -9.134  14.273  68.551  1.00  0.00    -0.191 C  
HETATM   16  C   UNL     1     -10.949  15.575  69.425  1.00  0.00    -0.276 C  
HETATM   17  C   UNL     1      -9.823  16.548  69.133  1.00  0.00    -0.254 C  
HETATM   18  C   UNL     1      -8.609  15.658  68.951  1.00  0.00    -0.211 C  
BRANCH  14  19
HETATM   19  C   UNL     1     -11.193  14.470  67.058  1.00  0.00    -0.342 A  
HETATM   20  C   UNL     1     -11.190  15.482  64.834  1.00  0.00    -0.396 A  
HETATM   21  C   UNL     1     -12.237  14.659  64.432  1.00  0.00    -0.473 A  
HETATM   22  C   UNL     1     -10.677  15.391  66.132  1.00  0.00    -0.316 A  
HETATM   23  C   UNL     1     -12.764  13.736  65.325  1.00  0.00    -0.481 A  
HETATM   24  C   UNL     1     -12.242  13.636  66.619  1.00  0.00    -0.437 A  
ENDBRANCH  14  19
ENDBRANCH  12  14
ENDBRANCH  11  12
ENDBRANCH  10  11
ENDBRANCH   9  10
ENDBRANCH   8   9
ENDBRANCH   7   8
ENDBRANCH   6   7
ENDBRANCH   3   6
ENDBRANCH   2   3
TORSDOF 11
ENDMDL
MODEL      325
REMARK 921   NORMALIZED FREE ENERGY PREDICTED BY IDOCK:   -3.38 KCAL/MOL
REMARK 922        TOTAL FREE ENERGY PREDICTED BY IDOCK:   -6.37 KCAL/MOL
REMARK 923 INTER-LIGAND FREE ENERGY PREDICTED BY IDOCK:   -5.30 KCAL/MOL
REMARK 924 INTRA-LIGAND FREE ENERGY PREDICTED BY IDOCK:   -1.07 KCAL/MOL
REMARK 927      BINDING AFFINITY PREDICTED BY RF-SCORE:    0.00 PKD
ROOT
HETATM    1  C   UNL     1      -9.901  15.277  65.433  1.00  0.00    -0.318 C  
HETATM    2  C   UNL     1     -11.353  15.181  64.971  1.00  0.00    -0.380 C  
ENDROOT
BRANCH   2   3
HETATM    3  N   UNL     1     -12.010  13.894  65.270  1.00  0.00    -0.355 NA 
BRANCH   3   4
HETATM    4  C   UNL     1     -11.316  12.728  64.704  1.00  0.00    -0.321 C  
HETATM    5  C   UNL     1     -11.814  12.236  63.350  1.00  0.00    -0.563 C  
ENDBRANCH   3   4
BRANCH   3   6
HETATM    6  C   UNL     1     -12.261  13.793  66.726  1.00  0.00    -0.397 C  
BRANCH   6   7
HETATM    7  C   UNL     1     -11.369  12.788  67.473  1.00  0.00    -0.312 C  
BRANCH   7   8
HETATM    8  O   UNL     1     -11.987  12.406  68.710  1.00  0.00    -0.302 OA 
BRANCH   8   9
HETATM    9  C   UNL     1     -11.864  10.997  68.917  1.00  0.00    -0.308 C  
BRANCH   9  10
HETATM   10  C   UNL     1     -10.414  10.628  69.223  1.00  0.00    -0.227 C  
BRANCH  10  11
HETATM   11  O   UNL     1     -10.004   9.460  68.486  1.00  0.00    -0.163 OA 
BRANCH  11  12
HETATM   12  C   UNL     1      -9.627   8.392  69.247  1.00  0.00    -0.164 C  
HETATM   13  O   UNL     1     -10.188   8.070  70.290  1.00  0.00    -0.195 OA 
BRANCH  12  14
HETATM   14  C   UNL     1      -8.377   7.682  68.691  1.00  0.00    -0.129 C  
HETATM   15  C   UNL     1      -7.143   7.811  69.626  1.00  0.00    -0.063 C  
HETATM   16  C   UNL     1      -7.917   8.524  67.471  1.00  0.00    -0.106 C  
HETATM   17  C   UNL     1      -6.433   8.246  67.325  1.00  0.00    -0.058 C  
HETATM   18  C   UNL     1      -5.933   8.171  68.755  1.00  0.00    -0.043 C  
BRANCH  14  19
HETATM   19  C   UNL     1      -8.704   6.204  68.406  1.00  0.00    -0.115 A  
HETATM   20  C   UNL     1      -9.727   4.423  67.082  1.00  0.00    -0.230 A  
HETATM   21  C   UNL     1      -9.314   3.467  68.004  1.00  0.00    -0.241 A  
HETATM   22  C   UNL     1      -9.429   5.775  67.283  1.00  0.00    -0.116 A  
HETATM   23  C   UNL     1      -8.591   3.862  69.122  1.00  0.00    -0.113 A  
HETATM   24  C   UNL     1      -8.283   5.212  69.316  1.00  0.00    -0.084 A  
ENDBRANCH  14  19
ENDBRANCH  12  14
ENDBRANCH  11  12
ENDBRANCH  10  11
ENDBRANCH   9  10
ENDBRANCH   8   9
ENDBRANCH   7   8
ENDBRANCH   6   7
ENDBRANCH   3   6
ENDBRANCH   2   3
TORSDOF 11
ENDMDL
MODEL      326
REMARK 921   NORMALIZED FREE ENERGY PREDICTED BY IDOCK:   -3.38 KCAL/MOL
REMARK 922        TOTAL FREE ENERGY PREDICTED BY IDOCK:   -6.37 KCAL/MOL
REMARK 923 INTER-LIGAND FREE ENERGY PREDICTED BY IDOCK:   -5.99 KCAL/MOL
REMARK 924 INTRA-LIGAND FREE ENERGY PREDICTED BY IDOCK:   -0.38 KCAL/MOL
REMARK 927      BINDING AFFINITY PREDICTED BY RF-SCORE:    0.00 PKD
ROOT
HETATM    1  C   UNL     1     -12.342  12.729  64.787  1.00  0.00    -0.540 C  
HETATM    2  C   UNL     1     -11.519  12.032  65.867  1.00  0.00    -0.333 C  
ENDROOT
BRANCH   2   3
HETATM    3  N   UNL     1     -10.181  12.612  66.091  1.00  0.00    -0.253 NA 
BRANCH   3   4
HETATM    4  C   UNL     1     -10.202  13.885  66.827  1.00  0.00    -0.268 C  
HETATM    5  C   UNL     1      -9.678  15.107  66.081  1.00  0.00    -0.338 C  
ENDBRANCH   3   4
BRANCH   3   6
HETATM    6  C   UNL     1      -9.291  11.591  66.688  1.00  0.00    -0.189 C  
BRANCH   6   7
HETATM    7  C   UNL     1      -9.993  10.305  67.154  1.00  0.00    -0.197 C  
BRANCH   7   8
HETATM    8  O   UNL     1      -9.093   9.511  67.940  1.00  0.00    -0.126 OA 
BRANCH   8   9
HETATM    9  C   UNL     1      -8.999   8.188  67.407  1.00  0.00    -0.137 C  
BRANCH   9  10
HETATM   10  C   UNL     1     -10.389   7.579  67.240  1.00  0.00    -0.296 C  
BRANCH  10  11
HETATM   11  O   UNL     1     -10.695   6.668  68.312  1.00  0.00    -0.216 OA 
BRANCH  11  12
HETATM   12  C   UNL     1      -9.666   6.406  69.169  1.00  0.00    -0.136 C  
HETATM   13  O   UNL     1      -8.665   5.770  68.853  1.00  0.00    -0.111 OA 
BRANCH  12  14
HETATM   14  C   UNL     1      -9.933   6.933  70.592  1.00  0.00    -0.198 C  
HETATM   15  C   UNL     1     -11.050   8.012  70.636  1.00  0.00    -0.266 C  
HETATM   16  C   UNL     1      -8.687   7.775  70.976  1.00  0.00    -0.138 C  
HETATM   17  C   UNL     1      -9.175   8.765  72.017  1.00  0.00    -0.294 C  
HETATM   18  C   UNL     1     -10.556   9.158  71.529  1.00  0.00    -0.428 C  
BRANCH  14  19
HETATM   19  C   UNL     1     -10.267   5.754  71.527  1.00  0.00    -0.255 A  
HETATM   20  C   UNL     1      -9.847   3.531  72.450  1.00  0.00    -0.229 A  
HETATM   21  C   UNL     1     -10.997   3.611  73.229  1.00  0.00    -0.276 A  
HETATM   22  C   UNL     1      -9.489   4.587  71.607  1.00  0.00    -0.210 A  
HETATM   23  C   UNL     1     -11.782   4.754  73.174  1.00  0.00    -0.213 A  
HETATM   24  C   UNL     1     -11.417   5.817  72.340  1.00  0.00    -0.343 A  
ENDBRANCH  14  19
ENDBRANCH  12  14
ENDBRANCH  11  12
ENDBRANCH  10  11
ENDBRANCH   9  10
ENDBRANCH   8   9
ENDBRANCH   7   8
ENDBRANCH   6   7
ENDBRANCH   3   6
ENDBRANCH   2   3
TORSDOF 11
ENDMDL
MODEL      327
REMARK 921   NORMALIZED FREE ENERGY PREDICTED BY IDOCK:   -3.37 KCAL/MOL
REMARK 922        TOTAL FREE ENERGY PREDICTED BY IDOCK:   -6.36 KCAL/MOL
REMARK 923 INTER-LIGAND FREE ENERGY PREDICTED BY IDOCK:   -6.75 KCAL/MOL
REMARK 924 INTRA-LIGAND FREE ENERGY PREDICTED BY IDOCK:    0.39 KCAL/MOL
REMARK 927      BINDING AFFINITY PREDICTED BY RF-SCORE:    0.00 PKD
ROOT
HETATM    1  C   UNL     1     -12.476  15.482  71.824  1.00  0.00    -0.474 C  
HETATM    2  C   UNL     1     -12.261  14.192  71.036  1.00  0.00    -0.358 C  
ENDROOT
BRANCH   2   3
HETATM    3  N   UNL     1     -11.885  14.390  69.623  1.00  0.00    -0.302 NA 
BRANCH   3   4
HETATM    4  C   UNL     1     -10.696  15.236  69.437  1.00  0.00    -0.265 C  
HETATM    5  C   UNL     1      -9.348  14.569  69.680  1.00  0.00     0.416 C  
ENDBRANCH   3   4
BRANCH   3   6
HETATM    6  C   UNL     1     -11.797  13.077  68.944  1.00  0.00    -0.316 C  
BRANCH   6   7
HETATM    7  C   UNL     1     -11.191  13.111  67.532  1.00  0.00    -0.282 C  
BRANCH   7   8
HETATM    8  O   UNL     1     -11.939  14.008  66.698  1.00  0.00    -0.402 OA 
BRANCH   8   9
HETATM    9  C   UNL     1     -11.336  15.305  66.692  1.00  0.00    -0.170 C  
BRANCH   9  10
HETATM   10  C   UNL     1     -10.314  15.412  65.563  1.00  0.00    -0.387 C  
BRANCH  10  11
HETATM   11  O   UNL     1      -9.726  16.726  65.510  1.00  0.00    -0.537 OA 
BRANCH  11  12
HETATM   12  C   UNL     1      -8.680  16.933  66.363  1.00  0.00    -0.286 C  
HETATM   13  O   UNL     1      -7.753  16.141  66.503  1.00  0.00    -0.249 OA 
BRANCH  12  14
HETATM   14  C   UNL     1      -8.832  18.231  67.178  1.00  0.00    -0.260 C  
HETATM   15  C   UNL     1     -10.102  18.238  68.073  1.00  0.00    -0.381 C  
HETATM   16  C   UNL     1      -9.182  19.341  66.151  1.00  0.00    -0.287 C  
HETATM   17  C   UNL     1      -9.927  20.401  66.941  1.00  0.00    -0.549 C  
HETATM   18  C   UNL     1     -10.781  19.604  67.908  1.00  0.00    -0.403 C  
BRANCH  14  19
HETATM   19  C   UNL     1      -7.562  18.466  68.019  1.00  0.00    -0.270 A  
HETATM   20  C   UNL     1      -5.479  19.640  68.524  1.00  0.00    -0.222 A  
HETATM   21  C   UNL     1      -5.221  18.776  69.584  1.00  0.00    -0.193 A  
HETATM   22  C   UNL     1      -6.633  19.483  67.749  1.00  0.00    -0.251 A  
HETATM   23  C   UNL     1      -6.124  17.763  69.877  1.00  0.00    -0.168 A  
HETATM   24  C   UNL     1      -7.285  17.615  69.109  1.00  0.00    -0.153 A  
ENDBRANCH  14  19
ENDBRANCH  12  14
ENDBRANCH  11  12
ENDBRANCH  10  11
ENDBRANCH   9  10
ENDBRANCH   8   9
ENDBRANCH   7   8
ENDBRANCH   6   7
ENDBRANCH   3   6
ENDBRANCH   2   3
TORSDOF 11
ENDMDL
MODEL      328
REMARK 921   NORMALIZED FREE ENERGY PREDICTED BY IDOCK:   -3.36 KCAL/MOL
REMARK 922        TOTAL FREE ENERGY PREDICTED BY IDOCK:   -6.34 KCAL/MOL
REMARK 923 INTER-LIGAND FREE ENERGY PREDICTED BY IDOCK:   -5.10 KCAL/MOL
REMARK 924 INTRA-LIGAND FREE ENERGY PREDICTED BY IDOCK:   -1.23 KCAL/MOL
REMARK 927      BINDING AFFINITY PREDICTED BY RF-SCORE:    0.00 PKD
ROOT
HETATM    1  C   UNL     1     -10.211  20.105  66.413  1.00  0.00    -0.552 C  
HETATM    2  C   UNL     1     -10.532  19.365  67.710  1.00  0.00    -0.441 C  
ENDROOT
BRANCH   2   3
HETATM    3  N   UNL     1     -10.109  17.952  67.732  1.00  0.00    -0.330 NA 
BRANCH   3   4
HETATM    4  C   UNL     1      -9.691  17.436  66.420  1.00  0.00    -0.290 C  
HETATM    5  C   UNL     1     -10.561  16.341  65.815  1.00  0.00    -0.336 C  
ENDBRANCH   3   4
BRANCH   3   6
HETATM    6  C   UNL     1      -9.103  17.753  68.801  1.00  0.00    -0.205 C  
BRANCH   6   7
HETATM    7  C   UNL     1      -7.722  17.285  68.317  1.00  0.00    -0.234 C  
BRANCH   7   8
HETATM    8  O   UNL     1      -7.127  16.417  69.293  1.00  0.00    -0.213 OA 
BRANCH   8   9
HETATM    9  C   UNL     1      -6.685  15.204  68.681  1.00  0.00    -0.093 C  
BRANCH   9  10
HETATM   10  C   UNL     1      -7.415  14.976  67.360  1.00  0.00    -0.205 C  
BRANCH  10  11
HETATM   11  O   UNL     1      -7.761  13.589  67.183  1.00  0.00    -0.111 OA 
BRANCH  11  12
HETATM   12  C   UNL     1      -9.007  13.237  67.615  1.00  0.00    -0.199 C  
HETATM   13  O   UNL     1      -9.688  13.935  68.361  1.00  0.00    -0.222 OA 
BRANCH  12  14
HETATM   14  C   UNL     1      -9.431  11.841  67.121  1.00  0.00    -0.180 C  
HETATM   15  C   UNL     1      -8.926  11.529  65.686  1.00  0.00    -0.081 C  
HETATM   16  C   UNL     1     -10.964  11.917  66.890  1.00  0.00    -0.335 C  
HETATM   17  C   UNL     1     -11.270  10.847  65.859  1.00  0.00     0.163 C  
HETATM   18  C   UNL     1     -10.093  10.912  64.904  1.00  0.00    -0.374 C  
BRANCH  14  19
HETATM   19  C   UNL     1      -8.951  10.770  68.121  1.00  0.00    -0.140 A  
HETATM   20  C   UNL     1      -9.297   9.240  69.993  1.00  0.00    -0.232 A  
HETATM   21  C   UNL     1      -7.960   8.857  69.960  1.00  0.00    -0.109 A  
HETATM   22  C   UNL     1      -9.785  10.187  69.088  1.00  0.00    -0.225 A  
HETATM   23  C   UNL     1      -7.113   9.414  69.011  1.00  0.00    -0.066 A  
HETATM   24  C   UNL     1      -7.604  10.353  68.097  1.00  0.00    -0.091 A  
ENDBRANCH  14  19
ENDBRANCH  12  14
ENDBRANCH  11  12
ENDBRANCH  10  11
ENDBRANCH   9  10
ENDBRANCH   8   9
ENDBRANCH   7   8
ENDBRANCH   6   7
ENDBRANCH   3   6
ENDBRANCH   2   3
TORSDOF 11
ENDMDL
MODEL      329
REMARK 921   NORMALIZED FREE ENERGY PREDICTED BY IDOCK:   -3.36 KCAL/MOL
REMARK 922        TOTAL FREE ENERGY PREDICTED BY IDOCK:   -6.33 KCAL/MOL
REMARK 923 INTER-LIGAND FREE ENERGY PREDICTED BY IDOCK:   -5.18 KCAL/MOL
REMARK 924 INTRA-LIGAND FREE ENERGY PREDICTED BY IDOCK:   -1.15 KCAL/MOL
REMARK 927      BINDING AFFINITY PREDICTED BY RF-SCORE:    0.00 PKD
ROOT
HETATM    1  C   UNL     1     -11.579   8.972  71.161  1.00  0.00    -0.372 C  
HETATM    2  C   UNL     1     -11.075   7.716  70.454  1.00  0.00    -0.258 C  
ENDROOT
BRANCH   2   3
HETATM    3  N   UNL     1      -9.617   7.679  70.232  1.00  0.00    -0.172 NA 
BRANCH   3   4
HETATM    4  C   UNL     1      -8.826   7.705  71.472  1.00  0.00    -0.124 C  
HETATM    5  C   UNL     1      -8.041   6.440  71.799  1.00  0.00    -0.105 C  
ENDBRANCH   3   4
BRANCH   3   6
HETATM    6  C   UNL     1      -9.281   6.552  69.332  1.00  0.00    -0.144 C  
BRANCH   6   7
HETATM    7  C   UNL     1     -10.197   6.399  68.108  1.00  0.00    -0.167 C  
BRANCH   7   8
HETATM    8  O   UNL     1      -9.995   7.494  67.202  1.00  0.00    -0.179 OA 
BRANCH   8   9
HETATM    9  C   UNL     1      -8.618   7.591  66.833  1.00  0.00    -0.124 C  
BRANCH   9  10
HETATM   10  C   UNL     1      -8.131   9.032  66.963  1.00  0.00    -0.106 C  
BRANCH  10  11
HETATM   11  O   UNL     1      -8.501   9.816  65.813  1.00  0.00    -0.128 OA 
BRANCH  11  12
HETATM   12  C   UNL     1      -8.581  11.162  66.024  1.00  0.00    -0.154 C  
HETATM   13  O   UNL     1      -7.645  11.840  66.439  1.00  0.00    -0.008 OA 
BRANCH  12  14
HETATM   14  C   UNL     1      -9.991  11.720  65.753  1.00  0.00    -0.269 C  
HETATM   15  C   UNL     1     -10.839  10.797  64.835  1.00  0.00    -0.055 C  
HETATM   16  C   UNL     1      -9.791  12.955  64.834  1.00  0.00    -0.048 C  
HETATM   17  C   UNL     1     -11.097  13.110  64.077  1.00  0.00    -0.395 C  
HETATM   18  C   UNL     1     -11.522  11.684  63.785  1.00  0.00    -0.457 C  
BRANCH  14  19
HETATM   19  C   UNL     1     -10.710  11.983  67.090  1.00  0.00    -0.277 A  
HETATM   20  C   UNL     1     -11.969  11.259  69.055  1.00  0.00    -0.393 A  
HETATM   21  C   UNL     1     -12.068  12.571  69.505  1.00  0.00    -0.248 A  
HETATM   22  C   UNL     1     -11.302  10.969  67.861  1.00  0.00    -0.381 A  
HETATM   23  C   UNL     1     -11.488  13.594  68.766  1.00  0.00    -0.346 A  
HETATM   24  C   UNL     1     -10.810  13.302  67.577  1.00  0.00    -0.276 A  
ENDBRANCH  14  19
ENDBRANCH  12  14
ENDBRANCH  11  12
ENDBRANCH  10  11
ENDBRANCH   9  10
ENDBRANCH   8   9
ENDBRANCH   7   8
ENDBRANCH   6   7
ENDBRANCH   3   6
ENDBRANCH   2   3
TORSDOF 11
ENDMDL
MODEL      330
REMARK 921   NORMALIZED FREE ENERGY PREDICTED BY IDOCK:   -3.35 KCAL/MOL
REMARK 922        TOTAL FREE ENERGY PREDICTED BY IDOCK:   -6.32 KCAL/MOL
REMARK 923 INTER-LIGAND FREE ENERGY PREDICTED BY IDOCK:   -4.88 KCAL/MOL
REMARK 924 INTRA-LIGAND FREE ENERGY PREDICTED BY IDOCK:   -1.44 KCAL/MOL
REMARK 927      BINDING AFFINITY PREDICTED BY RF-SCORE:    0.00 PKD
ROOT
HETATM    1  C   UNL     1      -9.869   4.183  65.047  1.00  0.00    -0.207 C  
HETATM    2  C   UNL     1      -9.444   3.742  66.446  1.00  0.00    -0.183 C  
ENDROOT
BRANCH   2   3
HETATM    3  N   UNL     1      -8.203   2.945  66.488  1.00  0.00    -0.085 NA 
BRANCH   3   4
HETATM    4  C   UNL     1      -7.023   3.705  66.928  1.00  0.00    -0.055 C  
HETATM    5  C   UNL     1      -5.938   3.933  65.883  1.00  0.00    -0.023 C  
ENDBRANCH   3   4
BRANCH   3   6
HETATM    6  C   UNL     1      -8.438   1.704  67.262  1.00  0.00    -0.084 C  
BRANCH   6   7
HETATM    7  C   UNL     1      -9.445   1.834  68.415  1.00  0.00    -0.182 C  
BRANCH   7   8
HETATM    8  O   UNL     1      -8.751   2.020  69.657  1.00  0.00    -0.053 OA 
BRANCH   8   9
HETATM    9  C   UNL     1      -9.384   3.036  70.437  1.00  0.00    -0.156 C  
BRANCH   9  10
HETATM   10  C   UNL     1      -8.641   4.361  70.293  1.00  0.00    -0.076 C  
BRANCH  10  11
HETATM   11  O   UNL     1      -9.540   5.432  69.948  1.00  0.00    -0.149 OA 
BRANCH  11  12
HETATM   12  C   UNL     1      -9.208   6.658  70.450  1.00  0.00    -0.156 C  
HETATM   13  O   UNL     1      -8.074   6.960  70.809  1.00  0.00    -0.111 OA 
BRANCH  12  14
HETATM   14  C   UNL     1     -10.427   7.592  70.581  1.00  0.00    -0.221 C  
HETATM   15  C   UNL     1     -10.523   8.265  71.978  1.00  0.00    -0.350 C  
HETATM   16  C   UNL     1     -11.672   6.666  70.608  1.00  0.00    -0.452 C  
HETATM   17  C   UNL     1     -12.742   7.450  71.343  1.00  0.00    -0.408 C  
HETATM   18  C   UNL     1     -11.981   8.162  72.445  1.00  0.00    -0.431 C  
BRANCH  14  19
HETATM   19  C   UNL     1     -10.393   8.648  69.459  1.00  0.00    -0.214 A  
HETATM   20  C   UNL     1     -10.451   9.322  67.111  1.00  0.00    -0.319 A  
HETATM   21  C   UNL     1     -10.254  10.653  67.464  1.00  0.00    -0.236 A  
HETATM   22  C   UNL     1     -10.516   8.332  68.097  1.00  0.00    -0.226 A  
HETATM   23  C   UNL     1     -10.134  10.996  68.804  1.00  0.00    -0.214 A  
HETATM   24  C   UNL     1     -10.211  10.006  69.791  1.00  0.00    -0.286 A  
ENDBRANCH  14  19
ENDBRANCH  12  14
ENDBRANCH  11  12
ENDBRANCH  10  11
ENDBRANCH   9  10
ENDBRANCH   8   9
ENDBRANCH   7   8
ENDBRANCH   6   7
ENDBRANCH   3   6
ENDBRANCH   2   3
TORSDOF 11
ENDMDL
MODEL      331
REMARK 921   NORMALIZED FREE ENERGY PREDICTED BY IDOCK:   -3.34 KCAL/MOL
REMARK 922        TOTAL FREE ENERGY PREDICTED BY IDOCK:   -6.31 KCAL/MOL
REMARK 923 INTER-LIGAND FREE ENERGY PREDICTED BY IDOCK:   -5.17 KCAL/MOL
REMARK 924 INTRA-LIGAND FREE ENERGY PREDICTED BY IDOCK:   -1.14 KCAL/MOL
REMARK 927      BINDING AFFINITY PREDICTED BY RF-SCORE:    0.00 PKD
ROOT
HETATM    1  C   UNL     1      -8.360   4.663  64.602  1.00  0.00    -0.125 C  
HETATM    2  C   UNL     1      -9.559   4.767  65.542  1.00  0.00    -0.161 C  
ENDROOT
BRANCH   2   3
HETATM    3  N   UNL     1      -9.210   4.932  66.966  1.00  0.00    -0.119 NA 
BRANCH   3   4
HETATM    4  C   UNL     1      -9.703   3.847  67.828  1.00  0.00    -0.086 C  
HETATM    5  C   UNL     1      -9.121   2.462  67.571  1.00  0.00    -0.208 C  
ENDBRANCH   3   4
BRANCH   3   6
HETATM    6  C   UNL     1      -7.756   5.184  67.094  1.00  0.00    -0.092 C  
BRANCH   6   7
HETATM    7  C   UNL     1      -7.378   6.388  67.970  1.00  0.00    -0.089 C  
BRANCH   7   8
HETATM    8  O   UNL     1      -7.297   5.990  69.347  1.00  0.00    -0.075 OA 
BRANCH   8   9
HETATM    9  C   UNL     1      -6.519   6.927  70.094  1.00  0.00    -0.040 C  
BRANCH   9  10
HETATM   10  C   UNL     1      -7.420   7.988  70.722  1.00  0.00    -0.072 C  
BRANCH  10  11
HETATM   11  O   UNL     1      -8.721   7.453  71.035  1.00  0.00    -0.136 OA 
BRANCH  11  12
HETATM   12  C   UNL     1      -9.514   8.256  71.803  1.00  0.00    -0.209 C  
HETATM   13  O   UNL     1      -9.150   8.753  72.865  1.00  0.00    -0.311 OA 
BRANCH  12  14
HETATM   14  C   UNL     1     -10.934   8.410  71.226  1.00  0.00    -0.305 C  
HETATM   15  C   UNL     1     -11.830   9.357  72.071  1.00  0.00    -0.310 C  
HETATM   16  C   UNL     1     -11.638   7.046  71.458  1.00  0.00    -0.322 C  
HETATM   17  C   UNL     1     -13.121   7.359  71.498  1.00  0.00    -0.424 C  
HETATM   18  C   UNL     1     -13.196   8.681  72.238  1.00  0.00    -0.410 C  
BRANCH  14  19
HETATM   19  C   UNL     1     -10.850   8.887  69.763  1.00  0.00    -0.207 A  
HETATM   20  C   UNL     1     -10.401   8.533  67.388  1.00  0.00    -0.356 A  
HETATM   21  C   UNL     1     -10.660   9.872  67.114  1.00  0.00    -0.295 A  
HETATM   22  C   UNL     1     -10.491   8.048  68.696  1.00  0.00    -0.196 A  
HETATM   23  C   UNL     1     -11.022  10.724  68.149  1.00  0.00    -0.308 A  
HETATM   24  C   UNL     1     -11.125  10.235  69.456  1.00  0.00    -0.310 A  
ENDBRANCH  14  19
ENDBRANCH  12  14
ENDBRANCH  11  12
ENDBRANCH  10  11
ENDBRANCH   9  10
ENDBRANCH   8   9
ENDBRANCH   7   8
ENDBRANCH   6   7
ENDBRANCH   3   6
ENDBRANCH   2   3
TORSDOF 11
ENDMDL
MODEL      332
REMARK 921   NORMALIZED FREE ENERGY PREDICTED BY IDOCK:   -3.33 KCAL/MOL
REMARK 922        TOTAL FREE ENERGY PREDICTED BY IDOCK:   -6.29 KCAL/MOL
REMARK 923 INTER-LIGAND FREE ENERGY PREDICTED BY IDOCK:   -5.87 KCAL/MOL
REMARK 924 INTRA-LIGAND FREE ENERGY PREDICTED BY IDOCK:   -0.42 KCAL/MOL
REMARK 927      BINDING AFFINITY PREDICTED BY RF-SCORE:    0.00 PKD
ROOT
HETATM    1  C   UNL     1      -7.548   9.960  70.060  1.00  0.00    -0.179 C  
HETATM    2  C   UNL     1      -6.710  10.175  68.802  1.00  0.00    -0.053 C  
ENDROOT
BRANCH   2   3
HETATM    3  N   UNL     1      -7.479  10.169  67.543  1.00  0.00    -0.090 NA 
BRANCH   3   4
HETATM    4  C   UNL     1      -8.681   9.322  67.585  1.00  0.00    -0.116 C  
HETATM    5  C   UNL     1      -9.295   8.954  66.240  1.00  0.00    -0.279 C  
ENDBRANCH   3   4
BRANCH   3   6
HETATM    6  C   UNL     1      -7.745  11.563  67.118  1.00  0.00    -0.160 C  
BRANCH   6   7
HETATM    7  C   UNL     1      -6.637  12.572  67.460  1.00  0.00    -0.150 C  
BRANCH   7   8
HETATM    8  O   UNL     1      -7.135  13.557  68.377  1.00  0.00    -0.089 OA 
BRANCH   8   9
HETATM    9  C   UNL     1      -6.216  14.645  68.489  1.00  0.00    -0.089 C  
BRANCH   9  10
HETATM   10  C   UNL     1      -6.623  15.785  67.558  1.00  0.00    -0.183 C  
BRANCH  10  11
HETATM   11  O   UNL     1      -7.273  16.847  68.282  1.00  0.00    -0.173 OA 
BRANCH  11  12
HETATM   12  C   UNL     1      -8.624  16.712  68.429  1.00  0.00    -0.221 C  
HETATM   13  O   UNL     1      -9.146  16.051  69.323  1.00  0.00    -0.246 OA 
BRANCH  12  14
HETATM   14  C   UNL     1      -9.413  17.418  67.311  1.00  0.00    -0.251 C  
HETATM   15  C   UNL     1      -8.556  18.446  66.523  1.00  0.00    -0.287 C  
HETATM   16  C   UNL     1     -10.422  18.356  68.027  1.00  0.00    -0.390 C  
HETATM   17  C   UNL     1     -10.725  19.459  67.032  1.00  0.00    -0.582 C  
HETATM   18  C   UNL     1      -9.390  19.724  66.362  1.00  0.00    -0.488 C  
BRANCH  14  19
HETATM   19  C   UNL     1     -10.024  16.367  66.364  1.00  0.00    -0.318 A  
HETATM   20  C   UNL     1     -11.456  15.695  64.502  1.00  0.00    -0.304 A  
HETATM   21  C   UNL     1     -11.147  14.355  64.716  1.00  0.00    -0.402 A  
HETATM   22  C   UNL     1     -10.904  16.687  65.318  1.00  0.00    -0.194 A  
HETATM   23  C   UNL     1     -10.276  14.009  65.740  1.00  0.00    -0.343 A  
HETATM   24  C   UNL     1      -9.714  15.004  66.549  1.00  0.00    -0.285 A  
ENDBRANCH  14  19
ENDBRANCH  12  14
ENDBRANCH  11  12
ENDBRANCH  10  11
ENDBRANCH   9  10
ENDBRANCH   8   9
ENDBRANCH   7   8
ENDBRANCH   6   7
ENDBRANCH   3   6
ENDBRANCH   2   3
TORSDOF 11
ENDMDL
MODEL      333
REMARK 921   NORMALIZED FREE ENERGY PREDICTED BY IDOCK:   -3.32 KCAL/MOL
REMARK 922        TOTAL FREE ENERGY PREDICTED BY IDOCK:   -6.28 KCAL/MOL
REMARK 923 INTER-LIGAND FREE ENERGY PREDICTED BY IDOCK:   -5.28 KCAL/MOL
REMARK 924 INTRA-LIGAND FREE ENERGY PREDICTED BY IDOCK:   -1.00 KCAL/MOL
REMARK 927      BINDING AFFINITY PREDICTED BY RF-SCORE:    0.00 PKD
ROOT
HETATM    1  C   UNL     1      -8.723   8.701  69.228  1.00  0.00    -0.133 C  
HETATM    2  C   UNL     1      -9.769   9.469  68.422  1.00  0.00    -0.154 C  
ENDROOT
BRANCH   2   3
HETATM    3  N   UNL     1      -9.239  10.624  67.673  1.00  0.00    -0.146 NA 
BRANCH   3   4
HETATM    4  C   UNL     1      -8.398  10.253  66.525  1.00  0.00    -0.126 C  
HETATM    5  C   UNL     1      -8.798   8.988  65.775  1.00  0.00    -0.216 C  
ENDBRANCH   3   4
BRANCH   3   6
HETATM    6  C   UNL     1     -10.349  11.542  67.329  1.00  0.00    -0.206 C  
BRANCH   6   7
HETATM    7  C   UNL     1     -10.952  12.310  68.515  1.00  0.00    -0.240 C  
BRANCH   7   8
HETATM    8  O   UNL     1     -11.772  13.387  68.039  1.00  0.00    -0.315 OA 
BRANCH   8   9
HETATM    9  C   UNL     1     -11.394  13.754  66.710  1.00  0.00    -0.330 C  
BRANCH   9  10
HETATM   10  C   UNL     1     -11.473  15.268  66.531  1.00  0.00    -0.095 C  
BRANCH  10  11
HETATM   11  O   UNL     1     -10.288  15.783  65.895  1.00  0.00    -0.311 OA 
BRANCH  11  12
HETATM   12  C   UNL     1      -9.715  16.858  66.510  1.00  0.00    -0.281 C  
HETATM   13  O   UNL     1     -10.046  18.020  66.293  1.00  0.00    -0.352 OA 
BRANCH  12  14
HETATM   14  C   UNL     1      -8.561  16.455  67.449  1.00  0.00    -0.193 C  
HETATM   15  C   UNL     1      -7.990  15.046  67.133  1.00  0.00    -0.238 C  
HETATM   16  C   UNL     1      -9.208  16.212  68.838  1.00  0.00    -0.234 C  
HETATM   17  C   UNL     1      -8.277  15.252  69.554  1.00  0.00    -0.188 C  
HETATM   18  C   UNL     1      -7.823  14.301  68.463  1.00  0.00    -0.143 C  
BRANCH  14  19
HETATM   19  C   UNL     1      -7.454  17.526  67.397  1.00  0.00    -0.212 A  
HETATM   20  C   UNL     1      -5.300  18.384  66.625  1.00  0.00    -0.163 A  
HETATM   21  C   UNL     1      -5.441  19.518  67.419  1.00  0.00    -0.168 A  
HETATM   22  C   UNL     1      -6.292  17.399  66.618  1.00  0.00    -0.250 A  
HETATM   23  C   UNL     1      -6.581  19.673  68.196  1.00  0.00    -0.295 A  
HETATM   24  C   UNL     1      -7.579  18.693  68.179  1.00  0.00    -0.292 A  
ENDBRANCH  14  19
ENDBRANCH  12  14
ENDBRANCH  11  12
ENDBRANCH  10  11
ENDBRANCH   9  10
ENDBRANCH   8   9
ENDBRANCH   7   8
ENDBRANCH   6   7
ENDBRANCH   3   6
ENDBRANCH   2   3
TORSDOF 11
ENDMDL
MODEL      334
REMARK 921   NORMALIZED FREE ENERGY PREDICTED BY IDOCK:   -3.32 KCAL/MOL
REMARK 922        TOTAL FREE ENERGY PREDICTED BY IDOCK:   -6.27 KCAL/MOL
REMARK 923 INTER-LIGAND FREE ENERGY PREDICTED BY IDOCK:   -5.50 KCAL/MOL
REMARK 924 INTRA-LIGAND FREE ENERGY PREDICTED BY IDOCK:   -0.77 KCAL/MOL
REMARK 927      BINDING AFFINITY PREDICTED BY RF-SCORE:    0.00 PKD
ROOT
HETATM    1  C   UNL     1     -11.463  16.114  70.986  1.00  0.00    -0.424 C  
HETATM    2  C   UNL     1     -12.568  15.119  70.634  1.00  0.00    -0.395 C  
ENDROOT
BRANCH   2   3
HETATM    3  N   UNL     1     -12.111  13.726  70.470  1.00  0.00    -0.347 NA 
BRANCH   3   4
HETATM    4  C   UNL     1     -12.803  12.767  71.344  1.00  0.00    -0.275 C  
HETATM    5  C   UNL     1     -13.790  13.354  72.346  1.00  0.00    -0.665 C  
ENDBRANCH   3   4
BRANCH   3   6
HETATM    6  C   UNL     1     -12.143  13.360  69.036  1.00  0.00    -0.259 C  
BRANCH   6   7
HETATM    7  C   UNL     1     -12.270  14.543  68.063  1.00  0.00    -0.092 C  
BRANCH   7   8
HETATM    8  O   UNL     1     -11.712  14.194  66.788  1.00  0.00    -0.370 OA 
BRANCH   8   9
HETATM    9  C   UNL     1     -11.566  12.777  66.677  1.00  0.00    -0.370 C  
BRANCH   9  10
HETATM   10  C   UNL     1     -10.534  12.429  65.607  1.00  0.00    -0.261 C  
BRANCH  10  11
HETATM   11  O   UNL     1     -10.141  11.045  65.687  1.00  0.00    -0.235 OA 
BRANCH  11  12
HETATM   12  C   UNL     1      -9.096  10.783  66.525  1.00  0.00    -0.165 C  
HETATM   13  O   UNL     1      -8.499  11.649  67.157  1.00  0.00    -0.149 OA 
BRANCH  12  14
HETATM   14  C   UNL     1      -8.704   9.293  66.532  1.00  0.00    -0.145 C  
HETATM   15  C   UNL     1      -9.935   8.345  66.577  1.00  0.00    -0.335 C  
HETATM   16  C   UNL     1      -8.069   9.025  67.923  1.00  0.00    -0.106 C  
HETATM   17  C   UNL     1      -8.268   7.543  68.178  1.00  0.00    -0.125 C  
HETATM   18  C   UNL     1      -9.648   7.257  67.619  1.00  0.00    -0.160 C  
BRANCH  14  19
HETATM   19  C   UNL     1      -7.814   8.985  65.312  1.00  0.00    -0.102 A  
HETATM   20  C   UNL     1      -7.082   7.567  63.463  1.00  0.00    -0.070 A  
HETATM   21  C   UNL     1      -6.086   8.478  63.126  1.00  0.00    -0.082 A  
HETATM   22  C   UNL     1      -7.932   7.815  64.545  1.00  0.00    -0.135 A  
HETATM   23  C   UNL     1      -5.950   9.646  63.864  1.00  0.00    -0.100 A  
HETATM   24  C   UNL     1      -6.809   9.901  64.939  1.00  0.00    -0.127 A  
ENDBRANCH  14  19
ENDBRANCH  12  14
ENDBRANCH  11  12
ENDBRANCH  10  11
ENDBRANCH   9  10
ENDBRANCH   8   9
ENDBRANCH   7   8
ENDBRANCH   6   7
ENDBRANCH   3   6
ENDBRANCH   2   3
TORSDOF 11
ENDMDL
MODEL      335
REMARK 921   NORMALIZED FREE ENERGY PREDICTED BY IDOCK:   -3.31 KCAL/MOL
REMARK 922        TOTAL FREE ENERGY PREDICTED BY IDOCK:   -6.25 KCAL/MOL
REMARK 923 INTER-LIGAND FREE ENERGY PREDICTED BY IDOCK:   -4.88 KCAL/MOL
REMARK 924 INTRA-LIGAND FREE ENERGY PREDICTED BY IDOCK:   -1.37 KCAL/MOL
REMARK 927      BINDING AFFINITY PREDICTED BY RF-SCORE:    0.00 PKD
ROOT
HETATM    1  C   UNL     1      -9.721   3.902  65.210  1.00  0.00    -0.187 C  
HETATM    2  C   UNL     1      -8.687   4.204  66.292  1.00  0.00    -0.115 C  
ENDROOT
BRANCH   2   3
HETATM    3  N   UNL     1      -7.292   3.919  65.905  1.00  0.00    -0.072 NA 
BRANCH   3   4
HETATM    4  C   UNL     1      -6.600   5.063  65.291  1.00  0.00    -0.037 C  
HETATM    5  C   UNL     1      -7.068   6.447  65.722  1.00  0.00    -0.062 C  
ENDBRANCH   3   4
BRANCH   3   6
HETATM    6  C   UNL     1      -6.569   3.331  67.056  1.00  0.00    -0.037 C  
BRANCH   6   7
HETATM    7  C   UNL     1      -7.382   3.232  68.356  1.00  0.00    -0.050 C  
BRANCH   7   8
HETATM    8  O   UNL     1      -6.739   3.981  69.397  1.00  0.00    -0.039 OA 
BRANCH   8   9
HETATM    9  C   UNL     1      -7.532   3.967  70.586  1.00  0.00    -0.041 C  
BRANCH   9  10
HETATM   10  C   UNL     1      -7.539   5.347  71.239  1.00  0.00    -0.101 C  
BRANCH  10  11
HETATM   11  O   UNL     1      -8.661   6.132  70.793  1.00  0.00    -0.133 OA 
BRANCH  11  12
HETATM   12  C   UNL     1      -9.637   6.341  71.725  1.00  0.00    -0.153 C  
HETATM   13  O   UNL     1      -9.629   5.830  72.841  1.00  0.00    -0.155 OA 
BRANCH  12  14
HETATM   14  C   UNL     1     -10.779   7.228  71.195  1.00  0.00    -0.244 C  
HETATM   15  C   UNL     1     -10.895   8.580  71.952  1.00  0.00    -0.392 C  
HETATM   16  C   UNL     1     -12.097   6.530  71.627  1.00  0.00    -0.381 C  
HETATM   17  C   UNL     1     -13.136   7.633  71.690  1.00  0.00    -0.392 C  
HETATM   18  C   UNL     1     -12.379   8.816  72.262  1.00  0.00    -0.448 C  
BRANCH  14  19
HETATM   19  C   UNL     1     -10.600   7.456  69.681  1.00  0.00    -0.243 A  
HETATM   20  C   UNL     1      -9.833   8.754  67.758  1.00  0.00    -0.217 A  
HETATM   21  C   UNL     1     -10.376   7.820  66.881  1.00  0.00    -0.396 A  
HETATM   22  C   UNL     1      -9.947   8.576  69.141  1.00  0.00    -0.194 A  
HETATM   23  C   UNL     1     -11.023   6.700  67.388  1.00  0.00    -0.434 A  
HETATM   24  C   UNL     1     -11.125   6.516  68.771  1.00  0.00    -0.357 A  
ENDBRANCH  14  19
ENDBRANCH  12  14
ENDBRANCH  11  12
ENDBRANCH  10  11
ENDBRANCH   9  10
ENDBRANCH   8   9
ENDBRANCH   7   8
ENDBRANCH   6   7
ENDBRANCH   3   6
ENDBRANCH   2   3
TORSDOF 11
ENDMDL
MODEL      336
REMARK 921   NORMALIZED FREE ENERGY PREDICTED BY IDOCK:   -3.30 KCAL/MOL
REMARK 922        TOTAL FREE ENERGY PREDICTED BY IDOCK:   -6.25 KCAL/MOL
REMARK 923 INTER-LIGAND FREE ENERGY PREDICTED BY IDOCK:   -5.06 KCAL/MOL
REMARK 924 INTRA-LIGAND FREE ENERGY PREDICTED BY IDOCK:   -1.19 KCAL/MOL
REMARK 927      BINDING AFFINITY PREDICTED BY RF-SCORE:    0.00 PKD
ROOT
HETATM    1  C   UNL     1     -12.379  11.978  63.677  1.00  0.00    -0.648 C  
HETATM    2  C   UNL     1     -12.311  12.760  64.988  1.00  0.00    -0.499 C  
ENDROOT
BRANCH   2   3
HETATM    3  N   UNL     1     -11.094  13.577  65.152  1.00  0.00    -0.307 NA 
BRANCH   3   4
HETATM    4  C   UNL     1     -11.361  15.015  65.312  1.00  0.00    -0.349 C  
HETATM    5  C   UNL     1     -11.667  15.791  64.037  1.00  0.00     0.087 C  
ENDBRANCH   3   4
BRANCH   3   6
HETATM    6  C   UNL     1     -10.253  13.002  66.227  1.00  0.00    -0.288 C  
BRANCH   6   7
HETATM    7  C   UNL     1     -10.891  11.840  67.004  1.00  0.00    -0.263 C  
BRANCH   7   8
HETATM    8  O   UNL     1      -9.869  11.018  67.587  1.00  0.00    -0.170 OA 
BRANCH   8   9
HETATM    9  C   UNL     1      -9.272  10.182  66.593  1.00  0.00    -0.155 C  
BRANCH   9  10
HETATM   10  C   UNL     1     -10.265   9.126  66.117  1.00  0.00    -0.119 C  
BRANCH  10  11
HETATM   11  O   UNL     1     -10.619   8.221  67.181  1.00  0.00    -0.317 OA 
BRANCH  11  12
HETATM   12  C   UNL     1     -10.046   6.984  67.112  1.00  0.00    -0.217 C  
HETATM   13  O   UNL     1      -9.808   6.406  66.056  1.00  0.00     0.024 OA 
BRANCH  12  14
HETATM   14  C   UNL     1      -9.801   6.368  68.502  1.00  0.00    -0.145 C  
HETATM   15  C   UNL     1     -11.119   6.038  69.257  1.00  0.00    -0.424 C  
HETATM   16  C   UNL     1      -9.231   7.513  69.382  1.00  0.00    -0.149 C  
HETATM   17  C   UNL     1      -9.578   7.136  70.809  1.00  0.00    -0.168 C  
HETATM   18  C   UNL     1     -10.965   6.532  70.701  1.00  0.00    -0.340 C  
BRANCH  14  19
HETATM   19  C   UNL     1      -8.914   5.116  68.365  1.00  0.00    -0.118 A  
HETATM   20  C   UNL     1      -8.577   2.700  68.227  1.00  0.00    -0.109 A  
HETATM   21  C   UNL     1      -7.197   2.871  68.176  1.00  0.00    -0.049 A  
HETATM   22  C   UNL     1      -9.424   3.808  68.324  1.00  0.00    -0.215 A  
HETATM   23  C   UNL     1      -6.665   4.153  68.210  1.00  0.00    -0.047 A  
HETATM   24  C   UNL     1      -7.513   5.262  68.294  1.00  0.00    -0.076 A  
ENDBRANCH  14  19
ENDBRANCH  12  14
ENDBRANCH  11  12
ENDBRANCH  10  11
ENDBRANCH   9  10
ENDBRANCH   8   9
ENDBRANCH   7   8
ENDBRANCH   6   7
ENDBRANCH   3   6
ENDBRANCH   2   3
TORSDOF 11
ENDMDL
MODEL      337
REMARK 921   NORMALIZED FREE ENERGY PREDICTED BY IDOCK:   -3.30 KCAL/MOL
REMARK 922        TOTAL FREE ENERGY PREDICTED BY IDOCK:   -6.23 KCAL/MOL
REMARK 923 INTER-LIGAND FREE ENERGY PREDICTED BY IDOCK:   -5.26 KCAL/MOL
REMARK 924 INTRA-LIGAND FREE ENERGY PREDICTED BY IDOCK:   -0.98 KCAL/MOL
REMARK 927      BINDING AFFINITY PREDICTED BY RF-SCORE:    0.00 PKD
ROOT
HETATM    1  C   UNL     1      -9.761  17.469  66.360  1.00  0.00    -0.299 C  
HETATM    2  C   UNL     1     -10.518  16.830  67.523  1.00  0.00    -0.319 C  
ENDROOT
BRANCH   2   3
HETATM    3  N   UNL     1      -9.830  15.684  68.148  1.00  0.00    -0.212 NA 
BRANCH   3   4
HETATM    4  C   UNL     1      -8.845  16.068  69.170  1.00  0.00    -0.245 C  
HETATM    5  C   UNL     1      -7.385  15.775  68.845  1.00  0.00    -0.162 C  
ENDBRANCH   3   4
BRANCH   3   6
HETATM    6  C   UNL     1     -10.833  14.703  68.623  1.00  0.00    -0.255 C  
BRANCH   6   7
HETATM    7  C   UNL     1     -10.400  13.231  68.532  1.00  0.00    -0.239 C  
BRANCH   7   8
HETATM    8  O   UNL     1     -10.799  12.677  67.271  1.00  0.00    -0.239 OA 
BRANCH   8   9
HETATM    9  C   UNL     1     -10.522  11.276  67.230  1.00  0.00    -0.214 C  
BRANCH   9  10
HETATM   10  C   UNL     1     -11.194  10.565  68.402  1.00  0.00    -0.279 C  
BRANCH  10  11
HETATM   11  O   UNL     1     -10.616   9.265  68.628  1.00  0.00    -0.215 OA 
BRANCH  11  12
HETATM   12  C   UNL     1     -10.831   8.737  69.869  1.00  0.00    -0.206 C  
HETATM   13  O   UNL     1     -11.651   9.186  70.664  1.00  0.00    -0.266 OA 
BRANCH  12  14
HETATM   14  C   UNL     1      -9.882   7.565  70.185  1.00  0.00    -0.180 C  
HETATM   15  C   UNL     1      -8.775   7.378  69.111  1.00  0.00    -0.136 C  
HETATM   16  C   UNL     1     -10.718   6.273  69.981  1.00  0.00    -0.346 C  
HETATM   17  C   UNL     1      -9.708   5.186  69.666  1.00  0.00    -0.255 C  
HETATM   18  C   UNL     1      -8.683   5.881  68.791  1.00  0.00    -0.109 C  
BRANCH  14  19
HETATM   19  C   UNL     1      -9.267   7.760  71.585  1.00  0.00    -0.168 A  
HETATM   20  C   UNL     1      -7.611   8.699  73.116  1.00  0.00     0.058 A  
HETATM   21  C   UNL     1      -8.168   8.002  74.184  1.00  0.00    -0.318 A  
HETATM   22  C   UNL     1      -8.152   8.576  71.832  1.00  0.00    -0.185 A  
HETATM   23  C   UNL     1      -9.274   7.191  73.969  1.00  0.00    -0.281 A  
HETATM   24  C   UNL     1      -9.823   7.078  72.687  1.00  0.00    -0.186 A  
ENDBRANCH  14  19
ENDBRANCH  12  14
ENDBRANCH  11  12
ENDBRANCH  10  11
ENDBRANCH   9  10
ENDBRANCH   8   9
ENDBRANCH   7   8
ENDBRANCH   6   7
ENDBRANCH   3   6
ENDBRANCH   2   3
TORSDOF 11
ENDMDL
MODEL      338
REMARK 921   NORMALIZED FREE ENERGY PREDICTED BY IDOCK:   -3.27 KCAL/MOL
REMARK 922        TOTAL FREE ENERGY PREDICTED BY IDOCK:   -6.20 KCAL/MOL
REMARK 923 INTER-LIGAND FREE ENERGY PREDICTED BY IDOCK:   -5.18 KCAL/MOL
REMARK 924 INTRA-LIGAND FREE ENERGY PREDICTED BY IDOCK:   -1.02 KCAL/MOL
REMARK 927      BINDING AFFINITY PREDICTED BY RF-SCORE:    0.00 PKD
ROOT
HETATM    1  C   UNL     1      -7.115   5.770  64.550  1.00  0.00    -0.053 C  
HETATM    2  C   UNL     1      -8.482   5.132  64.316  1.00  0.00    -0.131 C  
ENDROOT
BRANCH   2   3
HETATM    3  N   UNL     1      -8.683   3.841  65.002  1.00  0.00    -0.113 NA 
BRANCH   3   4
HETATM    4  C   UNL     1      -9.389   2.839  64.188  1.00  0.00    -0.127 C  
HETATM    5  C   UNL     1     -10.342   3.378  63.128  1.00  0.00    -0.193 C  
ENDBRANCH   3   4
BRANCH   3   6
HETATM    6  C   UNL     1      -7.393   3.364  65.550  1.00  0.00    -0.075 C  
BRANCH   6   7
HETATM    7  C   UNL     1      -7.413   3.000  67.043  1.00  0.00    -0.070 C  
BRANCH   7   8
HETATM    8  O   UNL     1      -8.580   3.553  67.669  1.00  0.00    -0.093 OA 
BRANCH   8   9
HETATM    9  C   UNL     1      -8.720   3.049  68.999  1.00  0.00    -0.083 C  
BRANCH   9  10
HETATM   10  C   UNL     1      -9.767   3.853  69.766  1.00  0.00    -0.156 C  
BRANCH  10  11
HETATM   11  O   UNL     1      -9.292   5.178  70.070  1.00  0.00    -0.133 OA 
BRANCH  11  12
HETATM   12  C   UNL     1     -10.208   6.178  69.912  1.00  0.00    -0.192 C  
HETATM   13  O   UNL     1     -10.876   6.331  68.895  1.00  0.00    -0.266 OA 
BRANCH  12  14
HETATM   14  C   UNL     1     -10.255   7.132  71.122  1.00  0.00    -0.200 C  
HETATM   15  C   UNL     1      -9.255   8.314  70.997  1.00  0.00    -0.191 C  
HETATM   16  C   UNL     1      -9.642   6.344  72.310  1.00  0.00    -0.155 C  
HETATM   17  C   UNL     1      -9.112   7.399  73.262  1.00  0.00    -0.220 C  
HETATM   18  C   UNL     1      -8.541   8.465  72.347  1.00  0.00    -0.261 C  
BRANCH  14  19
HETATM   19  C   UNL     1     -11.695   7.644  71.321  1.00  0.00    -0.308 A  
HETATM   20  C   UNL     1     -13.352   9.424  71.552  1.00  0.00    -0.458 A  
HETATM   21  C   UNL     1     -14.362   8.490  71.761  1.00  0.00    -0.522 A  
HETATM   22  C   UNL     1     -12.035   9.006  71.339  1.00  0.00    -0.400 A  
HETATM   23  C   UNL     1     -14.055   7.136  71.745  1.00  0.00    -0.440 A  
HETATM   24  C   UNL     1     -12.740   6.717  71.519  1.00  0.00    -0.341 A  
ENDBRANCH  14  19
ENDBRANCH  12  14
ENDBRANCH  11  12
ENDBRANCH  10  11
ENDBRANCH   9  10
ENDBRANCH   8   9
ENDBRANCH   7   8
ENDBRANCH   6   7
ENDBRANCH   3   6
ENDBRANCH   2   3
TORSDOF 11
ENDMDL
MODEL      339
REMARK 921   NORMALIZED FREE ENERGY PREDICTED BY IDOCK:   -3.27 KCAL/MOL
REMARK 922        TOTAL FREE ENERGY PREDICTED BY IDOCK:   -6.19 KCAL/MOL
REMARK 923 INTER-LIGAND FREE ENERGY PREDICTED BY IDOCK:   -5.16 KCAL/MOL
REMARK 924 INTRA-LIGAND FREE ENERGY PREDICTED BY IDOCK:   -1.04 KCAL/MOL
REMARK 927      BINDING AFFINITY PREDICTED BY RF-SCORE:    0.00 PKD
ROOT
HETATM    1  C   UNL     1     -11.428   6.348  70.683  1.00  0.00    -0.426 C  
HETATM    2  C   UNL     1     -11.338   7.840  70.371  1.00  0.00    -0.207 C  
ENDROOT
BRANCH   2   3
HETATM    3  N   UNL     1     -11.263   8.713  71.558  1.00  0.00    -0.268 NA 
BRANCH   3   4
HETATM    4  C   UNL     1     -12.463   9.537  71.766  1.00  0.00    -0.401 C  
HETATM    5  C   UNL     1     -13.610   8.880  72.525  1.00  0.00    -0.467 C  
ENDBRANCH   3   4
BRANCH   3   6
HETATM    6  C   UNL     1     -10.877   7.909  72.740  1.00  0.00    -0.386 C  
BRANCH   6   7
HETATM    7  C   UNL     1      -9.455   8.163  73.266  1.00  0.00    -0.220 C  
BRANCH   7   8
HETATM    8  O   UNL     1      -8.670   8.824  72.263  1.00  0.00    -0.375 OA 
BRANCH   8   9
HETATM    9  C   UNL     1      -7.599   7.983  71.830  1.00  0.00    -0.089 C  
BRANCH   9  10
HETATM   10  C   UNL     1      -6.676   8.741  70.880  1.00  0.00    -0.058 C  
BRANCH  10  11
HETATM   11  O   UNL     1      -7.277   9.973  70.436  1.00  0.00    -0.169 OA 
BRANCH  11  12
HETATM   12  C   UNL     1      -7.483  10.070  69.090  1.00  0.00    -0.092 C  
HETATM   13  O   UNL     1      -7.580   9.099  68.346  1.00  0.00    -0.081 OA 
BRANCH  12  14
HETATM   14  C   UNL     1      -7.508  11.531  68.601  1.00  0.00    -0.116 C  
HETATM   15  C   UNL     1      -6.627  11.762  67.342  1.00  0.00    -0.118 C  
HETATM   16  C   UNL     1      -6.730  12.351  69.665  1.00  0.00     0.065 C  
HETATM   17  C   UNL     1      -6.213  13.574  68.933  1.00  0.00    -0.093 C  
HETATM   18  C   UNL     1      -5.816  13.044  67.569  1.00  0.00    -0.095 C  
BRANCH  14  19
HETATM   19  C   UNL     1      -8.964  11.967  68.344  1.00  0.00    -0.163 A  
HETATM   20  C   UNL     1     -10.652  13.583  67.631  1.00  0.00    -0.246 A  
HETATM   21  C   UNL     1     -11.674  12.702  67.968  1.00  0.00    -0.402 A  
HETATM   22  C   UNL     1      -9.314  13.222  67.821  1.00  0.00    -0.209 A  
HETATM   23  C   UNL     1     -11.357  11.452  68.484  1.00  0.00    -0.333 A  
HETATM   24  C   UNL     1     -10.018  11.085  68.661  1.00  0.00    -0.205 A  
ENDBRANCH  14  19
ENDBRANCH  12  14
ENDBRANCH  11  12
ENDBRANCH  10  11
ENDBRANCH   9  10
ENDBRANCH   8   9
ENDBRANCH   7   8
ENDBRANCH   6   7
ENDBRANCH   3   6
ENDBRANCH   2   3
TORSDOF 11
ENDMDL
MODEL      340
REMARK 921   NORMALIZED FREE ENERGY PREDICTED BY IDOCK:   -3.27 KCAL/MOL
REMARK 922        TOTAL FREE ENERGY PREDICTED BY IDOCK:   -6.19 KCAL/MOL
REMARK 923 INTER-LIGAND FREE ENERGY PREDICTED BY IDOCK:   -4.94 KCAL/MOL
REMARK 924 INTRA-LIGAND FREE ENERGY PREDICTED BY IDOCK:   -1.25 KCAL/MOL
REMARK 927      BINDING AFFINITY PREDICTED BY RF-SCORE:    0.00 PKD
ROOT
HETATM    1  C   UNL     1      -9.069  18.245  67.686  1.00  0.00    -0.267 C  
HETATM    2  C   UNL     1     -10.210  17.752  68.572  1.00  0.00    -0.382 C  
ENDROOT
BRANCH   2   3
HETATM    3  N   UNL     1     -10.389  16.288  68.585  1.00  0.00    -0.249 NA 
BRANCH   3   4
HETATM    4  C   UNL     1      -9.260  15.556  69.179  1.00  0.00    -0.246 C  
HETATM    5  C   UNL     1      -8.540  14.569  68.268  1.00  0.00    -0.171 C  
ENDBRANCH   3   4
BRANCH   3   6
HETATM    6  C   UNL     1     -11.701  15.954  69.186  1.00  0.00    -0.363 C  
BRANCH   6   7
HETATM    7  C   UNL     1     -11.977  14.452  69.357  1.00  0.00    -0.328 C  
BRANCH   7   8
HETATM    8  O   UNL     1     -12.400  13.884  68.109  1.00  0.00    -0.250 OA 
BRANCH   8   9
HETATM    9  C   UNL     1     -11.898  12.554  67.968  1.00  0.00    -0.325 C  
BRANCH   9  10
HETATM   10  C   UNL     1     -11.164  12.124  69.236  1.00  0.00    -0.226 C  
BRANCH  10  11
HETATM   11  O   UNL     1     -10.907  10.707  69.239  1.00  0.00    -0.208 OA 
BRANCH  11  12
HETATM   12  C   UNL     1      -9.590  10.351  69.286  1.00  0.00    -0.209 C  
HETATM   13  O   UNL     1      -8.684  11.045  68.834  1.00  0.00    -0.164 OA 
BRANCH  12  14
HETATM   14  C   UNL     1      -9.377   8.955  69.901  1.00  0.00    -0.172 C  
HETATM   15  C   UNL     1     -10.619   8.033  69.751  1.00  0.00    -0.238 C  
HETATM   16  C   UNL     1      -9.344   9.167  71.438  1.00  0.00    -0.246 C  
HETATM   17  C   UNL     1      -9.767   7.839  72.037  1.00  0.00    -0.224 C  
HETATM   18  C   UNL     1     -10.854   7.345  71.102  1.00  0.00    -0.258 C  
BRANCH  14  19
HETATM   19  C   UNL     1      -8.126   8.302  69.281  1.00  0.00    -0.116 A  
HETATM   20  C   UNL     1      -7.006   6.896  67.626  1.00  0.00    -0.083 A  
HETATM   21  C   UNL     1      -5.780   7.090  68.255  1.00  0.00    -0.021 A  
HETATM   22  C   UNL     1      -8.165   7.491  68.136  1.00  0.00    -0.125 A  
HETATM   23  C   UNL     1      -5.711   7.891  69.387  1.00  0.00    -0.027 A  
HETATM   24  C   UNL     1      -6.869   8.497  69.889  1.00  0.00    -0.042 A  
ENDBRANCH  14  19
ENDBRANCH  12  14
ENDBRANCH  11  12
ENDBRANCH  10  11
ENDBRANCH   9  10
ENDBRANCH   8   9
ENDBRANCH   7   8
ENDBRANCH   6   7
ENDBRANCH   3   6
ENDBRANCH   2   3
TORSDOF 11
ENDMDL
MODEL      341
REMARK 921   NORMALIZED FREE ENERGY PREDICTED BY IDOCK:   -3.26 KCAL/MOL
REMARK 922        TOTAL FREE ENERGY PREDICTED BY IDOCK:   -6.18 KCAL/MOL
REMARK 923 INTER-LIGAND FREE ENERGY PREDICTED BY IDOCK:   -5.27 KCAL/MOL
REMARK 924 INTRA-LIGAND FREE ENERGY PREDICTED BY IDOCK:   -0.90 KCAL/MOL
REMARK 927      BINDING AFFINITY PREDICTED BY RF-SCORE:    0.00 PKD
ROOT
HETATM    1  C   UNL     1      -8.779   4.275  73.726  1.00  0.00    -0.094 C  
HETATM    2  C   UNL     1      -8.812   5.779  73.465  1.00  0.00    -0.122 C  
ENDROOT
BRANCH   2   3
HETATM    3  N   UNL     1      -8.513   6.168  72.074  1.00  0.00    -0.121 NA 
BRANCH   3   4
HETATM    4  C   UNL     1      -8.736   5.092  71.095  1.00  0.00    -0.130 C  
HETATM    5  C   UNL     1     -10.097   5.074  70.409  1.00  0.00    -0.330 C  
ENDBRANCH   3   4
BRANCH   3   6
HETATM    6  C   UNL     1      -9.218   7.428  71.748  1.00  0.00    -0.140 C  
BRANCH   6   7
HETATM    7  C   UNL     1      -8.345   8.517  71.105  1.00  0.00    -0.150 C  
BRANCH   7   8
HETATM    8  O   UNL     1      -9.158   9.396  70.314  1.00  0.00    -0.208 OA 
BRANCH   8   9
HETATM    9  C   UNL     1     -10.434   9.587  70.929  1.00  0.00    -0.312 C  
BRANCH   9  10
HETATM   10  C   UNL     1     -11.553   9.382  69.912  1.00  0.00     0.064 C  
BRANCH  10  11
HETATM   11  O   UNL     1     -11.142   9.783  68.591  1.00  0.00    -0.188 OA 
BRANCH  11  12
HETATM   12  C   UNL     1     -11.415  11.080  68.262  1.00  0.00    -0.304 C  
HETATM   13  O   UNL     1     -12.327  11.729  68.765  1.00  0.00    -0.314 OA 
BRANCH  12  14
HETATM   14  C   UNL     1     -10.501  11.610  67.141  1.00  0.00    -0.252 C  
HETATM   15  C   UNL     1      -9.536  10.526  66.586  1.00  0.00    -0.210 C  
HETATM   16  C   UNL     1      -9.500  12.577  67.829  1.00  0.00    -0.197 C  
HETATM   17  C   UNL     1      -8.276  12.594  66.934  1.00  0.00    -0.048 C  
HETATM   18  C   UNL     1      -8.143  11.157  66.468  1.00  0.00    -0.163 C  
BRANCH  14  19
HETATM   19  C   UNL     1     -11.360  12.216  66.015  1.00  0.00    -0.410 A  
HETATM   20  C   UNL     1     -12.281  12.219  63.751  1.00  0.00    -0.642 A  
HETATM   21  C   UNL     1     -12.909  13.439  63.983  1.00  0.00     0.151 A  
HETATM   22  C   UNL     1     -11.513  11.617  64.753  1.00  0.00    -0.225 A  
HETATM   23  C   UNL     1     -12.778  14.051  65.223  1.00  0.00    -0.468 A  
HETATM   24  C   UNL     1     -12.020  13.443  66.229  1.00  0.00    -0.460 A  
ENDBRANCH  14  19
ENDBRANCH  12  14
ENDBRANCH  11  12
ENDBRANCH  10  11
ENDBRANCH   9  10
ENDBRANCH   8   9
ENDBRANCH   7   8
ENDBRANCH   6   7
ENDBRANCH   3   6
ENDBRANCH   2   3
TORSDOF 11
ENDMDL
MODEL      342
REMARK 921   NORMALIZED FREE ENERGY PREDICTED BY IDOCK:   -3.26 KCAL/MOL
REMARK 922        TOTAL FREE ENERGY PREDICTED BY IDOCK:   -6.18 KCAL/MOL
REMARK 923 INTER-LIGAND FREE ENERGY PREDICTED BY IDOCK:   -5.67 KCAL/MOL
REMARK 924 INTRA-LIGAND FREE ENERGY PREDICTED BY IDOCK:   -0.50 KCAL/MOL
REMARK 927      BINDING AFFINITY PREDICTED BY RF-SCORE:    0.00 PKD
ROOT
HETATM    1  C   UNL     1     -11.805  10.682  69.874  1.00  0.00    -0.392 C  
HETATM    2  C   UNL     1     -10.970   9.859  70.852  1.00  0.00    -0.322 C  
ENDROOT
BRANCH   2   3
HETATM    3  N   UNL     1     -10.051   8.896  70.215  1.00  0.00    -0.181 NA 
BRANCH   3   4
HETATM    4  C   UNL     1     -10.384   8.593  68.815  1.00  0.00    -0.208 C  
HETATM    5  C   UNL     1     -10.776   7.152  68.510  1.00  0.00    -0.191 C  
ENDBRANCH   3   4
BRANCH   3   6
HETATM    6  C   UNL     1      -8.652   9.339  70.415  1.00  0.00    -0.219 C  
BRANCH   6   7
HETATM    7  C   UNL     1      -7.764   9.279  69.162  1.00  0.00    -0.078 C  
BRANCH   7   8
HETATM    8  O   UNL     1      -6.522   9.955  69.406  1.00  0.00    -0.043 OA 
BRANCH   8   9
HETATM    9  C   UNL     1      -6.752  11.337  69.689  1.00  0.00    -0.122 C  
BRANCH   9  10
HETATM   10  C   UNL     1      -6.996  12.112  68.396  1.00  0.00    -0.078 C  
BRANCH  10  11
HETATM   11  O   UNL     1      -7.992  13.136  68.579  1.00  0.00    -0.139 OA 
BRANCH  11  12
HETATM   12  C   UNL     1      -7.937  14.171  67.690  1.00  0.00    -0.178 C  
HETATM   13  O   UNL     1      -6.901  14.544  67.147  1.00  0.00    -0.205 OA 
BRANCH  12  14
HETATM   14  C   UNL     1      -9.302  14.860  67.500  1.00  0.00    -0.193 C  
HETATM   15  C   UNL     1     -10.440  14.177  68.307  1.00  0.00    -0.249 C  
HETATM   16  C   UNL     1      -9.738  14.550  66.044  1.00  0.00    -0.331 C  
HETATM   17  C   UNL     1     -11.251  14.648  66.046  1.00  0.00    -0.342 C  
HETATM   18  C   UNL     1     -11.654  14.045  67.378  1.00  0.00    -0.397 C  
BRANCH  14  19
HETATM   19  C   UNL     1      -9.183  16.353  67.867  1.00  0.00    -0.202 A  
HETATM   20  C   UNL     1     -10.116  18.485  68.611  1.00  0.00    -0.406 A  
HETATM   21  C   UNL     1      -8.881  19.107  68.454  1.00  0.00    -0.386 A  
HETATM   22  C   UNL     1     -10.265  17.126  68.317  1.00  0.00    -0.334 A  
HETATM   23  C   UNL     1      -7.792  18.366  68.015  1.00  0.00    -0.286 A  
HETATM   24  C   UNL     1      -7.939  17.003  67.733  1.00  0.00    -0.192 A  
ENDBRANCH  14  19
ENDBRANCH  12  14
ENDBRANCH  11  12
ENDBRANCH  10  11
ENDBRANCH   9  10
ENDBRANCH   8   9
ENDBRANCH   7   8
ENDBRANCH   6   7
ENDBRANCH   3   6
ENDBRANCH   2   3
TORSDOF 11
ENDMDL
MODEL      343
REMARK 921   NORMALIZED FREE ENERGY PREDICTED BY IDOCK:   -3.26 KCAL/MOL
REMARK 922        TOTAL FREE ENERGY PREDICTED BY IDOCK:   -6.17 KCAL/MOL
REMARK 923 INTER-LIGAND FREE ENERGY PREDICTED BY IDOCK:   -5.05 KCAL/MOL
REMARK 924 INTRA-LIGAND FREE ENERGY PREDICTED BY IDOCK:   -1.12 KCAL/MOL
REMARK 927      BINDING AFFINITY PREDICTED BY RF-SCORE:    0.00 PKD
ROOT
HETATM    1  C   UNL     1      -8.126   5.418  64.622  1.00  0.00    -0.125 C  
HETATM    2  C   UNL     1      -9.254   4.575  65.213  1.00  0.00    -0.156 C  
ENDROOT
BRANCH   2   3
HETATM    3  N   UNL     1      -9.485   4.783  66.655  1.00  0.00    -0.142 NA 
BRANCH   3   4
HETATM    4  C   UNL     1      -9.622   3.535  67.421  1.00  0.00    -0.125 C  
HETATM    5  C   UNL     1      -9.303   3.616  68.909  1.00  0.00    -0.235 C  
ENDBRANCH   3   4
BRANCH   3   6
HETATM    6  C   UNL     1      -8.460   5.706  67.194  1.00  0.00    -0.110 C  
BRANCH   6   7
HETATM    7  C   UNL     1      -8.997   7.051  67.707  1.00  0.00    -0.121 C  
BRANCH   7   8
HETATM    8  O   UNL     1      -8.376   7.384  68.957  1.00  0.00    -0.124 OA 
BRANCH   8   9
HETATM    9  C   UNL     1      -7.940   8.745  68.952  1.00  0.00    -0.105 C  
BRANCH   9  10
HETATM   10  C   UNL     1      -8.628   9.530  70.066  1.00  0.00    -0.215 C  
BRANCH  10  11
HETATM   11  O   UNL     1      -9.562   8.706  70.789  1.00  0.00    -0.167 OA 
BRANCH  11  12
HETATM   12  C   UNL     1     -10.879   8.936  70.515  1.00  0.00    -0.236 C  
HETATM   13  O   UNL     1     -11.266   9.741  69.673  1.00  0.00    -0.234 OA 
BRANCH  12  14
HETATM   14  C   UNL     1     -11.822   8.129  71.428  1.00  0.00    -0.329 C  
HETATM   15  C   UNL     1     -12.971   7.434  70.646  1.00  0.00     0.168 C  
HETATM   16  C   UNL     1     -12.614   9.176  72.256  1.00  0.00    -0.425 C  
HETATM   17  C   UNL     1     -13.907   8.487  72.646  1.00  0.00    -0.217 C  
HETATM   18  C   UNL     1     -14.273   7.674  71.420  1.00  0.00    -0.514 C  
BRANCH  14  19
HETATM   19  C   UNL     1     -11.006   7.103  72.239  1.00  0.00    -0.277 A  
HETATM   20  C   UNL     1      -9.752   6.403  74.215  1.00  0.00    -0.292 A  
HETATM   21  C   UNL     1      -9.458   5.178  73.625  1.00  0.00    -0.134 A  
HETATM   22  C   UNL     1     -10.513   7.355  73.529  1.00  0.00    -0.396 A  
HETATM   23  C   UNL     1      -9.936   4.900  72.351  1.00  0.00    -0.228 A  
HETATM   24  C   UNL     1     -10.708   5.848  71.670  1.00  0.00    -0.308 A  
ENDBRANCH  14  19
ENDBRANCH  12  14
ENDBRANCH  11  12
ENDBRANCH  10  11
ENDBRANCH   9  10
ENDBRANCH   8   9
ENDBRANCH   7   8
ENDBRANCH   6   7
ENDBRANCH   3   6
ENDBRANCH   2   3
TORSDOF 11
ENDMDL
MODEL      344
REMARK 921   NORMALIZED FREE ENERGY PREDICTED BY IDOCK:   -3.25 KCAL/MOL
REMARK 922        TOTAL FREE ENERGY PREDICTED BY IDOCK:   -6.16 KCAL/MOL
REMARK 923 INTER-LIGAND FREE ENERGY PREDICTED BY IDOCK:   -5.36 KCAL/MOL
REMARK 924 INTRA-LIGAND FREE ENERGY PREDICTED BY IDOCK:   -0.79 KCAL/MOL
REMARK 927      BINDING AFFINITY PREDICTED BY RF-SCORE:    0.00 PKD
ROOT
HETATM    1  C   UNL     1     -10.573  16.875  68.518  1.00  0.00    -0.367 C  
HETATM    2  C   UNL     1     -10.327  15.458  68.005  1.00  0.00    -0.249 C  
ENDROOT
BRANCH   2   3
HETATM    3  N   UNL     1     -11.306  14.986  67.008  1.00  0.00    -0.341 NA 
BRANCH   3   4
HETATM    4  C   UNL     1     -10.810  15.025  65.624  1.00  0.00    -0.349 C  
HETATM    5  C   UNL     1     -11.860  14.906  64.526  1.00  0.00    -0.404 C  
ENDBRANCH   3   4
BRANCH   3   6
HETATM    6  C   UNL     1     -11.833  13.664  67.417  1.00  0.00    -0.393 C  
BRANCH   6   7
HETATM    7  C   UNL     1     -11.968  13.456  68.934  1.00  0.00    -0.324 C  
BRANCH   7   8
HETATM    8  O   UNL     1     -11.546  12.132  69.289  1.00  0.00    -0.275 OA 
BRANCH   8   9
HETATM    9  C   UNL     1     -12.279  11.660  70.421  1.00  0.00    -0.347 C  
BRANCH   9  10
HETATM   10  C   UNL     1     -12.242  10.135  70.482  1.00  0.00    -0.264 C  
BRANCH  10  11
HETATM   11  O   UNL     1     -10.890   9.644  70.550  1.00  0.00    -0.260 OA 
BRANCH  11  12
HETATM   12  C   UNL     1     -10.757   8.352  70.969  1.00  0.00    -0.223 C  
HETATM   13  O   UNL     1     -11.567   7.789  71.699  1.00  0.00    -0.253 OA 
BRANCH  12  14
HETATM   14  C   UNL     1      -9.445   7.706  70.485  1.00  0.00    -0.164 C  
HETATM   15  C   UNL     1      -8.614   8.643  69.565  1.00  0.00    -0.131 C  
HETATM   16  C   UNL     1      -9.861   6.595  69.483  1.00  0.00    -0.162 C  
HETATM   17  C   UNL     1      -8.665   6.408  68.569  1.00  0.00    -0.121 C  
HETATM   18  C   UNL     1      -8.138   7.816  68.364  1.00  0.00    -0.124 C  
BRANCH  14  19
HETATM   19  C   UNL     1      -8.615   7.246  71.699  1.00  0.00    -0.120 A  
HETATM   20  C   UNL     1      -6.706   7.419  73.214  1.00  0.00    -0.065 A  
HETATM   21  C   UNL     1      -7.120   6.285  73.904  1.00  0.00    -0.083 A  
HETATM   22  C   UNL     1      -7.442   7.891  72.123  1.00  0.00    -0.096 A  
HETATM   23  C   UNL     1      -8.278   5.628  73.510  1.00  0.00    -0.112 A  
HETATM   24  C   UNL     1      -9.022   6.108  72.426  1.00  0.00    -0.136 A  
ENDBRANCH  14  19
ENDBRANCH  12  14
ENDBRANCH  11  12
ENDBRANCH  10  11
ENDBRANCH   9  10
ENDBRANCH   8   9
ENDBRANCH   7   8
ENDBRANCH   6   7
ENDBRANCH   3   6
ENDBRANCH   2   3
TORSDOF 11
ENDMDL
MODEL      345
REMARK 921   NORMALIZED FREE ENERGY PREDICTED BY IDOCK:   -3.25 KCAL/MOL
REMARK 922        TOTAL FREE ENERGY PREDICTED BY IDOCK:   -6.15 KCAL/MOL
REMARK 923 INTER-LIGAND FREE ENERGY PREDICTED BY IDOCK:   -4.86 KCAL/MOL
REMARK 924 INTRA-LIGAND FREE ENERGY PREDICTED BY IDOCK:   -1.29 KCAL/MOL
REMARK 927      BINDING AFFINITY PREDICTED BY RF-SCORE:    0.00 PKD
ROOT
HETATM    1  C   UNL     1      -6.991   5.766  64.732  1.00  0.00    -0.052 C  
HETATM    2  C   UNL     1      -8.439   5.427  64.384  1.00  0.00    -0.106 C  
ENDROOT
BRANCH   2   3
HETATM    3  N   UNL     1      -8.964   4.219  65.047  1.00  0.00    -0.134 NA 
BRANCH   3   4
HETATM    4  C   UNL     1      -9.716   3.327  64.150  1.00  0.00    -0.157 C  
HETATM    5  C   UNL     1      -9.891   3.805  62.714  1.00  0.00    -0.138 C  
ENDBRANCH   3   4
BRANCH   3   6
HETATM    6  C   UNL     1      -7.871   3.543  65.783  1.00  0.00    -0.089 C  
BRANCH   6   7
HETATM    7  C   UNL     1      -8.102   3.386  67.294  1.00  0.00    -0.082 C  
BRANCH   7   8
HETATM    8  O   UNL     1      -8.915   4.463  67.782  1.00  0.00    -0.109 OA 
BRANCH   8   9
HETATM    9  C   UNL     1      -9.103   4.348  69.195  1.00  0.00    -0.125 C  
BRANCH   9  10
HETATM   10  C   UNL     1      -9.710   5.630  69.758  1.00  0.00    -0.167 C  
BRANCH  10  11
HETATM   11  O   UNL     1      -9.092   6.799  69.187  1.00  0.00    -0.139 OA 
BRANCH  11  12
HETATM   12  C   UNL     1      -9.951   7.701  68.630  1.00  0.00    -0.174 C  
HETATM   13  O   UNL     1     -10.815   7.399  67.812  1.00  0.00    -0.194 OA 
BRANCH  12  14
HETATM   14  C   UNL     1      -9.668   9.145  69.086  1.00  0.00    -0.163 C  
HETATM   15  C   UNL     1      -9.408  10.113  67.899  1.00  0.00    -0.151 C  
HETATM   16  C   UNL     1      -8.270   9.114  69.759  1.00  0.00    -0.128 C  
HETATM   17  C   UNL     1      -7.729  10.525  69.630  1.00  0.00    -0.119 C  
HETATM   18  C   UNL     1      -8.184  10.967  68.253  1.00  0.00    -0.130 C  
BRANCH  14  19
HETATM   19  C   UNL     1     -10.830   9.648  69.965  1.00  0.00    -0.302 A  
HETATM   20  C   UNL     1     -12.527  11.293  70.585  1.00  0.00    -0.439 A  
HETATM   21  C   UNL     1     -12.913  10.519  71.675  1.00  0.00    -0.581 A  
HETATM   22  C   UNL     1     -11.496  10.864  69.743  1.00  0.00    -0.390 A  
HETATM   23  C   UNL     1     -12.275   9.309  71.916  1.00  0.00    -0.448 A  
HETATM   24  C   UNL     1     -11.252   8.875  71.065  1.00  0.00    -0.342 A  
ENDBRANCH  14  19
ENDBRANCH  12  14
ENDBRANCH  11  12
ENDBRANCH  10  11
ENDBRANCH   9  10
ENDBRANCH   8   9
ENDBRANCH   7   8
ENDBRANCH   6   7
ENDBRANCH   3   6
ENDBRANCH   2   3
TORSDOF 11
ENDMDL
MODEL      346
REMARK 921   NORMALIZED FREE ENERGY PREDICTED BY IDOCK:   -3.25 KCAL/MOL
REMARK 922        TOTAL FREE ENERGY PREDICTED BY IDOCK:   -6.15 KCAL/MOL
REMARK 923 INTER-LIGAND FREE ENERGY PREDICTED BY IDOCK:   -5.14 KCAL/MOL
REMARK 924 INTRA-LIGAND FREE ENERGY PREDICTED BY IDOCK:   -1.01 KCAL/MOL
REMARK 927      BINDING AFFINITY PREDICTED BY RF-SCORE:    0.00 PKD
ROOT
HETATM    1  C   UNL     1     -11.903   9.413  71.803  1.00  0.00    -0.452 C  
HETATM    2  C   UNL     1     -10.964   8.456  71.072  1.00  0.00    -0.246 C  
ENDROOT
BRANCH   2   3
HETATM    3  N   UNL     1      -9.540   8.839  71.116  1.00  0.00    -0.218 NA 
BRANCH   3   4
HETATM    4  C   UNL     1      -8.844   8.403  72.337  1.00  0.00    -0.224 C  
HETATM    5  C   UNL     1      -7.720   7.391  72.150  1.00  0.00    -0.092 C  
ENDBRANCH   3   4
BRANCH   3   6
HETATM    6  C   UNL     1      -8.873   8.414  69.864  1.00  0.00    -0.137 C  
BRANCH   6   7
HETATM    7  C   UNL     1      -9.694   8.628  68.583  1.00  0.00    -0.163 C  
BRANCH   7   8
HETATM    8  O   UNL     1      -9.560   9.984  68.133  1.00  0.00    -0.138 OA 
BRANCH   8   9
HETATM    9  C   UNL     1      -8.394  10.128  67.319  1.00  0.00    -0.121 C  
BRANCH   9  10
HETATM   10  C   UNL     1      -7.539  11.292  67.813  1.00  0.00    -0.104 C  
BRANCH  10  11
HETATM   11  O   UNL     1      -7.753  12.474  67.019  1.00  0.00    -0.135 OA 
BRANCH  11  12
HETATM   12  C   UNL     1      -7.123  13.600  67.466  1.00  0.00    -0.152 C  
HETATM   13  O   UNL     1      -5.938  13.634  67.783  1.00  0.00    -0.139 OA 
BRANCH  12  14
HETATM   14  C   UNL     1      -8.081  14.800  67.597  1.00  0.00    -0.183 C  
HETATM   15  C   UNL     1      -7.750  15.948  66.603  1.00  0.00    -0.199 C  
HETATM   16  C   UNL     1      -7.741  15.471  68.954  1.00  0.00    -0.175 C  
HETATM   17  C   UNL     1      -8.176  16.917  68.810  1.00  0.00    -0.244 C  
HETATM   18  C   UNL     1      -7.807  17.269  67.381  1.00  0.00    -0.198 C  
BRANCH  14  19
HETATM   19  C   UNL     1      -9.536  14.322  67.424  1.00  0.00    -0.214 A  
HETATM   20  C   UNL     1     -11.538  13.902  66.088  1.00  0.00    -0.371 A  
HETATM   21  C   UNL     1     -12.235  13.487  67.218  1.00  0.00    -0.305 A  
HETATM   22  C   UNL     1     -10.207  14.318  66.191  1.00  0.00    -0.317 A  
HETATM   23  C   UNL     1     -11.595  13.476  68.451  1.00  0.00    -0.378 A  
HETATM   24  C   UNL     1     -10.259  13.880  68.551  1.00  0.00    -0.240 A  
ENDBRANCH  14  19
ENDBRANCH  12  14
ENDBRANCH  11  12
ENDBRANCH  10  11
ENDBRANCH   9  10
ENDBRANCH   8   9
ENDBRANCH   7   8
ENDBRANCH   6   7
ENDBRANCH   3   6
ENDBRANCH   2   3
TORSDOF 11
ENDMDL
MODEL      347
REMARK 921   NORMALIZED FREE ENERGY PREDICTED BY IDOCK:   -3.25 KCAL/MOL
REMARK 922        TOTAL FREE ENERGY PREDICTED BY IDOCK:   -6.15 KCAL/MOL
REMARK 923 INTER-LIGAND FREE ENERGY PREDICTED BY IDOCK:   -5.69 KCAL/MOL
REMARK 924 INTRA-LIGAND FREE ENERGY PREDICTED BY IDOCK:   -0.46 KCAL/MOL
REMARK 927      BINDING AFFINITY PREDICTED BY RF-SCORE:    0.00 PKD
ROOT
HETATM    1  C   UNL     1      -6.912   8.544  62.365  1.00  0.00    -0.094 C  
HETATM    2  C   UNL     1      -7.989   7.838  63.186  1.00  0.00    -0.117 C  
ENDROOT
BRANCH   2   3
HETATM    3  N   UNL     1      -7.506   7.234  64.443  1.00  0.00    -0.089 NA 
BRANCH   3   4
HETATM    4  C   UNL     1      -6.043   7.266  64.594  1.00  0.00    -0.037 C  
HETATM    5  C   UNL     1      -5.385   5.982  65.084  1.00  0.00    -0.013 C  
ENDBRANCH   3   4
BRANCH   3   6
HETATM    6  C   UNL     1      -8.238   7.820  65.588  1.00  0.00    -0.135 C  
BRANCH   6   7
HETATM    7  C   UNL     1      -7.678   9.154  66.108  1.00  0.00    -0.095 C  
BRANCH   7   8
HETATM    8  O   UNL     1      -8.721  10.137  66.164  1.00  0.00    -0.138 OA 
BRANCH   8   9
HETATM    9  C   UNL     1      -8.664  10.856  67.398  1.00  0.00    -0.130 C  
BRANCH   9  10
HETATM   10  C   UNL     1      -9.326  10.053  68.515  1.00  0.00    -0.145 C  
BRANCH  10  11
HETATM   11  O   UNL     1     -10.164  10.888  69.337  1.00  0.00    -0.206 OA 
BRANCH  11  12
HETATM   12  C   UNL     1     -11.507  10.679  69.205  1.00  0.00    -0.281 C  
HETATM   13  O   UNL     1     -12.080  10.615  68.122  1.00  0.00    -0.403 OA 
BRANCH  12  14
HETATM   14  C   UNL     1     -12.228  10.604  70.564  1.00  0.00    -0.449 C  
HETATM   15  C   UNL     1     -11.423   9.816  71.633  1.00  0.00    -0.294 C  
HETATM   16  C   UNL     1     -13.444   9.663  70.351  1.00  0.00     0.422 C  
HETATM   17  C   UNL     1     -13.759   9.094  71.721  1.00  0.00    -0.465 C  
HETATM   18  C   UNL     1     -12.396   8.868  72.346  1.00  0.00    -0.385 C  
BRANCH  14  19
HETATM   19  C   UNL     1     -12.555  12.028  71.057  1.00  0.00    -0.370 A  
HETATM   20  C   UNL     1     -13.721  13.607  72.512  1.00  0.00    -0.663 A  
HETATM   21  C   UNL     1     -13.143  14.683  71.847  1.00  0.00    -0.414 A  
HETATM   22  C   UNL     1     -13.433  12.296  72.119  1.00  0.00    -0.431 A  
HETATM   23  C   UNL     1     -12.267  14.448  70.796  1.00  0.00    -0.413 A  
HETATM   24  C   UNL     1     -11.969  13.136  70.411  1.00  0.00    -0.343 A  
ENDBRANCH  14  19
ENDBRANCH  12  14
ENDBRANCH  11  12
ENDBRANCH  10  11
ENDBRANCH   9  10
ENDBRANCH   8   9
ENDBRANCH   7   8
ENDBRANCH   6   7
ENDBRANCH   3   6
ENDBRANCH   2   3
TORSDOF 11
ENDMDL
MODEL      348
REMARK 921   NORMALIZED FREE ENERGY PREDICTED BY IDOCK:   -3.24 KCAL/MOL
REMARK 922        TOTAL FREE ENERGY PREDICTED BY IDOCK:   -6.14 KCAL/MOL
REMARK 923 INTER-LIGAND FREE ENERGY PREDICTED BY IDOCK:   -4.68 KCAL/MOL
REMARK 924 INTRA-LIGAND FREE ENERGY PREDICTED BY IDOCK:   -1.46 KCAL/MOL
REMARK 927      BINDING AFFINITY PREDICTED BY RF-SCORE:    0.00 PKD
ROOT
HETATM    1  C   UNL     1     -10.114   4.459  65.757  1.00  0.00    -0.262 C  
HETATM    2  C   UNL     1      -8.670   4.913  65.960  1.00  0.00    -0.124 C  
ENDROOT
BRANCH   2   3
HETATM    3  N   UNL     1      -7.749   4.538  64.871  1.00  0.00    -0.080 NA 
BRANCH   3   4
HETATM    4  C   UNL     1      -8.326   4.688  63.526  1.00  0.00    -0.113 C  
HETATM    5  C   UNL     1      -8.133   3.514  62.573  1.00  0.00    -0.072 C  
ENDBRANCH   3   4
BRANCH   3   6
HETATM    6  C   UNL     1      -6.458   5.240  65.049  1.00  0.00    -0.039 C  
BRANCH   6   7
HETATM    7  C   UNL     1      -6.374   6.148  66.286  1.00  0.00    -0.042 C  
BRANCH   7   8
HETATM    8  O   UNL     1      -5.483   7.244  66.033  1.00  0.00    -0.026 OA 
BRANCH   8   9
HETATM    9  C   UNL     1      -5.846   8.376  66.827  1.00  0.00    -0.049 C  
BRANCH   9  10
HETATM   10  C   UNL     1      -5.992   9.618  65.950  1.00  0.00    -0.059 C  
BRANCH  10  11
HETATM   11  O   UNL     1      -7.365   9.835  65.573  1.00  0.00    -0.102 OA 
BRANCH  11  12
HETATM   12  C   UNL     1      -8.023  10.794  66.288  1.00  0.00    -0.160 C  
HETATM   13  O   UNL     1      -7.533  11.883  66.574  1.00  0.00    -0.004 OA 
BRANCH  12  14
HETATM   14  C   UNL     1      -9.416  10.330  66.757  1.00  0.00    -0.198 C  
HETATM   15  C   UNL     1      -9.453   9.960  68.266  1.00  0.00    -0.147 C  
HETATM   16  C   UNL     1      -9.645   8.941  66.103  1.00  0.00    -0.335 C  
HETATM   17  C   UNL     1     -10.636   8.229  67.004  1.00  0.00    -0.328 C  
HETATM   18  C   UNL     1     -10.216   8.637  68.403  1.00  0.00    -0.232 C  
BRANCH  14  19
HETATM   19  C   UNL     1     -10.461  11.413  66.427  1.00  0.00    -0.299 A  
HETATM   20  C   UNL     1     -12.023  13.183  67.055  1.00  0.00    -0.412 A  
HETATM   21  C   UNL     1     -12.423  13.334  65.731  1.00  0.00    -0.480 A  
HETATM   22  C   UNL     1     -11.058  12.232  67.399  1.00  0.00    -0.333 A  
HETATM   23  C   UNL     1     -11.846  12.540  64.748  1.00  0.00    -0.440 A  
HETATM   24  C   UNL     1     -10.870  11.598  65.091  1.00  0.00    -0.346 A  
ENDBRANCH  14  19
ENDBRANCH  12  14
ENDBRANCH  11  12
ENDBRANCH  10  11
ENDBRANCH   9  10
ENDBRANCH   8   9
ENDBRANCH   7   8
ENDBRANCH   6   7
ENDBRANCH   3   6
ENDBRANCH   2   3
TORSDOF 11
ENDMDL
MODEL      349
REMARK 921   NORMALIZED FREE ENERGY PREDICTED BY IDOCK:   -3.23 KCAL/MOL
REMARK 922        TOTAL FREE ENERGY PREDICTED BY IDOCK:   -6.12 KCAL/MOL
REMARK 923 INTER-LIGAND FREE ENERGY PREDICTED BY IDOCK:   -4.38 KCAL/MOL
REMARK 924 INTRA-LIGAND FREE ENERGY PREDICTED BY IDOCK:   -1.74 KCAL/MOL
REMARK 927      BINDING AFFINITY PREDICTED BY RF-SCORE:    0.00 PKD
ROOT
HETATM    1  C   UNL     1     -11.470   8.550  72.316  1.00  0.00    -0.445 C  
HETATM    2  C   UNL     1     -10.439   9.057  71.310  1.00  0.00    -0.311 C  
ENDROOT
BRANCH   2   3
HETATM    3  N   UNL     1      -9.057   9.115  71.823  1.00  0.00    -0.326 NA 
BRANCH   3   4
HETATM    4  C   UNL     1      -8.684   7.962  72.657  1.00  0.00    -0.167 C  
HETATM    5  C   UNL     1      -7.600   8.206  73.701  1.00  0.00    -0.214 C  
ENDBRANCH   3   4
BRANCH   3   6
HETATM    6  C   UNL     1      -8.123   9.369  70.702  1.00  0.00    -0.161 C  
BRANCH   6   7
HETATM    7  C   UNL     1      -8.486   8.677  69.379  1.00  0.00    -0.126 C  
BRANCH   7   8
HETATM    8  O   UNL     1      -8.382   9.607  68.292  1.00  0.00    -0.115 OA 
BRANCH   8   9
HETATM    9  C   UNL     1      -9.327   9.288  67.268  1.00  0.00    -0.131 C  
BRANCH   9  10
HETATM   10  C   UNL     1      -8.607   8.848  65.996  1.00  0.00    -0.145 C  
BRANCH  10  11
HETATM   11  O   UNL     1      -8.881   7.468  65.689  1.00  0.00    -0.134 OA 
BRANCH  11  12
HETATM   12  C   UNL     1      -8.058   6.560  66.292  1.00  0.00    -0.115 C  
HETATM   13  O   UNL     1      -6.871   6.771  66.524  1.00  0.00    -0.058 OA 
BRANCH  12  14
HETATM   14  C   UNL     1      -8.764   5.222  66.581  1.00  0.00    -0.113 C  
HETATM   15  C   UNL     1      -7.825   3.996  66.416  1.00  0.00    -0.094 C  
HETATM   16  C   UNL     1      -9.755   5.001  65.406  1.00  0.00    -0.038 C  
HETATM   17  C   UNL     1      -9.962   3.500  65.330  1.00  0.00     0.004 C  
HETATM   18  C   UNL     1      -8.589   2.927  65.623  1.00  0.00    -0.116 C  
BRANCH  14  19
HETATM   19  C   UNL     1      -9.385   5.258  67.991  1.00  0.00    -0.135 A  
HETATM   20  C   UNL     1      -9.489   4.573  70.334  1.00  0.00    -0.252 A  
HETATM   21  C   UNL     1     -10.635   5.336  70.531  1.00  0.00    -0.272 A  
HETATM   22  C   UNL     1      -8.875   4.531  69.078  1.00  0.00    -0.123 A  
HETATM   23  C   UNL     1     -11.160   6.069  69.474  1.00  0.00    -0.468 A  
HETATM   24  C   UNL     1     -10.537   6.037  68.222  1.00  0.00    -0.325 A  
ENDBRANCH  14  19
ENDBRANCH  12  14
ENDBRANCH  11  12
ENDBRANCH  10  11
ENDBRANCH   9  10
ENDBRANCH   8   9
ENDBRANCH   7   8
ENDBRANCH   6   7
ENDBRANCH   3   6
ENDBRANCH   2   3
TORSDOF 11
ENDMDL
MODEL      350
REMARK 921   NORMALIZED FREE ENERGY PREDICTED BY IDOCK:   -3.22 KCAL/MOL
REMARK 922        TOTAL FREE ENERGY PREDICTED BY IDOCK:   -6.12 KCAL/MOL
REMARK 923 INTER-LIGAND FREE ENERGY PREDICTED BY IDOCK:   -5.01 KCAL/MOL
REMARK 924 INTRA-LIGAND FREE ENERGY PREDICTED BY IDOCK:   -1.11 KCAL/MOL
REMARK 927      BINDING AFFINITY PREDICTED BY RF-SCORE:    0.00 PKD
ROOT
HETATM    1  C   UNL     1     -11.246  15.292  66.994  1.00  0.00    -0.275 C  
HETATM    2  C   UNL     1      -9.921  15.746  66.385  1.00  0.00    -0.277 C  
ENDROOT
BRANCH   2   3
HETATM    3  N   UNL     1      -8.800  15.823  67.340  1.00  0.00    -0.182 NA 
BRANCH   3   4
HETATM    4  C   UNL     1      -8.643  17.145  67.967  1.00  0.00    -0.227 C  
HETATM    5  C   UNL     1      -7.378  17.916  67.612  1.00  0.00    -0.211 C  
ENDBRANCH   3   4
BRANCH   3   6
HETATM    6  C   UNL     1      -8.897  14.709  68.310  1.00  0.00    -0.176 C  
BRANCH   6   7
HETATM    7  C   UNL     1      -7.613  13.883  68.487  1.00  0.00    -0.134 C  
BRANCH   7   8
HETATM    8  O   UNL     1      -7.250  13.266  67.243  1.00  0.00    -0.137 OA 
BRANCH   8   9
HETATM    9  C   UNL     1      -6.588  12.021  67.477  1.00  0.00    -0.123 C  
BRANCH   9  10
HETATM   10  C   UNL     1      -7.288  10.894  66.722  1.00  0.00    -0.134 C  
BRANCH  10  11
HETATM   11  O   UNL     1      -7.838   9.918  67.627  1.00  0.00    -0.097 OA 
BRANCH  11  12
HETATM   12  C   UNL     1      -9.130   9.554  67.380  1.00  0.00    -0.130 C  
HETATM   13  O   UNL     1      -9.927  10.256  66.766  1.00  0.00    -0.192 OA 
BRANCH  12  14
HETATM   14  C   UNL     1      -9.494   8.199  68.018  1.00  0.00    -0.155 C  
HETATM   15  C   UNL     1      -8.381   7.130  67.841  1.00  0.00    -0.118 C  
HETATM   16  C   UNL     1     -10.625   7.604  67.138  1.00  0.00    -0.410 C  
HETATM   17  C   UNL     1     -10.545   6.102  67.340  1.00  0.00    -0.352 C  
HETATM   18  C   UNL     1      -9.056   5.822  67.409  1.00  0.00    -0.110 C  
BRANCH  14  19
HETATM   19  C   UNL     1      -9.832   8.403  69.508  1.00  0.00    -0.181 A  
HETATM   20  C   UNL     1     -11.124   9.410  71.322  1.00  0.00    -0.446 A  
HETATM   21  C   UNL     1     -10.337   8.766  72.271  1.00  0.00    -0.320 A  
HETATM   22  C   UNL     1     -10.871   9.234  69.957  1.00  0.00    -0.264 A  
HETATM   23  C   UNL     1      -9.306   7.934  71.856  1.00  0.00    -0.204 A  
HETATM   24  C   UNL     1      -9.062   7.748  70.491  1.00  0.00    -0.154 A  
ENDBRANCH  14  19
ENDBRANCH  12  14
ENDBRANCH  11  12
ENDBRANCH  10  11
ENDBRANCH   9  10
ENDBRANCH   8   9
ENDBRANCH   7   8
ENDBRANCH   6   7
ENDBRANCH   3   6
ENDBRANCH   2   3
TORSDOF 11
ENDMDL
MODEL      351
REMARK 921   NORMALIZED FREE ENERGY PREDICTED BY IDOCK:   -3.22 KCAL/MOL
REMARK 922        TOTAL FREE ENERGY PREDICTED BY IDOCK:   -6.11 KCAL/MOL
REMARK 923 INTER-LIGAND FREE ENERGY PREDICTED BY IDOCK:   -5.44 KCAL/MOL
REMARK 924 INTRA-LIGAND FREE ENERGY PREDICTED BY IDOCK:   -0.67 KCAL/MOL
REMARK 927      BINDING AFFINITY PREDICTED BY RF-SCORE:    0.00 PKD
ROOT
HETATM    1  C   UNL     1      -7.504   6.172  71.351  1.00  0.00    -0.093 C  
HETATM    2  C   UNL     1      -8.739   6.854  71.936  1.00  0.00    -0.126 C  
ENDROOT
BRANCH   2   3
HETATM    3  N   UNL     1      -9.943   6.003  71.990  1.00  0.00    -0.170 NA 
BRANCH   3   4
HETATM    4  C   UNL     1     -10.810   6.272  73.147  1.00  0.00    -0.254 C  
HETATM    5  C   UNL     1     -10.144   6.224  74.517  1.00  0.00    -0.353 C  
ENDBRANCH   3   4
BRANCH   3   6
HETATM    6  C   UNL     1     -10.647   6.058  70.689  1.00  0.00    -0.260 C  
BRANCH   6   7
HETATM    7  C   UNL     1     -11.722   7.151  70.575  1.00  0.00    -0.272 C  
BRANCH   7   8
HETATM    8  O   UNL     1     -11.317   8.142  69.619  1.00  0.00     0.002 OA 
BRANCH   8   9
HETATM    9  C   UNL     1     -10.599   7.535  68.543  1.00  0.00    -0.136 C  
BRANCH   9  10
HETATM   10  C   UNL     1      -9.999   8.603  67.632  1.00  0.00    -0.194 C  
BRANCH  10  11
HETATM   11  O   UNL     1     -10.990   9.571  67.235  1.00  0.00    -0.203 OA 
BRANCH  11  12
HETATM   12  C   UNL     1     -10.592  10.875  67.302  1.00  0.00    -0.251 C  
HETATM   13  O   UNL     1     -10.869  11.622  68.236  1.00  0.00    -0.197 OA 
BRANCH  12  14
HETATM   14  C   UNL     1      -9.822  11.322  66.044  1.00  0.00    -0.267 C  
HETATM   15  C   UNL     1     -10.144  10.452  64.798  1.00  0.00    -0.387 C  
HETATM   16  C   UNL     1      -8.338  10.946  66.297  1.00  0.00    -0.164 C  
HETATM   17  C   UNL     1      -7.723  10.784  64.919  1.00  0.00     0.175 C  
HETATM   18  C   UNL     1      -8.816  10.118  64.107  1.00  0.00    -0.243 C  
BRANCH  14  19
HETATM   19  C   UNL     1     -10.105  12.812  65.767  1.00  0.00    -0.296 A  
HETATM   20  C   UNL     1      -9.670  15.196  66.074  1.00  0.00    -0.361 A  
HETATM   21  C   UNL     1     -10.741  15.523  65.248  1.00  0.00    -0.440 A  
HETATM   22  C   UNL     1      -9.359  13.858  66.333  1.00  0.00    -0.226 A  
HETATM   23  C   UNL     1     -11.493  14.509  64.671  1.00  0.00    -0.389 A  
HETATM   24  C   UNL     1     -11.174  13.169  64.920  1.00  0.00    -0.333 A  
ENDBRANCH  14  19
ENDBRANCH  12  14
ENDBRANCH  11  12
ENDBRANCH  10  11
ENDBRANCH   9  10
ENDBRANCH   8   9
ENDBRANCH   7   8
ENDBRANCH   6   7
ENDBRANCH   3   6
ENDBRANCH   2   3
TORSDOF 11
ENDMDL
MODEL      352
REMARK 921   NORMALIZED FREE ENERGY PREDICTED BY IDOCK:   -3.19 KCAL/MOL
REMARK 922        TOTAL FREE ENERGY PREDICTED BY IDOCK:   -6.06 KCAL/MOL
REMARK 923 INTER-LIGAND FREE ENERGY PREDICTED BY IDOCK:   -5.70 KCAL/MOL
REMARK 924 INTRA-LIGAND FREE ENERGY PREDICTED BY IDOCK:   -0.36 KCAL/MOL
REMARK 927      BINDING AFFINITY PREDICTED BY RF-SCORE:    0.00 PKD
ROOT
HETATM    1  C   UNL     1     -11.062  16.269  70.580  1.00  0.00    -0.265 C  
HETATM    2  C   UNL     1     -12.325  15.537  70.131  1.00  0.00    -0.353 C  
ENDROOT
BRANCH   2   3
HETATM    3  N   UNL     1     -12.257  14.068  70.248  1.00  0.00    -0.341 NA 
BRANCH   3   4
HETATM    4  C   UNL     1     -13.396  13.476  70.966  1.00  0.00     0.008 C  
HETATM    5  C   UNL     1     -13.358  13.567  72.487  1.00  0.00    -0.617 C  
ENDBRANCH   3   4
BRANCH   3   6
HETATM    6  C   UNL     1     -12.020  13.476  68.911  1.00  0.00    -0.341 C  
BRANCH   6   7
HETATM    7  C   UNL     1     -11.750  14.488  67.787  1.00  0.00    -0.374 C  
BRANCH   7   8
HETATM    8  O   UNL     1     -10.427  14.302  67.264  1.00  0.00    -0.266 OA 
BRANCH   8   9
HETATM    9  C   UNL     1     -10.245  12.951  66.834  1.00  0.00    -0.242 C  
BRANCH   9  10
HETATM   10  C   UNL     1      -9.464  12.159  67.881  1.00  0.00    -0.195 C  
BRANCH  10  11
HETATM   11  O   UNL     1      -9.167  10.828  67.418  1.00  0.00    -0.146 OA 
BRANCH  11  12
HETATM   12  C   UNL     1     -10.170   9.916  67.574  1.00  0.00    -0.216 C  
HETATM   13  O   UNL     1     -11.359  10.218  67.620  1.00  0.00    -0.335 OA 
BRANCH  12  14
HETATM   14  C   UNL     1      -9.641   8.481  67.757  1.00  0.00    -0.185 C  
HETATM   15  C   UNL     1      -8.609   8.074  66.669  1.00  0.00    -0.141 C  
HETATM   16  C   UNL     1     -10.827   7.542  67.411  1.00  0.00    -0.272 C  
HETATM   17  C   UNL     1     -10.193   6.234  66.976  1.00  0.00    -0.256 C  
HETATM   18  C   UNL     1      -8.973   6.665  66.185  1.00  0.00    -0.157 C  
BRANCH  14  19
HETATM   19  C   UNL     1      -9.046   8.325  69.170  1.00  0.00    -0.148 A  
HETATM   20  C   UNL     1      -7.311   7.585  70.724  1.00  0.00    -0.068 A  
HETATM   21  C   UNL     1      -8.063   8.024  71.809  1.00  0.00    -0.142 A  
HETATM   22  C   UNL     1      -7.799   7.731  69.421  1.00  0.00    -0.115 A  
HETATM   23  C   UNL     1      -9.298   8.620  71.590  1.00  0.00    -0.333 A  
HETATM   24  C   UNL     1      -9.780   8.776  70.286  1.00  0.00    -0.198 A  
ENDBRANCH  14  19
ENDBRANCH  12  14
ENDBRANCH  11  12
ENDBRANCH  10  11
ENDBRANCH   9  10
ENDBRANCH   8   9
ENDBRANCH   7   8
ENDBRANCH   6   7
ENDBRANCH   3   6
ENDBRANCH   2   3
TORSDOF 11
ENDMDL
MODEL      353
REMARK 921   NORMALIZED FREE ENERGY PREDICTED BY IDOCK:   -3.19 KCAL/MOL
REMARK 922        TOTAL FREE ENERGY PREDICTED BY IDOCK:   -6.05 KCAL/MOL
REMARK 923 INTER-LIGAND FREE ENERGY PREDICTED BY IDOCK:   -5.47 KCAL/MOL
REMARK 924 INTRA-LIGAND FREE ENERGY PREDICTED BY IDOCK:   -0.59 KCAL/MOL
REMARK 927      BINDING AFFINITY PREDICTED BY RF-SCORE:    0.00 PKD
ROOT
HETATM    1  C   UNL     1      -7.380   5.465  71.915  1.00  0.00    -0.091 C  
HETATM    2  C   UNL     1      -8.309   5.421  73.127  1.00  0.00    -0.118 C  
ENDROOT
BRANCH   2   3
HETATM    3  N   UNL     1      -9.714   5.099  72.812  1.00  0.00    -0.152 NA 
BRANCH   3   4
HETATM    4  C   UNL     1     -10.450   4.493  73.932  1.00  0.00    -0.247 C  
HETATM    5  C   UNL     1     -11.078   3.129  73.668  1.00  0.00    -0.321 C  
ENDBRANCH   3   4
BRANCH   3   6
HETATM    6  C   UNL     1     -10.378   6.291  72.236  1.00  0.00    -0.190 C  
BRANCH   6   7
HETATM    7  C   UNL     1     -10.154   7.600  73.009  1.00  0.00    -0.304 C  
BRANCH   7   8
HETATM    8  O   UNL     1      -9.868   8.669  72.095  1.00  0.00    -0.297 OA 
BRANCH   8   9
HETATM    9  C   UNL     1     -11.079   9.285  71.651  1.00  0.00    -0.368 C  
BRANCH   9  10
HETATM   10  C   UNL     1     -10.786  10.313  70.561  1.00  0.00    -0.144 C  
BRANCH  10  11
HETATM   11  O   UNL     1     -10.762   9.703  69.257  1.00  0.00    -0.220 OA 
BRANCH  11  12
HETATM   12  C   UNL     1     -11.021  10.544  68.213  1.00  0.00    -0.263 C  
HETATM   13  O   UNL     1     -12.105  11.093  68.038  1.00  0.00    -0.635 OA 
BRANCH  12  14
HETATM   14  C   UNL     1      -9.830  10.667  67.244  1.00  0.00    -0.206 C  
HETATM   15  C   UNL     1     -10.261  10.644  65.751  1.00  0.00    -0.317 C  
HETATM   16  C   UNL     1      -9.051   9.329  67.352  1.00  0.00    -0.141 C  
HETATM   17  C   UNL     1      -8.320   9.180  66.032  1.00  0.00    -0.125 C  
HETATM   18  C   UNL     1      -9.307   9.701  65.006  1.00  0.00    -0.319 C  
BRANCH  14  19
HETATM   19  C   UNL     1      -9.029  11.944  67.568  1.00  0.00    -0.171 A  
HETATM   20  C   UNL     1      -6.945  13.201  67.785  1.00  0.00    -0.145 A  
HETATM   21  C   UNL     1      -7.638  14.314  68.250  1.00  0.00    -0.130 A  
HETATM   22  C   UNL     1      -7.632  12.029  67.452  1.00  0.00    -0.151 A  
HETATM   23  C   UNL     1      -9.020  14.260  68.371  1.00  0.00    -0.189 A  
HETATM   24  C   UNL     1      -9.708  13.091  68.025  1.00  0.00    -0.224 A  
ENDBRANCH  14  19
ENDBRANCH  12  14
ENDBRANCH  11  12
ENDBRANCH  10  11
ENDBRANCH   9  10
ENDBRANCH   8   9
ENDBRANCH   7   8
ENDBRANCH   6   7
ENDBRANCH   3   6
ENDBRANCH   2   3
TORSDOF 11
ENDMDL
MODEL      354
REMARK 921   NORMALIZED FREE ENERGY PREDICTED BY IDOCK:   -3.19 KCAL/MOL
REMARK 922        TOTAL FREE ENERGY PREDICTED BY IDOCK:   -6.05 KCAL/MOL
REMARK 923 INTER-LIGAND FREE ENERGY PREDICTED BY IDOCK:   -4.76 KCAL/MOL
REMARK 924 INTRA-LIGAND FREE ENERGY PREDICTED BY IDOCK:   -1.29 KCAL/MOL
REMARK 927      BINDING AFFINITY PREDICTED BY RF-SCORE:    0.00 PKD
ROOT
HETATM    1  C   UNL     1      -7.613   4.841  64.155  1.00  0.00    -0.072 C  
HETATM    2  C   UNL     1      -9.059   4.614  64.591  1.00  0.00    -0.141 C  
ENDROOT
BRANCH   2   3
HETATM    3  N   UNL     1      -9.424   5.257  65.867  1.00  0.00    -0.158 NA 
BRANCH   3   4
HETATM    4  C   UNL     1      -9.836   4.309  66.914  1.00  0.00    -0.193 C  
HETATM    5  C   UNL     1      -9.206   4.504  68.288  1.00  0.00    -0.174 C  
ENDBRANCH   3   4
BRANCH   3   6
HETATM    6  C   UNL     1      -8.342   6.177  66.286  1.00  0.00    -0.124 C  
BRANCH   6   7
HETATM    7  C   UNL     1      -8.768   7.641  66.478  1.00  0.00    -0.149 C  
BRANCH   7   8
HETATM    8  O   UNL     1      -8.104   8.201  67.620  1.00  0.00    -0.123 OA 
BRANCH   8   9
HETATM    9  C   UNL     1      -7.886   9.601  67.435  1.00  0.00    -0.095 C  
BRANCH   9  10
HETATM   10  C   UNL     1      -8.438  10.389  68.620  1.00  0.00    -0.129 C  
BRANCH  10  11
HETATM   11  O   UNL     1      -8.927   9.511  69.652  1.00  0.00    -0.159 OA 
BRANCH  11  12
HETATM   12  C   UNL     1      -8.079   9.316  70.704  1.00  0.00    -0.176 C  
HETATM   13  O   UNL     1      -7.122  10.044  70.948  1.00  0.00    -0.337 OA 
BRANCH  12  14
HETATM   14  C   UNL     1      -8.415   8.043  71.504  1.00  0.00    -0.147 C  
HETATM   15  C   UNL     1      -7.917   8.105  72.975  1.00  0.00    -0.220 C  
HETATM   16  C   UNL     1      -7.505   6.924  70.928  1.00  0.00    -0.083 C  
HETATM   17  C   UNL     1      -7.351   5.912  72.047  1.00  0.00    -0.094 C  
HETATM   18  C   UNL     1      -7.246   6.764  73.298  1.00  0.00    -0.075 C  
BRANCH  14  19
HETATM   19  C   UNL     1      -9.932   7.778  71.445  1.00  0.00    -0.207 A  
HETATM   20  C   UNL     1     -11.896   6.587  70.612  1.00  0.00    -0.398 A  
HETATM   21  C   UNL     1     -12.739   7.411  71.351  1.00  0.00    -0.408 A  
HETATM   22  C   UNL     1     -10.510   6.771  70.656  1.00  0.00    -0.243 A  
HETATM   23  C   UNL     1     -12.194   8.412  72.145  1.00  0.00    -0.434 A  
HETATM   24  C   UNL     1     -10.807   8.587  72.198  1.00  0.00    -0.427 A  
ENDBRANCH  14  19
ENDBRANCH  12  14
ENDBRANCH  11  12
ENDBRANCH  10  11
ENDBRANCH   9  10
ENDBRANCH   8   9
ENDBRANCH   7   8
ENDBRANCH   6   7
ENDBRANCH   3   6
ENDBRANCH   2   3
TORSDOF 11
ENDMDL
MODEL      355
REMARK 921   NORMALIZED FREE ENERGY PREDICTED BY IDOCK:   -3.18 KCAL/MOL
REMARK 922        TOTAL FREE ENERGY PREDICTED BY IDOCK:   -6.04 KCAL/MOL
REMARK 923 INTER-LIGAND FREE ENERGY PREDICTED BY IDOCK:   -4.85 KCAL/MOL
REMARK 924 INTRA-LIGAND FREE ENERGY PREDICTED BY IDOCK:   -1.19 KCAL/MOL
REMARK 927      BINDING AFFINITY PREDICTED BY RF-SCORE:    0.00 PKD
ROOT
HETATM    1  C   UNL     1     -12.128   9.333  71.546  1.00  0.00    -0.435 C  
HETATM    2  C   UNL     1     -10.608   9.204  71.619  1.00  0.00    -0.357 C  
ENDROOT
BRANCH   2   3
HETATM    3  N   UNL     1     -10.096   7.840  71.387  1.00  0.00    -0.181 NA 
BRANCH   3   4
HETATM    4  C   UNL     1     -10.970   7.013  70.540  1.00  0.00    -0.265 C  
HETATM    5  C   UNL     1     -10.401   6.592  69.190  1.00  0.00    -0.220 C  
ENDBRANCH   3   4
BRANCH   3   6
HETATM    6  C   UNL     1      -8.695   7.911  70.910  1.00  0.00    -0.137 C  
BRANCH   6   7
HETATM    7  C   UNL     1      -8.212   9.314  70.511  1.00  0.00    -0.191 C  
BRANCH   7   8
HETATM    8  O   UNL     1      -6.884   9.536  71.006  1.00  0.00    -0.199 OA 
BRANCH   8   9
HETATM    9  C   UNL     1      -6.375  10.784  70.529  1.00  0.00    -0.051 C  
BRANCH   9  10
HETATM   10  C   UNL     1      -5.889  10.647  69.089  1.00  0.00    -0.040 C  
BRANCH  10  11
HETATM   11  O   UNL     1      -6.564  11.575  68.217  1.00  0.00    -0.059 OA 
BRANCH  11  12
HETATM   12  C   UNL     1      -6.808  11.118  66.954  1.00  0.00    -0.127 C  
HETATM   13  O   UNL     1      -5.928  10.916  66.123  1.00  0.00    -0.119 OA 
BRANCH  12  14
HETATM   14  C   UNL     1      -8.313  10.954  66.667  1.00  0.00    -0.143 C  
HETATM   15  C   UNL     1      -8.884   9.606  67.188  1.00  0.00    -0.141 C  
HETATM   16  C   UNL     1      -8.435  10.757  65.132  1.00  0.00    -0.102 C  
HETATM   17  C   UNL     1      -9.730   9.994  64.925  1.00  0.00    -0.377 C  
HETATM   18  C   UNL     1      -9.765   9.014  66.081  1.00  0.00    -0.354 C  
BRANCH  14  19
HETATM   19  C   UNL     1      -9.087  12.148  67.259  1.00  0.00    -0.181 A  
HETATM   20  C   UNL     1      -9.399  14.533  67.689  1.00  0.00    -0.202 A  
HETATM   21  C   UNL     1     -10.540  14.272  68.441  1.00  0.00    -0.255 A  
HETATM   22  C   UNL     1      -8.679  13.483  67.109  1.00  0.00    -0.222 A  
HETATM   23  C   UNL     1     -10.969  12.962  68.603  1.00  0.00    -0.295 A  
HETATM   24  C   UNL     1     -10.256  11.913  68.012  1.00  0.00    -0.199 A  
ENDBRANCH  14  19
ENDBRANCH  12  14
ENDBRANCH  11  12
ENDBRANCH  10  11
ENDBRANCH   9  10
ENDBRANCH   8   9
ENDBRANCH   7   8
ENDBRANCH   6   7
ENDBRANCH   3   6
ENDBRANCH   2   3
TORSDOF 11
ENDMDL
MODEL      356
REMARK 921   NORMALIZED FREE ENERGY PREDICTED BY IDOCK:   -3.15 KCAL/MOL
REMARK 922        TOTAL FREE ENERGY PREDICTED BY IDOCK:   -5.99 KCAL/MOL
REMARK 923 INTER-LIGAND FREE ENERGY PREDICTED BY IDOCK:   -4.90 KCAL/MOL
REMARK 924 INTRA-LIGAND FREE ENERGY PREDICTED BY IDOCK:   -1.10 KCAL/MOL
REMARK 927      BINDING AFFINITY PREDICTED BY RF-SCORE:    0.00 PKD
ROOT
HETATM    1  C   UNL     1     -11.420   6.343  69.651  1.00  0.00    -0.446 C  
HETATM    2  C   UNL     1     -10.096   5.611  69.850  1.00  0.00    -0.222 C  
ENDROOT
BRANCH   2   3
HETATM    3  N   UNL     1      -9.125   5.787  68.754  1.00  0.00    -0.115 NA 
BRANCH   3   4
HETATM    4  C   UNL     1      -9.251   4.789  67.681  1.00  0.00    -0.128 C  
HETATM    5  C   UNL     1      -8.939   3.346  68.060  1.00  0.00    -0.180 C  
ENDBRANCH   3   4
BRANCH   3   6
HETATM    6  C   UNL     1      -9.168   7.188  68.274  1.00  0.00    -0.132 C  
BRANCH   6   7
HETATM    7  C   UNL     1      -7.940   8.039  68.635  1.00  0.00    -0.123 C  
BRANCH   7   8
HETATM    8  O   UNL     1      -7.237   8.418  67.443  1.00  0.00    -0.085 OA 
BRANCH   8   9
HETATM    9  C   UNL     1      -6.763   9.763  67.548  1.00  0.00    -0.070 C  
BRANCH   9  10
HETATM   10  C   UNL     1      -7.804  10.643  68.236  1.00  0.00    -0.113 C  
BRANCH  10  11
HETATM   11  O   UNL     1      -8.364  11.605  67.322  1.00  0.00    -0.144 OA 
BRANCH  11  12
HETATM   12  C   UNL     1      -8.683  12.815  67.869  1.00  0.00    -0.185 C  
HETATM   13  O   UNL     1      -8.020  13.356  68.749  1.00  0.00    -0.093 OA 
BRANCH  12  14
HETATM   14  C   UNL     1     -10.000  13.387  67.312  1.00  0.00    -0.232 C  
HETATM   15  C   UNL     1     -11.257  12.807  68.018  1.00  0.00    -0.310 C  
HETATM   16  C   UNL     1     -10.155  12.789  65.887  1.00  0.00    -0.286 C  
HETATM   17  C   UNL     1     -11.645  12.809  65.602  1.00  0.00    -0.410 C  
HETATM   18  C   UNL     1     -12.276  12.443  66.932  1.00  0.00     0.140 C  
BRANCH  14  19
HETATM   19  C   UNL     1      -9.976  14.925  67.401  1.00  0.00    -0.223 A  
HETATM   20  C   UNL     1      -9.186  17.127  66.696  1.00  0.00    -0.280 A  
HETATM   21  C   UNL     1      -9.946  17.743  67.684  1.00  0.00    -0.322 A  
HETATM   22  C   UNL     1      -9.198  15.735  66.558  1.00  0.00    -0.314 A  
HETATM   23  C   UNL     1     -10.729  16.967  68.529  1.00  0.00    -0.359 A  
HETATM   24  C   UNL     1     -10.750  15.575  68.383  1.00  0.00    -0.263 A  
ENDBRANCH  14  19
ENDBRANCH  12  14
ENDBRANCH  11  12
ENDBRANCH  10  11
ENDBRANCH   9  10
ENDBRANCH   8   9
ENDBRANCH   7   8
ENDBRANCH   6   7
ENDBRANCH   3   6
ENDBRANCH   2   3
TORSDOF 11
ENDMDL
MODEL      357
REMARK 921   NORMALIZED FREE ENERGY PREDICTED BY IDOCK:   -3.12 KCAL/MOL
REMARK 922        TOTAL FREE ENERGY PREDICTED BY IDOCK:   -5.95 KCAL/MOL
REMARK 923 INTER-LIGAND FREE ENERGY PREDICTED BY IDOCK:   -4.84 KCAL/MOL
REMARK 924 INTRA-LIGAND FREE ENERGY PREDICTED BY IDOCK:   -1.10 KCAL/MOL
REMARK 927      BINDING AFFINITY PREDICTED BY RF-SCORE:    0.00 PKD
ROOT
HETATM    1  C   UNL     1      -8.883  16.745  68.762  1.00  0.00    -0.258 C  
HETATM    2  C   UNL     1      -8.787  15.424  68.002  1.00  0.00    -0.165 C  
ENDROOT
BRANCH   2   3
HETATM    3  N   UNL     1      -9.961  15.109  67.166  1.00  0.00    -0.235 NA 
BRANCH   3   4
HETATM    4  C   UNL     1      -9.714  15.239  65.722  1.00  0.00    -0.350 C  
HETATM    5  C   UNL     1     -10.765  16.000  64.922  1.00  0.00    -0.339 C  
ENDBRANCH   3   4
BRANCH   3   6
HETATM    6  C   UNL     1     -10.513  13.794  67.563  1.00  0.00    -0.245 C  
BRANCH   6   7
HETATM    7  C   UNL     1     -10.142  12.625  66.636  1.00  0.00    -0.241 C  
BRANCH   7   8
HETATM    8  O   UNL     1      -9.955  11.428  67.405  1.00  0.00    -0.184 OA 
BRANCH   8   9
HETATM    9  C   UNL     1      -8.589  11.009  67.356  1.00  0.00    -0.132 C  
BRANCH   9  10
HETATM   10  C   UNL     1      -8.478   9.626  66.721  1.00  0.00    -0.127 C  
BRANCH  10  11
HETATM   11  O   UNL     1      -8.834   8.589  67.656  1.00  0.00    -0.135 OA 
BRANCH  11  12
HETATM   12  C   UNL     1      -9.902   7.819  67.295  1.00  0.00    -0.189 C  
HETATM   13  O   UNL     1     -10.996   8.279  66.983  1.00  0.00    -0.134 OA 
BRANCH  12  14
HETATM   14  C   UNL     1      -9.602   6.311  67.394  1.00  0.00    -0.129 C  
HETATM   15  C   UNL     1      -8.339   5.892  66.592  1.00  0.00    -0.110 C  
HETATM   16  C   UNL     1     -10.720   5.600  66.585  1.00  0.00    -0.339 C  
HETATM   17  C   UNL     1     -10.122   4.276  66.149  1.00  0.00    -0.210 C  
HETATM   18  C   UNL     1      -8.684   4.618  65.811  1.00  0.00    -0.124 C  
BRANCH  14  19
HETATM   19  C   UNL     1      -9.476   5.904  68.875  1.00  0.00    -0.146 A  
HETATM   20  C   UNL     1      -8.238   5.008  70.782  1.00  0.00    -0.100 A  
HETATM   21  C   UNL     1      -9.361   5.121  71.595  1.00  0.00    -0.183 A  
HETATM   22  C   UNL     1      -8.297   5.390  69.438  1.00  0.00    -0.096 A  
HETATM   23  C   UNL     1     -10.540   5.630  71.067  1.00  0.00    -0.318 A  
HETATM   24  C   UNL     1     -10.595   6.025  69.725  1.00  0.00    -0.356 A  
ENDBRANCH  14  19
ENDBRANCH  12  14
ENDBRANCH  11  12
ENDBRANCH  10  11
ENDBRANCH   9  10
ENDBRANCH   8   9
ENDBRANCH   7   8
ENDBRANCH   6   7
ENDBRANCH   3   6
ENDBRANCH   2   3
TORSDOF 11
ENDMDL
MODEL      358
REMARK 921   NORMALIZED FREE ENERGY PREDICTED BY IDOCK:   -3.10 KCAL/MOL
REMARK 922        TOTAL FREE ENERGY PREDICTED BY IDOCK:   -5.90 KCAL/MOL
REMARK 923 INTER-LIGAND FREE ENERGY PREDICTED BY IDOCK:   -5.03 KCAL/MOL
REMARK 924 INTRA-LIGAND FREE ENERGY PREDICTED BY IDOCK:   -0.87 KCAL/MOL
REMARK 927      BINDING AFFINITY PREDICTED BY RF-SCORE:    0.00 PKD
ROOT
HETATM    1  C   UNL     1      -5.364   5.841  63.625  1.00  0.00    -0.017 C  
HETATM    2  C   UNL     1      -6.880   5.741  63.777  1.00  0.00    -0.041 C  
ENDROOT
BRANCH   2   3
HETATM    3  N   UNL     1      -7.377   5.976  65.146  1.00  0.00    -0.070 NA 
BRANCH   3   4
HETATM    4  C   UNL     1      -7.383   4.773  65.992  1.00  0.00    -0.077 C  
HETATM    5  C   UNL     1      -8.519   4.662  67.002  1.00  0.00    -0.105 C  
ENDBRANCH   3   4
BRANCH   3   6
HETATM    6  C   UNL     1      -6.656   7.123  65.744  1.00  0.00    -0.052 C  
BRANCH   6   7
HETATM    7  C   UNL     1      -7.509   8.381  65.976  1.00  0.00    -0.084 C  
BRANCH   7   8
HETATM    8  O   UNL     1      -6.760   9.354  66.717  1.00  0.00    -0.071 OA 
BRANCH   8   9
HETATM    9  C   UNL     1      -7.266  10.668  66.471  1.00  0.00    -0.134 C  
BRANCH   9  10
HETATM   10  C   UNL     1      -7.907  11.237  67.734  1.00  0.00    -0.115 C  
BRANCH  10  11
HETATM   11  O   UNL     1      -8.852  12.278  67.419  1.00  0.00    -0.169 OA 
BRANCH  11  12
HETATM   12  C   UNL     1     -10.052  11.850  66.929  1.00  0.00    -0.207 C  
HETATM   13  O   UNL     1     -10.524  10.741  67.164  1.00  0.00    -0.212 OA 
BRANCH  12  14
HETATM   14  C   UNL     1     -10.710  12.882  65.993  1.00  0.00    -0.296 C  
HETATM   15  C   UNL     1     -12.243  12.674  65.848  1.00  0.00    -0.375 C  
HETATM   16  C   UNL     1     -10.223  12.531  64.562  1.00  0.00    -0.332 C  
HETATM   17  C   UNL     1     -11.290  13.071  63.629  1.00  0.00    -0.392 C  
HETATM   18  C   UNL     1     -12.589  12.789  64.358  1.00  0.00    -0.431 C  
BRANCH  14  19
HETATM   19  C   UNL     1     -10.390  14.306  66.487  1.00  0.00    -0.278 A  
HETATM   20  C   UNL     1      -9.138  16.403  66.399  1.00  0.00    -0.341 A  
HETATM   21  C   UNL     1      -9.827  16.888  67.506  1.00  0.00    -0.260 A  
HETATM   22  C   UNL     1      -9.414  15.127  65.898  1.00  0.00    -0.334 A  
HETATM   23  C   UNL     1     -10.801  16.101  68.105  1.00  0.00    -0.329 A  
HETATM   24  C   UNL     1     -11.085  14.829  67.597  1.00  0.00    -0.311 A  
ENDBRANCH  14  19
ENDBRANCH  12  14
ENDBRANCH  11  12
ENDBRANCH  10  11
ENDBRANCH   9  10
ENDBRANCH   8   9
ENDBRANCH   7   8
ENDBRANCH   6   7
ENDBRANCH   3   6
ENDBRANCH   2   3
TORSDOF 11
ENDMDL
MODEL      359
REMARK 921   NORMALIZED FREE ENERGY PREDICTED BY IDOCK:   -3.09 KCAL/MOL
REMARK 922        TOTAL FREE ENERGY PREDICTED BY IDOCK:   -5.90 KCAL/MOL
REMARK 923 INTER-LIGAND FREE ENERGY PREDICTED BY IDOCK:   -5.20 KCAL/MOL
REMARK 924 INTRA-LIGAND FREE ENERGY PREDICTED BY IDOCK:   -0.70 KCAL/MOL
REMARK 927      BINDING AFFINITY PREDICTED BY RF-SCORE:    0.00 PKD
ROOT
HETATM    1  C   UNL     1     -10.084  20.356  65.959  1.00  0.00    -0.263 C  
HETATM    2  C   UNL     1     -10.342  19.836  67.372  1.00  0.00    -0.447 C  
ENDROOT
BRANCH   2   3
HETATM    3  N   UNL     1      -9.627  18.590  67.707  1.00  0.00    -0.284 NA 
BRANCH   3   4
HETATM    4  C   UNL     1      -9.474  17.668  66.571  1.00  0.00    -0.283 C  
HETATM    5  C   UNL     1     -10.745  16.987  66.077  1.00  0.00    -0.116 C  
ENDBRANCH   3   4
BRANCH   3   6
HETATM    6  C   UNL     1      -8.353  18.917  68.387  1.00  0.00    -0.347 C  
BRANCH   6   7
HETATM    7  C   UNL     1      -7.089  18.371  67.704  1.00  0.00    -0.209 C  
BRANCH   7   8
HETATM    8  O   UNL     1      -6.223  17.772  68.679  1.00  0.00    -0.184 OA 
BRANCH   8   9
HETATM    9  C   UNL     1      -5.557  16.635  68.125  1.00  0.00    -0.117 C  
BRANCH   9  10
HETATM   10  C   UNL     1      -6.478  15.897  67.156  1.00  0.00    -0.061 C  
BRANCH  10  11
HETATM   11  O   UNL     1      -6.584  14.501  67.493  1.00  0.00    -0.227 OA 
BRANCH  11  12
HETATM   12  C   UNL     1      -7.443  14.209  68.513  1.00  0.00    -0.123 C  
HETATM   13  O   UNL     1      -7.199  14.445  69.693  1.00  0.00    -0.104 OA 
BRANCH  12  14
HETATM   14  C   UNL     1      -8.714  13.487  68.027  1.00  0.00    -0.181 C  
HETATM   15  C   UNL     1      -8.604  11.940  68.121  1.00  0.00    -0.165 C  
HETATM   16  C   UNL     1      -8.758  13.691  66.489  1.00  0.00     0.089 C  
HETATM   17  C   UNL     1      -9.569  12.528  65.951  1.00  0.00    -0.174 C  
HETATM   18  C   UNL     1      -9.138  11.354  66.808  1.00  0.00    -0.181 C  
BRANCH  14  19
HETATM   19  C   UNL     1      -9.935  14.003  68.813  1.00  0.00    -0.164 A  
HETATM   20  C   UNL     1     -11.126  15.705  70.100  1.00  0.00    -0.347 A  
HETATM   21  C   UNL     1     -12.197  14.839  70.298  1.00  0.00    -0.394 A  
HETATM   22  C   UNL     1     -10.008  15.290  69.370  1.00  0.00    -0.257 A  
HETATM   23  C   UNL     1     -12.155  13.562  69.755  1.00  0.00    -0.381 A  
HETATM   24  C   UNL     1     -11.041  13.152  69.013  1.00  0.00    -0.282 A  
ENDBRANCH  14  19
ENDBRANCH  12  14
ENDBRANCH  11  12
ENDBRANCH  10  11
ENDBRANCH   9  10
ENDBRANCH   8   9
ENDBRANCH   7   8
ENDBRANCH   6   7
ENDBRANCH   3   6
ENDBRANCH   2   3
TORSDOF 11
ENDMDL
MODEL      360
REMARK 921   NORMALIZED FREE ENERGY PREDICTED BY IDOCK:   -3.08 KCAL/MOL
REMARK 922        TOTAL FREE ENERGY PREDICTED BY IDOCK:   -5.89 KCAL/MOL
REMARK 923 INTER-LIGAND FREE ENERGY PREDICTED BY IDOCK:   -4.51 KCAL/MOL
REMARK 924 INTRA-LIGAND FREE ENERGY PREDICTED BY IDOCK:   -1.37 KCAL/MOL
REMARK 927      BINDING AFFINITY PREDICTED BY RF-SCORE:    0.00 PKD
ROOT
HETATM    1  C   UNL     1      -8.804  14.147  68.306  1.00  0.00    -0.187 C  
HETATM    2  C   UNL     1      -9.089  13.348  67.036  1.00  0.00    -0.243 C  
ENDROOT
BRANCH   2   3
HETATM    3  N   UNL     1     -10.369  13.675  66.379  1.00  0.00    -0.281 NA 
BRANCH   3   4
HETATM    4  C   UNL     1     -10.225  14.524  65.187  1.00  0.00    -0.389 C  
HETATM    5  C   UNL     1     -10.756  15.948  65.303  1.00  0.00    -0.442 C  
ENDBRANCH   3   4
BRANCH   3   6
HETATM    6  C   UNL     1     -11.134  12.430  66.138  1.00  0.00    -0.302 C  
BRANCH   6   7
HETATM    7  C   UNL     1     -10.906  11.780  64.764  1.00  0.00    -0.302 C  
BRANCH   7   8
HETATM    8  O   UNL     1     -10.264  10.507  64.923  1.00  0.00    -0.328 OA 
BRANCH   8   9
HETATM    9  C   UNL     1      -9.062  10.453  64.151  1.00  0.00    -0.242 C  
BRANCH   9  10
HETATM   10  C   UNL     1      -7.852  10.262  65.062  1.00  0.00    -0.133 C  
BRANCH  10  11
HETATM   11  O   UNL     1      -7.835   8.943  65.643  1.00  0.00    -0.092 OA 
BRANCH  11  12
HETATM   12  C   UNL     1      -8.100   8.890  66.981  1.00  0.00    -0.109 C  
HETATM   13  O   UNL     1      -7.818   9.793  67.764  1.00  0.00    -0.094 OA 
BRANCH  12  14
HETATM   14  C   UNL     1      -8.723   7.547  67.407  1.00  0.00    -0.124 C  
HETATM   15  C   UNL     1     -10.029   7.215  66.633  1.00  0.00    -0.234 C  
HETATM   16  C   UNL     1      -9.273   7.768  68.842  1.00  0.00    -0.140 C  
HETATM   17  C   UNL     1     -10.384   6.749  69.009  1.00  0.00    -0.212 C  
HETATM   18  C   UNL     1     -11.063   6.722  67.654  1.00  0.00    -0.309 C  
BRANCH  14  19
HETATM   19  C   UNL     1      -7.684   6.420  67.247  1.00  0.00    -0.100 A  
HETATM   20  C   UNL     1      -6.763   4.463  66.110  1.00  0.00    -0.050 A  
HETATM   21  C   UNL     1      -5.767   4.342  67.074  1.00  0.00    -0.022 A  
HETATM   22  C   UNL     1      -7.712   5.487  66.198  1.00  0.00    -0.095 A  
HETATM   23  C   UNL     1      -5.713   5.254  68.120  1.00  0.00    -0.016 A  
HETATM   24  C   UNL     1      -6.654   6.286  68.200  1.00  0.00    -0.066 A  
ENDBRANCH  14  19
ENDBRANCH  12  14
ENDBRANCH  11  12
ENDBRANCH  10  11
ENDBRANCH   9  10
ENDBRANCH   8   9
ENDBRANCH   7   8
ENDBRANCH   6   7
ENDBRANCH   3   6
ENDBRANCH   2   3
TORSDOF 11
ENDMDL
MODEL      361
REMARK 921   NORMALIZED FREE ENERGY PREDICTED BY IDOCK:   -3.07 KCAL/MOL
REMARK 922        TOTAL FREE ENERGY PREDICTED BY IDOCK:   -5.86 KCAL/MOL
REMARK 923 INTER-LIGAND FREE ENERGY PREDICTED BY IDOCK:   -5.34 KCAL/MOL
REMARK 924 INTRA-LIGAND FREE ENERGY PREDICTED BY IDOCK:   -0.52 KCAL/MOL
REMARK 927      BINDING AFFINITY PREDICTED BY RF-SCORE:    0.00 PKD
ROOT
HETATM    1  C   UNL     1      -6.576   8.310  71.156  1.00  0.00    -0.046 C  
HETATM    2  C   UNL     1      -7.227   7.442  70.082  1.00  0.00    -0.070 C  
ENDROOT
BRANCH   2   3
HETATM    3  N   UNL     1      -6.700   7.652  68.720  1.00  0.00    -0.052 NA 
BRANCH   3   4
HETATM    4  C   UNL     1      -7.566   7.117  67.658  1.00  0.00    -0.110 C  
HETATM    5  C   UNL     1      -8.704   6.208  68.108  1.00  0.00    -0.114 C  
ENDBRANCH   3   4
BRANCH   3   6
HETATM    6  C   UNL     1      -6.346   9.079  68.540  1.00  0.00    -0.054 C  
BRANCH   6   7
HETATM    7  C   UNL     1      -6.853   9.718  67.238  1.00  0.00    -0.083 C  
BRANCH   7   8
HETATM    8  O   UNL     1      -8.201  10.181  67.409  1.00  0.00    -0.114 OA 
BRANCH   8   9
HETATM    9  C   UNL     1      -8.295  11.573  67.096  1.00  0.00    -0.160 C  
BRANCH   9  10
HETATM   10  C   UNL     1      -7.669  12.413  68.206  1.00  0.00    -0.140 C  
BRANCH  10  11
HETATM   11  O   UNL     1      -8.363  13.665  68.371  1.00  0.00    -0.155 OA 
BRANCH  11  12
HETATM   12  C   UNL     1      -9.690  13.644  68.053  1.00  0.00    -0.226 C  
HETATM   13  O   UNL     1     -10.499  12.878  68.568  1.00  0.00    -0.247 OA 
BRANCH  12  14
HETATM   14  C   UNL     1     -10.043  14.635  66.927  1.00  0.00    -0.255 C  
HETATM   15  C   UNL     1      -8.790  15.296  66.289  1.00  0.00    -0.262 C  
HETATM   16  C   UNL     1     -10.703  15.855  67.624  1.00  0.00    -0.312 C  
HETATM   17  C   UNL     1     -10.473  17.027  66.689  1.00  0.00    -0.253 C  
HETATM   18  C   UNL     1      -9.073  16.797  66.153  1.00  0.00    -0.288 C  
BRANCH  14  19
HETATM   19  C   UNL     1     -10.897  13.923  65.859  1.00  0.00    -0.287 A  
HETATM   20  C   UNL     1     -13.029  13.170  64.934  1.00  0.00    -0.213 A  
HETATM   21  C   UNL     1     -12.376  12.535  63.883  1.00  0.00    -0.576 A  
HETATM   22  C   UNL     1     -12.298  13.852  65.912  1.00  0.00    -0.517 A  
HETATM   23  C   UNL     1     -10.991  12.592  63.803  1.00  0.00    -0.481 A  
HETATM   24  C   UNL     1     -10.261  13.286  64.774  1.00  0.00    -0.323 A  
ENDBRANCH  14  19
ENDBRANCH  12  14
ENDBRANCH  11  12
ENDBRANCH  10  11
ENDBRANCH   9  10
ENDBRANCH   8   9
ENDBRANCH   7   8
ENDBRANCH   6   7
ENDBRANCH   3   6
ENDBRANCH   2   3
TORSDOF 11
ENDMDL
MODEL      362
REMARK 921   NORMALIZED FREE ENERGY PREDICTED BY IDOCK:   -3.03 KCAL/MOL
REMARK 922        TOTAL FREE ENERGY PREDICTED BY IDOCK:   -5.80 KCAL/MOL
REMARK 923 INTER-LIGAND FREE ENERGY PREDICTED BY IDOCK:   -4.44 KCAL/MOL
REMARK 924 INTRA-LIGAND FREE ENERGY PREDICTED BY IDOCK:   -1.37 KCAL/MOL
REMARK 927      BINDING AFFINITY PREDICTED BY RF-SCORE:    0.00 PKD
ROOT
HETATM    1  C   UNL     1     -10.250  15.866  65.444  1.00  0.00    -0.354 C  
HETATM    2  C   UNL     1     -10.543  14.372  65.322  1.00  0.00    -0.382 C  
ENDROOT
BRANCH   2   3
HETATM    3  N   UNL     1     -10.569  13.645  66.605  1.00  0.00    -0.276 NA 
BRANCH   3   4
HETATM    4  C   UNL     1     -11.696  12.708  66.735  1.00  0.00    -0.392 C  
HETATM    5  C   UNL     1     -12.230  12.485  68.145  1.00  0.00     0.103 C  
ENDBRANCH   3   4
BRANCH   3   6
HETATM    6  C   UNL     1      -9.246  13.026  66.850  1.00  0.00    -0.236 C  
BRANCH   6   7
HETATM    7  C   UNL     1      -8.997  11.703  66.109  1.00  0.00    -0.178 C  
BRANCH   7   8
HETATM    8  O   UNL     1      -7.618  11.324  66.229  1.00  0.00    -0.125 OA 
BRANCH   8   9
HETATM    9  C   UNL     1      -7.102  11.711  67.504  1.00  0.00    -0.111 C  
BRANCH   9  10
HETATM   10  C   UNL     1      -5.897  10.850  67.876  1.00  0.00    -0.046 C  
BRANCH  10  11
HETATM   11  O   UNL     1      -6.279   9.755  68.730  1.00  0.00    -0.042 OA 
BRANCH  11  12
HETATM   12  C   UNL     1      -7.079  10.088  69.785  1.00  0.00    -0.119 C  
HETATM   13  O   UNL     1      -6.781  10.934  70.622  1.00  0.00    -0.272 OA 
BRANCH  12  14
HETATM   14  C   UNL     1      -8.361   9.234  69.846  1.00  0.00    -0.161 C  
HETATM   15  C   UNL     1      -8.567   8.363  68.576  1.00  0.00    -0.136 C  
HETATM   16  C   UNL     1      -9.544  10.231  69.721  1.00  0.00    -0.146 C  
HETATM   17  C   UNL     1     -10.696   9.421  69.158  1.00  0.00    -0.216 C  
HETATM   18  C   UNL     1     -10.036   8.497  68.153  1.00  0.00    -0.214 C  
BRANCH  14  19
HETATM   19  C   UNL     1      -8.342   8.363  71.117  1.00  0.00    -0.163 A  
HETATM   20  C   UNL     1      -9.122   7.776  73.357  1.00  0.00    -0.336 A  
HETATM   21  C   UNL     1      -8.188   6.748  73.439  1.00  0.00    -0.124 A  
HETATM   22  C   UNL     1      -9.195   8.575  72.212  1.00  0.00    -0.343 A  
HETATM   23  C   UNL     1      -7.335   6.512  72.369  1.00  0.00    -0.090 A  
HETATM   24  C   UNL     1      -7.417   7.304  71.219  1.00  0.00    -0.079 A  
ENDBRANCH  14  19
ENDBRANCH  12  14
ENDBRANCH  11  12
ENDBRANCH  10  11
ENDBRANCH   9  10
ENDBRANCH   8   9
ENDBRANCH   7   8
ENDBRANCH   6   7
ENDBRANCH   3   6
ENDBRANCH   2   3
TORSDOF 11
ENDMDL
MODEL      363
REMARK 921   NORMALIZED FREE ENERGY PREDICTED BY IDOCK:   -3.03 KCAL/MOL
REMARK 922        TOTAL FREE ENERGY PREDICTED BY IDOCK:   -5.80 KCAL/MOL
REMARK 923 INTER-LIGAND FREE ENERGY PREDICTED BY IDOCK:   -4.54 KCAL/MOL
REMARK 924 INTRA-LIGAND FREE ENERGY PREDICTED BY IDOCK:   -1.26 KCAL/MOL
REMARK 927      BINDING AFFINITY PREDICTED BY RF-SCORE:    0.00 PKD
ROOT
HETATM    1  C   UNL     1      -7.133  18.394  67.209  1.00  0.00    -0.209 C  
HETATM    2  C   UNL     1      -7.730  17.320  68.114  1.00  0.00    -0.217 C  
ENDROOT
BRANCH   2   3
HETATM    3  N   UNL     1      -8.476  16.263  67.404  1.00  0.00    -0.168 NA 
BRANCH   3   4
HETATM    4  C   UNL     1      -7.754  14.985  67.313  1.00  0.00    -0.202 C  
HETATM    5  C   UNL     1      -7.165  14.447  68.612  1.00  0.00    -0.123 C  
ENDBRANCH   3   4
BRANCH   3   6
HETATM    6  C   UNL     1      -9.835  16.143  67.981  1.00  0.00    -0.231 C  
BRANCH   6   7
HETATM    7  C   UNL     1     -10.857  15.412  67.096  1.00  0.00    -0.321 C  
BRANCH   7   8
HETATM    8  O   UNL     1     -10.834  14.005  67.377  1.00  0.00    -0.276 OA 
BRANCH   8   9
HETATM    9  C   UNL     1     -12.056  13.392  66.959  1.00  0.00    -0.339 C  
BRANCH   9  10
HETATM   10  C   UNL     1     -11.797  12.405  65.824  1.00  0.00    -0.406 C  
BRANCH  10  11
HETATM   11  O   UNL     1     -10.454  11.887  65.875  1.00  0.00    -0.242 OA 
BRANCH  11  12
HETATM   12  C   UNL     1     -10.329  10.635  66.404  1.00  0.00    -0.231 C  
HETATM   13  O   UNL     1     -11.271   9.996  66.864  1.00  0.00    -0.031 OA 
BRANCH  12  14
HETATM   14  C   UNL     1      -8.869  10.145  66.426  1.00  0.00    -0.158 C  
HETATM   15  C   UNL     1      -8.522   9.337  67.706  1.00  0.00    -0.116 C  
HETATM   16  C   UNL     1      -7.997  11.414  66.626  1.00  0.00    -0.148 C  
HETATM   17  C   UNL     1      -6.711  10.922  67.263  1.00  0.00    -0.082 C  
HETATM   18  C   UNL     1      -7.168   9.841  68.223  1.00  0.00    -0.078 C  
BRANCH  14  19
HETATM   19  C   UNL     1      -8.580   9.321  65.156  1.00  0.00    -0.194 A  
HETATM   20  C   UNL     1      -7.987   7.250  64.002  1.00  0.00    -0.087 A  
HETATM   21  C   UNL     1      -8.000   7.903  62.773  1.00  0.00    -0.146 A  
HETATM   22  C   UNL     1      -8.270   7.951  65.178  1.00  0.00    -0.143 A  
HETATM   23  C   UNL     1      -8.308   9.256  62.721  1.00  0.00    -0.188 A  
HETATM   24  C   UNL     1      -8.603   9.954  63.897  1.00  0.00    -0.202 A  
ENDBRANCH  14  19
ENDBRANCH  12  14
ENDBRANCH  11  12
ENDBRANCH  10  11
ENDBRANCH   9  10
ENDBRANCH   8   9
ENDBRANCH   7   8
ENDBRANCH   6   7
ENDBRANCH   3   6
ENDBRANCH   2   3
TORSDOF 11
ENDMDL
MODEL      364
REMARK 921   NORMALIZED FREE ENERGY PREDICTED BY IDOCK:   -3.02 KCAL/MOL
REMARK 922        TOTAL FREE ENERGY PREDICTED BY IDOCK:   -5.79 KCAL/MOL
REMARK 923 INTER-LIGAND FREE ENERGY PREDICTED BY IDOCK:   -4.89 KCAL/MOL
REMARK 924 INTRA-LIGAND FREE ENERGY PREDICTED BY IDOCK:   -0.90 KCAL/MOL
REMARK 927      BINDING AFFINITY PREDICTED BY RF-SCORE:    0.00 PKD
ROOT
HETATM    1  C   UNL     1      -8.917  16.755  68.745  1.00  0.00    -0.254 C  
HETATM    2  C   UNL     1      -8.850  15.362  68.122  1.00  0.00    -0.170 C  
ENDROOT
BRANCH   2   3
HETATM    3  N   UNL     1     -10.049  14.974  67.356  1.00  0.00    -0.228 NA 
BRANCH   3   4
HETATM    4  C   UNL     1      -9.822  14.876  65.906  1.00  0.00    -0.332 C  
HETATM    5  C   UNL     1     -10.866  15.535  65.012  1.00  0.00    -0.468 C  
ENDBRANCH   3   4
BRANCH   3   6
HETATM    6  C   UNL     1     -10.645  13.755  67.951  1.00  0.00    -0.252 C  
BRANCH   6   7
HETATM    7  C   UNL     1     -10.202  12.432  67.308  1.00  0.00    -0.215 C  
BRANCH   7   8
HETATM    8  O   UNL     1     -10.115  11.404  68.306  1.00  0.00    -0.182 OA 
BRANCH   8   9
HETATM    9  C   UNL     1      -8.749  11.074  68.567  1.00  0.00    -0.159 C  
BRANCH   9  10
HETATM   10  C   UNL     1      -8.481   9.609  68.232  1.00  0.00    -0.118 C  
BRANCH  10  11
HETATM   11  O   UNL     1      -9.109   8.730  69.184  1.00  0.00    -0.140 OA 
BRANCH  11  12
HETATM   12  C   UNL     1      -9.465   7.504  68.700  1.00  0.00    -0.146 C  
HETATM   13  O   UNL     1     -10.115   7.343  67.671  1.00  0.00    -0.162 OA 
BRANCH  12  14
HETATM   14  C   UNL     1      -9.025   6.353  69.626  1.00  0.00    -0.137 C  
HETATM   15  C   UNL     1      -7.654   5.745  69.222  1.00  0.00    -0.088 C  
HETATM   16  C   UNL     1      -9.980   5.169  69.318  1.00  0.00    -0.280 C  
HETATM   17  C   UNL     1      -9.211   3.920  69.703  1.00  0.00    -0.221 C  
HETATM   18  C   UNL     1      -7.789   4.218  69.269  1.00  0.00    -0.057 C  
BRANCH  14  19
HETATM   19  C   UNL     1      -9.005   6.843  71.087  1.00  0.00    -0.143 A  
HETATM   20  C   UNL     1      -7.857   7.438  73.160  1.00  0.00    -0.117 A  
HETATM   21  C   UNL     1      -9.072   7.684  73.790  1.00  0.00    -0.332 A  
HETATM   22  C   UNL     1      -7.824   7.018  71.826  1.00  0.00    -0.094 A  
HETATM   23  C   UNL     1     -10.256   7.524  73.082  1.00  0.00    -0.382 A  
HETATM   24  C   UNL     1     -10.222   7.116  71.744  1.00  0.00    -0.212 A  
ENDBRANCH  14  19
ENDBRANCH  12  14
ENDBRANCH  11  12
ENDBRANCH  10  11
ENDBRANCH   9  10
ENDBRANCH   8   9
ENDBRANCH   7   8
ENDBRANCH   6   7
ENDBRANCH   3   6
ENDBRANCH   2   3
TORSDOF 11
ENDMDL
MODEL      365
REMARK 921   NORMALIZED FREE ENERGY PREDICTED BY IDOCK:   -3.02 KCAL/MOL
REMARK 922        TOTAL FREE ENERGY PREDICTED BY IDOCK:   -5.78 KCAL/MOL
REMARK 923 INTER-LIGAND FREE ENERGY PREDICTED BY IDOCK:   -4.67 KCAL/MOL
REMARK 924 INTRA-LIGAND FREE ENERGY PREDICTED BY IDOCK:   -1.11 KCAL/MOL
REMARK 927      BINDING AFFINITY PREDICTED BY RF-SCORE:    0.00 PKD
ROOT
HETATM    1  C   UNL     1     -10.473   7.616  66.886  1.00  0.00    -0.388 C  
HETATM    2  C   UNL     1      -9.774   8.418  65.790  1.00  0.00     0.163 C  
ENDROOT
BRANCH   2   3
HETATM    3  N   UNL     1      -8.620   7.737  65.172  1.00  0.00    -0.062 NA 
BRANCH   3   4
HETATM    4  C   UNL     1      -7.965   8.521  64.114  1.00  0.00    -0.150 C  
HETATM    5  C   UNL     1      -8.884   9.301  63.182  1.00  0.00    -0.163 C  
ENDBRANCH   3   4
BRANCH   3   6
HETATM    6  C   UNL     1      -7.695   7.270  66.230  1.00  0.00    -0.097 C  
BRANCH   6   7
HETATM    7  C   UNL     1      -6.210   7.570  65.977  1.00  0.00    -0.041 C  
BRANCH   7   8
HETATM    8  O   UNL     1      -5.643   8.242  67.110  1.00  0.00    -0.036 OA 
BRANCH   8   9
HETATM    9  C   UNL     1      -6.672   8.830  67.909  1.00  0.00    -0.066 C  
BRANCH   9  10
HETATM   10  C   UNL     1      -6.872  10.295  67.528  1.00  0.00    -0.072 C  
BRANCH  10  11
HETATM   11  O   UNL     1      -8.232  10.713  67.748  1.00  0.00    -0.110 OA 
BRANCH  11  12
HETATM   12  C   UNL     1      -8.424  12.063  67.825  1.00  0.00    -0.157 C  
HETATM   13  O   UNL     1      -7.628  12.832  68.356  1.00  0.00    -0.122 OA 
BRANCH  12  14
HETATM   14  C   UNL     1      -9.779  12.502  67.237  1.00  0.00    -0.202 C  
HETATM   15  C   UNL     1     -10.461  11.387  66.397  1.00  0.00    -0.299 C  
HETATM   16  C   UNL     1      -9.448  13.546  66.137  1.00  0.00    -0.159 C  
HETATM   17  C   UNL     1     -10.619  13.501  65.174  1.00  0.00    -0.364 C  
HETATM   18  C   UNL     1     -10.977  12.029  65.102  1.00  0.00    -0.359 C  
BRANCH  14  19
HETATM   19  C   UNL     1     -10.704  12.984  68.371  1.00  0.00    -0.273 A  
HETATM   20  C   UNL     1     -11.922  14.717  69.589  1.00  0.00    -0.368 A  
HETATM   21  C   UNL     1     -12.355  13.786  70.528  1.00  0.00    -0.429 A  
HETATM   22  C   UNL     1     -11.104  14.321  68.526  1.00  0.00    -0.276 A  
HETATM   23  C   UNL     1     -11.978  12.456  70.398  1.00  0.00    -0.342 A  
HETATM   24  C   UNL     1     -11.170  12.058  69.327  1.00  0.00    -0.291 A  
ENDBRANCH  14  19
ENDBRANCH  12  14
ENDBRANCH  11  12
ENDBRANCH  10  11
ENDBRANCH   9  10
ENDBRANCH   8   9
ENDBRANCH   7   8
ENDBRANCH   6   7
ENDBRANCH   3   6
ENDBRANCH   2   3
TORSDOF 11
ENDMDL
MODEL      366
REMARK 921   NORMALIZED FREE ENERGY PREDICTED BY IDOCK:   -3.01 KCAL/MOL
REMARK 922        TOTAL FREE ENERGY PREDICTED BY IDOCK:   -5.76 KCAL/MOL
REMARK 923 INTER-LIGAND FREE ENERGY PREDICTED BY IDOCK:   -4.71 KCAL/MOL
REMARK 924 INTRA-LIGAND FREE ENERGY PREDICTED BY IDOCK:   -1.05 KCAL/MOL
REMARK 927      BINDING AFFINITY PREDICTED BY RF-SCORE:    0.00 PKD
ROOT
HETATM    1  C   UNL     1     -11.865  15.095  69.025  1.00  0.00    -0.331 C  
HETATM    2  C   UNL     1     -11.047  14.647  67.816  1.00  0.00    -0.298 C  
ENDROOT
BRANCH   2   3
HETATM    3  N   UNL     1     -11.660  14.955  66.511  1.00  0.00    -0.304 NA 
BRANCH   3   4
HETATM    4  C   UNL     1     -10.706  15.453  65.508  1.00  0.00    -0.384 C  
HETATM    5  C   UNL     1      -9.257  15.585  65.961  1.00  0.00    -0.361 C  
ENDBRANCH   3   4
BRANCH   3   6
HETATM    6  C   UNL     1     -12.459  13.796  66.052  1.00  0.00    -0.445 C  
BRANCH   6   7
HETATM    7  C   UNL     1     -11.879  12.420  66.416  1.00  0.00    -0.354 C  
BRANCH   7   8
HETATM    8  O   UNL     1     -11.421  11.750  65.233  1.00  0.00    -0.284 OA 
BRANCH   8   9
HETATM    9  C   UNL     1     -10.190  11.070  65.488  1.00  0.00    -0.268 C  
BRANCH   9  10
HETATM   10  C   UNL     1     -10.456   9.682  66.064  1.00  0.00     0.023 C  
BRANCH  10  11
HETATM   11  O   UNL     1      -9.228   9.015  66.415  1.00  0.00    -0.162 OA 
BRANCH  11  12
HETATM   12  C   UNL     1      -9.285   8.237  67.535  1.00  0.00    -0.137 C  
HETATM   13  O   UNL     1      -9.472   8.685  68.663  1.00  0.00    -0.142 OA 
BRANCH  12  14
HETATM   14  C   UNL     1      -9.016   6.750  67.236  1.00  0.00    -0.117 C  
HETATM   15  C   UNL     1      -8.363   6.522  65.845  1.00  0.00    -0.140 C  
HETATM   16  C   UNL     1     -10.409   6.100  67.023  1.00  0.00    -0.295 C  
HETATM   17  C   UNL     1     -10.158   4.887  66.147  1.00  0.00    -0.280 C  
HETATM   18  C   UNL     1      -9.095   5.355  65.172  1.00  0.00    -0.022 C  
BRANCH  14  19
HETATM   19  C   UNL     1      -8.152   6.144  68.359  1.00  0.00    -0.108 A  
HETATM   20  C   UNL     1      -7.847   4.803  70.379  1.00  0.00    -0.061 A  
HETATM   21  C   UNL     1      -6.495   5.130  70.421  1.00  0.00    -0.034 A  
HETATM   22  C   UNL     1      -8.665   5.307  69.363  1.00  0.00    -0.109 A  
HETATM   23  C   UNL     1      -5.959   5.952  69.439  1.00  0.00    -0.027 A  
HETATM   24  C   UNL     1      -6.776   6.446  68.415  1.00  0.00    -0.068 A  
ENDBRANCH  14  19
ENDBRANCH  12  14
ENDBRANCH  11  12
ENDBRANCH  10  11
ENDBRANCH   9  10
ENDBRANCH   8   9
ENDBRANCH   7   8
ENDBRANCH   6   7
ENDBRANCH   3   6
ENDBRANCH   2   3
TORSDOF 11
ENDMDL
MODEL      367
REMARK 921   NORMALIZED FREE ENERGY PREDICTED BY IDOCK:   -2.99 KCAL/MOL
REMARK 922        TOTAL FREE ENERGY PREDICTED BY IDOCK:   -5.73 KCAL/MOL
REMARK 923 INTER-LIGAND FREE ENERGY PREDICTED BY IDOCK:   -5.46 KCAL/MOL
REMARK 924 INTRA-LIGAND FREE ENERGY PREDICTED BY IDOCK:   -0.27 KCAL/MOL
REMARK 927      BINDING AFFINITY PREDICTED BY RF-SCORE:    0.00 PKD
ROOT
HETATM    1  C   UNL     1      -8.924  18.220  67.655  1.00  0.00    -0.271 C  
HETATM    2  C   UNL     1      -9.962  17.630  68.607  1.00  0.00    -0.367 C  
ENDROOT
BRANCH   2   3
HETATM    3  N   UNL     1     -10.153  16.173  68.481  1.00  0.00    -0.234 NA 
BRANCH   3   4
HETATM    4  C   UNL     1      -9.028  15.379  68.997  1.00  0.00    -0.230 C  
HETATM    5  C   UNL     1      -8.482  14.299  68.071  1.00  0.00    -0.164 C  
ENDBRANCH   3   4
BRANCH   3   6
HETATM    6  C   UNL     1     -11.465  15.794  69.055  1.00  0.00    -0.391 C  
BRANCH   6   7
HETATM    7  C   UNL     1     -11.728  14.282  69.140  1.00  0.00    -0.320 C  
BRANCH   7   8
HETATM    8  O   UNL     1     -11.921  13.742  67.824  1.00  0.00    -0.361 OA 
BRANCH   8   9
HETATM    9  C   UNL     1     -11.725  12.326  67.831  1.00  0.00    -0.347 C  
BRANCH   9  10
HETATM   10  C   UNL     1     -11.672  11.802  69.264  1.00  0.00    -0.335 C  
BRANCH  10  11
HETATM   11  O   UNL     1     -11.873  10.377  69.310  1.00  0.00    -0.200 OA 
BRANCH  11  12
HETATM   12  C   UNL     1     -10.885   9.666  69.927  1.00  0.00    -0.256 C  
HETATM   13  O   UNL     1     -10.855   9.454  71.135  1.00  0.00    -0.303 OA 
BRANCH  12  14
HETATM   14  C   UNL     1      -9.777   9.225  68.951  1.00  0.00    -0.164 C  
HETATM   15  C   UNL     1      -9.819   9.995  67.602  1.00  0.00    -0.194 C  
HETATM   16  C   UNL     1     -10.161   7.793  68.490  1.00  0.00    -0.227 C  
HETATM   17  C   UNL     1      -9.499   7.614  67.137  1.00  0.00    -0.196 C  
HETATM   18  C   UNL     1      -9.650   8.969  66.474  1.00  0.00    -0.286 C  
BRANCH  14  19
HETATM   19  C   UNL     1      -8.401   9.371  69.628  1.00  0.00    -0.147 A  
HETATM   20  C   UNL     1      -6.317  10.567  70.073  1.00  0.00    -0.117 A  
HETATM   21  C   UNL     1      -5.856   9.519  70.864  1.00  0.00    -0.065 A  
HETATM   22  C   UNL     1      -7.572  10.492  69.460  1.00  0.00    -0.148 A  
HETATM   23  C   UNL     1      -6.657   8.400  71.051  1.00  0.00    -0.043 A  
HETATM   24  C   UNL     1      -7.917   8.331  70.448  1.00  0.00    -0.098 A  
ENDBRANCH  14  19
ENDBRANCH  12  14
ENDBRANCH  11  12
ENDBRANCH  10  11
ENDBRANCH   9  10
ENDBRANCH   8   9
ENDBRANCH   7   8
ENDBRANCH   6   7
ENDBRANCH   3   6
ENDBRANCH   2   3
TORSDOF 11
ENDMDL
MODEL      368
REMARK 921   NORMALIZED FREE ENERGY PREDICTED BY IDOCK:   -2.99 KCAL/MOL
REMARK 922        TOTAL FREE ENERGY PREDICTED BY IDOCK:   -5.73 KCAL/MOL
REMARK 923 INTER-LIGAND FREE ENERGY PREDICTED BY IDOCK:   -4.46 KCAL/MOL
REMARK 924 INTRA-LIGAND FREE ENERGY PREDICTED BY IDOCK:   -1.27 KCAL/MOL
REMARK 927      BINDING AFFINITY PREDICTED BY RF-SCORE:    0.00 PKD
ROOT
HETATM    1  C   UNL     1      -8.251  15.957  66.558  1.00  0.00    -0.307 C  
HETATM    2  C   UNL     1      -8.157  15.034  67.770  1.00  0.00    -0.149 C  
ENDROOT
BRANCH   2   3
HETATM    3  N   UNL     1      -8.161  13.594  67.448  1.00  0.00    -0.180 NA 
BRANCH   3   4
HETATM    4  C   UNL     1      -6.818  12.999  67.373  1.00  0.00    -0.118 C  
HETATM    5  C   UNL     1      -5.897  13.257  68.559  1.00  0.00    -0.083 C  
ENDBRANCH   3   4
BRANCH   3   6
HETATM    6  C   UNL     1      -9.080  12.883  68.366  1.00  0.00    -0.126 C  
BRANCH   6   7
HETATM    7  C   UNL     1      -9.112  11.355  68.202  1.00  0.00    -0.174 C  
BRANCH   7   8
HETATM    8  O   UNL     1     -10.319  10.957  67.537  1.00  0.00    -0.186 OA 
BRANCH   8   9
HETATM    9  C   UNL     1     -10.576   9.568  67.755  1.00  0.00    -0.261 C  
BRANCH   9  10
HETATM   10  C   UNL     1      -9.884   8.724  66.688  1.00  0.00    -0.265 C  
BRANCH  10  11
HETATM   11  O   UNL     1      -8.943   7.804  67.274  1.00  0.00    -0.125 OA 
BRANCH  11  12
HETATM   12  C   UNL     1      -9.438   6.563  67.557  1.00  0.00    -0.125 C  
HETATM   13  O   UNL     1     -10.241   5.974  66.840  1.00  0.00    -0.168 OA 
BRANCH  12  14
HETATM   14  C   UNL     1      -8.932   6.020  68.908  1.00  0.00    -0.123 C  
HETATM   15  C   UNL     1      -7.435   6.345  69.167  1.00  0.00    -0.095 C  
HETATM   16  C   UNL     1      -8.882   4.476  68.754  1.00  0.00    -0.132 C  
HETATM   17  C   UNL     1      -7.845   4.005  69.756  1.00  0.00    -0.052 C  
HETATM   18  C   UNL     1      -6.765   5.069  69.692  1.00  0.00    -0.051 C  
BRANCH  14  19
HETATM   19  C   UNL     1      -9.820   6.557  70.047  1.00  0.00    -0.183 A  
HETATM   20  C   UNL     1     -11.860   6.558  71.392  1.00  0.00    -0.384 A  
HETATM   21  C   UNL     1     -11.409   7.656  72.118  1.00  0.00    -0.341 A  
HETATM   22  C   UNL     1     -11.076   6.018  70.367  1.00  0.00    -0.399 A  
HETATM   23  C   UNL     1     -10.168   8.206  71.827  1.00  0.00    -0.275 A  
HETATM   24  C   UNL     1      -9.379   7.658  70.810  1.00  0.00    -0.162 A  
ENDBRANCH  14  19
ENDBRANCH  12  14
ENDBRANCH  11  12
ENDBRANCH  10  11
ENDBRANCH   9  10
ENDBRANCH   8   9
ENDBRANCH   7   8
ENDBRANCH   6   7
ENDBRANCH   3   6
ENDBRANCH   2   3
TORSDOF 11
ENDMDL
MODEL      369
REMARK 921   NORMALIZED FREE ENERGY PREDICTED BY IDOCK:   -2.98 KCAL/MOL
REMARK 922        TOTAL FREE ENERGY PREDICTED BY IDOCK:   -5.71 KCAL/MOL
REMARK 923 INTER-LIGAND FREE ENERGY PREDICTED BY IDOCK:   -4.05 KCAL/MOL
REMARK 924 INTRA-LIGAND FREE ENERGY PREDICTED BY IDOCK:   -1.66 KCAL/MOL
REMARK 927      BINDING AFFINITY PREDICTED BY RF-SCORE:    0.00 PKD
ROOT
HETATM    1  C   UNL     1     -11.757   6.502  70.754  1.00  0.00    -0.427 C  
HETATM    2  C   UNL     1     -11.223   7.882  70.373  1.00  0.00    -0.234 C  
ENDROOT
BRANCH   2   3
HETATM    3  N   UNL     1     -11.084   8.820  71.503  1.00  0.00    -0.281 NA 
BRANCH   3   4
HETATM    4  C   UNL     1     -12.113   9.871  71.532  1.00  0.00    -0.410 C  
HETATM    5  C   UNL     1     -12.791  10.190  70.206  1.00  0.00    -0.063 C  
ENDBRANCH   3   4
BRANCH   3   6
HETATM    6  C   UNL     1     -10.972   8.059  72.769  1.00  0.00    -0.382 C  
BRANCH   6   7
HETATM    7  C   UNL     1      -9.565   8.023  73.386  1.00  0.00    -0.207 C  
BRANCH   7   8
HETATM    8  O   UNL     1      -8.573   8.022  72.350  1.00  0.00    -0.132 OA 
BRANCH   8   9
HETATM    9  C   UNL     1      -7.929   6.748  72.275  1.00  0.00    -0.095 C  
BRANCH   9  10
HETATM   10  C   UNL     1      -6.571   6.876  71.589  1.00  0.00    -0.049 C  
BRANCH  10  11
HETATM   11  O   UNL     1      -6.657   6.545  70.190  1.00  0.00    -0.042 OA 
BRANCH  11  12
HETATM   12  C   UNL     1      -6.689   7.611  69.338  1.00  0.00    -0.040 C  
HETATM   13  O   UNL     1      -6.642   8.779  69.711  1.00  0.00    -0.040 OA 
BRANCH  12  14
HETATM   14  C   UNL     1      -6.862   7.185  67.867  1.00  0.00    -0.074 C  
HETATM   15  C   UNL     1      -6.094   5.880  67.521  1.00  0.00    -0.022 C  
HETATM   16  C   UNL     1      -6.077   8.227  67.026  1.00  0.00    -0.054 C  
HETATM   17  C   UNL     1      -5.710   7.513  65.739  1.00  0.00    -0.037 C  
HETATM   18  C   UNL     1      -5.371   6.104  66.187  1.00  0.00    -0.013 C  
BRANCH  14  19
HETATM   19  C   UNL     1      -8.362   7.047  67.541  1.00  0.00    -0.119 A  
HETATM   20  C   UNL     1     -10.557   7.968  66.990  1.00  0.00    -0.364 A  
HETATM   21  C   UNL     1     -11.124   6.698  67.020  1.00  0.00    -0.395 A  
HETATM   22  C   UNL     1      -9.194   8.140  67.251  1.00  0.00    -0.165 A  
HETATM   23  C   UNL     1     -10.325   5.598  67.299  1.00  0.00    -0.295 A  
HETATM   24  C   UNL     1      -8.959   5.769  67.548  1.00  0.00    -0.107 A  
ENDBRANCH  14  19
ENDBRANCH  12  14
ENDBRANCH  11  12
ENDBRANCH  10  11
ENDBRANCH   9  10
ENDBRANCH   8   9
ENDBRANCH   7   8
ENDBRANCH   6   7
ENDBRANCH   3   6
ENDBRANCH   2   3
TORSDOF 11
ENDMDL
MODEL      370
REMARK 921   NORMALIZED FREE ENERGY PREDICTED BY IDOCK:   -2.95 KCAL/MOL
REMARK 922        TOTAL FREE ENERGY PREDICTED BY IDOCK:   -5.67 KCAL/MOL
REMARK 923 INTER-LIGAND FREE ENERGY PREDICTED BY IDOCK:   -4.23 KCAL/MOL
REMARK 924 INTRA-LIGAND FREE ENERGY PREDICTED BY IDOCK:   -1.44 KCAL/MOL
REMARK 927      BINDING AFFINITY PREDICTED BY RF-SCORE:    0.00 PKD
ROOT
HETATM    1  C   UNL     1      -6.285   5.992  69.307  1.00  0.00    -0.036 C  
HETATM    2  C   UNL     1      -7.583   5.242  69.018  1.00  0.00    -0.078 C  
ENDROOT
BRANCH   2   3
HETATM    3  N   UNL     1      -7.910   5.108  67.585  1.00  0.00    -0.095 NA 
BRANCH   3   4
HETATM    4  C   UNL     1      -9.353   5.030  67.309  1.00  0.00    -0.126 C  
HETATM    5  C   UNL     1     -10.226   6.089  67.972  1.00  0.00    -0.218 C  
ENDBRANCH   3   4
BRANCH   3   6
HETATM    6  C   UNL     1      -7.211   6.164  66.817  1.00  0.00    -0.074 C  
BRANCH   6   7
HETATM    7  C   UNL     1      -7.585   6.244  65.329  1.00  0.00    -0.090 C  
BRANCH   7   8
HETATM    8  O   UNL     1      -8.499   7.328  65.109  1.00  0.00    -0.115 OA 
BRANCH   8   9
HETATM    9  C   UNL     1      -7.789   8.514  64.742  1.00  0.00    -0.125 C  
BRANCH   9  10
HETATM   10  C   UNL     1      -7.769   9.504  65.903  1.00  0.00    -0.100 C  
BRANCH  10  11
HETATM   11  O   UNL     1      -8.816  10.485  65.774  1.00  0.00    -0.162 OA 
BRANCH  11  12
HETATM   12  C   UNL     1      -9.930  10.253  66.528  1.00  0.00    -0.224 C  
HETATM   13  O   UNL     1     -10.770   9.401  66.253  1.00  0.00    -0.021 OA 
BRANCH  12  14
HETATM   14  C   UNL     1     -10.052  11.226  67.717  1.00  0.00    -0.199 C  
HETATM   15  C   UNL     1     -11.437  11.927  67.784  1.00  0.00    -0.389 C  
HETATM   16  C   UNL     1      -9.125  12.425  67.383  1.00  0.00    -0.183 C  
HETATM   17  C   UNL     1      -9.690  13.600  68.158  1.00  0.00    -0.229 C  
HETATM   18  C   UNL     1     -11.192  13.417  68.054  1.00  0.00    -0.298 C  
BRANCH  14  19
HETATM   19  C   UNL     1      -9.746  10.480  69.030  1.00  0.00    -0.221 A  
HETATM   20  C   UNL     1     -10.401   9.479  71.161  1.00  0.00    -0.330 A  
HETATM   21  C   UNL     1      -9.077   9.166  71.448  1.00  0.00    -0.179 A  
HETATM   22  C   UNL     1     -10.731  10.132  69.968  1.00  0.00    -0.356 A  
HETATM   23  C   UNL     1      -8.082   9.495  70.537  1.00  0.00    -0.199 A  
HETATM   24  C   UNL     1      -8.414  10.136  69.338  1.00  0.00    -0.179 A  
ENDBRANCH  14  19
ENDBRANCH  12  14
ENDBRANCH  11  12
ENDBRANCH  10  11
ENDBRANCH   9  10
ENDBRANCH   8   9
ENDBRANCH   7   8
ENDBRANCH   6   7
ENDBRANCH   3   6
ENDBRANCH   2   3
TORSDOF 11
ENDMDL
MODEL      371
REMARK 921   NORMALIZED FREE ENERGY PREDICTED BY IDOCK:   -2.93 KCAL/MOL
REMARK 922        TOTAL FREE ENERGY PREDICTED BY IDOCK:   -5.63 KCAL/MOL
REMARK 923 INTER-LIGAND FREE ENERGY PREDICTED BY IDOCK:   -4.78 KCAL/MOL
REMARK 924 INTRA-LIGAND FREE ENERGY PREDICTED BY IDOCK:   -0.86 KCAL/MOL
REMARK 927      BINDING AFFINITY PREDICTED BY RF-SCORE:    0.00 PKD
ROOT
HETATM    1  C   UNL     1      -6.190   5.957  69.320  1.00  0.00    -0.033 C  
HETATM    2  C   UNL     1      -7.160   5.078  68.533  1.00  0.00    -0.058 C  
ENDROOT
BRANCH   2   3
HETATM    3  N   UNL     1      -6.860   4.968  67.093  1.00  0.00    -0.055 NA 
BRANCH   3   4
HETATM    4  C   UNL     1      -8.052   4.796  66.249  1.00  0.00    -0.107 C  
HETATM    5  C   UNL     1      -9.177   5.803  66.455  1.00  0.00    -0.150 C  
ENDBRANCH   3   4
BRANCH   3   6
HETATM    6  C   UNL     1      -5.991   6.094  66.680  1.00  0.00    -0.025 C  
BRANCH   6   7
HETATM    7  C   UNL     1      -5.711   6.182  65.172  1.00  0.00    -0.021 C  
BRANCH   7   8
HETATM    8  O   UNL     1      -6.489   7.237  64.588  1.00  0.00    -0.037 OA 
BRANCH   8   9
HETATM    9  C   UNL     1      -5.802   8.486  64.698  1.00  0.00    -0.063 C  
BRANCH   9  10
HETATM   10  C   UNL     1      -6.521   9.406  65.681  1.00  0.00    -0.069 C  
BRANCH  10  11
HETATM   11  O   UNL     1      -7.220  10.462  64.995  1.00  0.00    -0.129 OA 
BRANCH  11  12
HETATM   12  C   UNL     1      -8.525  10.200  64.693  1.00  0.00    -0.173 C  
HETATM   13  O   UNL     1      -8.881   9.616  63.673  1.00  0.00    -0.217 OA 
BRANCH  12  14
HETATM   14  C   UNL     1      -9.501  10.779  65.735  1.00  0.00    -0.244 C  
HETATM   15  C   UNL     1      -8.781  11.326  66.998  1.00  0.00    -0.152 C  
HETATM   16  C   UNL     1     -10.263   9.564  66.328  1.00  0.00    -0.290 C  
HETATM   17  C   UNL     1     -10.714  10.005  67.707  1.00  0.00    -0.333 C  
HETATM   18  C   UNL     1      -9.550  10.826  68.227  1.00  0.00    -0.170 C  
BRANCH  14  19
HETATM   19  C   UNL     1     -10.372  11.869  65.079  1.00  0.00    -0.330 A  
HETATM   20  C   UNL     1     -11.041  14.193  64.729  1.00  0.00    -0.393 A  
HETATM   21  C   UNL     1     -12.065  13.795  63.877  1.00  0.00    -0.423 A  
HETATM   22  C   UNL     1     -10.207  13.241  65.326  1.00  0.00    -0.303 A  
HETATM   23  C   UNL     1     -12.248  12.444  63.611  1.00  0.00    -0.653 A  
HETATM   24  C   UNL     1     -11.406  11.494  64.198  1.00  0.00    -0.349 A  
ENDBRANCH  14  19
ENDBRANCH  12  14
ENDBRANCH  11  12
ENDBRANCH  10  11
ENDBRANCH   9  10
ENDBRANCH   8   9
ENDBRANCH   7   8
ENDBRANCH   6   7
ENDBRANCH   3   6
ENDBRANCH   2   3
TORSDOF 11
ENDMDL
MODEL      372
REMARK 921   NORMALIZED FREE ENERGY PREDICTED BY IDOCK:   -2.92 KCAL/MOL
REMARK 922        TOTAL FREE ENERGY PREDICTED BY IDOCK:   -5.62 KCAL/MOL
REMARK 923 INTER-LIGAND FREE ENERGY PREDICTED BY IDOCK:   -4.76 KCAL/MOL
REMARK 924 INTRA-LIGAND FREE ENERGY PREDICTED BY IDOCK:   -0.86 KCAL/MOL
REMARK 927      BINDING AFFINITY PREDICTED BY RF-SCORE:    0.00 PKD
ROOT
HETATM    1  C   UNL     1     -10.306  15.501  67.776  1.00  0.00    -0.263 C  
HETATM    2  C   UNL     1      -9.149  14.662  67.238  1.00  0.00    -0.206 C  
ENDROOT
BRANCH   2   3
HETATM    3  N   UNL     1      -7.813  15.094  67.693  1.00  0.00    -0.145 NA 
BRANCH   3   4
HETATM    4  C   UNL     1      -7.609  16.549  67.641  1.00  0.00    -0.146 C  
HETATM    5  C   UNL     1      -7.185  17.125  66.295  1.00  0.00    -0.308 C  
ENDBRANCH   3   4
BRANCH   3   6
HETATM    6  C   UNL     1      -7.524  14.496  69.017  1.00  0.00    -0.131 C  
BRANCH   6   7
HETATM    7  C   UNL     1      -6.491  13.358  69.008  1.00  0.00    -0.105 C  
BRANCH   7   8
HETATM    8  O   UNL     1      -6.867  12.360  68.049  1.00  0.00    -0.073 OA 
BRANCH   8   9
HETATM    9  C   UNL     1      -6.560  11.054  68.540  1.00  0.00    -0.059 C  
BRANCH   9  10
HETATM   10  C   UNL     1      -7.534  10.026  67.967  1.00  0.00    -0.088 C  
BRANCH  10  11
HETATM   11  O   UNL     1      -7.580   8.838  68.779  1.00  0.00    -0.092 OA 
BRANCH  11  12
HETATM   12  C   UNL     1      -8.740   8.649  69.475  1.00  0.00    -0.139 C  
HETATM   13  O   UNL     1      -9.110   9.382  70.387  1.00  0.00    -0.223 OA 
BRANCH  12  14
HETATM   14  C   UNL     1      -9.491   7.378  69.037  1.00  0.00    -0.148 C  
HETATM   15  C   UNL     1      -8.607   6.412  68.200  1.00  0.00    -0.117 C  
HETATM   16  C   UNL     1     -10.523   7.838  67.972  1.00  0.00    -0.244 C  
HETATM   17  C   UNL     1     -10.792   6.615  67.116  1.00  0.00    -0.471 C  
HETATM   18  C   UNL     1      -9.436   5.948  66.995  1.00  0.00    -0.134 C  
BRANCH  14  19
HETATM   19  C   UNL     1     -10.070   6.665  70.275  1.00  0.00    -0.201 A  
HETATM   20  C   UNL     1     -10.008   4.958  72.022  1.00  0.00    -0.245 A  
HETATM   21  C   UNL     1     -11.244   5.375  72.506  1.00  0.00    -0.305 A  
HETATM   22  C   UNL     1      -9.431   5.593  70.917  1.00  0.00    -0.202 A  
HETATM   23  C   UNL     1     -11.896   6.437  71.893  1.00  0.00    -0.380 A  
HETATM   24  C   UNL     1     -11.312   7.080  70.796  1.00  0.00    -0.339 A  
ENDBRANCH  14  19
ENDBRANCH  12  14
ENDBRANCH  11  12
ENDBRANCH  10  11
ENDBRANCH   9  10
ENDBRANCH   8   9
ENDBRANCH   7   8
ENDBRANCH   6   7
ENDBRANCH   3   6
ENDBRANCH   2   3
TORSDOF 11
ENDMDL
MODEL      373
REMARK 921   NORMALIZED FREE ENERGY PREDICTED BY IDOCK:   -2.92 KCAL/MOL
REMARK 922        TOTAL FREE ENERGY PREDICTED BY IDOCK:   -5.62 KCAL/MOL
REMARK 923 INTER-LIGAND FREE ENERGY PREDICTED BY IDOCK:   -4.50 KCAL/MOL
REMARK 924 INTRA-LIGAND FREE ENERGY PREDICTED BY IDOCK:   -1.12 KCAL/MOL
REMARK 927      BINDING AFFINITY PREDICTED BY RF-SCORE:    0.00 PKD
ROOT
HETATM    1  C   UNL     1      -7.772  15.508  67.615  1.00  0.00    -0.178 C  
HETATM    2  C   UNL     1      -7.162  14.454  68.537  1.00  0.00    -0.119 C  
ENDROOT
BRANCH   2   3
HETATM    3  N   UNL     1      -7.092  13.099  67.959  1.00  0.00    -0.099 NA 
BRANCH   3   4
HETATM    4  C   UNL     1      -5.792  12.437  68.151  1.00  0.00    -0.066 C  
HETATM    5  C   UNL     1      -5.135  11.862  66.902  1.00  0.00    -0.073 C  
ENDBRANCH   3   4
BRANCH   3   6
HETATM    6  C   UNL     1      -8.245  12.298  68.430  1.00  0.00    -0.146 C  
BRANCH   6   7
HETATM    7  C   UNL     1      -7.909  10.862  68.863  1.00  0.00    -0.142 C  
BRANCH   7   8
HETATM    8  O   UNL     1      -8.391   9.928  67.885  1.00  0.00    -0.113 OA 
BRANCH   8   9
HETATM    9  C   UNL     1      -9.233   8.951  68.500  1.00  0.00    -0.137 C  
BRANCH   9  10
HETATM   10  C   UNL     1      -9.167   7.632  67.733  1.00  0.00    -0.136 C  
BRANCH  10  11
HETATM   11  O   UNL     1      -8.597   6.584  68.541  1.00  0.00    -0.123 OA 
BRANCH  11  12
HETATM   12  C   UNL     1      -9.485   5.662  69.014  1.00  0.00    -0.126 C  
HETATM   13  O   UNL     1     -10.223   4.999  68.291  1.00  0.00    -0.145 OA 
BRANCH  12  14
HETATM   14  C   UNL     1      -9.507   5.599  70.553  1.00  0.00    -0.203 C  
HETATM   15  C   UNL     1      -8.092   5.717  71.183  1.00  0.00    -0.117 C  
HETATM   16  C   UNL     1      -9.874   4.135  70.915  1.00  0.00    -0.247 C  
HETATM   17  C   UNL     1      -9.299   3.905  72.299  1.00  0.00    -0.173 C  
HETATM   18  C   UNL     1      -7.975   4.643  72.272  1.00  0.00    -0.101 C  
BRANCH  14  19
HETATM   19  C   UNL     1     -10.449   6.688  71.102  1.00  0.00    -0.247 A  
HETATM   20  C   UNL     1     -10.908   8.711  72.392  1.00  0.00    -0.312 A  
HETATM   21  C   UNL     1     -12.268   8.605  72.121  1.00  0.00    -0.453 A  
HETATM   22  C   UNL     1     -10.011   7.762  71.892  1.00  0.00    -0.222 A  
HETATM   23  C   UNL     1     -12.730   7.555  71.338  1.00  0.00    -0.382 A  
HETATM   24  C   UNL     1     -11.830   6.613  70.828  1.00  0.00    -0.441 A  
ENDBRANCH  14  19
ENDBRANCH  12  14
ENDBRANCH  11  12
ENDBRANCH  10  11
ENDBRANCH   9  10
ENDBRANCH   8   9
ENDBRANCH   7   8
ENDBRANCH   6   7
ENDBRANCH   3   6
ENDBRANCH   2   3
TORSDOF 11
ENDMDL
MODEL      374
REMARK 921   NORMALIZED FREE ENERGY PREDICTED BY IDOCK:   -2.91 KCAL/MOL
REMARK 922        TOTAL FREE ENERGY PREDICTED BY IDOCK:   -5.61 KCAL/MOL
REMARK 923 INTER-LIGAND FREE ENERGY PREDICTED BY IDOCK:   -4.61 KCAL/MOL
REMARK 924 INTRA-LIGAND FREE ENERGY PREDICTED BY IDOCK:   -1.00 KCAL/MOL
REMARK 927      BINDING AFFINITY PREDICTED BY RF-SCORE:    0.00 PKD
ROOT
HETATM    1  C   UNL     1      -7.750   6.209  69.015  1.00  0.00    -0.096 C  
HETATM    2  C   UNL     1      -8.966   5.804  68.185  1.00  0.00    -0.114 C  
ENDROOT
BRANCH   2   3
HETATM    3  N   UNL     1      -8.679   5.540  66.762  1.00  0.00    -0.114 NA 
BRANCH   3   4
HETATM    4  C   UNL     1      -9.878   5.510  65.910  1.00  0.00     0.005 C  
HETATM    5  C   UNL     1     -10.081   4.252  65.074  1.00  0.00    -0.207 C  
ENDBRANCH   3   4
BRANCH   3   6
HETATM    6  C   UNL     1      -7.632   6.473  66.287  1.00  0.00    -0.090 C  
BRANCH   6   7
HETATM    7  C   UNL     1      -7.639   6.747  64.775  1.00  0.00    -0.104 C  
BRANCH   7   8
HETATM    8  O   UNL     1      -8.211   8.036  64.512  1.00  0.00    -0.148 OA 
BRANCH   8   9
HETATM    9  C   UNL     1      -7.184   9.023  64.389  1.00  0.00    -0.098 C  
BRANCH   9  10
HETATM   10  C   UNL     1      -7.306  10.061  65.502  1.00  0.00    -0.137 C  
BRANCH  10  11
HETATM   11  O   UNL     1      -8.345  11.016  65.218  1.00  0.00    -0.085 OA 
BRANCH  11  12
HETATM   12  C   UNL     1      -9.164  11.319  66.268  1.00  0.00    -0.200 C  
HETATM   13  O   UNL     1      -9.124  10.738  67.348  1.00  0.00    -0.143 OA 
BRANCH  12  14
HETATM   14  C   UNL     1     -10.186  12.419  65.921  1.00  0.00    -0.273 C  
HETATM   15  C   UNL     1     -11.658  11.942  66.066  1.00  0.00    -0.296 C  
HETATM   16  C   UNL     1     -10.088  12.624  64.385  1.00  0.00    -0.281 C  
HETATM   17  C   UNL     1     -11.436  13.177  63.965  1.00  0.00    -0.455 C  
HETATM   18  C   UNL     1     -12.427  12.420  64.828  1.00  0.00    -0.480 C  
BRANCH  14  19
HETATM   19  C   UNL     1      -9.921  13.665  66.788  1.00  0.00    -0.270 A  
HETATM   20  C   UNL     1     -10.569  15.319  68.465  1.00  0.00    -0.237 A  
HETATM   21  C   UNL     1      -9.370  16.002  68.289  1.00  0.00    -0.199 A  
HETATM   22  C   UNL     1     -10.842  14.167  67.721  1.00  0.00    -0.260 A  
HETATM   23  C   UNL     1      -8.438  15.526  67.377  1.00  0.00    -0.199 A  
HETATM   24  C   UNL     1      -8.707  14.366  66.641  1.00  0.00    -0.131 A  
ENDBRANCH  14  19
ENDBRANCH  12  14
ENDBRANCH  11  12
ENDBRANCH  10  11
ENDBRANCH   9  10
ENDBRANCH   8   9
ENDBRANCH   7   8
ENDBRANCH   6   7
ENDBRANCH   3   6
ENDBRANCH   2   3
TORSDOF 11
ENDMDL
MODEL      375
REMARK 921   NORMALIZED FREE ENERGY PREDICTED BY IDOCK:   -2.88 KCAL/MOL
REMARK 922        TOTAL FREE ENERGY PREDICTED BY IDOCK:   -5.55 KCAL/MOL
REMARK 923 INTER-LIGAND FREE ENERGY PREDICTED BY IDOCK:   -4.45 KCAL/MOL
REMARK 924 INTRA-LIGAND FREE ENERGY PREDICTED BY IDOCK:   -1.10 KCAL/MOL
REMARK 927      BINDING AFFINITY PREDICTED BY RF-SCORE:    0.00 PKD
ROOT
HETATM    1  C   UNL     1     -10.043   3.867  73.769  1.00  0.00    -0.183 C  
HETATM    2  C   UNL     1      -9.600   5.319  73.598  1.00  0.00    -0.138 C  
ENDROOT
BRANCH   2   3
HETATM    3  N   UNL     1      -8.910   5.605  72.326  1.00  0.00    -0.132 NA 
BRANCH   3   4
HETATM    4  C   UNL     1      -9.075   4.554  71.311  1.00  0.00    -0.130 C  
HETATM    5  C   UNL     1     -10.160   4.787  70.266  1.00  0.00    -0.304 C  
ENDBRANCH   3   4
BRANCH   3   6
HETATM    6  C   UNL     1      -9.284   6.958  71.853  1.00  0.00    -0.141 C  
BRANCH   6   7
HETATM    7  C   UNL     1      -8.135   7.779  71.249  1.00  0.00    -0.095 C  
BRANCH   7   8
HETATM    8  O   UNL     1      -8.659   8.902  70.527  1.00  0.00    -0.147 OA 
BRANCH   8   9
HETATM    9  C   UNL     1      -9.981   9.211  70.973  1.00  0.00    -0.297 C  
BRANCH   9  10
HETATM   10  C   UNL     1     -10.872   9.575  69.788  1.00  0.00    -0.243 C  
BRANCH  10  11
HETATM   11  O   UNL     1     -10.105  10.145  68.710  1.00  0.00    -0.171 OA 
BRANCH  11  12
HETATM   12  C   UNL     1     -10.141  11.506  68.623  1.00  0.00    -0.207 C  
HETATM   13  O   UNL     1     -11.076  12.188  69.032  1.00  0.00    -0.233 OA 
BRANCH  12  14
HETATM   14  C   UNL     1      -8.913  12.083  67.891  1.00  0.00    -0.182 C  
HETATM   15  C   UNL     1      -8.659  11.409  66.514  1.00  0.00    -0.175 C  
HETATM   16  C   UNL     1      -7.674  11.603  68.693  1.00  0.00    -0.134 C  
HETATM   17  C   UNL     1      -6.527  11.601  67.700  1.00  0.00    -0.075 C  
HETATM   18  C   UNL     1      -7.159  11.107  66.413  1.00  0.00    -0.091 C  
BRANCH  14  19
HETATM   19  C   UNL     1      -9.071  13.609  67.739  1.00  0.00    -0.199 A  
HETATM   20  C   UNL     1      -8.847  15.904  68.546  1.00  0.00    -0.195 A  
HETATM   21  C   UNL     1      -9.462  16.393  67.398  1.00  0.00    -0.227 A  
HETATM   22  C   UNL     1      -8.657  14.529  68.716  1.00  0.00    -0.145 A  
HETATM   23  C   UNL     1      -9.877  15.506  66.413  1.00  0.00    -0.298 A  
HETATM   24  C   UNL     1      -9.676  14.132  66.578  1.00  0.00    -0.307 A  
ENDBRANCH  14  19
ENDBRANCH  12  14
ENDBRANCH  11  12
ENDBRANCH  10  11
ENDBRANCH   9  10
ENDBRANCH   8   9
ENDBRANCH   7   8
ENDBRANCH   6   7
ENDBRANCH   3   6
ENDBRANCH   2   3
TORSDOF 11
ENDMDL
MODEL      376
REMARK 921   NORMALIZED FREE ENERGY PREDICTED BY IDOCK:   -2.87 KCAL/MOL
REMARK 922        TOTAL FREE ENERGY PREDICTED BY IDOCK:   -5.54 KCAL/MOL
REMARK 923 INTER-LIGAND FREE ENERGY PREDICTED BY IDOCK:   -4.37 KCAL/MOL
REMARK 924 INTRA-LIGAND FREE ENERGY PREDICTED BY IDOCK:   -1.17 KCAL/MOL
REMARK 927      BINDING AFFINITY PREDICTED BY RF-SCORE:    0.00 PKD
ROOT
HETATM    1  C   UNL     1     -10.373  10.430  66.471  1.00  0.00    -0.287 C  
HETATM    2  C   UNL     1     -11.171  10.684  67.748  1.00  0.00    -0.313 C  
ENDROOT
BRANCH   2   3
HETATM    3  N   UNL     1     -10.454  10.358  68.996  1.00  0.00    -0.205 NA 
BRANCH   3   4
HETATM    4  C   UNL     1     -11.201   9.462  69.893  1.00  0.00    -0.155 C  
HETATM    5  C   UNL     1     -11.722  10.080  71.185  1.00  0.00    -0.472 C  
ENDBRANCH   3   4
BRANCH   3   6
HETATM    6  C   UNL     1      -9.090   9.880  68.673  1.00  0.00    -0.132 C  
BRANCH   6   7
HETATM    7  C   UNL     1      -8.718   8.516  69.276  1.00  0.00    -0.133 C  
BRANCH   7   8
HETATM    8  O   UNL     1      -7.328   8.499  69.633  1.00  0.00    -0.058 OA 
BRANCH   8   9
HETATM    9  C   UNL     1      -7.127   9.150  70.890  1.00  0.00    -0.105 C  
BRANCH   9  10
HETATM   10  C   UNL     1      -7.509   8.220  72.039  1.00  0.00    -0.100 C  
BRANCH  10  11
HETATM   11  O   UNL     1      -7.666   6.862  71.586  1.00  0.00    -0.093 OA 
BRANCH  11  12
HETATM   12  C   UNL     1      -8.037   5.965  72.545  1.00  0.00    -0.106 C  
HETATM   13  O   UNL     1      -7.342   5.687  73.518  1.00  0.00    -0.086 OA 
BRANCH  12  14
HETATM   14  C   UNL     1      -9.386   5.289  72.233  1.00  0.00    -0.160 C  
HETATM   15  C   UNL     1     -10.480   6.300  71.792  1.00  0.00    -0.249 C  
HETATM   16  C   UNL     1      -9.950   4.812  73.598  1.00  0.00    -0.187 C  
HETATM   17  C   UNL     1     -11.454   4.744  73.411  1.00  0.00    -0.332 C  
HETATM   18  C   UNL     1     -11.769   5.949  72.545  1.00  0.00    -0.288 C  
BRANCH  14  19
HETATM   19  C   UNL     1      -9.182   4.195  71.166  1.00  0.00    -0.196 A  
HETATM   20  C   UNL     1      -8.242   2.082  70.377  1.00  0.00    -0.061 A  
HETATM   21  C   UNL     1      -8.811   2.271  69.121  1.00  0.00    -0.146 A  
HETATM   22  C   UNL     1      -8.422   3.035  71.385  1.00  0.00    -0.092 A  
HETATM   23  C   UNL     1      -9.571   3.407  68.878  1.00  0.00    -0.121 A  
HETATM   24  C   UNL     1      -9.762   4.353  69.891  1.00  0.00    -0.291 A  
ENDBRANCH  14  19
ENDBRANCH  12  14
ENDBRANCH  11  12
ENDBRANCH  10  11
ENDBRANCH   9  10
ENDBRANCH   8   9
ENDBRANCH   7   8
ENDBRANCH   6   7
ENDBRANCH   3   6
ENDBRANCH   2   3
TORSDOF 11
ENDMDL
MODEL      377
REMARK 921   NORMALIZED FREE ENERGY PREDICTED BY IDOCK:   -2.81 KCAL/MOL
REMARK 922        TOTAL FREE ENERGY PREDICTED BY IDOCK:   -5.44 KCAL/MOL
REMARK 923 INTER-LIGAND FREE ENERGY PREDICTED BY IDOCK:   -4.33 KCAL/MOL
REMARK 924 INTRA-LIGAND FREE ENERGY PREDICTED BY IDOCK:   -1.11 KCAL/MOL
REMARK 927      BINDING AFFINITY PREDICTED BY RF-SCORE:    0.00 PKD
ROOT
HETATM    1  C   UNL     1     -13.233  11.337  71.932  1.00  0.00    -0.491 C  
HETATM    2  C   UNL     1     -12.705  10.115  71.183  1.00  0.00    -0.396 C  
ENDROOT
BRANCH   2   3
HETATM    3  N   UNL     1     -11.760  10.424  70.094  1.00  0.00    -0.290 NA 
BRANCH   3   4
HETATM    4  C   UNL     1     -11.560  11.864  69.870  1.00  0.00    -0.256 C  
HETATM    5  C   UNL     1     -11.909  12.387  68.482  1.00  0.00    -0.352 C  
ENDBRANCH   3   4
BRANCH   3   6
HETATM    6  C   UNL     1     -10.502   9.671  70.301  1.00  0.00    -0.283 C  
BRANCH   6   7
HETATM    7  C   UNL     1      -9.399   9.945  69.266  1.00  0.00    -0.206 C  
BRANCH   7   8
HETATM    8  O   UNL     1      -8.127  10.059  69.920  1.00  0.00    -0.171 OA 
BRANCH   8   9
HETATM    9  C   UNL     1      -7.295  10.997  69.234  1.00  0.00    -0.113 C  
BRANCH   9  10
HETATM   10  C   UNL     1      -8.096  11.744  68.171  1.00  0.00    -0.150 C  
BRANCH  10  11
HETATM   11  O   UNL     1      -8.067  13.167  68.396  1.00  0.00    -0.145 OA 
BRANCH  11  12
HETATM   12  C   UNL     1      -8.344  13.937  67.303  1.00  0.00    -0.185 C  
HETATM   13  O   UNL     1      -8.112  13.586  66.150  1.00  0.00     1.030 OA 
BRANCH  12  14
HETATM   14  C   UNL     1      -8.909  15.319  67.683  1.00  0.00    -0.180 C  
HETATM   15  C   UNL     1      -9.926  15.254  68.856  1.00  0.00    -0.225 C  
HETATM   16  C   UNL     1      -9.834  15.738  66.509  1.00  0.00    -0.286 C  
HETATM   17  C   UNL     1     -10.835  16.707  67.110  1.00  0.00    -0.126 C  
HETATM   18  C   UNL     1     -11.131  16.124  68.479  1.00  0.00    -0.357 C  
BRANCH  14  19
HETATM   19  C   UNL     1      -7.751  16.281  68.008  1.00  0.00    -0.154 A  
HETATM   20  C   UNL     1      -5.405  16.961  67.921  1.00  0.00    -0.128 A  
HETATM   21  C   UNL     1      -5.674  18.074  68.712  1.00  0.00    -0.182 A  
HETATM   22  C   UNL     1      -6.430  16.074  67.578  1.00  0.00    -0.207 A  
HETATM   23  C   UNL     1      -6.971  18.307  69.148  1.00  0.00    -0.230 A  
HETATM   24  C   UNL     1      -7.999  17.426  68.793  1.00  0.00    -0.244 A  
ENDBRANCH  14  19
ENDBRANCH  12  14
ENDBRANCH  11  12
ENDBRANCH  10  11
ENDBRANCH   9  10
ENDBRANCH   8   9
ENDBRANCH   7   8
ENDBRANCH   6   7
ENDBRANCH   3   6
ENDBRANCH   2   3
TORSDOF 11
ENDMDL
MODEL      378
REMARK 921   NORMALIZED FREE ENERGY PREDICTED BY IDOCK:   -2.79 KCAL/MOL
REMARK 922        TOTAL FREE ENERGY PREDICTED BY IDOCK:   -5.41 KCAL/MOL
REMARK 923 INTER-LIGAND FREE ENERGY PREDICTED BY IDOCK:   -4.48 KCAL/MOL
REMARK 924 INTRA-LIGAND FREE ENERGY PREDICTED BY IDOCK:   -0.93 KCAL/MOL
REMARK 927      BINDING AFFINITY PREDICTED BY RF-SCORE:    0.00 PKD
ROOT
HETATM    1  C   UNL     1     -10.618   4.740  65.714  1.00  0.00    -0.262 C  
HETATM    2  C   UNL     1      -9.459   5.635  66.147  1.00  0.00    -0.139 C  
ENDROOT
BRANCH   2   3
HETATM    3  N   UNL     1      -8.342   5.702  65.185  1.00  0.00    -0.143 NA 
BRANCH   3   4
HETATM    4  C   UNL     1      -8.013   7.068  64.751  1.00  0.00    -0.122 C  
HETATM    5  C   UNL     1      -8.086   7.337  63.252  1.00  0.00    -0.011 C  
ENDBRANCH   3   4
BRANCH   3   6
HETATM    6  C   UNL     1      -7.184   4.949  65.717  1.00  0.00    -0.076 C  
BRANCH   6   7
HETATM    7  C   UNL     1      -7.385   4.345  67.116  1.00  0.00    -0.073 C  
BRANCH   7   8
HETATM    8  O   UNL     1      -6.394   4.856  68.019  1.00  0.00    -0.034 OA 
BRANCH   8   9
HETATM    9  C   UNL     1      -6.821   4.694  69.374  1.00  0.00    -0.049 C  
BRANCH   9  10
HETATM   10  C   UNL     1      -7.633   5.906  69.825  1.00  0.00    -0.081 C  
BRANCH  10  11
HETATM   11  O   UNL     1      -9.043   5.617  69.839  1.00  0.00    -0.132 OA 
BRANCH  11  12
HETATM   12  C   UNL     1      -9.445   4.707  70.775  1.00  0.00    -0.167 C  
HETATM   13  O   UNL     1      -9.542   3.504  70.553  1.00  0.00    -0.175 OA 
BRANCH  12  14
HETATM   14  C   UNL     1      -9.831   5.368  72.112  1.00  0.00    -0.209 C  
HETATM   15  C   UNL     1      -8.603   5.652  73.021  1.00  0.00    -0.121 C  
HETATM   16  C   UNL     1     -10.563   4.272  72.933  1.00  0.00    -0.255 C  
HETATM   17  C   UNL     1     -10.378   4.666  74.386  1.00  0.00    -0.318 C  
HETATM   18  C   UNL     1      -8.960   5.200  74.443  1.00  0.00    -0.114 C  
BRANCH  14  19
HETATM   19  C   UNL     1     -10.629   6.657  71.842  1.00  0.00    -0.237 A  
HETATM   20  C   UNL     1     -10.851   9.088  71.723  1.00  0.00    -0.437 A  
HETATM   21  C   UNL     1     -12.197   8.973  71.389  1.00  0.00    -0.387 A  
HETATM   22  C   UNL     1     -10.078   7.944  71.950  1.00  0.00    -0.250 A  
HETATM   23  C   UNL     1     -12.767   7.713  71.271  1.00  0.00    -0.306 A  
HETATM   24  C   UNL     1     -11.991   6.569  71.486  1.00  0.00    -0.383 A  
ENDBRANCH  14  19
ENDBRANCH  12  14
ENDBRANCH  11  12
ENDBRANCH  10  11
ENDBRANCH   9  10
ENDBRANCH   8   9
ENDBRANCH   7   8
ENDBRANCH   6   7
ENDBRANCH   3   6
ENDBRANCH   2   3
TORSDOF 11
ENDMDL
MODEL      379
REMARK 921   NORMALIZED FREE ENERGY PREDICTED BY IDOCK:   -2.78 KCAL/MOL
REMARK 922        TOTAL FREE ENERGY PREDICTED BY IDOCK:   -5.38 KCAL/MOL
REMARK 923 INTER-LIGAND FREE ENERGY PREDICTED BY IDOCK:   -3.87 KCAL/MOL
REMARK 924 INTRA-LIGAND FREE ENERGY PREDICTED BY IDOCK:   -1.51 KCAL/MOL
REMARK 927      BINDING AFFINITY PREDICTED BY RF-SCORE:    0.00 PKD
ROOT
HETATM    1  C   UNL     1     -11.528   5.873  70.145  1.00  0.00    -0.072 C  
HETATM    2  C   UNL     1     -11.438   7.397  70.120  1.00  0.00    -0.129 C  
ENDROOT
BRANCH   2   3
HETATM    3  N   UNL     1     -11.128   8.015  71.423  1.00  0.00    -0.236 NA 
BRANCH   3   4
HETATM    4  C   UNL     1     -12.283   8.101  72.330  1.00  0.00    -0.346 C  
HETATM    5  C   UNL     1     -13.574   8.647  71.731  1.00  0.00    -0.439 C  
ENDBRANCH   3   4
BRANCH   3   6
HETATM    6  C   UNL     1      -9.948   7.348  72.020  1.00  0.00    -0.166 C  
BRANCH   6   7
HETATM    7  C   UNL     1      -8.788   8.284  72.391  1.00  0.00    -0.219 C  
BRANCH   7   8
HETATM    8  O   UNL     1      -8.051   8.646  71.214  1.00  0.00    -0.122 OA 
BRANCH   8   9
HETATM    9  C   UNL     1      -7.565   7.477  70.550  1.00  0.00    -0.085 C  
BRANCH   9  10
HETATM   10  C   UNL     1      -6.533   7.856  69.491  1.00  0.00    -0.035 C  
BRANCH  10  11
HETATM   11  O   UNL     1      -7.154   8.085  68.212  1.00  0.00    -0.083 OA 
BRANCH  11  12
HETATM   12  C   UNL     1      -6.915   7.130  67.266  1.00  0.00    -0.078 C  
HETATM   13  O   UNL     1      -5.840   6.549  67.145  1.00  0.00    -0.016 OA 
BRANCH  12  14
HETATM   14  C   UNL     1      -8.117   6.915  66.326  1.00  0.00    -0.112 C  
HETATM   15  C   UNL     1      -9.400   6.467  67.079  1.00  0.00    -0.143 C  
HETATM   16  C   UNL     1      -7.792   5.640  65.503  1.00  0.00    -0.100 C  
HETATM   17  C   UNL     1      -9.136   5.079  65.081  1.00  0.00    -0.127 C  
HETATM   18  C   UNL     1     -10.024   5.309  66.289  1.00  0.00    -0.216 C  
BRANCH  14  19
HETATM   19  C   UNL     1      -8.374   8.198  65.512  1.00  0.00    -0.160 A  
HETATM   20  C   UNL     1      -7.721   9.908  63.893  1.00  0.00    -0.140 A  
HETATM   21  C   UNL     1      -8.907  10.601  64.111  1.00  0.00    -0.170 A  
HETATM   22  C   UNL     1      -7.456   8.724  64.589  1.00  0.00    -0.104 A  
HETATM   23  C   UNL     1      -9.835  10.103  65.016  1.00  0.00    -0.392 A  
HETATM   24  C   UNL     1      -9.576   8.911  65.701  1.00  0.00    -0.175 A  
ENDBRANCH  14  19
ENDBRANCH  12  14
ENDBRANCH  11  12
ENDBRANCH  10  11
ENDBRANCH   9  10
ENDBRANCH   8   9
ENDBRANCH   7   8
ENDBRANCH   6   7
ENDBRANCH   3   6
ENDBRANCH   2   3
TORSDOF 11
ENDMDL
MODEL      380
REMARK 921   NORMALIZED FREE ENERGY PREDICTED BY IDOCK:   -2.77 KCAL/MOL
REMARK 922        TOTAL FREE ENERGY PREDICTED BY IDOCK:   -5.37 KCAL/MOL
REMARK 923 INTER-LIGAND FREE ENERGY PREDICTED BY IDOCK:   -4.22 KCAL/MOL
REMARK 924 INTRA-LIGAND FREE ENERGY PREDICTED BY IDOCK:   -1.15 KCAL/MOL
REMARK 927      BINDING AFFINITY PREDICTED BY RF-SCORE:    0.00 PKD
ROOT
HETATM    1  C   UNL     1      -8.600  16.369  69.128  1.00  0.00    -0.182 C  
HETATM    2  C   UNL     1      -8.408  14.940  68.625  1.00  0.00    -0.164 C  
ENDROOT
BRANCH   2   3
HETATM    3  N   UNL     1      -9.639  14.291  68.136  1.00  0.00    -0.212 NA 
BRANCH   3   4
HETATM    4  C   UNL     1      -9.979  14.633  66.746  1.00  0.00    -0.261 C  
HETATM    5  C   UNL     1     -11.364  15.225  66.516  1.00  0.00    -0.168 C  
ENDBRANCH   3   4
BRANCH   3   6
HETATM    6  C   UNL     1      -9.566  12.834  68.391  1.00  0.00    -0.175 C  
BRANCH   6   7
HETATM    7  C   UNL     1      -9.265  11.969  67.157  1.00  0.00    -0.190 C  
BRANCH   7   8
HETATM    8  O   UNL     1      -8.989  10.619  67.557  1.00  0.00    -0.135 OA 
BRANCH   8   9
HETATM    9  C   UNL     1     -10.010   9.738  67.083  1.00  0.00    -0.198 C  
BRANCH   9  10
HETATM   10  C   UNL     1     -10.776   9.130  68.255  1.00  0.00    -0.122 C  
BRANCH  10  11
HETATM   11  O   UNL     1     -10.074   8.004  68.813  1.00  0.00    -0.185 OA 
BRANCH  11  12
HETATM   12  C   UNL     1      -9.919   8.025  70.169  1.00  0.00    -0.191 C  
HETATM   13  O   UNL     1      -9.428   8.968  70.781  1.00  0.00    -0.207 OA 
BRANCH  12  14
HETATM   14  C   UNL     1     -10.362   6.707  70.835  1.00  0.00    -0.237 C  
HETATM   15  C   UNL     1     -11.890   6.453  70.712  1.00  0.00    -0.319 C  
HETATM   16  C   UNL     1     -10.218   6.933  72.364  1.00  0.00    -0.208 C  
HETATM   17  C   UNL     1     -11.194   5.967  73.007  1.00  0.00    -0.232 C  
HETATM   18  C   UNL     1     -12.398   5.996  72.085  1.00  0.00    -0.034 C  
BRANCH  14  19
HETATM   19  C   UNL     1      -9.557   5.533  70.245  1.00  0.00    -0.227 A  
HETATM   20  C   UNL     1      -9.346   3.509  68.893  1.00  0.00    -0.236 A  
HETATM   21  C   UNL     1      -8.012   3.371  69.265  1.00  0.00    -0.057 A  
HETATM   22  C   UNL     1     -10.109   4.574  69.381  1.00  0.00    -0.124 A  
HETATM   23  C   UNL     1      -7.438   4.307  70.115  1.00  0.00    -0.046 A  
HETATM   24  C   UNL     1      -8.199   5.380  70.592  1.00  0.00    -0.114 A  
ENDBRANCH  14  19
ENDBRANCH  12  14
ENDBRANCH  11  12
ENDBRANCH  10  11
ENDBRANCH   9  10
ENDBRANCH   8   9
ENDBRANCH   7   8
ENDBRANCH   6   7
ENDBRANCH   3   6
ENDBRANCH   2   3
TORSDOF 11
ENDMDL
MODEL      381
REMARK 921   NORMALIZED FREE ENERGY PREDICTED BY IDOCK:   -2.75 KCAL/MOL
REMARK 922        TOTAL FREE ENERGY PREDICTED BY IDOCK:   -5.34 KCAL/MOL
REMARK 923 INTER-LIGAND FREE ENERGY PREDICTED BY IDOCK:   -4.67 KCAL/MOL
REMARK 924 INTRA-LIGAND FREE ENERGY PREDICTED BY IDOCK:   -0.67 KCAL/MOL
REMARK 927      BINDING AFFINITY PREDICTED BY RF-SCORE:    0.00 PKD
ROOT
HETATM    1  C   UNL     1      -7.253  15.134  68.950  1.00  0.00    -0.133 C  
HETATM    2  C   UNL     1      -6.425  14.074  69.674  1.00  0.00    -0.122 C  
ENDROOT
BRANCH   2   3
HETATM    3  N   UNL     1      -6.420  12.750  69.024  1.00  0.00    -0.091 NA 
BRANCH   3   4
HETATM    4  C   UNL     1      -5.241  12.506  68.179  1.00  0.00    -0.069 C  
HETATM    5  C   UNL     1      -5.515  12.070  66.745  1.00  0.00     0.009 C  
ENDBRANCH   3   4
BRANCH   3   6
HETATM    6  C   UNL     1      -6.653  11.698  70.041  1.00  0.00     0.044 C  
BRANCH   6   7
HETATM    7  C   UNL     1      -5.760  10.455  69.911  1.00  0.00    -0.050 C  
BRANCH   7   8
HETATM    8  O   UNL     1      -6.278   9.581  68.898  1.00  0.00    -0.043 OA 
BRANCH   8   9
HETATM    9  C   UNL     1      -7.279   8.720  69.444  1.00  0.00    -0.061 C  
BRANCH   9  10
HETATM   10  C   UNL     1      -7.039   8.502  70.936  1.00  0.00    -0.063 C  
BRANCH  10  11
HETATM   11  O   UNL     1      -8.097   9.075  71.727  1.00  0.00    -0.348 OA 
BRANCH  11  12
HETATM   12  C   UNL     1      -8.970   8.179  72.274  1.00  0.00    -0.189 C  
HETATM   13  O   UNL     1      -8.682   7.433  73.205  1.00  0.00    -0.129 OA 
BRANCH  12  14
HETATM   14  C   UNL     1     -10.328   8.158  71.546  1.00  0.00    -0.265 C  
HETATM   15  C   UNL     1     -10.721   9.542  70.961  1.00  0.00    -0.411 C  
HETATM   16  C   UNL     1     -11.402   7.984  72.652  1.00  0.00    -0.469 C  
HETATM   17  C   UNL     1     -12.674   8.578  72.076  1.00  0.00    -0.421 C  
HETATM   18  C   UNL     1     -12.194   9.794  71.308  1.00  0.00    -0.465 C  
BRANCH  14  19
HETATM   19  C   UNL     1     -10.309   7.078  70.446  1.00  0.00    -0.219 A  
HETATM   20  C   UNL     1     -10.573   6.330  68.135  1.00  0.00    -0.318 A  
HETATM   21  C   UNL     1     -10.316   5.014  68.506  1.00  0.00    -0.094 A  
HETATM   22  C   UNL     1     -10.573   7.348  69.094  1.00  0.00    -0.213 A  
HETATM   23  C   UNL     1     -10.046   4.718  69.836  1.00  0.00    -0.299 A  
HETATM   24  C   UNL     1     -10.034   5.739  70.793  1.00  0.00    -0.249 A  
ENDBRANCH  14  19
ENDBRANCH  12  14
ENDBRANCH  11  12
ENDBRANCH  10  11
ENDBRANCH   9  10
ENDBRANCH   8   9
ENDBRANCH   7   8
ENDBRANCH   6   7
ENDBRANCH   3   6
ENDBRANCH   2   3
TORSDOF 11
ENDMDL
MODEL      382
REMARK 921   NORMALIZED FREE ENERGY PREDICTED BY IDOCK:   -2.74 KCAL/MOL
REMARK 922        TOTAL FREE ENERGY PREDICTED BY IDOCK:   -5.33 KCAL/MOL
REMARK 923 INTER-LIGAND FREE ENERGY PREDICTED BY IDOCK:   -5.09 KCAL/MOL
REMARK 924 INTRA-LIGAND FREE ENERGY PREDICTED BY IDOCK:   -0.24 KCAL/MOL
REMARK 927      BINDING AFFINITY PREDICTED BY RF-SCORE:    0.00 PKD
ROOT
HETATM    1  C   UNL     1     -11.998  10.856  68.936  1.00  0.00    -0.277 C  
HETATM    2  C   UNL     1     -10.528  10.488  69.127  1.00  0.00    -0.228 C  
ENDROOT
BRANCH   2   3
HETATM    3  N   UNL     1      -9.591  11.240  68.271  1.00  0.00    -0.186 NA 
BRANCH   3   4
HETATM    4  C   UNL     1     -10.108  12.541  67.822  1.00  0.00    -0.218 C  
HETATM    5  C   UNL     1     -10.987  12.527  66.578  1.00  0.00    -0.303 C  
ENDBRANCH   3   4
BRANCH   3   6
HETATM    6  C   UNL     1      -8.269  11.318  68.934  1.00  0.00    -0.079 C  
BRANCH   6   7
HETATM    7  C   UNL     1      -7.199  12.109  68.164  1.00  0.00    -0.096 C  
BRANCH   7   8
HETATM    8  O   UNL     1      -6.192  12.583  69.069  1.00  0.00    -0.074 OA 
BRANCH   8   9
HETATM    9  C   UNL     1      -6.380  13.973  69.343  1.00  0.00    -0.115 C  
BRANCH   9  10
HETATM   10  C   UNL     1      -5.485  14.821  68.443  1.00  0.00    -0.111 C  
BRANCH  10  11
HETATM   11  O   UNL     1      -6.263  15.651  67.561  1.00  0.00    -0.149 OA 
BRANCH  11  12
HETATM   12  C   UNL     1      -7.351  16.249  68.130  1.00  0.00    -0.139 C  
HETATM   13  O   UNL     1      -8.390  15.653  68.398  1.00  0.00    -0.153 OA 
BRANCH  12  14
HETATM   14  C   UNL     1      -7.155  17.764  68.330  1.00  0.00    -0.230 C  
HETATM   15  C   UNL     1      -5.896  18.312  67.601  1.00  0.00    -0.157 C  
HETATM   16  C   UNL     1      -6.745  17.949  69.815  1.00  0.00     0.114 C  
HETATM   17  C   UNL     1      -5.967  19.250  69.860  1.00  0.00    -0.292 C  
HETATM   18  C   UNL     1      -5.158  19.237  68.577  1.00  0.00    -0.189 C  
BRANCH  14  19
HETATM   19  C   UNL     1      -8.424  18.515  67.880  1.00  0.00    -0.292 A  
HETATM   20  C   UNL     1     -10.593  19.556  68.303  1.00  0.00    -0.318 A  
HETATM   21  C   UNL     1     -10.752  19.833  66.949  1.00  0.00    -0.541 A  
HETATM   22  C   UNL     1      -9.445  18.902  68.762  1.00  0.00    -0.407 A  
HETATM   23  C   UNL     1      -9.755  19.465  66.054  1.00  0.00    -0.334 A  
HETATM   24  C   UNL     1      -8.601  18.822  66.516  1.00  0.00    -0.312 A  
ENDBRANCH  14  19
ENDBRANCH  12  14
ENDBRANCH  11  12
ENDBRANCH  10  11
ENDBRANCH   9  10
ENDBRANCH   8   9
ENDBRANCH   7   8
ENDBRANCH   6   7
ENDBRANCH   3   6
ENDBRANCH   2   3
TORSDOF 11
ENDMDL
MODEL      383
REMARK 921   NORMALIZED FREE ENERGY PREDICTED BY IDOCK:   -2.72 KCAL/MOL
REMARK 922        TOTAL FREE ENERGY PREDICTED BY IDOCK:   -5.28 KCAL/MOL
REMARK 923 INTER-LIGAND FREE ENERGY PREDICTED BY IDOCK:   -4.67 KCAL/MOL
REMARK 924 INTRA-LIGAND FREE ENERGY PREDICTED BY IDOCK:   -0.61 KCAL/MOL
REMARK 927      BINDING AFFINITY PREDICTED BY RF-SCORE:    0.00 PKD
ROOT
HETATM    1  C   UNL     1     -12.029  14.190  68.980  1.00  0.00    -0.376 C  
HETATM    2  C   UNL     1     -11.243  14.772  67.807  1.00  0.00    -0.313 C  
ENDROOT
BRANCH   2   3
HETATM    3  N   UNL     1     -11.805  14.464  66.479  1.00  0.00    -0.396 NA 
BRANCH   3   4
HETATM    4  C   UNL     1     -10.986  14.952  65.359  1.00  0.00    -0.364 C  
HETATM    5  C   UNL     1     -10.854  16.465  65.226  1.00  0.00    -0.271 C  
ENDBRANCH   3   4
BRANCH   3   6
HETATM    6  C   UNL     1     -12.128  13.021  66.399  1.00  0.00    -0.358 C  
BRANCH   6   7
HETATM    7  C   UNL     1     -10.914  12.079  66.425  1.00  0.00    -0.296 C  
BRANCH   7   8
HETATM    8  O   UNL     1     -10.583  11.665  65.092  1.00  0.00    -0.271 OA 
BRANCH   8   9
HETATM    9  C   UNL     1      -9.171  11.495  64.957  1.00  0.00    -0.019 C  
BRANCH   9  10
HETATM   10  C   UNL     1      -8.773  10.059  65.291  1.00  0.00    -0.163 C  
BRANCH  10  11
HETATM   11  O   UNL     1      -7.814  10.016  66.365  1.00  0.00    -0.109 OA 
BRANCH  11  12
HETATM   12  C   UNL     1      -8.249   9.419  67.513  1.00  0.00    -0.117 C  
HETATM   13  O   UNL     1      -9.074   9.924  68.269  1.00  0.00    -0.122 OA 
BRANCH  12  14
HETATM   14  C   UNL     1      -7.539   8.080  67.789  1.00  0.00    -0.102 C  
HETATM   15  C   UNL     1      -7.141   7.903  69.280  1.00  0.00    -0.071 C  
HETATM   16  C   UNL     1      -6.143   8.192  67.118  1.00  0.00    -0.054 C  
HETATM   17  C   UNL     1      -5.252   7.229  67.878  1.00  0.00    -0.024 C  
HETATM   18  C   UNL     1      -5.702   7.375  69.320  1.00  0.00    -0.026 C  
BRANCH  14  19
HETATM   19  C   UNL     1      -8.427   6.915  67.311  1.00  0.00    -0.121 A  
HETATM   20  C   UNL     1      -8.769   4.744  66.241  1.00  0.00    -0.114 A  
HETATM   21  C   UNL     1     -10.146   4.853  66.408  1.00  0.00    -0.286 A  
HETATM   22  C   UNL     1      -7.921   5.765  66.684  1.00  0.00    -0.102 A  
HETATM   23  C   UNL     1     -10.674   5.977  67.028  1.00  0.00    -0.412 A  
HETATM   24  C   UNL     1      -9.824   6.991  67.483  1.00  0.00    -0.186 A  
ENDBRANCH  14  19
ENDBRANCH  12  14
ENDBRANCH  11  12
ENDBRANCH  10  11
ENDBRANCH   9  10
ENDBRANCH   8   9
ENDBRANCH   7   8
ENDBRANCH   6   7
ENDBRANCH   3   6
ENDBRANCH   2   3
TORSDOF 11
ENDMDL
MODEL      384
REMARK 921   NORMALIZED FREE ENERGY PREDICTED BY IDOCK:   -2.67 KCAL/MOL
REMARK 922        TOTAL FREE ENERGY PREDICTED BY IDOCK:   -5.21 KCAL/MOL
REMARK 923 INTER-LIGAND FREE ENERGY PREDICTED BY IDOCK:   -3.92 KCAL/MOL
REMARK 924 INTRA-LIGAND FREE ENERGY PREDICTED BY IDOCK:   -1.28 KCAL/MOL
REMARK 927      BINDING AFFINITY PREDICTED BY RF-SCORE:    0.00 PKD
ROOT
HETATM    1  C   UNL     1     -10.212   7.578  72.259  1.00  0.00    -0.252 C  
HETATM    2  C   UNL     1      -9.297   7.071  71.147  1.00  0.00    -0.158 C  
ENDROOT
BRANCH   2   3
HETATM    3  N   UNL     1      -7.947   6.678  71.593  1.00  0.00    -0.103 NA 
BRANCH   3   4
HETATM    4  C   UNL     1      -7.341   5.609  70.784  1.00  0.00    -0.084 C  
HETATM    5  C   UNL     1      -7.648   4.179  71.214  1.00  0.00    -0.059 C  
ENDBRANCH   3   4
BRANCH   3   6
HETATM    6  C   UNL     1      -7.097   7.883  71.723  1.00  0.00    -0.070 C  
BRANCH   6   7
HETATM    7  C   UNL     1      -7.028   8.771  70.471  1.00  0.00    -0.048 C  
BRANCH   7   8
HETATM    8  O   UNL     1      -6.026   9.784  70.640  1.00  0.00    -0.060 OA 
BRANCH   8   9
HETATM    9  C   UNL     1      -5.840  10.512  69.424  1.00  0.00    -0.038 C  
BRANCH   9  10
HETATM   10  C   UNL     1      -6.669   9.894  68.301  1.00  0.00    -0.060 C  
BRANCH  10  11
HETATM   11  O   UNL     1      -7.602  10.845  67.753  1.00  0.00    -0.093 OA 
BRANCH  11  12
HETATM   12  C   UNL     1      -7.780  10.778  66.401  1.00  0.00    -0.145 C  
HETATM   13  O   UNL     1      -6.874  10.943  65.589  1.00  0.00    -0.070 OA 
BRANCH  12  14
HETATM   14  C   UNL     1      -9.252  10.545  66.010  1.00  0.00    -0.205 C  
HETATM   15  C   UNL     1      -9.518  10.777  64.497  1.00  0.00    -0.297 C  
HETATM   16  C   UNL     1     -10.051  11.718  66.638  1.00  0.00    -0.231 C  
HETATM   17  C   UNL     1     -11.295  11.862  65.783  1.00  0.00    -0.354 C  
HETATM   18  C   UNL     1     -10.800  11.611  64.371  1.00  0.00    -0.399 C  
BRANCH  14  19
HETATM   19  C   UNL     1      -9.683   9.128  66.436  1.00  0.00    -0.330 A  
HETATM   20  C   UNL     1     -10.886   7.569  67.882  1.00  0.00    -0.128 A  
HETATM   21  C   UNL     1     -10.367   6.484  67.185  1.00  0.00    -0.311 A  
HETATM   22  C   UNL     1     -10.545   8.875  67.515  1.00  0.00    -0.307 A  
HETATM   23  C   UNL     1      -9.515   6.704  66.110  1.00  0.00    -0.057 A  
HETATM   24  C   UNL     1      -9.185   8.011  65.735  1.00  0.00    -0.068 A  
ENDBRANCH  14  19
ENDBRANCH  12  14
ENDBRANCH  11  12
ENDBRANCH  10  11
ENDBRANCH   9  10
ENDBRANCH   8   9
ENDBRANCH   7   8
ENDBRANCH   6   7
ENDBRANCH   3   6
ENDBRANCH   2   3
TORSDOF 11
ENDMDL
MODEL      385
REMARK 921   NORMALIZED FREE ENERGY PREDICTED BY IDOCK:   -2.67 KCAL/MOL
REMARK 922        TOTAL FREE ENERGY PREDICTED BY IDOCK:   -5.21 KCAL/MOL
REMARK 923 INTER-LIGAND FREE ENERGY PREDICTED BY IDOCK:   -3.82 KCAL/MOL
REMARK 924 INTRA-LIGAND FREE ENERGY PREDICTED BY IDOCK:   -1.39 KCAL/MOL
REMARK 927      BINDING AFFINITY PREDICTED BY RF-SCORE:    0.00 PKD
ROOT
HETATM    1  C   UNL     1      -9.046   7.275  68.077  1.00  0.00    -0.133 C  
HETATM    2  C   UNL     1      -8.783   8.534  67.253  1.00  0.00    -0.130 C  
ENDROOT
BRANCH   2   3
HETATM    3  N   UNL     1      -7.371   8.741  66.881  1.00  0.00    -0.079 NA 
BRANCH   3   4
HETATM    4  C   UNL     1      -6.458   7.722  67.424  1.00  0.00    -0.056 C  
HETATM    5  C   UNL     1      -5.349   8.227  68.340  1.00  0.00    -0.033 C  
ENDBRANCH   3   4
BRANCH   3   6
HETATM    6  C   UNL     1      -7.264   8.918  65.415  1.00  0.00    -0.084 C  
BRANCH   6   7
HETATM    7  C   UNL     1      -8.183   8.012  64.580  1.00  0.00    -0.094 C  
BRANCH   7   8
HETATM    8  O   UNL     1      -9.160   8.804  63.889  1.00  0.00     0.181 OA 
BRANCH   8   9
HETATM    9  C   UNL     1      -8.783  10.183  63.899  1.00  0.00    -0.210 C  
BRANCH   9  10
HETATM   10  C   UNL     1      -9.990  11.063  64.215  1.00  0.00    -0.317 C  
BRANCH  10  11
HETATM   11  O   UNL     1     -10.315  11.024  65.618  1.00  0.00    -0.246 OA 
BRANCH  11  12
HETATM   12  C   UNL     1      -9.706  11.974  66.386  1.00  0.00    -0.225 C  
HETATM   13  O   UNL     1      -8.729  12.619  66.019  1.00  0.00     0.183 OA 
BRANCH  12  14
HETATM   14  C   UNL     1     -10.336  12.093  67.787  1.00  0.00    -0.217 C  
HETATM   15  C   UNL     1      -9.516  11.357  68.883  1.00  0.00    -0.064 C  
HETATM   16  C   UNL     1     -11.626  11.232  67.750  1.00  0.00    -0.307 C  
HETATM   17  C   UNL     1     -11.886  10.831  69.189  1.00  0.00    -0.347 C  
HETATM   18  C   UNL     1     -10.502  10.564  69.750  1.00  0.00    -0.245 C  
BRANCH  14  19
HETATM   19  C   UNL     1     -10.526  13.580  68.145  1.00  0.00    -0.249 A  
HETATM   20  C   UNL     1     -11.714  15.710  68.006  1.00  0.00    -0.162 A  
HETATM   21  C   UNL     1     -10.755  16.325  68.803  1.00  0.00    -0.309 A  
HETATM   22  C   UNL     1     -11.599  14.356  67.677  1.00  0.00    -0.396 A  
HETATM   23  C   UNL     1      -9.685  15.582  69.283  1.00  0.00    -0.272 A  
HETATM   24  C   UNL     1      -9.577  14.223  68.965  1.00  0.00    -0.010 A  
ENDBRANCH  14  19
ENDBRANCH  12  14
ENDBRANCH  11  12
ENDBRANCH  10  11
ENDBRANCH   9  10
ENDBRANCH   8   9
ENDBRANCH   7   8
ENDBRANCH   6   7
ENDBRANCH   3   6
ENDBRANCH   2   3
TORSDOF 11
ENDMDL
MODEL      386
REMARK 921   NORMALIZED FREE ENERGY PREDICTED BY IDOCK:   -2.67 KCAL/MOL
REMARK 922        TOTAL FREE ENERGY PREDICTED BY IDOCK:   -5.20 KCAL/MOL
REMARK 923 INTER-LIGAND FREE ENERGY PREDICTED BY IDOCK:   -6.25 KCAL/MOL
REMARK 924 INTRA-LIGAND FREE ENERGY PREDICTED BY IDOCK:    1.05 KCAL/MOL
REMARK 927      BINDING AFFINITY PREDICTED BY RF-SCORE:    0.00 PKD
ROOT
HETATM    1  C   UNL     1     -13.860  13.769  71.885  1.00  0.00    -0.496 C  
HETATM    2  C   UNL     1     -12.763  13.627  70.832  1.00  0.00    -0.310 C  
ENDROOT
BRANCH   2   3
HETATM    3  N   UNL     1     -12.530  14.836  70.020  1.00  0.00    -0.310 NA 
BRANCH   3   4
HETATM    4  C   UNL     1     -11.775  15.887  70.720  1.00  0.00    -0.401 C  
HETATM    5  C   UNL     1     -11.024  15.457  71.974  1.00  0.00     0.033 C  
ENDBRANCH   3   4
BRANCH   3   6
HETATM    6  C   UNL     1     -11.948  14.451  68.713  1.00  0.00    -0.295 C  
BRANCH   6   7
HETATM    7  C   UNL     1     -11.041  13.211  68.743  1.00  0.00    -0.269 C  
BRANCH   7   8
HETATM    8  O   UNL     1     -11.480  12.257  67.766  1.00  0.00    -0.285 OA 
BRANCH   8   9
HETATM    9  C   UNL     1     -11.301  10.925  68.253  1.00  0.00    -0.308 C  
BRANCH   9  10
HETATM   10  C   UNL     1      -9.869  10.723  68.742  1.00  0.00    -0.194 C  
BRANCH  10  11
HETATM   11  O   UNL     1      -9.819   9.817  69.860  1.00  0.00    -0.216 OA 
BRANCH  11  12
HETATM   12  C   UNL     1     -11.024   9.315  70.261  1.00  0.00    -0.247 C  
HETATM   13  O   UNL     1     -12.047   9.990  70.341  1.00  0.00    -0.258 OA 
BRANCH  12  14
HETATM   14  C   UNL     1     -10.941   7.832  70.669  1.00  0.00    -0.255 C  
HETATM   15  C   UNL     1     -12.221   7.332  71.394  1.00  0.00    -0.384 C  
HETATM   16  C   UNL     1      -9.899   7.764  71.818  1.00  0.00    -0.210 C  
HETATM   17  C   UNL     1     -10.260   6.525  72.616  1.00  0.00    -0.205 C  
HETATM   18  C   UNL     1     -11.777   6.519  72.617  1.00  0.00    -0.126 C  
BRANCH  14  19
HETATM   19  C   UNL     1     -10.635   6.970  69.428  1.00  0.00    -0.248 A  
HETATM   20  C   UNL     1     -10.035   4.864  68.343  1.00  0.00    -0.183 A  
HETATM   21  C   UNL     1     -10.023   5.482  67.097  1.00  0.00    -0.193 A  
HETATM   22  C   UNL     1     -10.334   5.600  69.495  1.00  0.00    -0.345 A  
HETATM   23  C   UNL     1     -10.322   6.835  67.001  1.00  0.00    -0.338 A  
HETATM   24  C   UNL     1     -10.633   7.568  68.151  1.00  0.00    -0.201 A  
ENDBRANCH  14  19
ENDBRANCH  12  14
ENDBRANCH  11  12
ENDBRANCH  10  11
ENDBRANCH   9  10
ENDBRANCH   8   9
ENDBRANCH   7   8
ENDBRANCH   6   7
ENDBRANCH   3   6
ENDBRANCH   2   3
TORSDOF 11
ENDMDL
MODEL      387
REMARK 921   NORMALIZED FREE ENERGY PREDICTED BY IDOCK:   -2.62 KCAL/MOL
REMARK 922        TOTAL FREE ENERGY PREDICTED BY IDOCK:   -5.12 KCAL/MOL
REMARK 923 INTER-LIGAND FREE ENERGY PREDICTED BY IDOCK:   -6.34 KCAL/MOL
REMARK 924 INTRA-LIGAND FREE ENERGY PREDICTED BY IDOCK:    1.23 KCAL/MOL
REMARK 927      BINDING AFFINITY PREDICTED BY RF-SCORE:    0.00 PKD
ROOT
HETATM    1  C   UNL     1      -6.079  19.673  69.270  1.00  0.00    -0.318 C  
HETATM    2  C   UNL     1      -7.489  19.347  68.780  1.00  0.00    -0.358 C  
ENDROOT
BRANCH   2   3
HETATM    3  N   UNL     1      -7.560  18.244  67.803  1.00  0.00    -0.224 NA 
BRANCH   3   4
HETATM    4  C   UNL     1      -7.151  16.940  68.348  1.00  0.00    -0.187 C  
HETATM    5  C   UNL     1      -6.788  15.866  67.330  1.00  0.00    -0.228 C  
ENDBRANCH   3   4
BRANCH   3   6
HETATM    6  C   UNL     1      -8.896  18.232  67.165  1.00  0.00    -0.260 C  
BRANCH   6   7
HETATM    7  C   UNL     1     -10.084  18.279  68.138  1.00  0.00    -0.379 C  
BRANCH   7   8
HETATM    8  O   UNL     1     -10.882  17.095  67.999  1.00  0.00    -0.378 OA 
BRANCH   8   9
HETATM    9  C   UNL     1     -10.446  16.328  66.874  1.00  0.00    -0.302 C  
BRANCH   9  10
HETATM   10  C   UNL     1     -10.654  14.838  67.131  1.00  0.00    -0.285 C  
BRANCH  10  11
HETATM   11  O   UNL     1     -11.558  14.261  66.169  1.00  0.00    -0.349 OA 
BRANCH  11  12
HETATM   12  C   UNL     1     -11.730  12.910  66.266  1.00  0.00    -0.399 C  
HETATM   13  O   UNL     1     -12.294  12.235  65.409  1.00  0.00    -0.582 OA 
BRANCH  12  14
HETATM   14  C   UNL     1     -11.204  12.341  67.598  1.00  0.00    -0.346 C  
HETATM   15  C   UNL     1     -11.982  11.080  68.065  1.00  0.00     0.007 C  
HETATM   16  C   UNL     1     -11.612  13.367  68.690  1.00  0.00    -0.362 C  
HETATM   17  C   UNL     1     -11.684  12.574  69.981  1.00  0.00    -0.297 C  
HETATM   18  C   UNL     1     -12.282  11.244  69.561  1.00  0.00    -0.325 C  
BRANCH  14  19
HETATM   19  C   UNL     1      -9.696  12.047  67.476  1.00  0.00    -0.188 A  
HETATM   20  C   UNL     1      -7.742  11.191  66.286  1.00  0.00    -0.097 A  
HETATM   21  C   UNL     1      -6.923  11.485  67.372  1.00  0.00    -0.111 A  
HETATM   22  C   UNL     1      -9.112  11.466  66.340  1.00  0.00    -0.201 A  
HETATM   23  C   UNL     1      -7.473  12.065  68.507  1.00  0.00    -0.117 A  
HETATM   24  C   UNL     1      -8.841  12.351  68.555  1.00  0.00    -0.056 A  
ENDBRANCH  14  19
ENDBRANCH  12  14
ENDBRANCH  11  12
ENDBRANCH  10  11
ENDBRANCH   9  10
ENDBRANCH   8   9
ENDBRANCH   7   8
ENDBRANCH   6   7
ENDBRANCH   3   6
ENDBRANCH   2   3
TORSDOF 11
ENDMDL
MODEL      388
REMARK 921   NORMALIZED FREE ENERGY PREDICTED BY IDOCK:   -2.57 KCAL/MOL
REMARK 922        TOTAL FREE ENERGY PREDICTED BY IDOCK:   -5.03 KCAL/MOL
REMARK 923 INTER-LIGAND FREE ENERGY PREDICTED BY IDOCK:   -4.63 KCAL/MOL
REMARK 924 INTRA-LIGAND FREE ENERGY PREDICTED BY IDOCK:   -0.41 KCAL/MOL
REMARK 927      BINDING AFFINITY PREDICTED BY RF-SCORE:    0.00 PKD
ROOT
HETATM    1  C   UNL     1     -11.910  14.042  68.619  1.00  0.00    -0.396 C  
HETATM    2  C   UNL     1     -10.665  14.894  68.381  1.00  0.00    -0.245 C  
ENDROOT
BRANCH   2   3
HETATM    3  N   UNL     1     -10.533  15.418  67.008  1.00  0.00    -0.288 NA 
BRANCH   3   4
HETATM    4  C   UNL     1      -9.182  15.274  66.445  1.00  0.00    -0.307 C  
HETATM    5  C   UNL     1      -8.178  14.494  67.286  1.00  0.00    -0.230 C  
ENDBRANCH   3   4
BRANCH   3   6
HETATM    6  C   UNL     1     -11.600  14.847  66.155  1.00  0.00    -0.228 C  
BRANCH   6   7
HETATM    7  C   UNL     1     -11.321  13.434  65.619  1.00  0.00    -0.298 C  
BRANCH   7   8
HETATM    8  O   UNL     1     -11.108  13.479  64.201  1.00  0.00    -0.367 OA 
BRANCH   8   9
HETATM    9  C   UNL     1      -9.955  12.713  63.844  1.00  0.00    -0.095 C  
BRANCH   9  10
HETATM   10  C   UNL     1     -10.356  11.289  63.470  1.00  0.00    -0.408 C  
BRANCH  10  11
HETATM   11  O   UNL     1      -9.300  10.353  63.760  1.00  0.00    -0.240 OA 
BRANCH  11  12
HETATM   12  C   UNL     1      -9.088  10.105  65.086  1.00  0.00    -0.201 C  
HETATM   13  O   UNL     1      -9.843  10.483  65.976  1.00  0.00    -0.201 OA 
BRANCH  12  14
HETATM   14  C   UNL     1      -7.761   9.364  65.343  1.00  0.00    -0.103 C  
HETATM   15  C   UNL     1      -6.752  10.203  66.174  1.00  0.00    -0.106 C  
HETATM   16  C   UNL     1      -7.037   9.298  63.971  1.00  0.00    -0.098 C  
HETATM   17  C   UNL     1      -5.562   9.175  64.300  1.00  0.00    -0.068 C  
HETATM   18  C   UNL     1      -5.378  10.080  65.503  1.00  0.00    -0.058 C  
BRANCH  14  19
HETATM   19  C   UNL     1      -8.047   8.011  66.022  1.00  0.00    -0.110 A  
HETATM   20  C   UNL     1      -8.694   6.638  67.937  1.00  0.00    -0.116 A  
HETATM   21  C   UNL     1      -8.485   5.474  67.204  1.00  0.00    -0.110 A  
HETATM   22  C   UNL     1      -8.474   7.890  67.354  1.00  0.00    -0.122 A  
HETATM   23  C   UNL     1      -8.067   5.563  65.883  1.00  0.00    -0.110 A  
HETATM   24  C   UNL     1      -7.859   6.817  65.296  1.00  0.00    -0.121 A  
ENDBRANCH  14  19
ENDBRANCH  12  14
ENDBRANCH  11  12
ENDBRANCH  10  11
ENDBRANCH   9  10
ENDBRANCH   8   9
ENDBRANCH   7   8
ENDBRANCH   6   7
ENDBRANCH   3   6
ENDBRANCH   2   3
TORSDOF 11
ENDMDL
MODEL      389
REMARK 921   NORMALIZED FREE ENERGY PREDICTED BY IDOCK:   -2.56 KCAL/MOL
REMARK 922        TOTAL FREE ENERGY PREDICTED BY IDOCK:   -5.02 KCAL/MOL
REMARK 923 INTER-LIGAND FREE ENERGY PREDICTED BY IDOCK:   -3.74 KCAL/MOL
REMARK 924 INTRA-LIGAND FREE ENERGY PREDICTED BY IDOCK:   -1.28 KCAL/MOL
REMARK 927      BINDING AFFINITY PREDICTED BY RF-SCORE:    0.00 PKD
ROOT
HETATM    1  C   UNL     1     -11.546   6.463  69.937  1.00  0.00    -0.422 C  
HETATM    2  C   UNL     1     -11.246   7.960  69.936  1.00  0.00    -0.046 C  
ENDROOT
BRANCH   2   3
HETATM    3  N   UNL     1     -10.986   8.535  71.270  1.00  0.00    -0.243 NA 
BRANCH   3   4
HETATM    4  C   UNL     1     -12.172   8.586  72.137  1.00  0.00    -0.382 C  
HETATM    5  C   UNL     1     -13.025   9.846  72.042  1.00  0.00    -0.518 C  
ENDBRANCH   3   4
BRANCH   3   6
HETATM    6  C   UNL     1      -9.824   7.853  71.885  1.00  0.00    -0.178 C  
BRANCH   6   7
HETATM    7  C   UNL     1      -8.466   8.531  71.645  1.00  0.00    -0.178 C  
BRANCH   7   8
HETATM    8  O   UNL     1      -7.745   7.837  70.617  1.00  0.00    -0.087 OA 
BRANCH   8   9
HETATM    9  C   UNL     1      -7.938   6.426  70.736  1.00  0.00    -0.111 C  
BRANCH   9  10
HETATM   10  C   UNL     1      -6.664   5.679  70.348  1.00  0.00    -0.048 C  
BRANCH  10  11
HETATM   11  O   UNL     1      -6.662   5.337  68.949  1.00  0.00    -0.049 OA 
BRANCH  11  12
HETATM   12  C   UNL     1      -7.545   4.364  68.583  1.00  0.00    -0.063 C  
HETATM   13  O   UNL     1      -7.669   3.300  69.183  1.00  0.00    -0.051 OA 
BRANCH  12  14
HETATM   14  C   UNL     1      -8.315   4.718  67.296  1.00  0.00    -0.105 C  
HETATM   15  C   UNL     1      -7.995   6.146  66.775  1.00  0.00    -0.105 C  
HETATM   16  C   UNL     1      -9.800   4.878  67.717  1.00  0.00    -0.196 C  
HETATM   17  C   UNL     1     -10.416   5.800  66.682  1.00  0.00    -0.330 C  
HETATM   18  C   UNL     1      -9.324   6.815  66.401  1.00  0.00    -0.175 C  
BRANCH  14  19
HETATM   19  C   UNL     1      -8.030   3.658  66.214  1.00  0.00    -0.089 A  
HETATM   20  C   UNL     1      -8.601   1.659  64.931  1.00  0.00    -0.098 A  
HETATM   21  C   UNL     1      -7.389   1.718  64.252  1.00  0.00    -0.057 A  
HETATM   22  C   UNL     1      -8.916   2.614  65.903  1.00  0.00    -0.131 A  
HETATM   23  C   UNL     1      -6.495   2.742  64.536  1.00  0.00    -0.027 A  
HETATM   24  C   UNL     1      -6.816   3.706  65.499  1.00  0.00    -0.053 A  
ENDBRANCH  14  19
ENDBRANCH  12  14
ENDBRANCH  11  12
ENDBRANCH  10  11
ENDBRANCH   9  10
ENDBRANCH   8   9
ENDBRANCH   7   8
ENDBRANCH   6   7
ENDBRANCH   3   6
ENDBRANCH   2   3
TORSDOF 11
ENDMDL
MODEL      390
REMARK 921   NORMALIZED FREE ENERGY PREDICTED BY IDOCK:   -2.53 KCAL/MOL
REMARK 922        TOTAL FREE ENERGY PREDICTED BY IDOCK:   -4.97 KCAL/MOL
REMARK 923 INTER-LIGAND FREE ENERGY PREDICTED BY IDOCK:   -4.54 KCAL/MOL
REMARK 924 INTRA-LIGAND FREE ENERGY PREDICTED BY IDOCK:   -0.43 KCAL/MOL
REMARK 927      BINDING AFFINITY PREDICTED BY RF-SCORE:    0.00 PKD
ROOT
HETATM    1  C   UNL     1     -10.266  20.075  65.676  1.00  0.00    -0.360 C  
HETATM    2  C   UNL     1     -10.829  19.221  66.809  1.00  0.00    -0.355 C  
ENDROOT
BRANCH   2   3
HETATM    3  N   UNL     1      -9.937  18.137  67.263  1.00  0.00    -0.317 NA 
BRANCH   3   4
HETATM    4  C   UNL     1      -9.521  17.222  66.190  1.00  0.00    -0.179 C  
HETATM    5  C   UNL     1     -10.608  16.331  65.601  1.00  0.00    -0.360 C  
ENDBRANCH   3   4
BRANCH   3   6
HETATM    6  C   UNL     1      -8.808  18.712  68.030  1.00  0.00    -0.306 C  
BRANCH   6   7
HETATM    7  C   UNL     1      -7.550  19.022  67.204  1.00  0.00    -0.229 C  
BRANCH   7   8
HETATM    8  O   UNL     1      -6.478  19.421  68.071  1.00  0.00    -0.219 OA 
BRANCH   8   9
HETATM    9  C   UNL     1      -5.258  18.787  67.683  1.00  0.00    -0.168 C  
BRANCH   9  10
HETATM   10  C   UNL     1      -5.510  17.329  67.308  1.00  0.00    -0.135 C  
BRANCH  10  11
HETATM   11  O   UNL     1      -5.212  16.446  68.406  1.00  0.00    -0.098 OA 
BRANCH  11  12
HETATM   12  C   UNL     1      -6.291  16.030  69.131  1.00  0.00    -0.151 C  
HETATM   13  O   UNL     1      -6.896  16.749  69.920  1.00  0.00    -0.021 OA 
BRANCH  12  14
HETATM   14  C   UNL     1      -6.618  14.541  68.902  1.00  0.00    -0.095 C  
HETATM   15  C   UNL     1      -6.061  13.622  70.023  1.00  0.00    -0.137 C  
HETATM   16  C   UNL     1      -5.753  14.096  67.692  1.00  0.00     0.012 C  
HETATM   17  C   UNL     1      -5.574  12.599  67.854  1.00  0.00    -0.104 C  
HETATM   18  C   UNL     1      -5.404  12.411  69.349  1.00  0.00    -0.072 C  
BRANCH  14  19
HETATM   19  C   UNL     1      -8.141  14.364  68.746  1.00  0.00    -0.127 A  
HETATM   20  C   UNL     1     -10.457  14.975  69.227  1.00  0.00    -0.252 A  
HETATM   21  C   UNL     1     -10.923  13.918  68.452  1.00  0.00    -0.272 A  
HETATM   22  C   UNL     1      -9.084  15.193  69.375  1.00  0.00    -0.180 A  
HETATM   23  C   UNL     1     -10.013  13.084  67.815  1.00  0.00    -0.227 A  
HETATM   24  C   UNL     1      -8.639  13.310  67.953  1.00  0.00    -0.188 A  
ENDBRANCH  14  19
ENDBRANCH  12  14
ENDBRANCH  11  12
ENDBRANCH  10  11
ENDBRANCH   9  10
ENDBRANCH   8   9
ENDBRANCH   7   8
ENDBRANCH   6   7
ENDBRANCH   3   6
ENDBRANCH   2   3
TORSDOF 11
ENDMDL
MODEL      391
REMARK 921   NORMALIZED FREE ENERGY PREDICTED BY IDOCK:   -2.52 KCAL/MOL
REMARK 922        TOTAL FREE ENERGY PREDICTED BY IDOCK:   -4.96 KCAL/MOL
REMARK 923 INTER-LIGAND FREE ENERGY PREDICTED BY IDOCK:   -5.24 KCAL/MOL
REMARK 924 INTRA-LIGAND FREE ENERGY PREDICTED BY IDOCK:    0.28 KCAL/MOL
REMARK 927      BINDING AFFINITY PREDICTED BY RF-SCORE:    0.00 PKD
ROOT
HETATM    1  C   UNL     1     -13.509  13.972  71.637  1.00  0.00    -0.438 C  
HETATM    2  C   UNL     1     -12.640  13.503  70.472  1.00  0.00    -0.241 C  
ENDROOT
BRANCH   2   3
HETATM    3  N   UNL     1     -12.192  14.580  69.568  1.00  0.00    -0.295 NA 
BRANCH   3   4
HETATM    4  C   UNL     1     -11.199  15.484  70.167  1.00  0.00    -0.318 C  
HETATM    5  C   UNL     1     -11.681  16.341  71.332  1.00  0.00    -0.427 C  
ENDBRANCH   3   4
BRANCH   3   6
HETATM    6  C   UNL     1     -11.766  13.997  68.275  1.00  0.00    -0.357 C  
BRANCH   6   7
HETATM    7  C   UNL     1     -10.740  12.858  68.380  1.00  0.00    -0.255 C  
BRANCH   7   8
HETATM    8  O   UNL     1     -11.317  11.631  67.912  1.00  0.00    -0.254 OA 
BRANCH   8   9
HETATM    9  C   UNL     1     -10.994  10.557  68.798  1.00  0.00    -0.251 C  
BRANCH   9  10
HETATM   10  C   UNL     1      -9.492  10.526  69.074  1.00  0.00    -0.201 C  
BRANCH  10  11
HETATM   11  O   UNL     1      -9.192   9.760  70.256  1.00  0.00    -0.246 OA 
BRANCH  11  12
HETATM   12  C   UNL     1     -10.259   9.140  70.839  1.00  0.00    -0.282 C  
HETATM   13  O   UNL     1     -11.018   9.695  71.628  1.00  0.00    -0.322 OA 
BRANCH  12  14
HETATM   14  C   UNL     1     -10.362   7.652  70.452  1.00  0.00    -0.214 C  
HETATM   15  C   UNL     1      -9.395   7.259  69.302  1.00  0.00    -0.154 C  
HETATM   16  C   UNL     1     -11.740   7.487  69.755  1.00  0.00     0.298 C  
HETATM   17  C   UNL     1     -11.591   6.279  68.850  1.00  0.00     0.136 C  
HETATM   18  C   UNL     1     -10.183   6.403  68.302  1.00  0.00    -0.197 C  
BRANCH  14  19
HETATM   19  C   UNL     1     -10.126   6.776  71.697  1.00  0.00    -0.197 A  
HETATM   20  C   UNL     1      -8.685   5.580  73.267  1.00  0.00    -0.115 A  
HETATM   21  C   UNL     1      -9.793   5.106  73.961  1.00  0.00    -0.182 A  
HETATM   22  C   UNL     1      -8.849   6.401  72.147  1.00  0.00    -0.136 A  
HETATM   23  C   UNL     1     -11.068   5.465  73.542  1.00  0.00    -0.273 A  
HETATM   24  C   UNL     1     -11.232   6.297  72.429  1.00  0.00    -0.320 A  
ENDBRANCH  14  19
ENDBRANCH  12  14
ENDBRANCH  11  12
ENDBRANCH  10  11
ENDBRANCH   9  10
ENDBRANCH   8   9
ENDBRANCH   7   8
ENDBRANCH   6   7
ENDBRANCH   3   6
ENDBRANCH   2   3
TORSDOF 11
ENDMDL
MODEL      392
REMARK 921   NORMALIZED FREE ENERGY PREDICTED BY IDOCK:   -2.49 KCAL/MOL
REMARK 922        TOTAL FREE ENERGY PREDICTED BY IDOCK:   -4.90 KCAL/MOL
REMARK 923 INTER-LIGAND FREE ENERGY PREDICTED BY IDOCK:   -3.50 KCAL/MOL
REMARK 924 INTRA-LIGAND FREE ENERGY PREDICTED BY IDOCK:   -1.40 KCAL/MOL
REMARK 927      BINDING AFFINITY PREDICTED BY RF-SCORE:    0.00 PKD
ROOT
HETATM    1  C   UNL     1     -11.721   6.553  70.731  1.00  0.00    -0.427 C  
HETATM    2  C   UNL     1     -11.321   7.807  69.957  1.00  0.00    -0.048 C  
ENDROOT
BRANCH   2   3
HETATM    3  N   UNL     1     -11.085   8.997  70.795  1.00  0.00    -0.257 NA 
BRANCH   3   4
HETATM    4  C   UNL     1     -12.161   9.998  70.721  1.00  0.00    -0.327 C  
HETATM    5  C   UNL     1     -13.036  10.143  71.960  1.00  0.00    -0.538 C  
ENDBRANCH   3   4
BRANCH   3   6
HETATM    6  C   UNL     1     -10.757   8.574  72.176  1.00  0.00    -0.356 C  
BRANCH   6   7
HETATM    7  C   UNL     1      -9.261   8.601  72.528  1.00  0.00    -0.133 C  
BRANCH   7   8
HETATM    8  O   UNL     1      -8.481   8.200  71.392  1.00  0.00    -0.109 OA 
BRANCH   8   9
HETATM    9  C   UNL     1      -7.300   8.998  71.290  1.00  0.00    -0.069 C  
BRANCH   9  10
HETATM   10  C   UNL     1      -6.912   9.191  69.826  1.00  0.00    -0.056 C  
BRANCH  10  11
HETATM   11  O   UNL     1      -6.443   7.961  69.241  1.00  0.00    -0.035 OA 
BRANCH  11  12
HETATM   12  C   UNL     1      -7.371   7.265  68.521  1.00  0.00    -0.100 C  
HETATM   13  O   UNL     1      -8.362   7.782  68.013  1.00  0.00    -0.122 OA 
BRANCH  12  14
HETATM   14  C   UNL     1      -7.074   5.754  68.479  1.00  0.00    -0.077 C  
HETATM   15  C   UNL     1      -5.576   5.426  68.729  1.00  0.00    -0.011 C  
HETATM   16  C   UNL     1      -7.230   5.329  66.995  1.00  0.00    -0.078 C  
HETATM   17  C   UNL     1      -6.367   4.092  66.836  1.00  0.00    -0.040 C  
HETATM   18  C   UNL     1      -5.146   4.387  67.686  1.00  0.00    -0.007 C  
BRANCH  14  19
HETATM   19  C   UNL     1      -7.976   5.021  69.491  1.00  0.00    -0.075 A  
HETATM   20  C   UNL     1      -9.870   3.589  70.070  1.00  0.00     0.003 A  
HETATM   21  C   UNL     1      -9.619   3.766  71.427  1.00  0.00    -0.236 A  
HETATM   22  C   UNL     1      -9.060   4.212  69.114  1.00  0.00    -0.191 A  
HETATM   23  C   UNL     1      -8.551   4.556  71.828  1.00  0.00    -0.125 A  
HETATM   24  C   UNL     1      -7.734   5.169  70.872  1.00  0.00    -0.088 A  
ENDBRANCH  14  19
ENDBRANCH  12  14
ENDBRANCH  11  12
ENDBRANCH  10  11
ENDBRANCH   9  10
ENDBRANCH   8   9
ENDBRANCH   7   8
ENDBRANCH   6   7
ENDBRANCH   3   6
ENDBRANCH   2   3
TORSDOF 11
ENDMDL
MODEL      393
REMARK 921   NORMALIZED FREE ENERGY PREDICTED BY IDOCK:   -2.48 KCAL/MOL
REMARK 922        TOTAL FREE ENERGY PREDICTED BY IDOCK:   -4.90 KCAL/MOL
REMARK 923 INTER-LIGAND FREE ENERGY PREDICTED BY IDOCK:   -3.89 KCAL/MOL
REMARK 924 INTRA-LIGAND FREE ENERGY PREDICTED BY IDOCK:   -1.01 KCAL/MOL
REMARK 927      BINDING AFFINITY PREDICTED BY RF-SCORE:    0.00 PKD
ROOT
HETATM    1  C   UNL     1     -12.769  12.445  64.719  1.00  0.00    -0.324 C  
HETATM    2  C   UNL     1     -11.672  12.238  65.760  1.00  0.00    -0.385 C  
ENDROOT
BRANCH   2   3
HETATM    3  N   UNL     1     -10.564  13.209  65.687  1.00  0.00    -0.273 NA 
BRANCH   3   4
HETATM    4  C   UNL     1     -10.976  14.600  65.931  1.00  0.00    -0.332 C  
HETATM    5  C   UNL     1     -10.815  15.568  64.765  1.00  0.00    -0.385 C  
ENDBRANCH   3   4
BRANCH   3   6
HETATM    6  C   UNL     1      -9.449  12.756  66.550  1.00  0.00    -0.253 C  
BRANCH   6   7
HETATM    7  C   UNL     1      -9.788  11.595  67.497  1.00  0.00    -0.188 C  
BRANCH   7   8
HETATM    8  O   UNL     1      -8.582  11.007  68.007  1.00  0.00    -0.126 OA 
BRANCH   8   9
HETATM    9  C   UNL     1      -8.565   9.601  67.753  1.00  0.00    -0.125 C  
BRANCH   9  10
HETATM   10  C   UNL     1      -9.646   8.897  68.570  1.00  0.00    -0.157 C  
BRANCH  10  11
HETATM   11  O   UNL     1      -9.071   8.063  69.593  1.00  0.00    -0.151 OA 
BRANCH  11  12
HETATM   12  C   UNL     1      -9.263   6.721  69.430  1.00  0.00    -0.143 C  
HETATM   13  O   UNL     1     -10.352   6.218  69.171  1.00  0.00    -0.181 OA 
BRANCH  12  14
HETATM   14  C   UNL     1      -7.978   5.907  69.677  1.00  0.00    -0.101 C  
HETATM   15  C   UNL     1      -6.705   6.794  69.749  1.00  0.00    -0.050 C  
HETATM   16  C   UNL     1      -7.718   5.114  68.368  1.00  0.00    -0.080 C  
HETATM   17  C   UNL     1      -6.225   4.844  68.351  1.00  0.00    -0.032 C  
HETATM   18  C   UNL     1      -5.617   6.117  68.906  1.00  0.00    -0.011 C  
BRANCH  14  19
HETATM   19  C   UNL     1      -8.138   5.064  70.958  1.00  0.00    -0.101 A  
HETATM   20  C   UNL     1      -8.612   2.977  72.136  1.00  0.00    -0.092 A  
HETATM   21  C   UNL     1      -8.476   3.613  73.366  1.00  0.00    -0.083 A  
HETATM   22  C   UNL     1      -8.449   3.695  70.947  1.00  0.00    -0.101 A  
HETATM   23  C   UNL     1      -8.164   4.966  73.407  1.00  0.00    -0.107 A  
HETATM   24  C   UNL     1      -7.988   5.680  72.217  1.00  0.00    -0.107 A  
ENDBRANCH  14  19
ENDBRANCH  12  14
ENDBRANCH  11  12
ENDBRANCH  10  11
ENDBRANCH   9  10
ENDBRANCH   8   9
ENDBRANCH   7   8
ENDBRANCH   6   7
ENDBRANCH   3   6
ENDBRANCH   2   3
TORSDOF 11
ENDMDL
MODEL      394
REMARK 921   NORMALIZED FREE ENERGY PREDICTED BY IDOCK:   -2.43 KCAL/MOL
REMARK 922        TOTAL FREE ENERGY PREDICTED BY IDOCK:   -4.80 KCAL/MOL
REMARK 923 INTER-LIGAND FREE ENERGY PREDICTED BY IDOCK:   -3.29 KCAL/MOL
REMARK 924 INTRA-LIGAND FREE ENERGY PREDICTED BY IDOCK:   -1.51 KCAL/MOL
REMARK 927      BINDING AFFINITY PREDICTED BY RF-SCORE:    0.00 PKD
ROOT
HETATM    1  C   UNL     1      -8.309   8.578  66.763  1.00  0.00    -0.109 C  
HETATM    2  C   UNL     1      -9.437   8.921  67.734  1.00  0.00    -0.141 C  
ENDROOT
BRANCH   2   3
HETATM    3  N   UNL     1      -9.018   9.710  68.908  1.00  0.00    -0.139 NA 
BRANCH   3   4
HETATM    4  C   UNL     1      -8.090  10.805  68.588  1.00  0.00    -0.136 C  
HETATM    5  C   UNL     1      -8.647  11.934  67.729  1.00  0.00    -0.154 C  
ENDBRANCH   3   4
BRANCH   3   6
HETATM    6  C   UNL     1     -10.214  10.142  69.668  1.00  0.00    -0.242 C  
BRANCH   6   7
HETATM    7  C   UNL     1     -11.144   9.006  70.122  1.00  0.00    -0.207 C  
BRANCH   7   8
HETATM    8  O   UNL     1     -10.398   8.024  70.856  1.00  0.00    -0.199 OA 
BRANCH   8   9
HETATM    9  C   UNL     1     -10.675   8.129  72.255  1.00  0.00    -0.313 C  
BRANCH   9  10
HETATM   10  C   UNL     1     -10.546   6.765  72.928  1.00  0.00    -0.250 C  
BRANCH  10  11
HETATM   11  O   UNL     1      -9.180   6.308  72.930  1.00  0.00    -0.135 OA 
BRANCH  11  12
HETATM   12  C   UNL     1      -8.966   5.103  72.324  1.00  0.00    -0.128 C  
HETATM   13  O   UNL     1      -9.587   4.083  72.605  1.00  0.00    -0.127 OA 
BRANCH  12  14
HETATM   14  C   UNL     1      -7.812   5.153  71.304  1.00  0.00    -0.106 C  
HETATM   15  C   UNL     1      -6.598   4.280  71.723  1.00  0.00    -0.026 C  
HETATM   16  C   UNL     1      -7.208   6.579  71.413  1.00  0.00    -0.079 C  
HETATM   17  C   UNL     1      -5.774   6.446  70.938  1.00  0.00    -0.026 C  
HETATM   18  C   UNL     1      -5.327   5.108  71.493  1.00  0.00    -0.005 C  
BRANCH  14  19
HETATM   19  C   UNL     1      -8.334   4.745  69.912  1.00  0.00    -0.072 A  
HETATM   20  C   UNL     1      -9.701   5.096  67.918  1.00  0.00    -0.184 A  
HETATM   21  C   UNL     1      -9.287   3.878  67.390  1.00  0.00    -0.225 A  
HETATM   22  C   UNL     1      -9.234   5.522  69.165  1.00  0.00    -0.142 A  
HETATM   23  C   UNL     1      -8.394   3.090  68.104  1.00  0.00    -0.094 A  
HETATM   24  C   UNL     1      -7.916   3.523  69.346  1.00  0.00    -0.057 A  
ENDBRANCH  14  19
ENDBRANCH  12  14
ENDBRANCH  11  12
ENDBRANCH  10  11
ENDBRANCH   9  10
ENDBRANCH   8   9
ENDBRANCH   7   8
ENDBRANCH   6   7
ENDBRANCH   3   6
ENDBRANCH   2   3
TORSDOF 11
ENDMDL
MODEL      395
REMARK 921   NORMALIZED FREE ENERGY PREDICTED BY IDOCK:   -2.42 KCAL/MOL
REMARK 922        TOTAL FREE ENERGY PREDICTED BY IDOCK:   -4.80 KCAL/MOL
REMARK 923 INTER-LIGAND FREE ENERGY PREDICTED BY IDOCK:   -3.85 KCAL/MOL
REMARK 924 INTRA-LIGAND FREE ENERGY PREDICTED BY IDOCK:   -0.95 KCAL/MOL
REMARK 927      BINDING AFFINITY PREDICTED BY RF-SCORE:    0.00 PKD
ROOT
HETATM    1  C   UNL     1     -11.156   7.256  72.902  1.00  0.00    -0.369 C  
HETATM    2  C   UNL     1     -10.718   6.600  71.594  1.00  0.00    -0.229 C  
ENDROOT
BRANCH   2   3
HETATM    3  N   UNL     1      -9.597   5.651  71.730  1.00  0.00    -0.155 NA 
BRANCH   3   4
HETATM    4  C   UNL     1      -9.743   4.437  70.911  1.00  0.00    -0.197 C  
HETATM    5  C   UNL     1     -10.020   3.142  71.665  1.00  0.00    -0.164 C  
ENDBRANCH   3   4
BRANCH   3   6
HETATM    6  C   UNL     1      -8.316   6.364  71.518  1.00  0.00    -0.125 C  
BRANCH   6   7
HETATM    7  C   UNL     1      -8.158   7.027  70.141  1.00  0.00    -0.130 C  
BRANCH   7   8
HETATM    8  O   UNL     1      -6.787   6.970  69.722  1.00  0.00    -0.048 OA 
BRANCH   8   9
HETATM    9  C   UNL     1      -6.701   6.638  68.334  1.00  0.00    -0.065 C  
BRANCH   9  10
HETATM   10  C   UNL     1      -8.078   6.266  67.789  1.00  0.00    -0.114 C  
BRANCH  10  11
HETATM   11  O   UNL     1      -8.605   7.305  66.942  1.00  0.00    -0.119 OA 
BRANCH  11  12
HETATM   12  C   UNL     1      -8.535   7.058  65.601  1.00  0.00    -0.138 C  
HETATM   13  O   UNL     1      -8.872   5.995  65.089  1.00  0.00    -0.079 OA 
BRANCH  12  14
HETATM   14  C   UNL     1      -7.920   8.232  64.815  1.00  0.00    -0.146 C  
HETATM   15  C   UNL     1      -8.010   8.042  63.276  1.00  0.00    -0.143 C  
HETATM   16  C   UNL     1      -6.387   8.140  65.040  1.00  0.00    -0.049 C  
HETATM   17  C   UNL     1      -5.762   8.826  63.841  1.00  0.00    -0.070 C  
HETATM   18  C   UNL     1      -6.646   8.412  62.680  1.00  0.00    -0.091 C  
BRANCH  14  19
HETATM   19  C   UNL     1      -8.589   9.552  65.249  1.00  0.00    -0.175 A  
HETATM   20  C   UNL     1     -10.359  11.231  65.124  1.00  0.00    -0.353 A  
HETATM   21  C   UNL     1      -9.706  12.024  66.062  1.00  0.00    -0.256 A  
HETATM   22  C   UNL     1      -9.804  10.013  64.719  1.00  0.00    -0.325 A  
HETATM   23  C   UNL     1      -8.504  11.591  66.607  1.00  0.00    -0.172 A  
HETATM   24  C   UNL     1      -7.957  10.366  66.212  1.00  0.00    -0.138 A  
ENDBRANCH  14  19
ENDBRANCH  12  14
ENDBRANCH  11  12
ENDBRANCH  10  11
ENDBRANCH   9  10
ENDBRANCH   8   9
ENDBRANCH   7   8
ENDBRANCH   6   7
ENDBRANCH   3   6
ENDBRANCH   2   3
TORSDOF 11
ENDMDL
MODEL      396
REMARK 921   NORMALIZED FREE ENERGY PREDICTED BY IDOCK:   -2.40 KCAL/MOL
REMARK 922        TOTAL FREE ENERGY PREDICTED BY IDOCK:   -4.77 KCAL/MOL
REMARK 923 INTER-LIGAND FREE ENERGY PREDICTED BY IDOCK:   -3.76 KCAL/MOL
REMARK 924 INTRA-LIGAND FREE ENERGY PREDICTED BY IDOCK:   -1.00 KCAL/MOL
REMARK 927      BINDING AFFINITY PREDICTED BY RF-SCORE:    0.00 PKD
ROOT
HETATM    1  C   UNL     1     -10.145  15.516  67.764  1.00  0.00    -0.232 C  
HETATM    2  C   UNL     1      -8.961  14.981  66.963  1.00  0.00    -0.234 C  
ENDROOT
BRANCH   2   3
HETATM    3  N   UNL     1      -7.648  15.160  67.611  1.00  0.00    -0.156 NA 
BRANCH   3   4
HETATM    4  C   UNL     1      -7.152  16.544  67.576  1.00  0.00    -0.143 C  
HETATM    5  C   UNL     1      -7.351  17.300  66.267  1.00  0.00    -0.342 C  
ENDBRANCH   3   4
BRANCH   3   6
HETATM    6  C   UNL     1      -7.682  14.572  68.970  1.00  0.00    -0.113 C  
BRANCH   6   7
HETATM    7  C   UNL     1      -6.645  13.468  69.230  1.00  0.00    -0.103 C  
BRANCH   7   8
HETATM    8  O   UNL     1      -6.861  12.370  68.332  1.00  0.00    -0.068 OA 
BRANCH   8   9
HETATM    9  C   UNL     1      -6.550  11.131  68.974  1.00  0.00    -0.075 C  
BRANCH   9  10
HETATM   10  C   UNL     1      -7.380   9.997  68.376  1.00  0.00    -0.077 C  
BRANCH  10  11
HETATM   11  O   UNL     1      -7.553   8.922  69.318  1.00  0.00    -0.079 OA 
BRANCH  11  12
HETATM   12  C   UNL     1      -8.804   8.808  69.852  1.00  0.00    -0.143 C  
HETATM   13  O   UNL     1      -9.368   9.715  70.458  1.00  0.00    -0.253 OA 
BRANCH  12  14
HETATM   14  C   UNL     1      -9.397   7.397  69.672  1.00  0.00    -0.149 C  
HETATM   15  C   UNL     1      -9.756   7.077  68.195  1.00  0.00    -0.139 C  
HETATM   16  C   UNL     1     -10.807   7.442  70.320  1.00  0.00    -0.260 C  
HETATM   17  C   UNL     1     -11.604   6.353  69.627  1.00  0.00    -0.351 C  
HETATM   18  C   UNL     1     -11.146   6.428  68.183  1.00  0.00    -0.358 C  
BRANCH  14  19
HETATM   19  C   UNL     1      -8.423   6.349  70.245  1.00  0.00    -0.135 A  
HETATM   20  C   UNL     1      -7.157   5.333  72.071  1.00  0.00    -0.084 A  
HETATM   21  C   UNL     1      -6.572   4.426  71.193  1.00  0.00    -0.030 A  
HETATM   22  C   UNL     1      -8.068   6.285  71.602  1.00  0.00    -0.106 A  
HETATM   23  C   UNL     1      -6.909   4.464  69.846  1.00  0.00    -0.041 A  
HETATM   24  C   UNL     1      -7.830   5.408  69.379  1.00  0.00    -0.089 A  
ENDBRANCH  14  19
ENDBRANCH  12  14
ENDBRANCH  11  12
ENDBRANCH  10  11
ENDBRANCH   9  10
ENDBRANCH   8   9
ENDBRANCH   7   8
ENDBRANCH   6   7
ENDBRANCH   3   6
ENDBRANCH   2   3
TORSDOF 11
ENDMDL
MODEL      397
REMARK 921   NORMALIZED FREE ENERGY PREDICTED BY IDOCK:   -2.37 KCAL/MOL
REMARK 922        TOTAL FREE ENERGY PREDICTED BY IDOCK:   -4.72 KCAL/MOL
REMARK 923 INTER-LIGAND FREE ENERGY PREDICTED BY IDOCK:   -3.28 KCAL/MOL
REMARK 924 INTRA-LIGAND FREE ENERGY PREDICTED BY IDOCK:   -1.43 KCAL/MOL
REMARK 927      BINDING AFFINITY PREDICTED BY RF-SCORE:    0.00 PKD
ROOT
HETATM    1  C   UNL     1     -11.833  12.068  66.634  1.00  0.00    -0.239 C  
HETATM    2  C   UNL     1     -11.385  10.608  66.632  1.00  0.00     0.340 C  
ENDROOT
BRANCH   2   3
HETATM    3  N   UNL     1     -10.624  10.201  65.436  1.00  0.00     0.010 NA 
BRANCH   3   4
HETATM    4  C   UNL     1     -10.372  11.299  64.490  1.00  0.00    -0.322 C  
HETATM    5  C   UNL     1      -9.480  10.973  63.298  1.00  0.00    -0.346 C  
ENDBRANCH   3   4
BRANCH   3   6
HETATM    6  C   UNL     1      -9.401   9.476  65.850  1.00  0.00    -0.226 C  
BRANCH   6   7
HETATM    7  C   UNL     1      -8.846   9.866  67.229  1.00  0.00    -0.132 C  
BRANCH   7   8
HETATM    8  O   UNL     1      -7.553  10.471  67.086  1.00  0.00    -0.094 OA 
BRANCH   8   9
HETATM    9  C   UNL     1      -7.391  11.534  68.028  1.00  0.00    -0.091 C  
BRANCH   9  10
HETATM   10  C   UNL     1      -7.530  12.887  67.335  1.00  0.00    -0.132 C  
BRANCH  10  11
HETATM   11  O   UNL     1      -8.889  13.360  67.375  1.00  0.00    -0.193 OA 
BRANCH  11  12
HETATM   12  C   UNL     1      -9.158  14.433  66.575  1.00  0.00    -0.205 C  
HETATM   13  O   UNL     1      -9.095  14.399  65.350  1.00  0.00     0.446 OA 
BRANCH  12  14
HETATM   14  C   UNL     1      -9.479  15.706  67.383  1.00  0.00    -0.217 C  
HETATM   15  C   UNL     1     -10.033  15.398  68.801  1.00  0.00    -0.208 C  
HETATM   16  C   UNL     1     -10.724  16.338  66.706  1.00  0.00    -0.204 C  
HETATM   17  C   UNL     1     -11.400  17.157  67.789  1.00  0.00     0.270 C  
HETATM   18  C   UNL     1     -11.242  16.311  69.038  1.00  0.00    -0.326 C  
BRANCH  14  19
HETATM   19  C   UNL     1      -8.225  16.599  67.461  1.00  0.00    -0.180 A  
HETATM   20  C   UNL     1      -6.443  17.735  68.688  1.00  0.00    -0.210 A  
HETATM   21  C   UNL     1      -5.965  18.305  67.512  1.00  0.00    -0.166 A  
HETATM   22  C   UNL     1      -7.562  16.896  68.662  1.00  0.00    -0.232 A  
HETATM   23  C   UNL     1      -6.598  18.026  66.309  1.00  0.00    -0.276 A  
HETATM   24  C   UNL     1      -7.710  17.176  66.282  1.00  0.00    -0.350 A  
ENDBRANCH  14  19
ENDBRANCH  12  14
ENDBRANCH  11  12
ENDBRANCH  10  11
ENDBRANCH   9  10
ENDBRANCH   8   9
ENDBRANCH   7   8
ENDBRANCH   6   7
ENDBRANCH   3   6
ENDBRANCH   2   3
TORSDOF 11
ENDMDL
MODEL      398
REMARK 921   NORMALIZED FREE ENERGY PREDICTED BY IDOCK:   -2.36 KCAL/MOL
REMARK 922        TOTAL FREE ENERGY PREDICTED BY IDOCK:   -4.70 KCAL/MOL
REMARK 923 INTER-LIGAND FREE ENERGY PREDICTED BY IDOCK:   -3.66 KCAL/MOL
REMARK 924 INTRA-LIGAND FREE ENERGY PREDICTED BY IDOCK:   -1.04 KCAL/MOL
REMARK 927      BINDING AFFINITY PREDICTED BY RF-SCORE:    0.00 PKD
ROOT
HETATM    1  C   UNL     1     -10.652   8.151  66.924  1.00  0.00    -0.311 C  
HETATM    2  C   UNL     1      -9.834   9.147  66.106  1.00  0.00    -0.293 C  
ENDROOT
BRANCH   2   3
HETATM    3  N   UNL     1      -8.834   8.533  65.212  1.00  0.00    -0.145 NA 
BRANCH   3   4
HETATM    4  C   UNL     1      -8.491   9.361  64.046  1.00  0.00    -0.195 C  
HETATM    5  C   UNL     1      -9.641  10.119  63.393  1.00  0.00    -0.236 C  
ENDBRANCH   3   4
BRANCH   3   6
HETATM    6  C   UNL     1      -7.660   8.101  66.004  1.00  0.00    -0.082 C  
BRANCH   6   7
HETATM    7  C   UNL     1      -7.007   9.202  66.856  1.00  0.00    -0.081 C  
BRANCH   7   8
HETATM    8  O   UNL     1      -5.585   9.011  66.900  1.00  0.00    -0.040 OA 
BRANCH   8   9
HETATM    9  C   UNL     1      -5.236   8.094  67.940  1.00  0.00    -0.033 C  
BRANCH   9  10
HETATM   10  C   UNL     1      -5.781   8.577  69.282  1.00  0.00    -0.035 C  
BRANCH  10  11
HETATM   11  O   UNL     1      -5.543   7.610  70.323  1.00  0.00    -0.023 OA 
BRANCH  11  12
HETATM   12  C   UNL     1      -6.134   7.886  71.522  1.00  0.00    -0.035 C  
HETATM   13  O   UNL     1      -5.873   8.880  72.194  1.00  0.00    -0.069 OA 
BRANCH  12  14
HETATM   14  C   UNL     1      -7.105   6.777  71.971  1.00  0.00    -0.075 C  
HETATM   15  C   UNL     1      -6.693   6.123  73.319  1.00  0.00    -0.075 C  
HETATM   16  C   UNL     1      -6.889   5.597  70.986  1.00  0.00    -0.057 C  
HETATM   17  C   UNL     1      -7.317   4.355  71.745  1.00  0.00    -0.068 C  
HETATM   18  C   UNL     1      -6.825   4.603  73.158  1.00  0.00    -0.071 C  
BRANCH  14  19
HETATM   19  C   UNL     1      -8.537   7.342  72.046  1.00  0.00    -0.120 A  
HETATM   20  C   UNL     1     -10.316   8.849  71.315  1.00  0.00    -0.355 A  
HETATM   21  C   UNL     1     -11.166   8.364  72.304  1.00  0.00    -0.446 A  
HETATM   22  C   UNL     1      -9.016   8.347  71.190  1.00  0.00    -0.207 A  
HETATM   23  C   UNL     1     -10.720   7.367  73.161  1.00  0.00    -0.436 A  
HETATM   24  C   UNL     1      -9.424   6.856  73.028  1.00  0.00    -0.168 A  
ENDBRANCH  14  19
ENDBRANCH  12  14
ENDBRANCH  11  12
ENDBRANCH  10  11
ENDBRANCH   9  10
ENDBRANCH   8   9
ENDBRANCH   7   8
ENDBRANCH   6   7
ENDBRANCH   3   6
ENDBRANCH   2   3
TORSDOF 11
ENDMDL
MODEL      399
REMARK 921   NORMALIZED FREE ENERGY PREDICTED BY IDOCK:   -2.35 KCAL/MOL
REMARK 922        TOTAL FREE ENERGY PREDICTED BY IDOCK:   -4.68 KCAL/MOL
REMARK 923 INTER-LIGAND FREE ENERGY PREDICTED BY IDOCK:   -3.73 KCAL/MOL
REMARK 924 INTRA-LIGAND FREE ENERGY PREDICTED BY IDOCK:   -0.95 KCAL/MOL
REMARK 927      BINDING AFFINITY PREDICTED BY RF-SCORE:    0.00 PKD
ROOT
HETATM    1  C   UNL     1     -11.360   9.054  71.004  1.00  0.00    -0.362 C  
HETATM    2  C   UNL     1      -9.914   9.007  70.518  1.00  0.00    -0.215 C  
ENDROOT
BRANCH   2   3
HETATM    3  N   UNL     1      -9.104   7.921  71.103  1.00  0.00    -0.141 NA 
BRANCH   3   4
HETATM    4  C   UNL     1      -9.517   6.575  70.677  1.00  0.00    -0.166 C  
HETATM    5  C   UNL     1     -10.397   5.798  71.648  1.00  0.00    -0.266 C  
ENDBRANCH   3   4
BRANCH   3   6
HETATM    6  C   UNL     1      -7.666   8.203  70.886  1.00  0.00    -0.085 C  
BRANCH   6   7
HETATM    7  C   UNL     1      -7.348   9.052  69.646  1.00  0.00    -0.064 C  
BRANCH   7   8
HETATM    8  O   UNL     1      -6.643  10.241  70.032  1.00  0.00    -0.093 OA 
BRANCH   8   9
HETATM    9  C   UNL     1      -6.742  11.236  69.010  1.00  0.00    -0.089 C  
BRANCH   9  10
HETATM   10  C   UNL     1      -5.555  11.140  68.055  1.00  0.00    -0.042 C  
BRANCH  10  11
HETATM   11  O   UNL     1      -5.988  10.889  66.704  1.00  0.00    -0.073 OA 
BRANCH  11  12
HETATM   12  C   UNL     1      -6.481   9.637  66.471  1.00  0.00    -0.070 C  
HETATM   13  O   UNL     1      -5.978   8.614  66.927  1.00  0.00    -0.054 OA 
BRANCH  12  14
HETATM   14  C   UNL     1      -7.691   9.648  65.517  1.00  0.00    -0.112 C  
HETATM   15  C   UNL     1      -7.990   8.251  64.906  1.00  0.00    -0.144 C  
HETATM   16  C   UNL     1      -7.235  10.434  64.259  1.00  0.00     0.013 C  
HETATM   17  C   UNL     1      -8.111   9.928  63.128  1.00  0.00    -0.151 C  
HETATM   18  C   UNL     1      -8.245   8.443  63.406  1.00  0.00    -0.114 C  
BRANCH  14  19
HETATM   19  C   UNL     1      -8.925  10.205  66.252  1.00  0.00    -0.168 A  
HETATM   20  C   UNL     1     -11.033   9.944  67.461  1.00  0.00    -0.239 A  
HETATM   21  C   UNL     1     -11.194  11.324  67.527  1.00  0.00    -0.357 A  
HETATM   22  C   UNL     1      -9.914   9.392  66.828  1.00  0.00    -0.305 A  
HETATM   23  C   UNL     1     -10.229  12.153  66.970  1.00  0.00    -0.225 A  
HETATM   24  C   UNL     1      -9.104  11.601  66.348  1.00  0.00    -0.209 A  
ENDBRANCH  14  19
ENDBRANCH  12  14
ENDBRANCH  11  12
ENDBRANCH  10  11
ENDBRANCH   9  10
ENDBRANCH   8   9
ENDBRANCH   7   8
ENDBRANCH   6   7
ENDBRANCH   3   6
ENDBRANCH   2   3
TORSDOF 11
ENDMDL
MODEL      400
REMARK 921   NORMALIZED FREE ENERGY PREDICTED BY IDOCK:   -2.30 KCAL/MOL
REMARK 922        TOTAL FREE ENERGY PREDICTED BY IDOCK:   -4.60 KCAL/MOL
REMARK 923 INTER-LIGAND FREE ENERGY PREDICTED BY IDOCK:   -3.99 KCAL/MOL
REMARK 924 INTRA-LIGAND FREE ENERGY PREDICTED BY IDOCK:   -0.62 KCAL/MOL
REMARK 927      BINDING AFFINITY PREDICTED BY RF-SCORE:    0.00 PKD
ROOT
HETATM    1  C   UNL     1     -10.163   7.528  68.890  1.00  0.00    -0.214 C  
HETATM    2  C   UNL     1      -9.798   8.991  68.650  1.00  0.00    -0.165 C  
ENDROOT
BRANCH   2   3
HETATM    3  N   UNL     1      -8.356   9.244  68.469  1.00  0.00    -0.118 NA 
BRANCH   3   4
HETATM    4  C   UNL     1      -7.516   8.692  69.543  1.00  0.00    -0.072 C  
HETATM    5  C   UNL     1      -6.617   9.683  70.273  1.00  0.00    -0.091 C  
ENDBRANCH   3   4
BRANCH   3   6
HETATM    6  C   UNL     1      -7.946   8.818  67.111  1.00  0.00    -0.096 C  
BRANCH   6   7
HETATM    7  C   UNL     1      -9.003   8.022  66.329  1.00  0.00    -0.171 C  
BRANCH   7   8
HETATM    8  O   UNL     1      -9.516   8.815  65.249  1.00  0.00    -0.067 OA 
BRANCH   8   9
HETATM    9  C   UNL     1      -8.634   9.903  64.964  1.00  0.00    -0.161 C  
BRANCH   9  10
HETATM   10  C   UNL     1      -9.424  11.197  64.783  1.00  0.00    -0.218 C  
BRANCH  10  11
HETATM   11  O   UNL     1     -10.021  11.625  66.021  1.00  0.00    -0.214 OA 
BRANCH  11  12
HETATM   12  C   UNL     1      -9.296  12.536  66.735  1.00  0.00    -0.230 C  
HETATM   13  O   UNL     1      -8.069  12.557  66.760  1.00  0.00    -0.089 OA 
BRANCH  12  14
HETATM   14  C   UNL     1     -10.188  13.485  67.559  1.00  0.00    -0.234 C  
HETATM   15  C   UNL     1     -10.238  13.110  69.065  1.00  0.00     0.086 C  
HETATM   16  C   UNL     1     -11.647  13.182  67.126  1.00  0.00    -0.410 C  
HETATM   17  C   UNL     1     -12.511  13.597  68.302  1.00  0.00     0.300 C  
HETATM   18  C   UNL     1     -11.703  13.179  69.515  1.00  0.00    -0.382 C  
BRANCH  14  19
HETATM   19  C   UNL     1      -9.714  14.939  67.366  1.00  0.00    -0.217 A  
HETATM   20  C   UNL     1      -9.674  17.067  66.166  1.00  0.00    -0.283 A  
HETATM   21  C   UNL     1      -8.735  17.578  67.055  1.00  0.00    -0.254 A  
HETATM   22  C   UNL     1     -10.155  15.762  66.317  1.00  0.00    -0.320 A  
HETATM   23  C   UNL     1      -8.284  16.788  68.104  1.00  0.00    -0.199 A  
HETATM   24  C   UNL     1      -8.774  15.487  68.263  1.00  0.00    -0.170 A  
ENDBRANCH  14  19
ENDBRANCH  12  14
ENDBRANCH  11  12
ENDBRANCH  10  11
ENDBRANCH   9  10
ENDBRANCH   8   9
ENDBRANCH   7   8
ENDBRANCH   6   7
ENDBRANCH   3   6
ENDBRANCH   2   3
TORSDOF 11
ENDMDL
MODEL      401
REMARK 921   NORMALIZED FREE ENERGY PREDICTED BY IDOCK:   -2.30 KCAL/MOL
REMARK 922        TOTAL FREE ENERGY PREDICTED BY IDOCK:   -4.60 KCAL/MOL
REMARK 923 INTER-LIGAND FREE ENERGY PREDICTED BY IDOCK:   -4.26 KCAL/MOL
REMARK 924 INTRA-LIGAND FREE ENERGY PREDICTED BY IDOCK:   -0.34 KCAL/MOL
REMARK 927      BINDING AFFINITY PREDICTED BY RF-SCORE:    0.00 PKD
ROOT
HETATM    1  C   UNL     1     -10.163   8.567  67.989  1.00  0.00    -0.264 C  
HETATM    2  C   UNL     1      -9.276   8.489  66.749  1.00  0.00    -0.172 C  
ENDROOT
BRANCH   2   3
HETATM    3  N   UNL     1      -8.789   7.135  66.426  1.00  0.00    -0.141 NA 
BRANCH   3   4
HETATM    4  C   UNL     1      -8.283   6.997  65.051  1.00  0.00    -0.090 C  
HETATM    5  C   UNL     1      -8.240   8.270  64.216  1.00  0.00    -0.116 C  
ENDBRANCH   3   4
BRANCH   3   6
HETATM    6  C   UNL     1      -7.829   6.693  67.463  1.00  0.00    -0.111 C  
BRANCH   6   7
HETATM    7  C   UNL     1      -6.778   7.739  67.868  1.00  0.00    -0.067 C  
BRANCH   7   8
HETATM    8  O   UNL     1      -5.578   7.086  68.307  1.00  0.00    -0.019 OA 
BRANCH   8   9
HETATM    9  C   UNL     1      -5.777   6.481  69.586  1.00  0.00    -0.014 C  
BRANCH   9  10
HETATM   10  C   UNL     1      -6.488   7.448  70.529  1.00  0.00    -0.039 C  
BRANCH  10  11
HETATM   11  O   UNL     1      -6.626   6.888  71.849  1.00  0.00    -0.052 OA 
BRANCH  11  12
HETATM   12  C   UNL     1      -7.535   7.510  72.656  1.00  0.00    -0.080 C  
HETATM   13  O   UNL     1      -7.297   8.543  73.274  1.00  0.00    -0.292 OA 
BRANCH  12  14
HETATM   14  C   UNL     1      -8.862   6.734  72.759  1.00  0.00    -0.132 C  
HETATM   15  C   UNL     1      -9.162   6.241  74.201  1.00  0.00    -0.164 C  
HETATM   16  C   UNL     1      -8.627   5.388  72.024  1.00  0.00    -0.131 C  
HETATM   17  C   UNL     1      -9.618   4.416  72.635  1.00  0.00    -0.179 C  
HETATM   18  C   UNL     1      -9.629   4.782  74.107  1.00  0.00    -0.138 C  
BRANCH  14  19
HETATM   19  C   UNL     1     -10.015   7.606  72.222  1.00  0.00    -0.242 A  
HETATM   20  C   UNL     1     -10.895   9.607  71.131  1.00  0.00    -0.404 A  
HETATM   21  C   UNL     1     -12.201   9.168  71.327  1.00  0.00    -0.395 A  
HETATM   22  C   UNL     1      -9.816   8.837  71.577  1.00  0.00    -0.371 A  
HETATM   23  C   UNL     1     -12.427   7.952  71.958  1.00  0.00    -0.338 A  
HETATM   24  C   UNL     1     -11.347   7.176  72.392  1.00  0.00    -0.312 A  
ENDBRANCH  14  19
ENDBRANCH  12  14
ENDBRANCH  11  12
ENDBRANCH  10  11
ENDBRANCH   9  10
ENDBRANCH   8   9
ENDBRANCH   7   8
ENDBRANCH   6   7
ENDBRANCH   3   6
ENDBRANCH   2   3
TORSDOF 11
ENDMDL
MODEL      402
REMARK 921   NORMALIZED FREE ENERGY PREDICTED BY IDOCK:   -2.30 KCAL/MOL
REMARK 922        TOTAL FREE ENERGY PREDICTED BY IDOCK:   -4.60 KCAL/MOL
REMARK 923 INTER-LIGAND FREE ENERGY PREDICTED BY IDOCK:   -3.54 KCAL/MOL
REMARK 924 INTRA-LIGAND FREE ENERGY PREDICTED BY IDOCK:   -1.06 KCAL/MOL
REMARK 927      BINDING AFFINITY PREDICTED BY RF-SCORE:    0.00 PKD
ROOT
HETATM    1  C   UNL     1     -10.699  10.490  66.495  1.00  0.00    -0.191 C  
HETATM    2  C   UNL     1     -10.940  10.956  67.929  1.00  0.00    -0.271 C  
ENDROOT
BRANCH   2   3
HETATM    3  N   UNL     1      -9.788  10.782  68.834  1.00  0.00    -0.194 NA 
BRANCH   3   4
HETATM    4  C   UNL     1     -10.112  10.068  70.078  1.00  0.00    -0.239 C  
HETATM    5  C   UNL     1     -11.559  10.154  70.549  1.00  0.00    -0.411 C  
ENDBRANCH   3   4
BRANCH   3   6
HETATM    6  C   UNL     1      -8.655  10.192  68.084  1.00  0.00    -0.118 C  
BRANCH   6   7
HETATM    7  C   UNL     1      -8.209   8.801  68.564  1.00  0.00    -0.117 C  
BRANCH   7   8
HETATM    8  O   UNL     1      -6.855   8.552  68.159  1.00  0.00    -0.067 OA 
BRANCH   8   9
HETATM    9  C   UNL     1      -6.027   8.319  69.301  1.00  0.00    -0.038 C  
BRANCH   9  10
HETATM   10  C   UNL     1      -5.964   6.827  69.618  1.00  0.00    -0.019 C  
BRANCH  10  11
HETATM   11  O   UNL     1      -6.597   6.044  68.588  1.00  0.00    -0.053 OA 
BRANCH  11  12
HETATM   12  C   UNL     1      -6.633   4.698  68.815  1.00  0.00    -0.045 C  
HETATM   13  O   UNL     1      -5.641   3.976  68.774  1.00  0.00    -0.015 OA 
BRANCH  12  14
HETATM   14  C   UNL     1      -8.063   4.179  69.057  1.00  0.00    -0.074 C  
HETATM   15  C   UNL     1      -8.853   5.039  70.082  1.00  0.00    -0.138 C  
HETATM   16  C   UNL     1      -7.907   2.848  69.840  1.00  0.00    -0.049 C  
HETATM   17  C   UNL     1      -9.206   2.674  70.604  1.00  0.00    -0.205 C  
HETATM   18  C   UNL     1      -9.559   4.080  71.050  1.00  0.00    -0.249 C  
BRANCH  14  19
HETATM   19  C   UNL     1      -8.816   4.089  67.715  1.00  0.00    -0.134 A  
HETATM   20  C   UNL     1      -9.178   3.148  65.490  1.00  0.00    -0.145 A  
HETATM   21  C   UNL     1     -10.216   4.044  65.253  1.00  0.00    -0.149 A  
HETATM   22  C   UNL     1      -8.485   3.173  66.704  1.00  0.00    -0.108 A  
HETATM   23  C   UNL     1     -10.568   4.958  66.238  1.00  0.00    -0.307 A  
HETATM   24  C   UNL     1      -9.882   4.975  67.457  1.00  0.00    -0.201 A  
ENDBRANCH  14  19
ENDBRANCH  12  14
ENDBRANCH  11  12
ENDBRANCH  10  11
ENDBRANCH   9  10
ENDBRANCH   8   9
ENDBRANCH   7   8
ENDBRANCH   6   7
ENDBRANCH   3   6
ENDBRANCH   2   3
TORSDOF 11
ENDMDL
MODEL      403
REMARK 921   NORMALIZED FREE ENERGY PREDICTED BY IDOCK:   -2.21 KCAL/MOL
REMARK 922        TOTAL FREE ENERGY PREDICTED BY IDOCK:   -4.46 KCAL/MOL
REMARK 923 INTER-LIGAND FREE ENERGY PREDICTED BY IDOCK:   -4.14 KCAL/MOL
REMARK 924 INTRA-LIGAND FREE ENERGY PREDICTED BY IDOCK:   -0.32 KCAL/MOL
REMARK 927      BINDING AFFINITY PREDICTED BY RF-SCORE:    0.00 PKD
ROOT
HETATM    1  C   UNL     1     -11.940  15.787  74.099  1.00  0.00    -0.376 C  
HETATM    2  C   UNL     1     -12.234  14.318  73.800  1.00  0.00     0.616 C  
ENDROOT
BRANCH   2   3
HETATM    3  N   UNL     1     -13.058  14.089  72.598  1.00  0.00    -0.468 NA 
BRANCH   3   4
HETATM    4  C   UNL     1     -14.095  15.110  72.385  1.00  0.00    -0.495 C  
HETATM    5  C   UNL     1     -14.308  15.568  70.947  1.00  0.00     0.207 C  
ENDBRANCH   3   4
BRANCH   3   6
HETATM    6  C   UNL     1     -12.177  13.878  71.426  1.00  0.00    -0.207 C  
BRANCH   6   7
HETATM    7  C   UNL     1     -12.096  12.428  70.923  1.00  0.00    -0.051 C  
BRANCH   7   8
HETATM    8  O   UNL     1     -13.306  11.727  71.246  1.00  0.00    -0.107 OA 
BRANCH   8   9
HETATM    9  C   UNL     1     -13.008  10.488  71.893  1.00  0.00    -0.447 C  
BRANCH   9  10
HETATM   10  C   UNL     1     -12.194   9.586  70.969  1.00  0.00    -0.304 C  
BRANCH  10  11
HETATM   11  O   UNL     1     -11.951   8.300  71.571  1.00  0.00    -0.278 OA 
BRANCH  11  12
HETATM   12  C   UNL     1     -11.153   7.458  70.851  1.00  0.00    -0.263 C  
HETATM   13  O   UNL     1     -11.582   6.664  70.020  1.00  0.00    -0.380 OA 
BRANCH  12  14
HETATM   14  C   UNL     1      -9.669   7.567  71.250  1.00  0.00    -0.173 C  
HETATM   15  C   UNL     1      -9.003   6.182  71.480  1.00  0.00    -0.143 C  
HETATM   16  C   UNL     1      -9.656   8.149  72.689  1.00  0.00    -0.352 C  
HETATM   17  C   UNL     1      -8.349   7.680  73.301  1.00  0.00    -0.193 C  
HETATM   18  C   UNL     1      -8.184   6.268  72.775  1.00  0.00    -0.112 C  
BRANCH  14  19
HETATM   19  C   UNL     1      -8.904   8.378  70.186  1.00  0.00    -0.141 A  
HETATM   20  C   UNL     1      -8.761   9.581  68.064  1.00  0.00    -0.120 A  
HETATM   21  C   UNL     1      -7.400   9.803  68.255  1.00  0.00    -0.079 A  
HETATM   22  C   UNL     1      -9.502   8.874  69.016  1.00  0.00    -0.156 A  
HETATM   23  C   UNL     1      -6.784   9.327  69.404  1.00  0.00    -0.048 A  
HETATM   24  C   UNL     1      -7.529   8.631  70.362  1.00  0.00    -0.069 A  
ENDBRANCH  14  19
ENDBRANCH  12  14
ENDBRANCH  11  12
ENDBRANCH  10  11
ENDBRANCH   9  10
ENDBRANCH   8   9
ENDBRANCH   7   8
ENDBRANCH   6   7
ENDBRANCH   3   6
ENDBRANCH   2   3
TORSDOF 11
ENDMDL
MODEL      404
REMARK 921   NORMALIZED FREE ENERGY PREDICTED BY IDOCK:   -2.18 KCAL/MOL
REMARK 922        TOTAL FREE ENERGY PREDICTED BY IDOCK:   -4.40 KCAL/MOL
REMARK 923 INTER-LIGAND FREE ENERGY PREDICTED BY IDOCK:   -3.13 KCAL/MOL
REMARK 924 INTRA-LIGAND FREE ENERGY PREDICTED BY IDOCK:   -1.27 KCAL/MOL
REMARK 927      BINDING AFFINITY PREDICTED BY RF-SCORE:    0.00 PKD
ROOT
HETATM    1  C   UNL     1      -8.255  15.927  66.808  1.00  0.00    -0.307 C  
HETATM    2  C   UNL     1      -8.390  14.837  67.870  1.00  0.00    -0.149 C  
ENDROOT
BRANCH   2   3
HETATM    3  N   UNL     1      -7.934  13.502  67.440  1.00  0.00    -0.168 NA 
BRANCH   3   4
HETATM    4  C   UNL     1      -6.825  12.965  68.244  1.00  0.00    -0.093 C  
HETATM    5  C   UNL     1      -5.449  12.975  67.589  1.00  0.00    -0.093 C  
ENDBRANCH   3   4
BRANCH   3   6
HETATM    6  C   UNL     1      -9.096  12.589  67.341  1.00  0.00    -0.185 C  
BRANCH   6   7
HETATM    7  C   UNL     1      -8.747  11.107  67.137  1.00  0.00    -0.141 C  
BRANCH   7   8
HETATM    8  O   UNL     1      -9.125  10.689  65.817  1.00  0.00    -0.172 OA 
BRANCH   8   9
HETATM    9  C   UNL     1      -9.056   9.266  65.704  1.00  0.00    -0.216 C  
BRANCH   9  10
HETATM   10  C   UNL     1      -7.722   8.843  65.094  1.00  0.00    -0.102 C  
BRANCH  10  11
HETATM   11  O   UNL     1      -6.955   8.042  66.014  1.00  0.00    -0.057 OA 
BRANCH  11  12
HETATM   12  C   UNL     1      -7.064   6.692  65.845  1.00  0.00    -0.062 C  
HETATM   13  O   UNL     1      -7.197   6.154  64.750  1.00  0.00    -0.058 OA 
BRANCH  12  14
HETATM   14  C   UNL     1      -7.073   5.928  67.183  1.00  0.00    -0.070 C  
HETATM   15  C   UNL     1      -5.918   6.355  68.130  1.00  0.00    -0.016 C  
HETATM   16  C   UNL     1      -6.661   4.471  66.845  1.00  0.00    -0.051 C  
HETATM   17  C   UNL     1      -6.068   3.912  68.124  1.00  0.00    -0.032 C  
HETATM   18  C   UNL     1      -5.293   5.078  68.707  1.00  0.00    -0.004 C  
BRANCH  14  19
HETATM   19  C   UNL     1      -8.443   6.102  67.869  1.00  0.00    -0.116 A  
HETATM   20  C   UNL     1      -9.868   6.824  69.717  1.00  0.00    -0.175 A  
HETATM   21  C   UNL     1     -10.994   6.316  69.079  1.00  0.00    -0.437 A  
HETATM   22  C   UNL     1      -8.607   6.715  69.121  1.00  0.00    -0.130 A  
HETATM   23  C   UNL     1     -10.862   5.709  67.837  1.00  0.00    -0.171 A  
HETATM   24  C   UNL     1      -9.603   5.611  67.235  1.00  0.00    -0.125 A  
ENDBRANCH  14  19
ENDBRANCH  12  14
ENDBRANCH  11  12
ENDBRANCH  10  11
ENDBRANCH   9  10
ENDBRANCH   8   9
ENDBRANCH   7   8
ENDBRANCH   6   7
ENDBRANCH   3   6
ENDBRANCH   2   3
TORSDOF 11
ENDMDL
MODEL      405
REMARK 921   NORMALIZED FREE ENERGY PREDICTED BY IDOCK:   -2.17 KCAL/MOL
REMARK 922        TOTAL FREE ENERGY PREDICTED BY IDOCK:   -4.39 KCAL/MOL
REMARK 923 INTER-LIGAND FREE ENERGY PREDICTED BY IDOCK:   -3.11 KCAL/MOL
REMARK 924 INTRA-LIGAND FREE ENERGY PREDICTED BY IDOCK:   -1.28 KCAL/MOL
REMARK 927      BINDING AFFINITY PREDICTED BY RF-SCORE:    0.00 PKD
ROOT
HETATM    1  C   UNL     1     -10.594  10.493  66.741  1.00  0.00    -0.284 C  
HETATM    2  C   UNL     1     -10.526  10.751  68.245  1.00  0.00    -0.181 C  
ENDROOT
BRANCH   2   3
HETATM    3  N   UNL     1      -9.163  10.737  68.810  1.00  0.00    -0.183 NA 
BRANCH   3   4
HETATM    4  C   UNL     1      -9.037   9.935  70.036  1.00  0.00    -0.178 C  
HETATM    5  C   UNL     1     -10.246   9.089  70.419  1.00  0.00    -0.250 C  
ENDBRANCH   3   4
BRANCH   3   6
HETATM    6  C   UNL     1      -8.193  10.370  67.753  1.00  0.00    -0.110 C  
BRANCH   6   7
HETATM    7  C   UNL     1      -7.500   9.012  67.946  1.00  0.00    -0.085 C  
BRANCH   7   8
HETATM    8  O   UNL     1      -6.101   9.127  67.651  1.00  0.00    -0.052 OA 
BRANCH   8   9
HETATM    9  C   UNL     1      -5.319   8.544  68.696  1.00  0.00    -0.036 C  
BRANCH   9  10
HETATM   10  C   UNL     1      -5.478   7.025  68.697  1.00  0.00    -0.018 C  
BRANCH  10  11
HETATM   11  O   UNL     1      -5.924   6.543  67.416  1.00  0.00    -0.018 OA 
BRANCH  11  12
HETATM   12  C   UNL     1      -6.334   5.241  67.391  1.00  0.00    -0.040 C  
HETATM   13  O   UNL     1      -5.771   4.342  68.007  1.00  0.00    -0.020 OA 
BRANCH  12  14
HETATM   14  C   UNL     1      -7.533   5.017  66.450  1.00  0.00    -0.087 C  
HETATM   15  C   UNL     1      -7.629   3.555  65.933  1.00  0.00    -0.081 C  
HETATM   16  C   UNL     1      -7.193   5.776  65.139  1.00  0.00    -0.070 C  
HETATM   17  C   UNL     1      -7.987   5.078  64.051  1.00  0.00    -0.102 C  
HETATM   18  C   UNL     1      -7.908   3.610  64.426  1.00  0.00    -0.085 C  
BRANCH  14  19
HETATM   19  C   UNL     1      -8.834   5.440  67.158  1.00  0.00    -0.109 A  
HETATM   20  C   UNL     1     -10.538   5.197  68.892  1.00  0.00    -0.047 A  
HETATM   21  C   UNL     1     -11.272   6.249  68.353  1.00  0.00    -0.272 A  
HETATM   22  C   UNL     1      -9.337   4.795  68.300  1.00  0.00    -0.177 A  
HETATM   23  C   UNL     1     -10.796   6.908  67.227  1.00  0.00    -0.426 A  
HETATM   24  C   UNL     1      -9.588   6.514  66.642  1.00  0.00    -0.201 A  
ENDBRANCH  14  19
ENDBRANCH  12  14
ENDBRANCH  11  12
ENDBRANCH  10  11
ENDBRANCH   9  10
ENDBRANCH   8   9
ENDBRANCH   7   8
ENDBRANCH   6   7
ENDBRANCH   3   6
ENDBRANCH   2   3
TORSDOF 11
ENDMDL
MODEL      406
REMARK 921   NORMALIZED FREE ENERGY PREDICTED BY IDOCK:   -2.14 KCAL/MOL
REMARK 922        TOTAL FREE ENERGY PREDICTED BY IDOCK:   -4.33 KCAL/MOL
REMARK 923 INTER-LIGAND FREE ENERGY PREDICTED BY IDOCK:   -3.49 KCAL/MOL
REMARK 924 INTRA-LIGAND FREE ENERGY PREDICTED BY IDOCK:   -0.84 KCAL/MOL
REMARK 927      BINDING AFFINITY PREDICTED BY RF-SCORE:    0.00 PKD
ROOT
HETATM    1  C   UNL     1      -9.707   7.146  68.575  1.00  0.00    -0.143 C  
HETATM    2  C   UNL     1      -9.129   7.278  67.168  1.00  0.00    -0.130 C  
ENDROOT
BRANCH   2   3
HETATM    3  N   UNL     1      -7.857   6.563  66.956  1.00  0.00    -0.106 NA 
BRANCH   3   4
HETATM    4  C   UNL     1      -7.990   5.338  66.153  1.00  0.00    -0.104 C  
HETATM    5  C   UNL     1      -6.718   4.523  65.947  1.00  0.00    -0.053 C  
ENDBRANCH   3   4
BRANCH   3   6
HETATM    6  C   UNL     1      -6.837   7.506  66.443  1.00  0.00    -0.061 C  
BRANCH   6   7
HETATM    7  C   UNL     1      -6.484   7.341  64.957  1.00  0.00    -0.037 C  
BRANCH   7   8
HETATM    8  O   UNL     1      -7.265   8.245  64.162  1.00  0.00    -0.083 OA 
BRANCH   8   9
HETATM    9  C   UNL     1      -7.139   9.580  64.655  1.00  0.00    -0.106 C  
BRANCH   9  10
HETATM   10  C   UNL     1      -8.493  10.286  64.635  1.00  0.00    -0.175 C  
BRANCH  10  11
HETATM   11  O   UNL     1      -8.856  10.762  65.945  1.00  0.00    -0.168 OA 
BRANCH  11  12
HETATM   12  C   UNL     1      -9.078  12.106  66.038  1.00  0.00    -0.056 C  
HETATM   13  O   UNL     1      -9.412  12.805  65.087  1.00  0.00     0.072 OA 
BRANCH  12  14
HETATM   14  C   UNL     1      -8.791  12.655  67.449  1.00  0.00    -0.189 C  
HETATM   15  C   UNL     1      -8.287  14.124  67.434  1.00  0.00    -0.210 C  
HETATM   16  C   UNL     1      -7.525  11.909  67.948  1.00  0.00    -0.114 C  
HETATM   17  C   UNL     1      -6.891  12.831  68.972  1.00  0.00    -0.081 C  
HETATM   18  C   UNL     1      -7.091  14.217  68.390  1.00  0.00    -0.104 C  
BRANCH  14  19
HETATM   19  C   UNL     1     -10.050  12.511  68.326  1.00  0.00    -0.228 A  
HETATM   20  C   UNL     1     -11.719  11.190  69.527  1.00  0.00    -0.405 A  
HETATM   21  C   UNL     1     -12.411  12.343  69.883  1.00  0.00    -0.117 A  
HETATM   22  C   UNL     1     -10.555  11.273  68.755  1.00  0.00    -0.234 A  
HETATM   23  C   UNL     1     -11.932  13.582  69.476  1.00  0.00    -0.390 A  
HETATM   24  C   UNL     1     -10.761  13.665  68.715  1.00  0.00    -0.265 A  
ENDBRANCH  14  19
ENDBRANCH  12  14
ENDBRANCH  11  12
ENDBRANCH  10  11
ENDBRANCH   9  10
ENDBRANCH   8   9
ENDBRANCH   7   8
ENDBRANCH   6   7
ENDBRANCH   3   6
ENDBRANCH   2   3
TORSDOF 11
ENDMDL
MODEL      407
REMARK 921   NORMALIZED FREE ENERGY PREDICTED BY IDOCK:   -2.06 KCAL/MOL
REMARK 922        TOTAL FREE ENERGY PREDICTED BY IDOCK:   -4.20 KCAL/MOL
REMARK 923 INTER-LIGAND FREE ENERGY PREDICTED BY IDOCK:   -3.46 KCAL/MOL
REMARK 924 INTRA-LIGAND FREE ENERGY PREDICTED BY IDOCK:   -0.74 KCAL/MOL
REMARK 927      BINDING AFFINITY PREDICTED BY RF-SCORE:    0.00 PKD
ROOT
HETATM    1  C   UNL     1     -12.518   8.018  72.689  1.00  0.00    -0.107 C  
HETATM    2  C   UNL     1     -12.023   7.164  71.524  1.00  0.00    -0.326 C  
ENDROOT
BRANCH   2   3
HETATM    3  N   UNL     1     -11.390   7.924  70.430  1.00  0.00    -0.238 NA 
BRANCH   3   4
HETATM    4  C   UNL     1     -10.503   9.002  70.891  1.00  0.00    -0.254 C  
HETATM    5  C   UNL     1     -10.474  10.266  70.040  1.00  0.00    -0.293 C  
ENDBRANCH   3   4
BRANCH   3   6
HETATM    6  C   UNL     1     -10.747   6.986  69.481  1.00  0.00    -0.241 C  
BRANCH   6   7
HETATM    7  C   UNL     1      -9.645   7.599  68.603  1.00  0.00    -0.152 C  
BRANCH   7   8
HETATM    8  O   UNL     1     -10.138   7.815  67.274  1.00  0.00    -0.188 OA 
BRANCH   8   9
HETATM    9  C   UNL     1      -9.222   7.294  66.309  1.00  0.00    -0.130 C  
BRANCH   9  10
HETATM   10  C   UNL     1      -8.682   5.940  66.763  1.00  0.00    -0.117 C  
BRANCH  10  11
HETATM   11  O   UNL     1      -9.630   4.885  66.509  1.00  0.00    -0.141 OA 
BRANCH  11  12
HETATM   12  C   UNL     1      -9.086   3.660  66.250  1.00  0.00    -0.154 C  
HETATM   13  O   UNL     1      -8.580   2.947  67.112  1.00  0.00    -0.092 OA 
BRANCH  12  14
HETATM   14  C   UNL     1      -9.112   3.307  64.751  1.00  0.00    -0.138 C  
HETATM   15  C   UNL     1     -10.359   3.876  64.018  1.00  0.00    -0.229 C  
HETATM   16  C   UNL     1      -9.391   1.782  64.677  1.00  0.00    -0.117 C  
HETATM   17  C   UNL     1     -10.028   1.554  63.320  1.00  0.00    -0.115 C  
HETATM   18  C   UNL     1     -10.926   2.762  63.130  1.00  0.00    -0.189 C  
BRANCH  14  19
HETATM   19  C   UNL     1      -7.810   3.789  64.082  1.00  0.00    -0.085 A  
HETATM   20  C   UNL     1      -5.395   3.704  63.722  1.00  0.00    -0.009 A  
HETATM   21  C   UNL     1      -5.461   4.788  62.854  1.00  0.00    -0.013 A  
HETATM   22  C   UNL     1      -6.554   3.213  64.332  1.00  0.00    -0.035 A  
HETATM   23  C   UNL     1      -6.691   5.375  62.585  1.00  0.00    -0.025 A  
HETATM   24  C   UNL     1      -7.852   4.876  63.185  1.00  0.00    -0.072 A  
ENDBRANCH  14  19
ENDBRANCH  12  14
ENDBRANCH  11  12
ENDBRANCH  10  11
ENDBRANCH   9  10
ENDBRANCH   8   9
ENDBRANCH   7   8
ENDBRANCH   6   7
ENDBRANCH   3   6
ENDBRANCH   2   3
TORSDOF 11
ENDMDL
MODEL      408
REMARK 921   NORMALIZED FREE ENERGY PREDICTED BY IDOCK:   -2.06 KCAL/MOL
REMARK 922        TOTAL FREE ENERGY PREDICTED BY IDOCK:   -4.20 KCAL/MOL
REMARK 923 INTER-LIGAND FREE ENERGY PREDICTED BY IDOCK:   -3.37 KCAL/MOL
REMARK 924 INTRA-LIGAND FREE ENERGY PREDICTED BY IDOCK:   -0.83 KCAL/MOL
REMARK 927      BINDING AFFINITY PREDICTED BY RF-SCORE:    0.00 PKD
ROOT
HETATM    1  C   UNL     1     -13.025  10.019  70.643  1.00  0.00    -0.250 C  
HETATM    2  C   UNL     1     -11.730   9.906  71.443  1.00  0.00    -0.371 C  
ENDROOT
BRANCH   2   3
HETATM    3  N   UNL     1     -11.613   8.679  72.254  1.00  0.00    -0.368 NA 
BRANCH   3   4
HETATM    4  C   UNL     1     -12.848   7.881  72.306  1.00  0.00    -0.124 C  
HETATM    5  C   UNL     1     -12.765   6.470  71.738  1.00  0.00    -0.186 C  
ENDBRANCH   3   4
BRANCH   3   6
HETATM    6  C   UNL     1     -10.423   7.910  71.823  1.00  0.00    -0.221 C  
BRANCH   6   7
HETATM    7  C   UNL     1      -9.172   8.754  71.533  1.00  0.00    -0.262 C  
BRANCH   7   8
HETATM    8  O   UNL     1      -8.063   8.271  72.305  1.00  0.00    -0.131 OA 
BRANCH   8   9
HETATM    9  C   UNL     1      -6.936   8.024  71.462  1.00  0.00    -0.060 C  
BRANCH   9  10
HETATM   10  C   UNL     1      -6.055   6.929  72.056  1.00  0.00    -0.038 C  
BRANCH  10  11
HETATM   11  O   UNL     1      -6.237   5.677  71.368  1.00  0.00    -0.032 OA 
BRANCH  11  12
HETATM   12  C   UNL     1      -6.482   4.599  72.169  1.00  0.00    -0.026 C  
HETATM   13  O   UNL     1      -6.118   4.527  73.339  1.00  0.00    -0.025 OA 
BRANCH  12  14
HETATM   14  C   UNL     1      -7.201   3.459  71.421  1.00  0.00    -0.033 C  
HETATM   15  C   UNL     1      -6.353   2.159  71.346  1.00  0.00    -0.018 C  
HETATM   16  C   UNL     1      -7.234   3.882  69.928  1.00  0.00    -0.042 C  
HETATM   17  C   UNL     1      -7.332   2.588  69.144  1.00  0.00    -0.044 C  
HETATM   18  C   UNL     1      -6.441   1.628  69.909  1.00  0.00    -0.025 C  
BRANCH  14  19
HETATM   19  C   UNL     1      -8.569   3.190  72.078  1.00  0.00    -0.098 A  
HETATM   20  C   UNL     1     -10.416   3.782  73.563  1.00  0.00    -0.259 A  
HETATM   21  C   UNL     1     -11.056   2.578  73.287  1.00  0.00    -0.250 A  
HETATM   22  C   UNL     1      -9.186   4.082  72.969  1.00  0.00    -0.127 A  
HETATM   23  C   UNL     1     -10.470   1.679  72.406  1.00  0.00    -0.226 A  
HETATM   24  C   UNL     1      -9.246   1.985  71.802  1.00  0.00    -0.157 A  
ENDBRANCH  14  19
ENDBRANCH  12  14
ENDBRANCH  11  12
ENDBRANCH  10  11
ENDBRANCH   9  10
ENDBRANCH   8   9
ENDBRANCH   7   8
ENDBRANCH   6   7
ENDBRANCH   3   6
ENDBRANCH   2   3
TORSDOF 11
ENDMDL
MODEL      409
REMARK 921   NORMALIZED FREE ENERGY PREDICTED BY IDOCK:   -2.02 KCAL/MOL
REMARK 922        TOTAL FREE ENERGY PREDICTED BY IDOCK:   -4.14 KCAL/MOL
REMARK 923 INTER-LIGAND FREE ENERGY PREDICTED BY IDOCK:   -3.82 KCAL/MOL
REMARK 924 INTRA-LIGAND FREE ENERGY PREDICTED BY IDOCK:   -0.32 KCAL/MOL
REMARK 927      BINDING AFFINITY PREDICTED BY RF-SCORE:    0.00 PKD
ROOT
HETATM    1  C   UNL     1     -10.706   8.720  72.188  1.00  0.00    -0.383 C  
HETATM    2  C   UNL     1      -9.562   8.422  71.221  1.00  0.00    -0.185 C  
ENDROOT
BRANCH   2   3
HETATM    3  N   UNL     1      -9.911   8.561  69.795  1.00  0.00    -0.183 NA 
BRANCH   3   4
HETATM    4  C   UNL     1      -9.956   7.283  69.067  1.00  0.00    -0.177 C  
HETATM    5  C   UNL     1     -11.017   6.286  69.516  1.00  0.00    -0.445 C  
ENDBRANCH   3   4
BRANCH   3   6
HETATM    6  C   UNL     1     -11.145   9.368  69.662  1.00  0.00    -0.142 C  
BRANCH   6   7
HETATM    7  C   UNL     1     -11.288  10.128  68.335  1.00  0.00    -0.113 C  
BRANCH   7   8
HETATM    8  O   UNL     1     -12.324  11.116  68.442  1.00  0.00    -0.556 OA 
BRANCH   8   9
HETATM    9  C   UNL     1     -11.770  12.431  68.378  1.00  0.00    -0.336 C  
BRANCH   9  10
HETATM   10  C   UNL     1     -11.541  12.983  69.783  1.00  0.00    -0.216 C  
BRANCH  10  11
HETATM   11  O   UNL     1     -10.222  13.546  69.917  1.00  0.00     0.811 OA 
BRANCH  11  12
HETATM   12  C   UNL     1     -10.175  14.907  70.018  1.00  0.00     0.068 C  
HETATM   13  O   UNL     1     -10.300  15.513  71.077  1.00  0.00     0.050 OA 
BRANCH  12  14
HETATM   14  C   UNL     1     -10.021  15.595  68.648  1.00  0.00    -0.208 C  
HETATM   15  C   UNL     1     -11.382  16.007  68.023  1.00  0.00    -0.266 C  
HETATM   16  C   UNL     1      -9.562  14.487  67.663  1.00  0.00    -0.214 C  
HETATM   17  C   UNL     1     -10.009  14.956  66.291  1.00  0.00    -0.300 C  
HETATM   18  C   UNL     1     -11.361  15.593  66.546  1.00  0.00     0.062 C  
BRANCH  14  19
HETATM   19  C   UNL     1      -9.083  16.811  68.782  1.00  0.00    -0.259 A  
HETATM   20  C   UNL     1      -6.878  17.862  68.770  1.00  0.00    -0.255 A  
HETATM   21  C   UNL     1      -7.435  19.090  69.113  1.00  0.00    -0.270 A  
HETATM   22  C   UNL     1      -7.692  16.736  68.611  1.00  0.00    -0.232 A  
HETATM   23  C   UNL     1      -8.809  19.195  69.284  1.00  0.00    -0.016 A  
HETATM   24  C   UNL     1      -9.624  18.071  69.112  1.00  0.00    -0.061 A  
ENDBRANCH  14  19
ENDBRANCH  12  14
ENDBRANCH  11  12
ENDBRANCH  10  11
ENDBRANCH   9  10
ENDBRANCH   8   9
ENDBRANCH   7   8
ENDBRANCH   6   7
ENDBRANCH   3   6
ENDBRANCH   2   3
TORSDOF 11
ENDMDL
MODEL      410
REMARK 921   NORMALIZED FREE ENERGY PREDICTED BY IDOCK:   -1.96 KCAL/MOL
REMARK 922        TOTAL FREE ENERGY PREDICTED BY IDOCK:   -4.03 KCAL/MOL
REMARK 923 INTER-LIGAND FREE ENERGY PREDICTED BY IDOCK:   -3.25 KCAL/MOL
REMARK 924 INTRA-LIGAND FREE ENERGY PREDICTED BY IDOCK:   -0.78 KCAL/MOL
REMARK 927      BINDING AFFINITY PREDICTED BY RF-SCORE:    0.00 PKD
ROOT
HETATM    1  C   UNL     1     -10.667   8.284  71.365  1.00  0.00    -0.282 C  
HETATM    2  C   UNL     1      -9.794   9.421  70.840  1.00  0.00    -0.268 C  
ENDROOT
BRANCH   2   3
HETATM    3  N   UNL     1      -9.926   9.678  69.393  1.00  0.00    -0.185 NA 
BRANCH   3   4
HETATM    4  C   UNL     1     -10.958  10.671  69.058  1.00  0.00    -0.248 C  
HETATM    5  C   UNL     1     -11.464  10.661  67.620  1.00  0.00    -0.169 C  
ENDBRANCH   3   4
BRANCH   3   6
HETATM    6  C   UNL     1      -8.594   9.984  68.821  1.00  0.00    -0.131 C  
BRANCH   6   7
HETATM    7  C   UNL     1      -7.922   8.820  68.076  1.00  0.00    -0.106 C  
BRANCH   7   8
HETATM    8  O   UNL     1      -8.750   8.389  66.986  1.00  0.00    -0.123 OA 
BRANCH   8   9
HETATM    9  C   UNL     1      -9.782   7.519  67.456  1.00  0.00    -0.150 C  
BRANCH   9  10
HETATM   10  C   UNL     1     -10.200   6.546  66.356  1.00  0.00     0.031 C  
BRANCH  10  11
HETATM   11  O   UNL     1      -9.803   5.198  66.670  1.00  0.00    -0.152 OA 
BRANCH  11  12
HETATM   12  C   UNL     1      -8.465   4.944  66.568  1.00  0.00    -0.110 C  
HETATM   13  O   UNL     1      -7.748   5.428  65.698  1.00  0.00    -0.088 OA 
BRANCH  12  14
HETATM   14  C   UNL     1      -7.975   3.928  67.618  1.00  0.00    -0.090 C  
HETATM   15  C   UNL     1      -6.450   3.645  67.517  1.00  0.00    -0.038 C  
HETATM   16  C   UNL     1      -8.563   2.557  67.192  1.00  0.00    -0.121 C  
HETATM   17  C   UNL     1      -7.630   1.516  67.781  1.00  0.00    -0.054 C  
HETATM   18  C   UNL     1      -6.251   2.127  67.614  1.00  0.00    -0.024 C  
BRANCH  14  19
HETATM   19  C   UNL     1      -8.354   4.418  69.029  1.00  0.00    -0.087 A  
HETATM   20  C   UNL     1      -7.824   5.421  71.193  1.00  0.00    -0.104 A  
HETATM   21  C   UNL     1      -9.130   5.226  71.630  1.00  0.00    -0.156 A  
HETATM   22  C   UNL     1      -7.440   5.018  69.910  1.00  0.00    -0.060 A  
HETATM   23  C   UNL     1     -10.057   4.639  70.778  1.00  0.00    -0.264 A  
HETATM   24  C   UNL     1      -9.675   4.247  69.490  1.00  0.00    -0.272 A  
ENDBRANCH  14  19
ENDBRANCH  12  14
ENDBRANCH  11  12
ENDBRANCH  10  11
ENDBRANCH   9  10
ENDBRANCH   8   9
ENDBRANCH   7   8
ENDBRANCH   6   7
ENDBRANCH   3   6
ENDBRANCH   2   3
TORSDOF 11
ENDMDL
MODEL      411
REMARK 921   NORMALIZED FREE ENERGY PREDICTED BY IDOCK:   -1.89 KCAL/MOL
REMARK 922        TOTAL FREE ENERGY PREDICTED BY IDOCK:   -3.92 KCAL/MOL
REMARK 923 INTER-LIGAND FREE ENERGY PREDICTED BY IDOCK:   -3.29 KCAL/MOL
REMARK 924 INTRA-LIGAND FREE ENERGY PREDICTED BY IDOCK:   -0.63 KCAL/MOL
REMARK 927      BINDING AFFINITY PREDICTED BY RF-SCORE:    0.00 PKD
ROOT
HETATM    1  C   UNL     1      -9.255  15.091  67.798  1.00  0.00    -0.181 C  
HETATM    2  C   UNL     1      -8.639  13.710  68.011  1.00  0.00    -0.175 C  
ENDROOT
BRANCH   2   3
HETATM    3  N   UNL     1      -7.178  13.652  67.811  1.00  0.00    -0.147 NA 
BRANCH   3   4
HETATM    4  C   UNL     1      -6.584  14.930  67.393  1.00  0.00    -0.007 C  
HETATM    5  C   UNL     1      -5.406  15.431  68.220  1.00  0.00    -0.113 C  
ENDBRANCH   3   4
BRANCH   3   6
HETATM    6  C   UNL     1      -6.537  13.057  69.007  1.00  0.00    -0.105 C  
BRANCH   6   7
HETATM    7  C   UNL     1      -5.849  11.703  68.773  1.00  0.00    -0.047 C  
BRANCH   7   8
HETATM    8  O   UNL     1      -6.583  10.939  67.806  1.00  0.00    -0.062 OA 
BRANCH   8   9
HETATM    9  C   UNL     1      -6.132   9.582  67.794  1.00  0.00    -0.052 C  
BRANCH   9  10
HETATM   10  C   UNL     1      -7.017   8.734  66.883  1.00  0.00    -0.074 C  
BRANCH  10  11
HETATM   11  O   UNL     1      -6.900   7.333  67.195  1.00  0.00    -0.071 OA 
BRANCH  11  12
HETATM   12  C   UNL     1      -7.488   6.943  68.364  1.00  0.00    -0.098 C  
HETATM   13  O   UNL     1      -6.868   6.757  69.407  1.00  0.00    -0.057 OA 
BRANCH  12  14
HETATM   14  C   UNL     1      -9.001   6.694  68.209  1.00  0.00    -0.122 C  
HETATM   15  C   UNL     1      -9.461   5.356  68.852  1.00  0.00    -0.174 C  
HETATM   16  C   UNL     1      -9.232   6.398  66.703  1.00  0.00    -0.167 C  
HETATM   17  C   UNL     1     -10.499   5.566  66.646  1.00  0.00    -0.355 C  
HETATM   18  C   UNL     1     -10.395   4.658  67.856  1.00  0.00     0.067 C  
BRANCH  14  19
HETATM   19  C   UNL     1      -9.784   7.886  68.792  1.00  0.00    -0.159 A  
HETATM   20  C   UNL     1     -10.664   9.203  70.653  1.00  0.00    -0.313 A  
HETATM   21  C   UNL     1     -11.301  10.069  69.770  1.00  0.00    -0.281 A  
HETATM   22  C   UNL     1      -9.918   8.123  70.169  1.00  0.00    -0.187 A  
HETATM   23  C   UNL     1     -11.183   9.861  68.402  1.00  0.00    -0.134 A  
HETATM   24  C   UNL     1     -10.426   8.788  67.919  1.00  0.00    -0.275 A  
ENDBRANCH  14  19
ENDBRANCH  12  14
ENDBRANCH  11  12
ENDBRANCH  10  11
ENDBRANCH   9  10
ENDBRANCH   8   9
ENDBRANCH   7   8
ENDBRANCH   6   7
ENDBRANCH   3   6
ENDBRANCH   2   3
TORSDOF 11
ENDMDL
MODEL      412
REMARK 921   NORMALIZED FREE ENERGY PREDICTED BY IDOCK:   -1.87 KCAL/MOL
REMARK 922        TOTAL FREE ENERGY PREDICTED BY IDOCK:   -3.89 KCAL/MOL
REMARK 923 INTER-LIGAND FREE ENERGY PREDICTED BY IDOCK:   -3.08 KCAL/MOL
REMARK 924 INTRA-LIGAND FREE ENERGY PREDICTED BY IDOCK:   -0.81 KCAL/MOL
REMARK 927      BINDING AFFINITY PREDICTED BY RF-SCORE:    0.00 PKD
ROOT
HETATM    1  C   UNL     1     -10.745   8.281  71.390  1.00  0.00    -0.282 C  
HETATM    2  C   UNL     1      -9.993   9.477  70.812  1.00  0.00    -0.264 C  
ENDROOT
BRANCH   2   3
HETATM    3  N   UNL     1     -10.010   9.560  69.339  1.00  0.00    -0.181 NA 
BRANCH   3   4
HETATM    4  C   UNL     1     -11.188  10.254  68.797  1.00  0.00    -0.206 C  
HETATM    5  C   UNL     1     -11.339  11.724  69.170  1.00  0.00    -0.340 C  
ENDBRANCH   3   4
BRANCH   3   6
HETATM    6  C   UNL     1      -8.721  10.107  68.858  1.00  0.00    -0.149 C  
BRANCH   6   7
HETATM    7  C   UNL     1      -7.669   9.055  68.473  1.00  0.00    -0.097 C  
BRANCH   7   8
HETATM    8  O   UNL     1      -8.117   8.306  67.334  1.00  0.00    -0.118 OA 
BRANCH   8   9
HETATM    9  C   UNL     1      -8.998   7.257  67.740  1.00  0.00    -0.126 C  
BRANCH   9  10
HETATM   10  C   UNL     1      -9.961   6.901  66.610  1.00  0.00    -0.143 C  
BRANCH  10  11
HETATM   11  O   UNL     1      -9.769   5.545  66.164  1.00  0.00    -0.158 OA 
BRANCH  11  12
HETATM   12  C   UNL     1      -8.608   5.311  65.486  1.00  0.00    -0.146 C  
HETATM   13  O   UNL     1      -8.046   6.154  64.792  1.00  0.00    -0.129 OA 
BRANCH  12  14
HETATM   14  C   UNL     1      -8.122   3.856  65.630  1.00  0.00    -0.097 C  
HETATM   15  C   UNL     1      -7.059   3.467  64.565  1.00  0.00    -0.057 C  
HETATM   16  C   UNL     1      -9.317   2.964  65.201  1.00  0.00    -0.124 C  
HETATM   17  C   UNL     1      -8.699   1.658  64.737  1.00  0.00    -0.102 C  
HETATM   18  C   UNL     1      -7.439   2.088  64.010  1.00  0.00    -0.059 C  
BRANCH  14  19
HETATM   19  C   UNL     1      -7.585   3.628  67.056  1.00  0.00    -0.079 A  
HETATM   20  C   UNL     1      -7.585   2.490  69.218  1.00  0.00    -0.043 A  
HETATM   21  C   UNL     1      -6.577   3.328  69.686  1.00  0.00    -0.033 A  
HETATM   22  C   UNL     1      -8.084   2.641  67.921  1.00  0.00    -0.069 A  
HETATM   23  C   UNL     1      -6.061   4.310  68.851  1.00  0.00    -0.030 A  
HETATM   24  C   UNL     1      -6.552   4.452  67.549  1.00  0.00    -0.046 A  
ENDBRANCH  14  19
ENDBRANCH  12  14
ENDBRANCH  11  12
ENDBRANCH  10  11
ENDBRANCH   9  10
ENDBRANCH   8   9
ENDBRANCH   7   8
ENDBRANCH   6   7
ENDBRANCH   3   6
ENDBRANCH   2   3
TORSDOF 11
ENDMDL
MODEL      413
REMARK 921   NORMALIZED FREE ENERGY PREDICTED BY IDOCK:   -1.85 KCAL/MOL
REMARK 922        TOTAL FREE ENERGY PREDICTED BY IDOCK:   -3.86 KCAL/MOL
REMARK 923 INTER-LIGAND FREE ENERGY PREDICTED BY IDOCK:   -2.89 KCAL/MOL
REMARK 924 INTRA-LIGAND FREE ENERGY PREDICTED BY IDOCK:   -0.97 KCAL/MOL
REMARK 927      BINDING AFFINITY PREDICTED BY RF-SCORE:    0.00 PKD
ROOT
HETATM    1  C   UNL     1      -9.156  15.016  67.841  1.00  0.00    -0.180 C  
HETATM    2  C   UNL     1      -9.047  13.516  68.106  1.00  0.00    -0.199 C  
ENDROOT
BRANCH   2   3
HETATM    3  N   UNL     1      -7.695  12.956  67.916  1.00  0.00    -0.128 NA 
BRANCH   3   4
HETATM    4  C   UNL     1      -6.644  13.975  67.774  1.00  0.00    -0.176 C  
HETATM    5  C   UNL     1      -5.445  13.844  68.705  1.00  0.00    -0.087 C  
ENDBRANCH   3   4
BRANCH   3   6
HETATM    6  C   UNL     1      -7.420  11.957  68.974  1.00  0.00    -0.006 C  
BRANCH   6   7
HETATM    7  C   UNL     1      -7.102  10.541  68.468  1.00  0.00    -0.075 C  
BRANCH   7   8
HETATM    8  O   UNL     1      -7.895  10.244  67.309  1.00  0.00    -0.102 OA 
BRANCH   8   9
HETATM    9  C   UNL     1      -7.765   8.865  66.955  1.00  0.00    -0.098 C  
BRANCH   9  10
HETATM   10  C   UNL     1      -8.765   8.499  65.862  1.00  0.00    -0.174 C  
BRANCH  10  11
HETATM   11  O   UNL     1      -8.686   7.100  65.526  1.00  0.00    -0.121 OA 
BRANCH  11  12
HETATM   12  C   UNL     1      -9.526   6.283  66.226  1.00  0.00    -0.100 C  
HETATM   13  O   UNL     1     -10.627   6.635  66.639  1.00  0.00    -0.227 OA 
BRANCH  12  14
HETATM   14  C   UNL     1      -8.909   4.898  66.501  1.00  0.00    -0.112 C  
HETATM   15  C   UNL     1      -9.714   4.075  67.544  1.00  0.00    -0.177 C  
HETATM   16  C   UNL     1      -7.593   5.164  67.279  1.00  0.00    -0.091 C  
HETATM   17  C   UNL     1      -7.331   3.899  68.073  1.00  0.00    -0.062 C  
HETATM   18  C   UNL     1      -8.710   3.460  68.527  1.00  0.00    -0.139 C  
BRANCH  14  19
HETATM   19  C   UNL     1      -8.766   4.123  65.176  1.00  0.00    -0.123 A  
HETATM   20  C   UNL     1      -7.447   3.031  63.433  1.00  0.00    -0.062 A  
HETATM   21  C   UNL     1      -8.597   2.759  62.699  1.00  0.00    -0.074 A  
HETATM   22  C   UNL     1      -7.530   3.708  64.654  1.00  0.00    -0.072 A  
HETATM   23  C   UNL     1      -9.834   3.154  63.194  1.00  0.00    -0.104 A  
HETATM   24  C   UNL     1      -9.918   3.820  64.421  1.00  0.00    -0.197 A  
ENDBRANCH  14  19
ENDBRANCH  12  14
ENDBRANCH  11  12
ENDBRANCH  10  11
ENDBRANCH   9  10
ENDBRANCH   8   9
ENDBRANCH   7   8
ENDBRANCH   6   7
ENDBRANCH   3   6
ENDBRANCH   2   3
TORSDOF 11
ENDMDL
MODEL      414
REMARK 921   NORMALIZED FREE ENERGY PREDICTED BY IDOCK:   -1.79 KCAL/MOL
REMARK 922        TOTAL FREE ENERGY PREDICTED BY IDOCK:   -3.76 KCAL/MOL
REMARK 923 INTER-LIGAND FREE ENERGY PREDICTED BY IDOCK:   -2.91 KCAL/MOL
REMARK 924 INTRA-LIGAND FREE ENERGY PREDICTED BY IDOCK:   -0.85 KCAL/MOL
REMARK 927      BINDING AFFINITY PREDICTED BY RF-SCORE:    0.00 PKD
ROOT
HETATM    1  C   UNL     1     -10.667  10.552  66.782  1.00  0.00    -0.252 C  
HETATM    2  C   UNL     1     -10.799  10.504  68.303  1.00  0.00    -0.248 C  
ENDROOT
BRANCH   2   3
HETATM    3  N   UNL     1      -9.521  10.354  69.026  1.00  0.00    -0.188 NA 
BRANCH   3   4
HETATM    4  C   UNL     1      -9.485   9.199  69.936  1.00  0.00    -0.186 C  
HETATM    5  C   UNL     1     -10.453   9.235  71.112  1.00  0.00    -0.401 C  
ENDBRANCH   3   4
BRANCH   3   6
HETATM    6  C   UNL     1      -8.399  10.390  68.060  1.00  0.00    -0.118 C  
BRANCH   6   7
HETATM    7  C   UNL     1      -7.564   9.102  67.982  1.00  0.00    -0.085 C  
BRANCH   7   8
HETATM    8  O   UNL     1      -6.174   9.424  67.832  1.00  0.00    -0.053 OA 
BRANCH   8   9
HETATM    9  C   UNL     1      -5.425   8.938  68.948  1.00  0.00    -0.037 C  
BRANCH   9  10
HETATM   10  C   UNL     1      -5.189   7.435  68.819  1.00  0.00    -0.021 C  
BRANCH  10  11
HETATM   11  O   UNL     1      -6.429   6.703  68.863  1.00  0.00    -0.036 OA 
BRANCH  11  12
HETATM   12  C   UNL     1      -6.347   5.447  69.392  1.00  0.00    -0.034 C  
HETATM   13  O   UNL     1      -5.444   4.658  69.129  1.00  0.00    -0.010 OA 
BRANCH  12  14
HETATM   14  C   UNL     1      -7.549   5.107  70.294  1.00  0.00    -0.071 C  
HETATM   15  C   UNL     1      -8.074   3.661  70.081  1.00  0.00    -0.055 C  
HETATM   16  C   UNL     1      -8.740   5.942  69.751  1.00  0.00    -0.129 C  
HETATM   17  C   UNL     1      -9.986   5.185  70.170  1.00  0.00    -0.324 C  
HETATM   18  C   UNL     1      -9.604   3.728  69.998  1.00  0.00    -0.259 C  
BRANCH  14  19
HETATM   19  C   UNL     1      -7.173   5.347  71.770  1.00  0.00    -0.085 A  
HETATM   20  C   UNL     1      -6.820   6.785  73.713  1.00  0.00    -0.072 A  
HETATM   21  C   UNL     1      -6.400   5.697  74.472  1.00  0.00    -0.070 A  
HETATM   22  C   UNL     1      -7.197   6.612  72.377  1.00  0.00    -0.087 A  
HETATM   23  C   UNL     1      -6.370   4.433  73.898  1.00  0.00    -0.046 A  
HETATM   24  C   UNL     1      -6.760   4.259  72.566  1.00  0.00    -0.045 A  
ENDBRANCH  14  19
ENDBRANCH  12  14
ENDBRANCH  11  12
ENDBRANCH  10  11
ENDBRANCH   9  10
ENDBRANCH   8   9
ENDBRANCH   7   8
ENDBRANCH   6   7
ENDBRANCH   3   6
ENDBRANCH   2   3
TORSDOF 11
ENDMDL
MODEL      415
REMARK 921   NORMALIZED FREE ENERGY PREDICTED BY IDOCK:   -1.36 KCAL/MOL
REMARK 922        TOTAL FREE ENERGY PREDICTED BY IDOCK:   -3.06 KCAL/MOL
REMARK 923 INTER-LIGAND FREE ENERGY PREDICTED BY IDOCK:   -2.24 KCAL/MOL
REMARK 924 INTRA-LIGAND FREE ENERGY PREDICTED BY IDOCK:   -0.82 KCAL/MOL
REMARK 927      BINDING AFFINITY PREDICTED BY RF-SCORE:    0.00 PKD
ROOT
HETATM    1  C   UNL     1      -7.054  14.481  69.718  1.00  0.00    -0.052 C  
HETATM    2  C   UNL     1      -6.480  13.182  70.279  1.00  0.00     0.217 C  
ENDROOT
BRANCH   2   3
HETATM    3  N   UNL     1      -6.475  12.052  69.331  1.00  0.00    -0.112 NA 
BRANCH   3   4
HETATM    4  C   UNL     1      -5.252  11.963  68.518  1.00  0.00    -0.045 C  
HETATM    5  C   UNL     1      -5.428  12.118  67.012  1.00  0.00    -0.066 C  
ENDBRANCH   3   4
BRANCH   3   6
HETATM    6  C   UNL     1      -6.809  10.801  70.049  1.00  0.00    -0.122 C  
BRANCH   6   7
HETATM    7  C   UNL     1      -5.828   9.639  69.826  1.00  0.00    -0.036 C  
BRANCH   7   8
HETATM    8  O   UNL     1      -5.960   9.133  68.490  1.00  0.00    -0.044 OA 
BRANCH   8   9
HETATM    9  C   UNL     1      -7.034   8.192  68.416  1.00  0.00    -0.073 C  
BRANCH   9  10
HETATM   10  C   UNL     1      -7.014   7.465  67.073  1.00  0.00    -0.082 C  
BRANCH  10  11
HETATM   11  O   UNL     1      -6.637   6.084  67.230  1.00  0.00    -0.049 OA 
BRANCH  11  12
HETATM   12  C   UNL     1      -7.571   5.173  66.827  1.00  0.00    -0.088 C  
HETATM   13  O   UNL     1      -7.993   5.099  65.677  1.00  0.00    -0.104 OA 
BRANCH  12  14
HETATM   14  C   UNL     1      -8.085   4.302  67.989  1.00  0.00    -0.090 C  
HETATM   15  C   UNL     1      -6.953   3.508  68.696  1.00  0.00    -0.050 C  
HETATM   16  C   UNL     1      -8.894   3.151  67.332  1.00  0.00    -0.159 C  
HETATM   17  C   UNL     1      -8.852   2.009  68.330  1.00  0.00    -0.147 C  
HETATM   18  C   UNL     1      -7.447   2.069  68.897  1.00  0.00    -0.043 C  
BRANCH  14  19
HETATM   19  C   UNL     1      -8.855   5.181  68.994  1.00  0.00    -0.108 A  
HETATM   20  C   UNL     1      -9.245   6.089  71.229  1.00  0.00    -0.156 A  
HETATM   21  C   UNL     1     -10.372   6.770  70.782  1.00  0.00    -0.227 A  
HETATM   22  C   UNL     1      -8.498   5.301  70.347  1.00  0.00    -0.116 A  
HETATM   23  C   UNL     1     -10.746   6.673  69.448  1.00  0.00    -0.303 A  
HETATM   24  C   UNL     1      -9.992   5.895  68.563  1.00  0.00    -0.185 A  
ENDBRANCH  14  19
ENDBRANCH  12  14
ENDBRANCH  11  12
ENDBRANCH  10  11
ENDBRANCH   9  10
ENDBRANCH   8   9
ENDBRANCH   7   8
ENDBRANCH   6   7
ENDBRANCH   3   6
ENDBRANCH   2   3
TORSDOF 11
ENDMDL
MODEL      416
REMARK 921   NORMALIZED FREE ENERGY PREDICTED BY IDOCK:   -1.19 KCAL/MOL
REMARK 922        TOTAL FREE ENERGY PREDICTED BY IDOCK:   -2.77 KCAL/MOL
REMARK 923 INTER-LIGAND FREE ENERGY PREDICTED BY IDOCK:   -1.91 KCAL/MOL
REMARK 924 INTRA-LIGAND FREE ENERGY PREDICTED BY IDOCK:   -0.86 KCAL/MOL
REMARK 927      BINDING AFFINITY PREDICTED BY RF-SCORE:    0.00 PKD
ROOT
HETATM    1  C   UNL     1     -11.972  15.074  73.742  1.00  0.00    -0.454 C  
HETATM    2  C   UNL     1     -12.327  13.774  73.025  1.00  0.00     0.610 C  
ENDROOT
BRANCH   2   3
HETATM    3  N   UNL     1     -12.751  13.941  71.622  1.00  0.00    -0.339 NA 
BRANCH   3   4
HETATM    4  C   UNL     1     -13.391  15.237  71.346  1.00  0.00    -0.491 C  
HETATM    5  C   UNL     1     -12.518  16.292  70.677  1.00  0.00     0.551 C  
ENDBRANCH   3   4
BRANCH   3   6
HETATM    6  C   UNL     1     -11.618  13.630  70.721  1.00  0.00     0.261 C  
BRANCH   6   7
HETATM    7  C   UNL     1     -11.422  12.137  70.411  1.00  0.00     0.323 C  
BRANCH   7   8
HETATM    8  O   UNL     1     -12.689  11.462  70.422  1.00  0.00    -0.197 OA 
BRANCH   8   9
HETATM    9  C   UNL     1     -12.580  10.205  71.094  1.00  0.00    -0.386 C  
BRANCH   9  10
HETATM   10  C   UNL     1     -11.814   9.204  70.232  1.00  0.00     0.064 C  
BRANCH  10  11
HETATM   11  O   UNL     1     -10.699   8.641  70.948  1.00  0.00    -0.204 OA 
BRANCH  11  12
HETATM   12  C   UNL     1     -10.275   7.421  70.505  1.00  0.00    -0.193 C  
HETATM   13  O   UNL     1     -10.930   6.390  70.627  1.00  0.00    -0.259 OA 
BRANCH  12  14
HETATM   14  C   UNL     1      -8.858   7.471  69.901  1.00  0.00    -0.141 C  
HETATM   15  C   UNL     1      -7.785   6.834  70.827  1.00  0.00    -0.093 C  
HETATM   16  C   UNL     1      -8.434   8.964  69.934  1.00  0.00    -0.135 C  
HETATM   17  C   UNL     1      -6.918   8.952  69.959  1.00  0.00    -0.044 C  
HETATM   18  C   UNL     1      -6.577   7.779  70.858  1.00  0.00    -0.038 C  
BRANCH  14  19
HETATM   19  C   UNL     1      -8.862   6.799  68.514  1.00  0.00    -0.123 A  
HETATM   20  C   UNL     1      -8.488   4.901  67.022  1.00  0.00    -0.105 A  
HETATM   21  C   UNL     1      -8.836   5.671  65.917  1.00  0.00    -0.154 A  
HETATM   22  C   UNL     1      -8.497   5.460  68.304  1.00  0.00    -0.097 A  
HETATM   23  C   UNL     1      -9.206   6.997  66.095  1.00  0.00    -0.119 A  
HETATM   24  C   UNL     1      -9.227   7.552  67.380  1.00  0.00    -0.149 A  
ENDBRANCH  14  19
ENDBRANCH  12  14
ENDBRANCH  11  12
ENDBRANCH  10  11
ENDBRANCH   9  10
ENDBRANCH   8   9
ENDBRANCH   7   8
ENDBRANCH   6   7
ENDBRANCH   3   6
ENDBRANCH   2   3
TORSDOF 11
ENDMDL
MODEL      417
REMARK 921   NORMALIZED FREE ENERGY PREDICTED BY IDOCK:   -0.96 KCAL/MOL
REMARK 922        TOTAL FREE ENERGY PREDICTED BY IDOCK:   -2.40 KCAL/MOL
REMARK 923 INTER-LIGAND FREE ENERGY PREDICTED BY IDOCK:   -3.58 KCAL/MOL
REMARK 924 INTRA-LIGAND FREE ENERGY PREDICTED BY IDOCK:    1.18 KCAL/MOL
REMARK 927      BINDING AFFINITY PREDICTED BY RF-SCORE:    0.00 PKD
ROOT
HETATM    1  C   UNL     1      -9.650   6.994  66.458  1.00  0.00    -0.201 C  
HETATM    2  C   UNL     1      -9.276   8.357  65.880  1.00  0.00    -0.155 C  
ENDROOT
BRANCH   2   3
HETATM    3  N   UNL     1      -8.126   8.338  64.956  1.00  0.00    -0.141 NA 
BRANCH   3   4
HETATM    4  C   UNL     1      -8.038   9.526  64.092  1.00  0.00    -0.147 C  
HETATM    5  C   UNL     1      -9.359  10.105  63.601  1.00  0.00    -0.336 C  
ENDBRANCH   3   4
BRANCH   3   6
HETATM    6  C   UNL     1      -6.886   8.057  65.714  1.00  0.00    -0.056 C  
BRANCH   6   7
HETATM    7  C   UNL     1      -5.604   8.654  65.112  1.00  0.00    -0.047 C  
BRANCH   7   8
HETATM    8  O   UNL     1      -5.291   9.898  65.755  1.00  0.00    -0.041 OA 
BRANCH   8   9
HETATM    9  C   UNL     1      -5.846   9.934  67.072  1.00  0.00    -0.051 C  
BRANCH   9  10
HETATM   10  C   UNL     1      -6.937  10.998  67.162  1.00  0.00    -0.103 C  
BRANCH  10  11
HETATM   11  O   UNL     1      -6.859  11.726  68.402  1.00  0.00    -0.061 OA 
BRANCH  11  12
HETATM   12  C   UNL     1      -7.831  12.665  68.591  1.00  0.00    -0.043 C  
HETATM   13  O   UNL     1      -7.608  13.798  69.008  1.00  0.00    -0.085 OA 
BRANCH  12  14
HETATM   14  C   UNL     1      -9.242  12.123  68.293  1.00  0.00    -0.192 C  
HETATM   15  C   UNL     1      -9.433  11.723  66.804  1.00  0.00    -0.202 C  
HETATM   16  C   UNL     1     -10.198  13.342  68.400  1.00  0.00    -0.249 C  
HETATM   17  C   UNL     1     -11.393  12.994  67.532  1.00  0.00    -0.346 C  
HETATM   18  C   UNL     1     -10.784  12.283  66.339  1.00  0.00    -0.284 C  
BRANCH  14  19
HETATM   19  C   UNL     1      -9.551  10.938  69.228  1.00  0.00    -0.067 A  
HETATM   20  C   UNL     1      -8.912   9.255  70.880  1.00  0.00    -0.273 A  
HETATM   21  C   UNL     1     -10.196   8.718  70.865  1.00  0.00    -0.284 A  
HETATM   22  C   UNL     1      -8.593  10.348  70.069  1.00  0.00     0.253 A  
HETATM   23  C   UNL     1     -11.164   9.284  70.046  1.00  0.00    -0.190 A  
HETATM   24  C   UNL     1     -10.848  10.386  69.244  1.00  0.00    -0.280 A  
ENDBRANCH  14  19
ENDBRANCH  12  14
ENDBRANCH  11  12
ENDBRANCH  10  11
ENDBRANCH   9  10
ENDBRANCH   8   9
ENDBRANCH   7   8
ENDBRANCH   6   7
ENDBRANCH   3   6
ENDBRANCH   2   3
TORSDOF 11
ENDMDL
MODEL      418
REMARK 921   NORMALIZED FREE ENERGY PREDICTED BY IDOCK:   -0.96 KCAL/MOL
REMARK 922        TOTAL FREE ENERGY PREDICTED BY IDOCK:   -2.40 KCAL/MOL
REMARK 923 INTER-LIGAND FREE ENERGY PREDICTED BY IDOCK:   -2.68 KCAL/MOL
REMARK 924 INTRA-LIGAND FREE ENERGY PREDICTED BY IDOCK:    0.28 KCAL/MOL
REMARK 927      BINDING AFFINITY PREDICTED BY RF-SCORE:    0.00 PKD
ROOT
HETATM    1  C   UNL     1      -9.433  13.006  68.454  1.00  0.00    -0.165 C  
HETATM    2  C   UNL     1      -9.183  11.559  68.873  1.00  0.00     0.018 C  
ENDROOT
BRANCH   2   3
HETATM    3  N   UNL     1      -7.794  11.098  68.693  1.00  0.00    -0.131 NA 
BRANCH   3   4
HETATM    4  C   UNL     1      -6.808  12.188  68.639  1.00  0.00    -0.089 C  
HETATM    5  C   UNL     1      -5.682  12.133  69.665  1.00  0.00    -0.100 C  
ENDBRANCH   3   4
BRANCH   3   6
HETATM    6  C   UNL     1      -7.481  10.059  69.701  1.00  0.00    -0.134 C  
BRANCH   6   7
HETATM    7  C   UNL     1      -7.485   8.615  69.173  1.00  0.00    -0.083 C  
BRANCH   7   8
HETATM    8  O   UNL     1      -8.682   8.370  68.420  1.00  0.00    -0.135 OA 
BRANCH   8   9
HETATM    9  C   UNL     1      -8.814   6.977  68.130  1.00  0.00    -0.129 C  
BRANCH   9  10
HETATM   10  C   UNL     1      -9.804   6.761  66.988  1.00  0.00    -0.167 C  
BRANCH  10  11
HETATM   11  O   UNL     1     -10.226   5.386  66.912  1.00  0.00    -0.188 OA 
BRANCH  11  12
HETATM   12  C   UNL     1      -9.610   4.536  67.785  1.00  0.00    -0.160 C  
HETATM   13  O   UNL     1      -9.759   4.589  69.002  1.00  0.00    -0.166 OA 
BRANCH  12  14
HETATM   14  C   UNL     1      -8.655   3.555  67.079  1.00  0.00    -0.116 C  
HETATM   15  C   UNL     1      -8.777   2.102  67.616  1.00  0.00    -0.134 C  
HETATM   16  C   UNL     1      -7.227   3.932  67.557  1.00  0.00    -0.067 C  
HETATM   17  C   UNL     1      -6.405   2.666  67.408  1.00  0.00    -0.032 C  
HETATM   18  C   UNL     1      -7.357   1.561  67.823  1.00  0.00    -0.046 C  
BRANCH  14  19
HETATM   19  C   UNL     1      -8.894   3.604  65.557  1.00  0.00    -0.125 A  
HETATM   20  C   UNL     1      -8.684   4.655  63.361  1.00  0.00    -0.132 A  
HETATM   21  C   UNL     1      -9.439   3.642  62.778  1.00  0.00    -0.104 A  
HETATM   22  C   UNL     1      -8.418   4.638  64.734  1.00  0.00    -0.137 A  
HETATM   23  C   UNL     1      -9.919   2.605  63.567  1.00  0.00    -0.141 A  
HETATM   24  C   UNL     1      -9.641   2.582  64.939  1.00  0.00    -0.016 A  
ENDBRANCH  14  19
ENDBRANCH  12  14
ENDBRANCH  11  12
ENDBRANCH  10  11
ENDBRANCH   9  10
ENDBRANCH   8   9
ENDBRANCH   7   8
ENDBRANCH   6   7
ENDBRANCH   3   6
ENDBRANCH   2   3
TORSDOF 11
ENDMDL
MODEL      419
REMARK 921   NORMALIZED FREE ENERGY PREDICTED BY IDOCK:   -0.87 KCAL/MOL
REMARK 922        TOTAL FREE ENERGY PREDICTED BY IDOCK:   -2.24 KCAL/MOL
REMARK 923 INTER-LIGAND FREE ENERGY PREDICTED BY IDOCK:   -2.05 KCAL/MOL
REMARK 924 INTRA-LIGAND FREE ENERGY PREDICTED BY IDOCK:   -0.19 KCAL/MOL
REMARK 927      BINDING AFFINITY PREDICTED BY RF-SCORE:    0.00 PKD
ROOT
HETATM    1  C   UNL     1      -6.948  14.489  69.696  1.00  0.00    -0.122 C  
HETATM    2  C   UNL     1      -6.139  13.365  70.340  1.00  0.00    -0.077 C  
ENDROOT
BRANCH   2   3
HETATM    3  N   UNL     1      -6.170  12.087  69.604  1.00  0.00    -0.121 NA 
BRANCH   3   4
HETATM    4  C   UNL     1      -5.178  12.000  68.522  1.00  0.00    -0.049 C  
HETATM    5  C   UNL     1      -5.730  11.822  67.112  1.00  0.00    -0.131 C  
ENDBRANCH   3   4
BRANCH   3   6
HETATM    6  C   UNL     1      -6.107  10.961  70.564  1.00  0.00    -0.102 C  
BRANCH   6   7
HETATM    7  C   UNL     1      -5.155   9.821  70.171  1.00  0.00    -0.032 C  
BRANCH   7   8
HETATM    8  O   UNL     1      -5.790   8.956  69.218  1.00  0.00    -0.035 OA 
BRANCH   8   9
HETATM    9  C   UNL     1      -6.548   7.946  69.887  1.00  0.00    -0.037 C  
BRANCH   9  10
HETATM   10  C   UNL     1      -5.886   7.570  71.210  1.00  0.00    -0.035 C  
BRANCH  10  11
HETATM   11  O   UNL     1      -6.606   8.117  72.331  1.00  0.00    -0.068 OA 
BRANCH  11  12
HETATM   12  C   UNL     1      -7.128   7.198  73.195  1.00  0.00    -0.072 C  
HETATM   13  O   UNL     1      -6.474   6.648  74.077  1.00  0.00    -0.071 OA 
BRANCH  12  14
HETATM   14  C   UNL     1      -8.604   6.877  72.895  1.00  0.00    -0.129 C  
HETATM   15  C   UNL     1      -9.496   8.148  72.827  1.00  0.00    -0.349 C  
HETATM   16  C   UNL     1      -9.159   6.190  74.171  1.00  0.00    -0.140 C  
HETATM   17  C   UNL     1     -10.654   6.445  74.149  1.00  0.00    -0.141 C  
HETATM   18  C   UNL     1     -10.776   7.862  73.624  1.00  0.00     0.429 C  
BRANCH  14  19
HETATM   19  C   UNL     1      -8.702   6.062  71.591  1.00  0.00    -0.135 A  
HETATM   20  C   UNL     1      -9.463   5.727  69.293  1.00  0.00    -0.159 A  
HETATM   21  C   UNL     1      -8.885   4.462  69.261  1.00  0.00    -0.133 A  
HETATM   22  C   UNL     1      -9.376   6.515  70.446  1.00  0.00    -0.166 A  
HETATM   23  C   UNL     1      -8.208   3.990  70.378  1.00  0.00    -0.070 A  
HETATM   24  C   UNL     1      -8.110   4.784  71.526  1.00  0.00    -0.103 A  
ENDBRANCH  14  19
ENDBRANCH  12  14
ENDBRANCH  11  12
ENDBRANCH  10  11
ENDBRANCH   9  10
ENDBRANCH   8   9
ENDBRANCH   7   8
ENDBRANCH   6   7
ENDBRANCH   3   6
ENDBRANCH   2   3
TORSDOF 11
ENDMDL
MODEL      420
REMARK 921   NORMALIZED FREE ENERGY PREDICTED BY IDOCK:   -0.81 KCAL/MOL
REMARK 922        TOTAL FREE ENERGY PREDICTED BY IDOCK:   -2.14 KCAL/MOL
REMARK 923 INTER-LIGAND FREE ENERGY PREDICTED BY IDOCK:   -2.09 KCAL/MOL
REMARK 924 INTRA-LIGAND FREE ENERGY PREDICTED BY IDOCK:   -0.05 KCAL/MOL
REMARK 927      BINDING AFFINITY PREDICTED BY RF-SCORE:    0.00 PKD
ROOT
HETATM    1  C   UNL     1      -9.434  13.007  68.567  1.00  0.00    -0.098 C  
HETATM    2  C   UNL     1      -9.273  11.555  69.011  1.00  0.00     0.127 C  
ENDROOT
BRANCH   2   3
HETATM    3  N   UNL     1      -7.906  11.018  68.874  1.00  0.00    -0.137 NA 
BRANCH   3   4
HETATM    4  C   UNL     1      -6.855  12.045  68.941  1.00  0.00    -0.103 C  
HETATM    5  C   UNL     1      -6.093  12.316  67.649  1.00  0.00    -0.120 C  
ENDBRANCH   3   4
BRANCH   3   6
HETATM    6  C   UNL     1      -7.714   9.903  69.829  1.00  0.00    -0.155 C  
BRANCH   6   7
HETATM    7  C   UNL     1      -7.873   8.496  69.231  1.00  0.00    -0.099 C  
BRANCH   7   8
HETATM    8  O   UNL     1      -9.112   8.404  68.514  1.00  0.00    -0.136 OA 
BRANCH   8   9
HETATM    9  C   UNL     1      -9.350   7.058  68.097  1.00  0.00    -0.125 C  
BRANCH   9  10
HETATM   10  C   UNL     1     -10.433   7.016  67.022  1.00  0.00    -0.316 C  
BRANCH  10  11
HETATM   11  O   UNL     1     -10.888   5.669  66.788  1.00  0.00    -0.291 OA 
BRANCH  11  12
HETATM   12  C   UNL     1     -10.216   4.698  67.472  1.00  0.00    -0.009 C  
HETATM   13  O   UNL     1     -10.392   4.462  68.664  1.00  0.00     0.111 OA 
BRANCH  12  14
HETATM   14  C   UNL     1      -9.165   3.982  66.602  1.00  0.00    -0.173 C  
HETATM   15  C   UNL     1      -9.346   4.263  65.084  1.00  0.00    -0.165 C  
HETATM   16  C   UNL     1      -9.513   2.471  66.670  1.00  0.00     0.105 C  
HETATM   17  C   UNL     1      -8.947   1.869  65.398  1.00  0.00    -0.120 C  
HETATM   18  C   UNL     1      -9.213   2.927  64.343  1.00  0.00    -0.128 C  
BRANCH  14  19
HETATM   19  C   UNL     1      -7.751   4.372  67.072  1.00  0.00    -0.089 A  
HETATM   20  C   UNL     1      -5.919   4.353  68.689  1.00  0.00    -0.026 A  
HETATM   21  C   UNL     1      -5.164   5.196  67.880  1.00  0.00    -0.004 A  
HETATM   22  C   UNL     1      -7.198   3.950  68.291  1.00  0.00    -0.055 A  
HETATM   23  C   UNL     1      -5.684   5.626  66.667  1.00  0.00    -0.017 A  
HETATM   24  C   UNL     1      -6.958   5.212  66.263  1.00  0.00    -0.067 A  
ENDBRANCH  14  19
ENDBRANCH  12  14
ENDBRANCH  11  12
ENDBRANCH  10  11
ENDBRANCH   9  10
ENDBRANCH   8   9
ENDBRANCH   7   8
ENDBRANCH   6   7
ENDBRANCH   3   6
ENDBRANCH   2   3
TORSDOF 11
ENDMDL
MODEL      421
REMARK 921   NORMALIZED FREE ENERGY PREDICTED BY IDOCK:   -0.67 KCAL/MOL
REMARK 922        TOTAL FREE ENERGY PREDICTED BY IDOCK:   -1.93 KCAL/MOL
REMARK 923 INTER-LIGAND FREE ENERGY PREDICTED BY IDOCK:   -3.30 KCAL/MOL
REMARK 924 INTRA-LIGAND FREE ENERGY PREDICTED BY IDOCK:    1.37 KCAL/MOL
REMARK 927      BINDING AFFINITY PREDICTED BY RF-SCORE:    0.00 PKD
ROOT
HETATM    1  C   UNL     1     -10.319   8.730  69.016  1.00  0.00    -0.227 C  
HETATM    2  C   UNL     1      -9.857   8.007  67.752  1.00  0.00    -0.165 C  
ENDROOT
BRANCH   2   3
HETATM    3  N   UNL     1      -9.669   6.552  67.910  1.00  0.00    -0.121 NA 
BRANCH   3   4
HETATM    4  C   UNL     1      -9.432   5.843  66.644  1.00  0.00    -0.151 C  
HETATM    5  C   UNL     1      -9.245   4.333  66.739  1.00  0.00    -0.156 C  
ENDBRANCH   3   4
BRANCH   3   6
HETATM    6  C   UNL     1      -8.638   6.295  68.941  1.00  0.00    -0.125 C  
BRANCH   6   7
HETATM    7  C   UNL     1      -7.398   7.199  68.863  1.00  0.00    -0.093 C  
BRANCH   7   8
HETATM    8  O   UNL     1      -6.208   6.398  68.804  1.00  0.00    -0.027 OA 
BRANCH   8   9
HETATM    9  C   UNL     1      -6.213   5.418  69.845  1.00  0.00    -0.026 C  
BRANCH   9  10
HETATM   10  C   UNL     1      -6.830   5.994  71.117  1.00  0.00    -0.066 C  
BRANCH  10  11
HETATM   11  O   UNL     1      -6.081   5.606  72.285  1.00  0.00    -0.036 OA 
BRANCH  11  12
HETATM   12  C   UNL     1      -6.800   5.537  73.443  1.00  0.00    -0.083 C  
HETATM   13  O   UNL     1      -6.446   6.065  74.493  1.00  0.00    -0.073 OA 
BRANCH  12  14
HETATM   14  C   UNL     1      -8.062   4.664  73.304  1.00  0.00    -0.100 C  
HETATM   15  C   UNL     1      -8.327   3.782  74.555  1.00  0.00    -0.085 C  
HETATM   16  C   UNL     1      -7.718   3.584  72.243  1.00  0.00    -0.059 C  
HETATM   17  C   UNL     1      -8.632   2.412  72.550  1.00  0.00    -0.069 C  
HETATM   18  C   UNL     1      -8.677   2.371  74.066  1.00  0.00    -0.070 C  
BRANCH  14  19
HETATM   19  C   UNL     1      -9.278   5.557  72.990  1.00  0.00    -0.137 A  
HETATM   20  C   UNL     1     -10.514   7.661  73.114  1.00  0.00    -0.433 A  
HETATM   21  C   UNL     1     -11.583   7.102  72.421  1.00  0.00    -0.292 A  
HETATM   22  C   UNL     1      -9.378   6.897  73.398  1.00  0.00    -0.179 A  
HETATM   23  C   UNL     1     -11.509   5.780  72.001  1.00  0.00    -0.260 A  
HETATM   24  C   UNL     1     -10.367   5.020  72.274  1.00  0.00    -0.267 A  
ENDBRANCH  14  19
ENDBRANCH  12  14
ENDBRANCH  11  12
ENDBRANCH  10  11
ENDBRANCH   9  10
ENDBRANCH   8   9
ENDBRANCH   7   8
ENDBRANCH   6   7
ENDBRANCH   3   6
ENDBRANCH   2   3
TORSDOF 11
ENDMDL
MODEL      422
REMARK 921   NORMALIZED FREE ENERGY PREDICTED BY IDOCK:    0.21 KCAL/MOL
REMARK 922        TOTAL FREE ENERGY PREDICTED BY IDOCK:   -0.47 KCAL/MOL
REMARK 923 INTER-LIGAND FREE ENERGY PREDICTED BY IDOCK:   -1.43 KCAL/MOL
REMARK 924 INTRA-LIGAND FREE ENERGY PREDICTED BY IDOCK:    0.96 KCAL/MOL
REMARK 927      BINDING AFFINITY PREDICTED BY RF-SCORE:    0.00 PKD
ROOT
HETATM    1  C   UNL     1      -7.058  14.480  69.725  1.00  0.00    -0.052 C  
HETATM    2  C   UNL     1      -6.418  13.205  70.268  1.00  0.00     0.217 C  
ENDROOT
BRANCH   2   3
HETATM    3  N   UNL     1      -6.347  12.093  69.300  1.00  0.00    -0.095 NA 
BRANCH   3   4
HETATM    4  C   UNL     1      -5.135  12.107  68.467  1.00  0.00    -0.050 C  
HETATM    5  C   UNL     1      -5.348  12.273  66.967  1.00  0.00    -0.006 C  
ENDBRANCH   3   4
BRANCH   3   6
HETATM    6  C   UNL     1      -6.575  10.809  70.003  1.00  0.00    -0.159 C  
BRANCH   6   7
HETATM    7  C   UNL     1      -5.499   9.737  69.767  1.00  0.00    -0.033 C  
BRANCH   7   8
HETATM    8  O   UNL     1      -5.573   9.254  68.418  1.00  0.00    -0.037 OA 
BRANCH   8   9
HETATM    9  C   UNL     1      -6.629   8.301  68.285  1.00  0.00    -0.060 C  
BRANCH   9  10
HETATM   10  C   UNL     1      -6.460   7.492  67.001  1.00  0.00    -0.060 C  
BRANCH  10  11
HETATM   11  O   UNL     1      -5.984   6.162  67.278  1.00  0.00    -0.016 OA 
BRANCH  11  12
HETATM   12  C   UNL     1      -6.945   5.258  67.628  1.00  0.00    -0.065 C  
HETATM   13  O   UNL     1      -6.831   4.477  68.569  1.00  0.00    -0.049 OA 
BRANCH  12  14
HETATM   14  C   UNL     1      -8.152   5.278  66.671  1.00  0.00    -0.105 C  
HETATM   15  C   UNL     1      -9.199   6.364  67.043  1.00  0.00    -0.136 C  
HETATM   16  C   UNL     1      -8.950   3.979  66.964  1.00  0.00    -0.143 C  
HETATM   17  C   UNL     1     -10.375   4.278  66.540  1.00  0.00     0.076 C  
HETATM   18  C   UNL     1     -10.588   5.719  66.962  1.00  0.00    -0.373 C  
BRANCH  14  19
HETATM   19  C   UNL     1      -7.660   5.457  65.221  1.00  0.00    -0.079 A  
HETATM   20  C   UNL     1      -7.734   6.515  63.020  1.00  0.00    -0.094 A  
HETATM   21  C   UNL     1      -6.735   5.667  62.552  1.00  0.00    -0.029 A  
HETATM   22  C   UNL     1      -8.193   6.408  64.337  1.00  0.00    -0.019 A  
HETATM   23  C   UNL     1      -6.187   4.719  63.407  1.00  0.00    -0.022 A  
HETATM   24  C   UNL     1      -6.637   4.621  64.728  1.00  0.00    -0.043 A  
ENDBRANCH  14  19
ENDBRANCH  12  14
ENDBRANCH  11  12
ENDBRANCH  10  11
ENDBRANCH   9  10
ENDBRANCH   8   9
ENDBRANCH   7   8
ENDBRANCH   6   7
ENDBRANCH   3   6
ENDBRANCH   2   3
TORSDOF 11
ENDMDL
MODEL      423
REMARK 921   NORMALIZED FREE ENERGY PREDICTED BY IDOCK:    0.43 KCAL/MOL
REMARK 922        TOTAL FREE ENERGY PREDICTED BY IDOCK:   -0.11 KCAL/MOL
REMARK 923 INTER-LIGAND FREE ENERGY PREDICTED BY IDOCK:   -3.31 KCAL/MOL
REMARK 924 INTRA-LIGAND FREE ENERGY PREDICTED BY IDOCK:    3.21 KCAL/MOL
REMARK 927      BINDING AFFINITY PREDICTED BY RF-SCORE:    0.00 PKD
ROOT
HETATM    1  C   UNL     1     -12.806   8.192  70.986  1.00  0.00     0.003 C  
HETATM    2  C   UNL     1     -11.912   6.959  71.097  1.00  0.00    -0.366 C  
ENDROOT
BRANCH   2   3
HETATM    3  N   UNL     1     -10.740   6.968  70.202  1.00  0.00    -0.232 NA 
BRANCH   3   4
HETATM    4  C   UNL     1     -11.042   6.562  68.821  1.00  0.00    -0.283 C  
HETATM    5  C   UNL     1     -10.292   5.345  68.294  1.00  0.00    -0.213 C  
ENDBRANCH   3   4
BRANCH   3   6
HETATM    6  C   UNL     1     -10.049   8.275  70.303  1.00  0.00    -0.192 C  
BRANCH   6   7
HETATM    7  C   UNL     1      -8.910   8.490  69.295  1.00  0.00    -0.142 C  
BRANCH   7   8
HETATM    8  O   UNL     1      -7.641   8.395  69.959  1.00  0.00    -0.065 OA 
BRANCH   8   9
HETATM    9  C   UNL     1      -7.658   7.338  70.921  1.00  0.00    -0.084 C  
BRANCH   9  10
HETATM   10  C   UNL     1      -7.186   6.032  70.286  1.00  0.00    -0.076 C  
BRANCH  10  11
HETATM   11  O   UNL     1      -6.413   5.247  71.215  1.00  0.00    -0.032 OA 
BRANCH  11  12
HETATM   12  C   UNL     1      -7.003   4.088  71.632  1.00  0.00    -0.031 C  
HETATM   13  O   UNL     1      -6.658   2.975  71.246  1.00  0.00    -0.028 OA 
BRANCH  12  14
HETATM   14  C   UNL     1      -8.190   4.338  72.581  1.00  0.00    -0.097 C  
HETATM   15  C   UNL     1      -8.291   3.280  73.714  1.00  0.00    -0.074 C  
HETATM   16  C   UNL     1      -9.468   4.019  71.759  1.00  0.00    -0.210 C  
HETATM   17  C   UNL     1     -10.524   3.647  72.782  1.00  0.00    -0.219 C  
HETATM   18  C   UNL     1      -9.760   2.852  73.823  1.00  0.00    -0.134 C  
BRANCH  14  19
HETATM   19  C   UNL     1      -8.099   5.763  73.161  1.00  0.00    -0.117 A  
HETATM   20  C   UNL     1      -6.851   7.682  74.016  1.00  0.00    -0.104 A  
HETATM   21  C   UNL     1      -8.034   8.361  74.288  1.00  0.00    -0.232 A  
HETATM   22  C   UNL     1      -6.883   6.398  73.463  1.00  0.00    -0.074 A  
HETATM   23  C   UNL     1      -9.251   7.759  73.996  1.00  0.00    -0.164 A  
HETATM   24  C   UNL     1      -9.283   6.480  73.431  1.00  0.00    -0.145 A  
ENDBRANCH  14  19
ENDBRANCH  12  14
ENDBRANCH  11  12
ENDBRANCH  10  11
ENDBRANCH   9  10
ENDBRANCH   8   9
ENDBRANCH   7   8
ENDBRANCH   6   7
ENDBRANCH   3   6
ENDBRANCH   2   3
TORSDOF 11
ENDMDL
MODEL      424
REMARK 921   NORMALIZED FREE ENERGY PREDICTED BY IDOCK:    0.62 KCAL/MOL
REMARK 922        TOTAL FREE ENERGY PREDICTED BY IDOCK:    0.21 KCAL/MOL
REMARK 923 INTER-LIGAND FREE ENERGY PREDICTED BY IDOCK:   -3.63 KCAL/MOL
REMARK 924 INTRA-LIGAND FREE ENERGY PREDICTED BY IDOCK:    3.84 KCAL/MOL
REMARK 927      BINDING AFFINITY PREDICTED BY RF-SCORE:    0.00 PKD
ROOT
HETATM    1  C   UNL     1     -12.140   6.341  72.737  1.00  0.00     0.185 C  
HETATM    2  C   UNL     1     -11.369   6.127  71.436  1.00  0.00    -0.275 C  
ENDROOT
BRANCH   2   3
HETATM    3  N   UNL     1     -11.369   7.287  70.525  1.00  0.00    -0.279 NA 
BRANCH   3   4
HETATM    4  C   UNL     1     -11.315   8.585  71.214  1.00  0.00    -0.271 C  
HETATM    5  C   UNL     1     -10.004   8.924  71.915  1.00  0.00    -0.384 C  
ENDBRANCH   3   4
BRANCH   3   6
HETATM    6  C   UNL     1     -10.316   7.111  69.499  1.00  0.00    -0.215 C  
BRANCH   6   7
HETATM    7  C   UNL     1      -9.479   8.365  69.200  1.00  0.00    -0.155 C  
BRANCH   7   8
HETATM    8  O   UNL     1     -10.208   9.248  68.336  1.00  0.00    -0.187 OA 
BRANCH   8   9
HETATM    9  C   UNL     1     -10.596   8.570  67.140  1.00  0.00    -0.243 C  
BRANCH   9  10
HETATM   10  C   UNL     1      -9.468   8.614  66.112  1.00  0.00    -0.240 C  
BRANCH  10  11
HETATM   11  O   UNL     1      -8.197   8.308  66.715  1.00  0.00    -0.101 OA 
BRANCH  11  12
HETATM   12  C   UNL     1      -7.150   8.190  65.846  1.00  0.00    -0.064 C  
HETATM   13  O   UNL     1      -5.974   8.222  66.194  1.00  0.00    -0.040 OA 
BRANCH  12  14
HETATM   14  C   UNL     1      -7.610   8.086  64.379  1.00  0.00    -0.116 C  
HETATM   15  C   UNL     1      -6.568   8.657  63.378  1.00  0.00    -0.089 C  
HETATM   16  C   UNL     1      -8.768   9.107  64.222  1.00  0.00    -0.180 C  
HETATM   17  C   UNL     1      -8.790   9.469  62.749  1.00  0.00    -0.244 C  
HETATM   18  C   UNL     1      -7.323   9.528  62.366  1.00  0.00    -0.107 C  
BRANCH  14  19
HETATM   19  C   UNL     1      -7.951   6.620  64.046  1.00  0.00    -0.084 A  
HETATM   20  C   UNL     1      -8.575   4.342  64.670  1.00  0.00    -0.125 A  
HETATM   21  C   UNL     1      -8.496   3.931  63.343  1.00  0.00    -0.093 A  
HETATM   22  C   UNL     1      -8.301   5.669  65.017  1.00  0.00    -0.146 A  
HETATM   23  C   UNL     1      -8.156   4.852  62.361  1.00  0.00    -0.080 A  
HETATM   24  C   UNL     1      -7.895   6.182  62.707  1.00  0.00    -0.098 A  
ENDBRANCH  14  19
ENDBRANCH  12  14
ENDBRANCH  11  12
ENDBRANCH  10  11
ENDBRANCH   9  10
ENDBRANCH   8   9
ENDBRANCH   7   8
ENDBRANCH   6   7
ENDBRANCH   3   6
ENDBRANCH   2   3
TORSDOF 11
ENDMDL
MODEL      425
REMARK 921   NORMALIZED FREE ENERGY PREDICTED BY IDOCK:    2.22 KCAL/MOL
REMARK 922        TOTAL FREE ENERGY PREDICTED BY IDOCK:    2.84 KCAL/MOL
REMARK 923 INTER-LIGAND FREE ENERGY PREDICTED BY IDOCK:   -2.01 KCAL/MOL
REMARK 924 INTRA-LIGAND FREE ENERGY PREDICTED BY IDOCK:    4.85 KCAL/MOL
REMARK 927      BINDING AFFINITY PREDICTED BY RF-SCORE:    0.00 PKD
ROOT
HETATM    1  C   UNL     1     -13.190   8.316  70.297  1.00  0.00     1.540 C  
HETATM    2  C   UNL     1     -12.266   7.170  70.703  1.00  0.00    -0.200 C  
ENDROOT
BRANCH   2   3
HETATM    3  N   UNL     1     -10.974   7.140  69.991  1.00  0.00    -0.258 NA 
BRANCH   3   4
HETATM    4  C   UNL     1     -10.938   6.194  68.865  1.00  0.00    -0.356 C  
HETATM    5  C   UNL     1      -9.886   5.095  68.939  1.00  0.00    -0.241 C  
ENDBRANCH   3   4
BRANCH   3   6
HETATM    6  C   UNL     1     -10.577   8.519  69.626  1.00  0.00    -0.220 C  
BRANCH   6   7
HETATM    7  C   UNL     1      -9.400   8.621  68.643  1.00  0.00    -0.142 C  
BRANCH   7   8
HETATM    8  O   UNL     1      -8.201   8.978  69.346  1.00  0.00    -0.110 OA 
BRANCH   8   9
HETATM    9  C   UNL     1      -7.991   8.101  70.455  1.00  0.00    -0.099 C  
BRANCH   9  10
HETATM   10  C   UNL     1      -7.556   6.721  69.968  1.00  0.00    -0.100 C  
BRANCH  10  11
HETATM   11  O   UNL     1      -6.363   6.278  70.642  1.00  0.00    -0.037 OA 
BRANCH  11  12
HETATM   12  C   UNL     1      -6.544   5.277  71.553  1.00  0.00    -0.040 C  
HETATM   13  O   UNL     1      -5.848   4.267  71.597  1.00  0.00    -0.014 OA 
BRANCH  12  14
HETATM   14  C   UNL     1      -7.760   5.522  72.466  1.00  0.00    -0.102 C  
HETATM   15  C   UNL     1      -8.576   6.780  72.061  1.00  0.00    -0.122 C  
HETATM   16  C   UNL     1      -7.181   5.968  73.836  1.00  0.00    -0.084 C  
HETATM   17  C   UNL     1      -8.279   6.786  74.490  1.00  0.00    -0.160 C  
HETATM   18  C   UNL     1      -8.888   7.566  73.341  1.00  0.00    -0.241 C  
BRANCH  14  19
HETATM   19  C   UNL     1      -8.654   4.267  72.487  1.00  0.00    -0.108 A  
HETATM   20  C   UNL     1      -9.493   2.184  71.523  1.00  0.00    -0.202 A  
HETATM   21  C   UNL     1     -10.382   2.024  72.581  1.00  0.00    -0.231 A  
HETATM   22  C   UNL     1      -8.642   3.294  71.475  1.00  0.00    -0.104 A  
HETATM   23  C   UNL     1     -10.412   2.969  73.598  1.00  0.00    -0.246 A  
HETATM   24  C   UNL     1      -9.552   4.072  73.557  1.00  0.00    -0.134 A  
ENDBRANCH  14  19
ENDBRANCH  12  14
ENDBRANCH  11  12
ENDBRANCH  10  11
ENDBRANCH   9  10
ENDBRANCH   8   9
ENDBRANCH   7   8
ENDBRANCH   6   7
ENDBRANCH   3   6
ENDBRANCH   2   3
TORSDOF 11
ENDMDL
MODEL      426
REMARK 921   NORMALIZED FREE ENERGY PREDICTED BY IDOCK:    7.12 KCAL/MOL
REMARK 922        TOTAL FREE ENERGY PREDICTED BY IDOCK:   10.88 KCAL/MOL
REMARK 923 INTER-LIGAND FREE ENERGY PREDICTED BY IDOCK:    4.70 KCAL/MOL
REMARK 924 INTRA-LIGAND FREE ENERGY PREDICTED BY IDOCK:    6.18 KCAL/MOL
REMARK 927      BINDING AFFINITY PREDICTED BY RF-SCORE:    0.00 PKD
ROOT
HETATM    1  C   UNL     1     -13.361  10.565  68.315  1.00  0.00     7.183 C  
HETATM    2  C   UNL     1     -12.175  10.481  69.273  1.00  0.00     0.051 C  
ENDROOT
BRANCH   2   3
HETATM    3  N   UNL     1     -10.937  11.110  68.775  1.00  0.00    -0.201 NA 
BRANCH   3   4
HETATM    4  C   UNL     1     -11.032  12.570  68.624  1.00  0.00    -0.255 C  
HETATM    5  C   UNL     1     -12.137  13.086  67.709  1.00  0.00    -0.244 C  
ENDBRANCH   3   4
BRANCH   3   6
HETATM    6  C   UNL     1      -9.790  10.668  69.600  1.00  0.00    -0.013 C  
BRANCH   6   7
HETATM    7  C   UNL     1      -8.445  10.589  68.859  1.00  0.00    -0.152 C  
BRANCH   7   8
HETATM    8  O   UNL     1      -7.388  11.059  69.707  1.00  0.00    -0.087 OA 
BRANCH   8   9
HETATM    9  C   UNL     1      -6.904  12.324  69.249  1.00  0.00    -0.039 C  
BRANCH   9  10
HETATM   10  C   UNL     1      -6.660  12.287  67.742  1.00  0.00    -0.108 C  
BRANCH  10  11
HETATM   11  O   UNL     1      -7.503  13.229  67.051  1.00  0.00    -0.020 OA 
BRANCH  11  12
HETATM   12  C   UNL     1      -8.061  14.198  67.834  1.00  0.00    -0.154 C  
HETATM   13  O   UNL     1      -9.265  14.437  67.862  1.00  0.00    -0.184 OA 
BRANCH  12  14
HETATM   14  C   UNL     1      -7.008  15.002  68.620  1.00  0.00    -0.110 C  
HETATM   15  C   UNL     1      -5.634  14.282  68.698  1.00  0.00    -0.089 C  
HETATM   16  C   UNL     1      -7.456  14.953  70.106  1.00  0.00     0.265 C  
HETATM   17  C   UNL     1      -6.190  15.155  70.916  1.00  0.00     0.228 C  
HETATM   18  C   UNL     1      -5.137  14.381  70.146  1.00  0.00    -0.090 C  
BRANCH  14  19
HETATM   19  C   UNL     1      -6.863  16.407  68.004  1.00  0.00    -0.147 A  
HETATM   20  C   UNL     1      -5.753  18.040  66.565  1.00  0.00    -0.198 A  
HETATM   21  C   UNL     1      -6.634  19.036  66.975  1.00  0.00    -0.200 A  
HETATM   22  C   UNL     1      -5.864  16.743  67.076  1.00  0.00    -0.206 A  
HETATM   23  C   UNL     1      -7.635  18.730  67.888  1.00  0.00    -0.271 A  
HETATM   24  C   UNL     1      -7.753  17.429  68.389  1.00  0.00    -0.258 A  
ENDBRANCH  14  19
ENDBRANCH  12  14
ENDBRANCH  11  12
ENDBRANCH  10  11
ENDBRANCH   9  10
ENDBRANCH   8   9
ENDBRANCH   7   8
ENDBRANCH   6   7
ENDBRANCH   3   6
ENDBRANCH   2   3
TORSDOF 11
ENDMDL
MODEL      427
REMARK 921   NORMALIZED FREE ENERGY PREDICTED BY IDOCK:    7.42 KCAL/MOL
REMARK 922        TOTAL FREE ENERGY PREDICTED BY IDOCK:   11.37 KCAL/MOL
REMARK 923 INTER-LIGAND FREE ENERGY PREDICTED BY IDOCK:    8.40 KCAL/MOL
REMARK 924 INTRA-LIGAND FREE ENERGY PREDICTED BY IDOCK:    2.97 KCAL/MOL
REMARK 927      BINDING AFFINITY PREDICTED BY RF-SCORE:    0.00 PKD
ROOT
HETATM    1  C   UNL     1     -13.235   8.332  70.266  1.00  0.00     1.540 C  
HETATM    2  C   UNL     1     -12.377   7.107  70.575  1.00  0.00    -0.067 C  
ENDROOT
BRANCH   2   3
HETATM    3  N   UNL     1     -11.121   7.027  69.805  1.00  0.00    -0.258 NA 
BRANCH   3   4
HETATM    4  C   UNL     1     -11.218   6.197  68.594  1.00  0.00    -0.185 C  
HETATM    5  C   UNL     1     -11.659   6.909  67.321  1.00  0.00     0.677 C  
ENDBRANCH   3   4
BRANCH   3   6
HETATM    6  C   UNL     1     -10.605   8.392  69.554  1.00  0.00    -0.213 C  
BRANCH   6   7
HETATM    7  C   UNL     1      -9.444   8.477  68.551  1.00  0.00    -0.142 C  
BRANCH   7   8
HETATM    8  O   UNL     1      -8.191   8.515  69.250  1.00  0.00    -0.111 OA 
BRANCH   8   9
HETATM    9  C   UNL     1      -8.138   7.484  70.238  1.00  0.00    -0.112 C  
BRANCH   9  10
HETATM   10  C   UNL     1      -8.189   6.109  69.576  1.00  0.00    -0.116 C  
BRANCH  10  11
HETATM   11  O   UNL     1      -7.232   5.207  70.165  1.00  0.00    -0.055 OA 
BRANCH  11  12
HETATM   12  C   UNL     1      -6.333   4.660  69.296  1.00  0.00    -0.031 C  
HETATM   13  O   UNL     1      -5.137   4.537  69.545  1.00  0.00     0.000 OA 
BRANCH  12  14
HETATM   14  C   UNL     1      -6.972   4.281  67.946  1.00  0.00    -0.056 C  
HETATM   15  C   UNL     1      -6.039   3.410  67.060  1.00  0.00    -0.025 C  
HETATM   16  C   UNL     1      -7.030   5.594  67.119  1.00  0.00    -0.065 C  
HETATM   17  C   UNL     1      -7.040   5.155  65.667  1.00  0.00    -0.067 C  
HETATM   18  C   UNL     1      -6.088   3.975  65.635  1.00  0.00    -0.024 C  
BRANCH  14  19
HETATM   19  C   UNL     1      -8.320   3.576  68.190  1.00  0.00    -0.096 A  
HETATM   20  C   UNL     1      -9.877   2.288  69.564  1.00  0.00     0.275 A  
HETATM   21  C   UNL     1     -10.799   2.247  68.523  1.00  0.00     5.006 A  
HETATM   22  C   UNL     1      -8.651   2.940  69.398  1.00  0.00    -0.115 A  
HETATM   23  C   UNL     1     -10.500   2.871  67.319  1.00  0.00     2.854 A  
HETATM   24  C   UNL     1      -9.279   3.535  67.158  1.00  0.00    -0.217 A  
ENDBRANCH  14  19
ENDBRANCH  12  14
ENDBRANCH  11  12
ENDBRANCH  10  11
ENDBRANCH   9  10
ENDBRANCH   8   9
ENDBRANCH   7   8
ENDBRANCH   6   7
ENDBRANCH   3   6
ENDBRANCH   2   3
TORSDOF 11
ENDMDL
MODEL      428
REMARK 921   NORMALIZED FREE ENERGY PREDICTED BY IDOCK:    9.78 KCAL/MOL
REMARK 922        TOTAL FREE ENERGY PREDICTED BY IDOCK:   15.26 KCAL/MOL
REMARK 923 INTER-LIGAND FREE ENERGY PREDICTED BY IDOCK:    9.35 KCAL/MOL
REMARK 924 INTRA-LIGAND FREE ENERGY PREDICTED BY IDOCK:    5.91 KCAL/MOL
REMARK 927      BINDING AFFINITY PREDICTED BY RF-SCORE:    0.00 PKD
ROOT
HETATM    1  C   UNL     1     -11.528   7.189  65.791  1.00  0.00     4.936 C  
HETATM    2  C   UNL     1     -11.088   8.625  65.517  1.00  0.00     4.815 C  
ENDROOT
BRANCH   2   3
HETATM    3  N   UNL     1      -9.683   8.766  65.090  1.00  0.00     0.396 NA 
BRANCH   3   4
HETATM    4  C   UNL     1      -9.080  10.060  65.445  1.00  0.00    -0.193 C  
HETATM    5  C   UNL     1      -8.326  10.782  64.335  1.00  0.00     0.052 C  
ENDBRANCH   3   4
BRANCH   3   6
HETATM    6  C   UNL     1      -8.903   7.596  65.555  1.00  0.00     0.008 C  
BRANCH   6   7
HETATM    7  C   UNL     1      -7.465   7.517  65.021  1.00  0.00    -0.084 C  
BRANCH   7   8
HETATM    8  O   UNL     1      -6.531   7.744  66.086  1.00  0.00    -0.045 OA 
BRANCH   8   9
HETATM    9  C   UNL     1      -7.116   7.402  67.345  1.00  0.00    -0.085 C  
BRANCH   9  10
HETATM   10  C   UNL     1      -7.328   8.654  68.192  1.00  0.00    -0.091 C  
BRANCH  10  11
HETATM   11  O   UNL     1      -6.073   9.245  68.579  1.00  0.00    -0.044 OA 
BRANCH  11  12
HETATM   12  C   UNL     1      -6.133  10.559  68.943  1.00  0.00    -0.040 C  
HETATM   13  O   UNL     1      -5.150  11.218  69.271  1.00  0.00    -0.045 OA 
BRANCH  12  14
HETATM   14  C   UNL     1      -7.575  11.100  68.967  1.00  0.00    -0.119 C  
HETATM   15  C   UNL     1      -8.093  11.500  67.558  1.00  0.00    -0.137 C  
HETATM   16  C   UNL     1      -7.500  12.485  69.663  1.00  0.00     0.778 C  
HETATM   17  C   UNL     1      -8.695  13.262  69.146  1.00  0.00     0.626 C  
HETATM   18  C   UNL     1      -8.787  12.862  67.686  1.00  0.00    -0.187 C  
BRANCH  14  19
HETATM   19  C   UNL     1      -8.507  10.063  69.624  1.00  0.00    -0.193 A  
HETATM   20  C   UNL     1      -8.924   8.004  70.871  1.00  0.00    -0.150 A  
HETATM   21  C   UNL     1     -10.299   8.177  70.743  1.00  0.00    -0.217 A  
HETATM   22  C   UNL     1      -8.040   8.933  70.314  1.00  0.00    -0.125 A  
HETATM   23  C   UNL     1     -10.789   9.287  70.069  1.00  0.00    -0.264 A  
HETATM   24  C   UNL     1      -9.904  10.224  69.524  1.00  0.00    -0.244 A  
ENDBRANCH  14  19
ENDBRANCH  12  14
ENDBRANCH  11  12
ENDBRANCH  10  11
ENDBRANCH   9  10
ENDBRANCH   8   9
ENDBRANCH   7   8
ENDBRANCH   6   7
ENDBRANCH   3   6
ENDBRANCH   2   3
TORSDOF 11
ENDMDL
MODEL      429
REMARK 921   NORMALIZED FREE ENERGY PREDICTED BY IDOCK:   15.22 KCAL/MOL
REMARK 922        TOTAL FREE ENERGY PREDICTED BY IDOCK:   24.18 KCAL/MOL
REMARK 923 INTER-LIGAND FREE ENERGY PREDICTED BY IDOCK:   17.44 KCAL/MOL
REMARK 924 INTRA-LIGAND FREE ENERGY PREDICTED BY IDOCK:    6.74 KCAL/MOL
REMARK 927      BINDING AFFINITY PREDICTED BY RF-SCORE:    0.00 PKD
ROOT
HETATM    1  C   UNL     1      -7.033  17.561  71.993  1.00  0.00     6.912 C  
HETATM    2  C   UNL     1      -7.501  18.817  72.724  1.00  0.00     6.766 C  
ENDROOT
BRANCH   2   3
HETATM    3  N   UNL     1      -7.355  20.067  71.954  1.00  0.00     0.938 NA 
BRANCH   3   4
HETATM    4  C   UNL     1      -5.964  20.527  71.827  1.00  0.00    -0.050 C  
HETATM    5  C   UNL     1      -5.131  19.866  70.736  1.00  0.00    -0.244 C  
ENDBRANCH   3   4
BRANCH   3   6
HETATM    6  C   UNL     1      -8.063  19.937  70.660  1.00  0.00     1.603 C  
BRANCH   6   7
HETATM    7  C   UNL     1      -8.529  18.515  70.311  1.00  0.00     2.626 C  
BRANCH   7   8
HETATM    8  O   UNL     1      -7.571  17.880  69.452  1.00  0.00    -0.012 OA 
BRANCH   8   9
HETATM    9  C   UNL     1      -8.148  16.735  68.820  1.00  0.00    -0.252 C  
BRANCH   9  10
HETATM   10  C   UNL     1      -8.054  16.861  67.301  1.00  0.00    -0.184 C  
BRANCH  10  11
HETATM   11  O   UNL     1      -9.128  16.157  66.649  1.00  0.00    -0.211 OA 
BRANCH  11  12
HETATM   12  C   UNL     1      -9.000  14.799  66.612  1.00  0.00    -0.255 C  
HETATM   13  O   UNL     1      -8.883  14.156  65.573  1.00  0.00     0.819 OA 
BRANCH  12  14
HETATM   14  C   UNL     1      -9.091  14.159  68.011  1.00  0.00    -0.191 C  
HETATM   15  C   UNL     1     -10.168  13.043  68.095  1.00  0.00    -0.239 C  
HETATM   16  C   UNL     1      -9.708  15.242  68.936  1.00  0.00    -0.220 C  
HETATM   17  C   UNL     1     -10.367  14.478  70.068  1.00  0.00     0.299 C  
HETATM   18  C   UNL     1     -10.965  13.261  69.388  1.00  0.00    -0.067 C  
BRANCH  14  19
HETATM   19  C   UNL     1      -7.706  13.624  68.427  1.00  0.00    -0.138 A  
HETATM   20  C   UNL     1      -5.868  12.020  68.287  1.00  0.00    -0.051 A  
HETATM   21  C   UNL     1      -5.185  12.679  69.304  1.00  0.00    -0.069 A  
HETATM   22  C   UNL     1      -7.115  12.485  67.857  1.00  0.00    -0.111 A  
HETATM   23  C   UNL     1      -5.743  13.811  69.883  1.00  0.00    -0.118 A  
HETATM   24  C   UNL     1      -6.985  14.283  69.444  1.00  0.00    -0.106 A  
ENDBRANCH  14  19
ENDBRANCH  12  14
ENDBRANCH  11  12
ENDBRANCH  10  11
ENDBRANCH   9  10
ENDBRANCH   8   9
ENDBRANCH   7   8
ENDBRANCH   6   7
ENDBRANCH   3   6
ENDBRANCH   2   3
TORSDOF 11
ENDMDL
MODEL      430
REMARK 921   NORMALIZED FREE ENERGY PREDICTED BY IDOCK:   16.51 KCAL/MOL
REMARK 922        TOTAL FREE ENERGY PREDICTED BY IDOCK:   26.31 KCAL/MOL
REMARK 923 INTER-LIGAND FREE ENERGY PREDICTED BY IDOCK:   19.33 KCAL/MOL
REMARK 924 INTRA-LIGAND FREE ENERGY PREDICTED BY IDOCK:    6.97 KCAL/MOL
REMARK 927      BINDING AFFINITY PREDICTED BY RF-SCORE:    0.00 PKD
ROOT
HETATM    1  C   UNL     1      -7.055  17.545  72.037  1.00  0.00     7.666 C  
HETATM    2  C   UNL     1      -7.446  18.908  72.604  1.00  0.00     6.076 C  
ENDROOT
BRANCH   2   3
HETATM    3  N   UNL     1      -7.319  20.028  71.653  1.00  0.00     0.839 NA 
BRANCH   3   4
HETATM    4  C   UNL     1      -5.928  20.370  71.320  1.00  0.00    -0.188 C  
HETATM    5  C   UNL     1      -5.256  19.510  70.256  1.00  0.00    -0.222 C  
ENDBRANCH   3   4
BRANCH   3   6
HETATM    6  C   UNL     1      -8.171  19.773  70.470  1.00  0.00     1.606 C  
BRANCH   6   7
HETATM    7  C   UNL     1      -8.959  18.454  70.505  1.00  0.00     3.667 C  
BRANCH   7   8
HETATM    8  O   UNL     1      -8.181  17.401  69.917  1.00  0.00     1.011 OA 
BRANCH   8   9
HETATM    9  C   UNL     1      -9.003  16.262  69.649  1.00  0.00     0.238 C  
BRANCH   9  10
HETATM   10  C   UNL     1     -10.297  16.336  70.455  1.00  0.00     0.319 C  
BRANCH  10  11
HETATM   11  O   UNL     1     -10.777  15.023  70.799  1.00  0.00    -0.158 OA 
BRANCH  11  12
HETATM   12  C   UNL     1     -11.262  14.286  69.757  1.00  0.00    -0.180 C  
HETATM   13  O   UNL     1     -12.446  13.986  69.632  1.00  0.00    -0.311 OA 
BRANCH  12  14
HETATM   14  C   UNL     1     -10.151  13.815  68.799  1.00  0.00    -0.141 C  
HETATM   15  C   UNL     1     -10.133  12.273  68.607  1.00  0.00    -0.153 C  
HETATM   16  C   UNL     1      -8.814  14.038  69.556  1.00  0.00     0.792 C  
HETATM   17  C   UNL     1      -7.837  13.049  68.948  1.00  0.00     0.131 C  
HETATM   18  C   UNL     1      -8.675  11.807  68.710  1.00  0.00     0.019 C  
BRANCH  14  19
HETATM   19  C   UNL     1     -10.291  14.540  67.446  1.00  0.00    -0.252 A  
HETATM   20  C   UNL     1     -11.383  14.926  65.295  1.00  0.00    -0.358 A  
HETATM   21  C   UNL     1     -10.429  15.879  64.955  1.00  0.00    -0.176 A  
HETATM   22  C   UNL     1     -11.312  14.262  66.524  1.00  0.00    -0.351 A  
HETATM   23  C   UNL     1      -9.410  16.177  65.850  1.00  0.00    -0.316 A  
HETATM   24  C   UNL     1      -9.347  15.522  67.084  1.00  0.00    -0.227 A  
ENDBRANCH  14  19
ENDBRANCH  12  14
ENDBRANCH  11  12
ENDBRANCH  10  11
ENDBRANCH   9  10
ENDBRANCH   8   9
ENDBRANCH   7   8
ENDBRANCH   6   7
ENDBRANCH   3   6
ENDBRANCH   2   3
TORSDOF 11
ENDMDL
MODEL      431
REMARK 921   NORMALIZED FREE ENERGY PREDICTED BY IDOCK:   18.21 KCAL/MOL
REMARK 922        TOTAL FREE ENERGY PREDICTED BY IDOCK:   29.10 KCAL/MOL
REMARK 923 INTER-LIGAND FREE ENERGY PREDICTED BY IDOCK:   20.97 KCAL/MOL
REMARK 924 INTRA-LIGAND FREE ENERGY PREDICTED BY IDOCK:    8.13 KCAL/MOL
REMARK 927      BINDING AFFINITY PREDICTED BY RF-SCORE:    0.00 PKD
ROOT
HETATM    1  C   UNL     1      -7.129  17.507  72.093  1.00  0.00     8.035 C  
HETATM    2  C   UNL     1      -7.614  18.671  72.955  1.00  0.00     7.970 C  
ENDROOT
BRANCH   2   3
HETATM    3  N   UNL     1      -7.436  20.002  72.346  1.00  0.00     1.550 NA 
BRANCH   3   4
HETATM    4  C   UNL     1      -6.041  20.470  72.338  1.00  0.00     0.934 C  
HETATM    5  C   UNL     1      -5.155  19.933  71.221  1.00  0.00    -0.306 C  
ENDBRANCH   3   4
BRANCH   3   6
HETATM    6  C   UNL     1      -8.083  20.029  71.015  1.00  0.00     1.888 C  
BRANCH   6   7
HETATM    7  C   UNL     1      -8.718  18.702  70.571  1.00  0.00     3.418 C  
BRANCH   7   8
HETATM    8  O   UNL     1      -7.740  17.887  69.909  1.00  0.00     0.756 OA 
BRANCH   8   9
HETATM    9  C   UNL     1      -8.378  16.945  69.043  1.00  0.00    -0.146 C  
BRANCH   9  10
HETATM   10  C   UNL     1      -7.410  15.825  68.668  1.00  0.00    -0.137 C  
BRANCH  10  11
HETATM   11  O   UNL     1      -7.600  15.403  67.304  1.00  0.00    -0.182 OA 
BRANCH  11  12
HETATM   12  C   UNL     1      -8.762  14.731  67.056  1.00  0.00    -0.235 C  
HETATM   13  O   UNL     1      -8.804  13.561  66.688  1.00  0.00    -0.179 OA 
BRANCH  12  14
HETATM   14  C   UNL     1     -10.007  15.624  67.220  1.00  0.00    -0.236 C  
HETATM   15  C   UNL     1     -10.849  15.731  65.919  1.00  0.00    -0.272 C  
HETATM   16  C   UNL     1      -9.475  17.076  67.353  1.00  0.00    -0.242 C  
HETATM   17  C   UNL     1     -10.612  17.966  66.887  1.00  0.00    -0.271 C  
HETATM   18  C   UNL     1     -11.215  17.207  65.720  1.00  0.00     0.555 C  
BRANCH  14  19
HETATM   19  C   UNL     1     -10.864  15.107  68.392  1.00  0.00    -0.255 A  
HETATM   20  C   UNL     1     -11.803  15.293  70.641  1.00  0.00    -0.376 A  
HETATM   21  C   UNL     1     -12.407  14.045  70.517  1.00  0.00    -0.437 A  
HETATM   22  C   UNL     1     -11.038  15.815  69.593  1.00  0.00    -0.307 A  
HETATM   23  C   UNL     1     -12.256  13.325  69.340  1.00  0.00    -0.210 A  
HETATM   24  C   UNL     1     -11.501  13.854  68.286  1.00  0.00    -0.346 A  
ENDBRANCH  14  19
ENDBRANCH  12  14
ENDBRANCH  11  12
ENDBRANCH  10  11
ENDBRANCH   9  10
ENDBRANCH   8   9
ENDBRANCH   7   8
ENDBRANCH   6   7
ENDBRANCH   3   6
ENDBRANCH   2   3
TORSDOF 11
ENDMDL
MODEL      432
REMARK 921   NORMALIZED FREE ENERGY PREDICTED BY IDOCK:   25.28 KCAL/MOL
REMARK 922        TOTAL FREE ENERGY PREDICTED BY IDOCK:   40.72 KCAL/MOL
REMARK 923 INTER-LIGAND FREE ENERGY PREDICTED BY IDOCK:   15.74 KCAL/MOL
REMARK 924 INTRA-LIGAND FREE ENERGY PREDICTED BY IDOCK:   24.98 KCAL/MOL
REMARK 927      BINDING AFFINITY PREDICTED BY RF-SCORE:    0.00 PKD
ROOT
HETATM    1  C   UNL     1     -11.594   7.201  65.736  1.00  0.00     5.450 C  
HETATM    2  C   UNL     1     -11.265   8.631  65.314  1.00  0.00     6.811 C  
ENDROOT
BRANCH   2   3
HETATM    3  N   UNL     1      -9.882   8.829  64.838  1.00  0.00     0.909 NA 
BRANCH   3   4
HETATM    4  C   UNL     1      -9.402  10.213  64.966  1.00  0.00    -0.243 C  
HETATM    5  C   UNL     1      -9.894  10.990  66.181  1.00  0.00    -0.268 C  
ENDBRANCH   3   4
BRANCH   3   6
HETATM    6  C   UNL     1      -8.993   7.827  65.470  1.00  0.00     0.062 C  
BRANCH   6   7
HETATM    7  C   UNL     1      -7.564   7.776  64.907  1.00  0.00    -0.102 C  
BRANCH   7   8
HETATM    8  O   UNL     1      -6.684   8.560  65.725  1.00  0.00    -0.062 OA 
BRANCH   8   9
HETATM    9  C   UNL     1      -7.194   8.658  67.057  1.00  0.00    -0.076 C  
BRANCH   9  10
HETATM   10  C   UNL     1      -8.066   9.902  67.205  1.00  0.00    -0.117 C  
BRANCH  10  11
HETATM   11  O   UNL     1      -7.314  11.103  66.945  1.00  0.00    -0.123 OA 
BRANCH  11  12
HETATM   12  C   UNL     1      -6.492  11.508  67.957  1.00  0.00    -0.054 C  
HETATM   13  O   UNL     1      -5.770  12.499  67.888  1.00  0.00    -0.070 OA 
BRANCH  12  14
HETATM   14  C   UNL     1      -6.517  10.546  69.160  1.00  0.00    -0.054 C  
HETATM   15  C   UNL     1      -7.803  10.689  70.020  1.00  0.00     0.310 C  
HETATM   16  C   UNL     1      -5.438  11.068  70.146  1.00  0.00    -0.074 C  
HETATM   17  C   UNL     1      -5.868  10.573  71.514  1.00  0.00     0.284 C  
HETATM   18  C   UNL     1      -7.378  10.711  71.494  1.00  0.00     3.448 C  
BRANCH  14  19
HETATM   19  C   UNL     1      -6.340   9.096  68.668  1.00  0.00    -0.049 A  
HETATM   20  C   UNL     1      -5.392   7.414  67.171  1.00  0.00    -0.029 A  
HETATM   21  C   UNL     1      -6.129   6.411  67.793  1.00  0.00    -0.024 A  
HETATM   22  C   UNL     1      -5.499   8.740  67.601  1.00  0.00    -0.035 A  
HETATM   23  C   UNL     1      -6.965   6.734  68.853  1.00  0.00    -0.086 A  
HETATM   24  C   UNL     1      -7.063   8.059  69.292  1.00  0.00    -0.068 A  
ENDBRANCH  14  19
ENDBRANCH  12  14
ENDBRANCH  11  12
ENDBRANCH  10  11
ENDBRANCH   9  10
ENDBRANCH   8   9
ENDBRANCH   7   8
ENDBRANCH   6   7
ENDBRANCH   3   6
ENDBRANCH   2   3
TORSDOF 11
ENDMDL
