MODEL        1
REMARK 921   NORMALIZED FREE ENERGY PREDICTED BY IDOCK:   -5.91 KCAL/MOL
REMARK 922        TOTAL FREE ENERGY PREDICTED BY IDOCK:  -11.45 KCAL/MOL
REMARK 923 INTER-LIGAND FREE ENERGY PREDICTED BY IDOCK:   -9.71 KCAL/MOL
REMARK 924 INTRA-LIGAND FREE ENERGY PREDICTED BY IDOCK:   -1.74 KCAL/MOL
REMARK 927      BINDING AFFINITY PREDICTED BY RF-SCORE:    0.00 PKD
ROOT
HETATM    1  O   UNL     1     -12.536  13.925  71.522  1.00  0.00    -0.341 OA 
HETATM    2  C   UNL     1     -12.923  15.049  70.875  1.00  0.00    -0.405 C  
HETATM    3  C   UNL     1     -11.932  15.476  69.795  1.00  0.00    -0.364 C  
HETATM    4  O   UNL     1     -13.933  15.675  71.160  1.00  0.00    -0.564 OA 
ENDROOT
BRANCH   3   5
HETATM    5  N   UNL     1     -11.230  14.310  69.153  1.00  0.00    -0.260 NA 
BRANCH   5   6
HETATM    6  C   UNL     1     -12.102  13.755  68.064  1.00  0.00    -0.280 C  
BRANCH   6   7
HETATM    7  C   UNL     1     -11.725  12.311  67.612  1.00  0.00    -0.334 C  
BRANCH   7   8
HETATM    8  N   UNL     1     -11.575  12.092  66.131  1.00  0.00    -0.463 NA 
BRANCH   8   9
HETATM    9  C   UNL     1     -10.105  12.268  65.795  1.00  0.00    -0.252 C  
HETATM   10  O   UNL     1     -10.138   9.931  65.233  1.00  0.00    -0.313 OA 
HETATM   11  C   UNL     1      -9.360  10.938  65.694  1.00  0.00    -0.207 C  
HETATM   12  O   UNL     1      -8.180  10.793  65.972  1.00  0.00    -0.158 OA 
ENDBRANCH   8   9
BRANCH   8  13
HETATM   13  C   UNL     1     -12.323  13.196  65.421  1.00  0.00    -0.481 C  
HETATM   14  O   UNL     1     -12.595  11.619  63.635  1.00  0.00    -0.400 OA 
HETATM   15  O   UNL     1     -12.537  13.816  63.083  1.00  0.00    -0.793 OA 
HETATM   16  C   UNL     1     -12.474  12.936  63.925  1.00  0.00    -0.333 C  
ENDBRANCH   8  13
ENDBRANCH   7   8
ENDBRANCH   6   7
ENDBRANCH   5   6
BRANCH   5  17
HETATM   17  C   UNL     1      -9.956  14.798  68.533  1.00  0.00    -0.228 C  
BRANCH  17  18
HETATM   18  C   UNL     1      -9.684  16.328  68.592  1.00  0.00    -0.235 C  
BRANCH  18  19
HETATM   19  N   UNL     1      -9.425  16.986  67.257  1.00  0.00    -0.237 NA 
BRANCH  19  20
HETATM   20  C   UNL     1      -8.982  18.411  67.537  1.00  0.00    -0.264 C  
HETATM   21  O   UNL     1      -6.897  19.609  67.184  1.00  0.00    -0.202 OA 
HETATM   22  O   UNL     1      -7.579  18.139  65.603  1.00  0.00    -0.538 OA 
HETATM   23  C   UNL     1      -7.706  18.785  66.786  1.00  0.00    -0.241 C  
ENDBRANCH  19  20
BRANCH  19  24
HETATM   24  C   UNL     1     -10.742  17.076  66.518  1.00  0.00    -0.073 C  
HETATM   25  C   UNL     1     -10.671  16.504  65.106  1.00  0.00    -0.244 C  
HETATM   26  O   UNL     1     -11.370  16.883  64.180  1.00  0.00    -1.208 OA 
HETATM   27  O   UNL     1      -9.799  15.474  65.002  1.00  0.00    -0.290 OA 
ENDBRANCH  19  24
ENDBRANCH  18  19
ENDBRANCH  17  18
ENDBRANCH   5  17
ENDBRANCH   3   5
TORSDOF 11
ENDMDL
MODEL        2
REMARK 921   NORMALIZED FREE ENERGY PREDICTED BY IDOCK:   -5.80 KCAL/MOL
REMARK 922        TOTAL FREE ENERGY PREDICTED BY IDOCK:  -11.27 KCAL/MOL
REMARK 923 INTER-LIGAND FREE ENERGY PREDICTED BY IDOCK:   -9.72 KCAL/MOL
REMARK 924 INTRA-LIGAND FREE ENERGY PREDICTED BY IDOCK:   -1.55 KCAL/MOL
REMARK 927      BINDING AFFINITY PREDICTED BY RF-SCORE:    0.00 PKD
ROOT
HETATM    1  O   UNL     1     -13.967  15.471  71.012  1.00  0.00    -0.535 OA 
HETATM    2  C   UNL     1     -13.141  14.602  71.638  1.00  0.00    -0.346 C  
HETATM    3  C   UNL     1     -12.287  13.796  70.662  1.00  0.00    -0.375 C  
HETATM    4  O   UNL     1     -13.119  14.450  72.851  1.00  0.00    -0.487 OA 
ENDROOT
BRANCH   3   5
HETATM    5  N   UNL     1     -11.944  14.564  69.414  1.00  0.00    -0.318 NA 
BRANCH   5   6
HETATM    6  C   UNL     1     -10.548  15.102  69.540  1.00  0.00    -0.270 C  
BRANCH   6   7
HETATM    7  C   UNL     1     -10.435  16.646  69.365  1.00  0.00    -0.320 C  
BRANCH   7   8
HETATM    8  N   UNL     1      -9.861  17.132  68.062  1.00  0.00    -0.273 NA 
BRANCH   8   9
HETATM    9  C   UNL     1      -8.436  17.581  68.336  1.00  0.00    -0.275 C  
HETATM   10  O   UNL     1      -7.788  15.875  66.771  1.00  0.00    -0.234 OA 
HETATM   11  C   UNL     1      -7.397  16.563  67.869  1.00  0.00    -0.136 C  
HETATM   12  O   UNL     1      -6.314  16.397  68.407  1.00  0.00    -0.122 OA 
ENDBRANCH   8   9
BRANCH   8  13
HETATM   13  C   UNL     1     -10.635  18.359  67.642  1.00  0.00    -0.408 C  
HETATM   14  O   UNL     1     -10.386  17.533  65.406  1.00  0.00    -0.629 OA 
HETATM   15  O   UNL     1     -10.557  19.777  65.673  1.00  0.00    -0.507 OA 
HETATM   16  C   UNL     1     -10.504  18.656  66.152  1.00  0.00    -0.430 C  
ENDBRANCH   8  13
ENDBRANCH   7   8
ENDBRANCH   6   7
ENDBRANCH   5   6
BRANCH   5  17
HETATM   17  C   UNL     1     -11.984  13.626  68.247  1.00  0.00    -0.350 C  
BRANCH  17  18
HETATM   18  C   UNL     1     -10.817  13.724  67.223  1.00  0.00    -0.285 C  
BRANCH  18  19
HETATM   19  N   UNL     1     -10.840  12.689  66.123  1.00  0.00    -0.268 NA 
BRANCH  19  20
HETATM   20  C   UNL     1     -12.123  12.896  65.338  1.00  0.00    -0.454 C  
HETATM   21  O   UNL     1     -12.594  13.698  63.093  1.00  0.00    -0.792 OA 
HETATM   22  O   UNL     1     -10.788  12.370  63.408  1.00  0.00    -0.451 OA 
HETATM   23  C   UNL     1     -11.874  13.054  63.840  1.00  0.00    -0.477 C  
ENDBRANCH  19  20
BRANCH  19  24
HETATM   24  C   UNL     1     -10.939  11.324  66.768  1.00  0.00    -0.281 C  
HETATM   25  C   UNL     1     -10.001  10.300  66.137  1.00  0.00    -0.238 C  
HETATM   26  O   UNL     1     -10.223   9.100  66.105  1.00  0.00    -0.272 OA 
HETATM   27  O   UNL     1      -8.854  10.853  65.677  1.00  0.00    -0.185 OA 
ENDBRANCH  19  24
ENDBRANCH  18  19
ENDBRANCH  17  18
ENDBRANCH   5  17
ENDBRANCH   3   5
TORSDOF 11
ENDMDL
MODEL        3
REMARK 921   NORMALIZED FREE ENERGY PREDICTED BY IDOCK:   -5.76 KCAL/MOL
REMARK 922        TOTAL FREE ENERGY PREDICTED BY IDOCK:  -11.21 KCAL/MOL
REMARK 923 INTER-LIGAND FREE ENERGY PREDICTED BY IDOCK:  -10.04 KCAL/MOL
REMARK 924 INTRA-LIGAND FREE ENERGY PREDICTED BY IDOCK:   -1.17 KCAL/MOL
REMARK 927      BINDING AFFINITY PREDICTED BY RF-SCORE:    0.00 PKD
ROOT
HETATM    1  O   UNL     1     -10.706  17.516  65.434  1.00  0.00    -0.612 OA 
HETATM    2  C   UNL     1      -9.679  17.889  66.234  1.00  0.00    -0.269 C  
HETATM    3  C   UNL     1      -9.816  17.350  67.656  1.00  0.00    -0.282 C  
HETATM    4  O   UNL     1      -8.770  18.617  65.864  1.00  0.00    -0.481 OA 
ENDROOT
BRANCH   3   5
HETATM    5  N   UNL     1     -10.509  16.016  67.710  1.00  0.00    -0.289 NA 
BRANCH   5   6
HETATM    6  C   UNL     1      -9.475  14.931  67.799  1.00  0.00    -0.203 C  
BRANCH   6   7
HETATM    7  C   UNL     1      -9.313  14.087  66.499  1.00  0.00    -0.255 C  
BRANCH   7   8
HETATM    8  N   UNL     1     -10.557  13.427  65.970  1.00  0.00    -0.283 NA 
BRANCH   8   9
HETATM    9  C   UNL     1     -10.236  11.957  65.766  1.00  0.00    -0.242 C  
HETATM   10  O   UNL     1     -11.943  11.542  67.408  1.00  0.00    -0.623 OA 
HETATM   11  C   UNL     1     -10.786  11.074  66.885  1.00  0.00    -0.269 C  
HETATM   12  O   UNL     1     -10.259  10.038  67.258  1.00  0.00    -0.196 OA 
ENDBRANCH   8   9
BRANCH   8  13
HETATM   13  C   UNL     1     -10.846  14.007  64.606  1.00  0.00    -0.403 C  
HETATM   14  O   UNL     1     -13.157  13.693  65.157  1.00  0.00    -0.750 OA 
HETATM   15  O   UNL     1     -12.590  13.601  62.965  1.00  0.00    -0.729 OA 
HETATM   16  C   UNL     1     -12.269  13.726  64.136  1.00  0.00    -0.396 C  
ENDBRANCH   8  13
ENDBRANCH   7   8
ENDBRANCH   6   7
ENDBRANCH   5   6
BRANCH   5  17
HETATM   17  C   UNL     1     -11.355  15.964  68.945  1.00  0.00    -0.377 C  
BRANCH  17  18
HETATM   18  C   UNL     1     -10.747  15.251  70.186  1.00  0.00    -0.271 C  
BRANCH  18  19
HETATM   19  N   UNL     1     -11.723  14.433  70.999  1.00  0.00    -0.254 NA 
BRANCH  19  20
HETATM   20  C   UNL     1     -12.048  13.189  70.192  1.00  0.00    -0.321 C  
HETATM   21  O   UNL     1     -12.176  10.826  70.747  1.00  0.00    -0.316 OA 
HETATM   22  O   UNL     1     -12.943  12.332  72.253  1.00  0.00    -0.302 OA 
HETATM   23  C   UNL     1     -12.372  11.986  71.075  1.00  0.00    -0.238 C  
ENDBRANCH  19  20
BRANCH  19  24
HETATM   24  C   UNL     1     -13.007  15.223  71.119  1.00  0.00    -0.454 C  
HETATM   25  C   UNL     1     -13.125  15.966  72.446  1.00  0.00    -0.428 C  
HETATM   26  O   UNL     1     -14.186  16.234  72.987  1.00  0.00    -0.276 OA 
HETATM   27  O   UNL     1     -11.926  16.368  72.930  1.00  0.00    -0.525 OA 
ENDBRANCH  19  24
ENDBRANCH  18  19
ENDBRANCH  17  18
ENDBRANCH   5  17
ENDBRANCH   3   5
TORSDOF 11
ENDMDL
MODEL        4
REMARK 921   NORMALIZED FREE ENERGY PREDICTED BY IDOCK:   -5.75 KCAL/MOL
REMARK 922        TOTAL FREE ENERGY PREDICTED BY IDOCK:  -11.20 KCAL/MOL
REMARK 923 INTER-LIGAND FREE ENERGY PREDICTED BY IDOCK:   -9.74 KCAL/MOL
REMARK 924 INTRA-LIGAND FREE ENERGY PREDICTED BY IDOCK:   -1.46 KCAL/MOL
REMARK 927      BINDING AFFINITY PREDICTED BY RF-SCORE:    0.00 PKD
ROOT
HETATM    1  O   UNL     1     -12.336  12.127  70.945  1.00  0.00    -0.373 OA 
HETATM    2  C   UNL     1     -12.783  13.387  71.158  1.00  0.00    -0.328 C  
HETATM    3  C   UNL     1     -11.836  14.448  70.603  1.00  0.00    -0.295 C  
HETATM    4  O   UNL     1     -13.811  13.640  71.769  1.00  0.00    -0.360 OA 
ENDROOT
BRANCH   3   5
HETATM    5  N   UNL     1     -11.104  13.991  69.371  1.00  0.00    -0.235 NA 
BRANCH   5   6
HETATM    6  C   UNL     1     -12.083  13.868  68.239  1.00  0.00    -0.287 C  
BRANCH   6   7
HETATM    7  C   UNL     1     -11.774  12.709  67.244  1.00  0.00    -0.370 C  
BRANCH   7   8
HETATM    8  N   UNL     1     -11.651  13.087  65.793  1.00  0.00    -0.339 NA 
BRANCH   8   9
HETATM    9  C   UNL     1     -10.204  12.863  65.390  1.00  0.00    -0.287 C  
HETATM   10  O   UNL     1     -11.073  11.230  63.854  1.00  0.00    -0.380 OA 
HETATM   11  C   UNL     1     -10.003  11.563  64.614  1.00  0.00    -0.261 C  
HETATM   12  O   UNL     1      -8.979  10.898  64.648  1.00  0.00    -0.191 OA 
ENDBRANCH   8   9
BRANCH   8  13
HETATM   13  C   UNL     1     -11.914  14.570  65.677  1.00  0.00    -0.311 C  
HETATM   14  O   UNL     1     -12.712  14.074  63.471  1.00  0.00    -0.805 OA 
HETATM   15  O   UNL     1     -11.825  16.130  63.818  1.00  0.00    -0.885 OA 
HETATM   16  C   UNL     1     -12.115  15.020  64.233  1.00  0.00    -0.306 C  
ENDBRANCH   8  13
ENDBRANCH   7   8
ENDBRANCH   6   7
ENDBRANCH   5   6
BRANCH   5  17
HETATM   17  C   UNL     1     -10.088  15.028  69.004  1.00  0.00    -0.241 C  
BRANCH  17  18
HETATM   18  C   UNL     1     -10.608  16.475  68.772  1.00  0.00    -0.322 C  
BRANCH  18  19
HETATM   19  N   UNL     1      -9.721  17.347  67.915  1.00  0.00    -0.264 NA 
BRANCH  19  20
HETATM   20  C   UNL     1      -8.283  16.988  68.245  1.00  0.00    -0.227 C  
HETATM   21  O   UNL     1      -6.531  15.827  67.024  1.00  0.00    -0.299 OA 
HETATM   22  O   UNL     1      -7.894  17.229  65.884  1.00  0.00    -0.505 OA 
HETATM   23  C   UNL     1      -7.478  16.598  67.007  1.00  0.00    -0.204 C  
ENDBRANCH  19  20
BRANCH  19  24
HETATM   24  C   UNL     1      -9.922  18.783  68.346  1.00  0.00    -0.392 C  
HETATM   25  C   UNL     1     -10.086  19.739  67.169  1.00  0.00    -0.424 C  
HETATM   26  O   UNL     1      -9.767  20.917  67.196  1.00  0.00    -0.431 OA 
HETATM   27  O   UNL     1     -10.695  19.162  66.107  1.00  0.00    -0.421 OA 
ENDBRANCH  19  24
ENDBRANCH  18  19
ENDBRANCH  17  18
ENDBRANCH   5  17
ENDBRANCH   3   5
TORSDOF 11
ENDMDL
MODEL        5
REMARK 921   NORMALIZED FREE ENERGY PREDICTED BY IDOCK:   -5.75 KCAL/MOL
REMARK 922        TOTAL FREE ENERGY PREDICTED BY IDOCK:  -11.18 KCAL/MOL
REMARK 923 INTER-LIGAND FREE ENERGY PREDICTED BY IDOCK:   -9.82 KCAL/MOL
REMARK 924 INTRA-LIGAND FREE ENERGY PREDICTED BY IDOCK:   -1.36 KCAL/MOL
REMARK 927      BINDING AFFINITY PREDICTED BY RF-SCORE:    0.00 PKD
ROOT
HETATM    1  O   UNL     1     -11.580  15.950  72.381  1.00  0.00    -0.435 OA 
HETATM    2  C   UNL     1     -12.826  15.512  72.087  1.00  0.00    -0.408 C  
HETATM    3  C   UNL     1     -13.056  15.355  70.586  1.00  0.00    -0.354 C  
HETATM    4  O   UNL     1     -13.685  15.311  72.934  1.00  0.00    -0.478 OA 
ENDROOT
BRANCH   3   5
HETATM    5  N   UNL     1     -11.807  14.963  69.843  1.00  0.00    -0.292 NA 
BRANCH   5   6
HETATM    6  C   UNL     1     -12.097  13.750  69.007  1.00  0.00    -0.322 C  
BRANCH   6   7
HETATM    7  C   UNL     1     -10.855  13.168  68.266  1.00  0.00    -0.253 C  
BRANCH   7   8
HETATM    8  N   UNL     1     -11.020  12.899  66.795  1.00  0.00    -0.267 NA 
BRANCH   8   9
HETATM    9  C   UNL     1      -9.629  12.762  66.202  1.00  0.00    -0.212 C  
HETATM   10  O   UNL     1     -10.376  10.621  65.401  1.00  0.00    -0.272 OA 
HETATM   11  C   UNL     1      -9.294  11.323  65.811  1.00  0.00    -0.223 C  
HETATM   12  O   UNL     1      -8.168  10.853  65.838  1.00  0.00    -0.160 OA 
ENDBRANCH   8   9
BRANCH   8  13
HETATM   13  C   UNL     1     -11.647  14.121  66.167  1.00  0.00    -0.370 C  
HETATM   14  O   UNL     1     -12.940  12.574  64.871  1.00  0.00    -0.821 OA 
HETATM   15  O   UNL     1     -12.496  14.592  63.941  1.00  0.00    -0.814 OA 
HETATM   16  C   UNL     1     -12.378  13.805  64.866  1.00  0.00    -0.405 C  
ENDBRANCH   8  13
ENDBRANCH   7   8
ENDBRANCH   6   7
ENDBRANCH   5   6
BRANCH   5  17
HETATM   17  C   UNL     1     -11.421  16.084  68.928  1.00  0.00    -0.362 C  
BRANCH  17  18
HETATM   18  C   UNL     1      -9.991  16.671  69.095  1.00  0.00    -0.263 C  
BRANCH  18  19
HETATM   19  N   UNL     1      -9.461  17.423  67.897  1.00  0.00    -0.260 NA 
BRANCH  19  20
HETATM   20  C   UNL     1      -8.053  17.877  68.238  1.00  0.00    -0.293 C  
HETATM   21  O   UNL     1      -5.859  17.309  67.360  1.00  0.00    -0.123 OA 
HETATM   22  O   UNL     1      -7.586  17.502  65.909  1.00  0.00    -0.482 OA 
HETATM   23  C   UNL     1      -7.043  17.520  67.149  1.00  0.00    -0.171 C  
ENDBRANCH  19  20
BRANCH  19  24
HETATM   24  C   UNL     1     -10.293  18.675  67.727  1.00  0.00    -0.410 C  
HETATM   25  C   UNL     1     -10.630  18.970  66.269  1.00  0.00    -0.412 C  
HETATM   26  O   UNL     1     -10.823  20.091  65.826  1.00  0.00    -0.375 OA 
HETATM   27  O   UNL     1     -10.768  17.847  65.526  1.00  0.00    -0.585 OA 
ENDBRANCH  19  24
ENDBRANCH  18  19
ENDBRANCH  17  18
ENDBRANCH   5  17
ENDBRANCH   3   5
TORSDOF 11
ENDMDL
MODEL        6
REMARK 921   NORMALIZED FREE ENERGY PREDICTED BY IDOCK:   -5.69 KCAL/MOL
REMARK 922        TOTAL FREE ENERGY PREDICTED BY IDOCK:  -11.10 KCAL/MOL
REMARK 923 INTER-LIGAND FREE ENERGY PREDICTED BY IDOCK:   -9.68 KCAL/MOL
REMARK 924 INTRA-LIGAND FREE ENERGY PREDICTED BY IDOCK:   -1.42 KCAL/MOL
REMARK 927      BINDING AFFINITY PREDICTED BY RF-SCORE:    0.00 PKD
ROOT
HETATM    1  O   UNL     1     -13.903  15.605  71.109  1.00  0.00    -0.583 OA 
HETATM    2  C   UNL     1     -12.700  15.721  71.718  1.00  0.00    -0.456 C  
HETATM    3  C   UNL     1     -11.542  15.297  70.818  1.00  0.00    -0.333 C  
HETATM    4  O   UNL     1     -12.567  16.084  72.878  1.00  0.00    -0.422 OA 
ENDROOT
BRANCH   3   5
HETATM    5  N   UNL     1     -11.802  15.575  69.362  1.00  0.00    -0.364 NA 
BRANCH   5   6
HETATM    6  C   UNL     1     -11.047  16.810  68.960  1.00  0.00    -0.171 C  
BRANCH   6   7
HETATM    7  C   UNL     1      -9.581  16.547  68.500  1.00  0.00    -0.233 C  
BRANCH   7   8
HETATM    8  N   UNL     1      -9.038  17.465  67.439  1.00  0.00    -0.234 NA 
BRANCH   8   9
HETATM    9  C   UNL     1      -9.300  16.806  66.096  1.00  0.00    -0.255 C  
HETATM   10  O   UNL     1     -10.550  18.792  65.569  1.00  0.00    -0.596 OA 
HETATM   11  C   UNL     1     -10.448  17.463  65.332  1.00  0.00     0.001 C  
HETATM   12  O   UNL     1     -11.188  16.866  64.566  1.00  0.00    -1.057 OA 
ENDBRANCH   8   9
BRANCH   8  13
HETATM   13  C   UNL     1      -7.539  17.534  67.610  1.00  0.00    -0.195 C  
HETATM   14  O   UNL     1      -7.950  19.553  68.835  1.00  0.00    -0.353 OA 
HETATM   15  O   UNL     1      -5.969  19.381  67.749  1.00  0.00    -0.198 OA 
HETATM   16  C   UNL     1      -7.058  18.916  68.039  1.00  0.00    -0.238 C  
ENDBRANCH   8  13
ENDBRANCH   7   8
ENDBRANCH   6   7
ENDBRANCH   5   6
BRANCH   5  17
HETATM   17  C   UNL     1     -11.287  14.424  68.554  1.00  0.00    -0.282 C  
BRANCH  17  18
HETATM   18  C   UNL     1     -11.846  14.270  67.111  1.00  0.00    -0.425 C  
BRANCH  18  19
HETATM   19  N   UNL     1     -11.385  13.036  66.372  1.00  0.00    -0.304 NA 
BRANCH  19  20
HETATM   20  C   UNL     1     -12.422  12.737  65.304  1.00  0.00    -0.465 C  
HETATM   21  O   UNL     1     -12.719  13.489  63.012  1.00  0.00    -0.668 OA 
HETATM   22  O   UNL     1     -10.619  13.073  63.748  1.00  0.00    -0.347 OA 
HETATM   23  C   UNL     1     -11.961  13.153  63.909  1.00  0.00    -0.488 C  
ENDBRANCH  19  20
BRANCH  19  24
HETATM   24  C   UNL     1     -11.411  11.875  67.342  1.00  0.00    -0.324 C  
HETATM   25  C   UNL     1     -10.511  10.721  66.911  1.00  0.00    -0.252 C  
HETATM   26  O   UNL     1     -10.715   9.552  67.196  1.00  0.00    -0.255 OA 
HETATM   27  O   UNL     1      -9.413  11.137  66.237  1.00  0.00    -0.185 OA 
ENDBRANCH  19  24
ENDBRANCH  18  19
ENDBRANCH  17  18
ENDBRANCH   5  17
ENDBRANCH   3   5
TORSDOF 11
ENDMDL
MODEL        7
REMARK 921   NORMALIZED FREE ENERGY PREDICTED BY IDOCK:   -5.69 KCAL/MOL
REMARK 922        TOTAL FREE ENERGY PREDICTED BY IDOCK:  -11.09 KCAL/MOL
REMARK 923 INTER-LIGAND FREE ENERGY PREDICTED BY IDOCK:   -9.72 KCAL/MOL
REMARK 924 INTRA-LIGAND FREE ENERGY PREDICTED BY IDOCK:   -1.37 KCAL/MOL
REMARK 927      BINDING AFFINITY PREDICTED BY RF-SCORE:    0.00 PKD
ROOT
HETATM    1  O   UNL     1     -13.393  15.016  71.202  1.00  0.00    -0.396 OA 
HETATM    2  C   UNL     1     -12.289  15.717  71.549  1.00  0.00    -0.455 C  
HETATM    3  C   UNL     1     -11.114  15.469  70.605  1.00  0.00    -0.352 C  
HETATM    4  O   UNL     1     -12.231  16.434  72.538  1.00  0.00    -0.485 OA 
ENDROOT
BRANCH   3   5
HETATM    5  N   UNL     1     -11.550  15.191  69.192  1.00  0.00    -0.304 NA 
BRANCH   5   6
HETATM    6  C   UNL     1     -11.057  16.296  68.303  1.00  0.00    -0.346 C  
BRANCH   6   7
HETATM    7  C   UNL     1     -10.229  17.393  69.038  1.00  0.00    -0.317 C  
BRANCH   7   8
HETATM    8  N   UNL     1      -9.354  18.262  68.175  1.00  0.00    -0.287 NA 
BRANCH   8   9
HETATM    9  C   UNL     1      -9.452  17.731  66.756  1.00  0.00    -0.285 C  
HETATM   10  O   UNL     1     -10.367  19.885  66.205  1.00  0.00    -0.465 OA 
HETATM   11  C   UNL     1     -10.373  18.572  65.874  1.00  0.00    -0.315 C  
HETATM   12  O   UNL     1     -11.030  18.123  64.948  1.00  0.00    -0.718 OA 
ENDBRANCH   8   9
BRANCH   8  13
HETATM   13  C   UNL     1      -7.924  18.067  68.619  1.00  0.00    -0.294 C  
HETATM   14  O   UNL     1      -7.587  20.337  67.926  1.00  0.00    -0.293 OA 
HETATM   15  O   UNL     1      -5.804  18.941  67.819  1.00  0.00    -0.192 OA 
HETATM   16  C   UNL     1      -6.985  19.132  68.063  1.00  0.00    -0.233 C  
ENDBRANCH   8  13
ENDBRANCH   7   8
ENDBRANCH   6   7
ENDBRANCH   5   6
BRANCH   5  17
HETATM   17  C   UNL     1     -10.923  13.908  68.740  1.00  0.00    -0.263 C  
BRANCH  17  18
HETATM   18  C   UNL     1     -11.850  12.882  68.029  1.00  0.00    -0.343 C  
BRANCH  18  19
HETATM   19  N   UNL     1     -11.506  12.599  66.586  1.00  0.00    -0.330 NA 
BRANCH  19  20
HETATM   20  C   UNL     1      -9.994  12.649  66.465  1.00  0.00    -0.251 C  
HETATM   21  O   UNL     1      -8.273  10.939  66.321  1.00  0.00    -0.156 OA 
HETATM   22  O   UNL     1     -10.226  10.601  65.227  1.00  0.00    -0.282 OA 
HETATM   23  C   UNL     1      -9.396  11.316  66.023  1.00  0.00    -0.214 C  
ENDBRANCH  19  20
BRANCH  19  24
HETATM   24  C   UNL     1     -12.049  13.733  65.745  1.00  0.00    -0.429 C  
HETATM   25  C   UNL     1     -12.553  13.273  64.381  1.00  0.00    -0.214 C  
HETATM   26  O   UNL     1     -12.559  13.976  63.382  1.00  0.00    -0.845 OA 
HETATM   27  O   UNL     1     -13.067  12.021  64.407  1.00  0.00    -0.655 OA 
ENDBRANCH  19  24
ENDBRANCH  18  19
ENDBRANCH  17  18
ENDBRANCH   5  17
ENDBRANCH   3   5
TORSDOF 11
ENDMDL
MODEL        8
REMARK 921   NORMALIZED FREE ENERGY PREDICTED BY IDOCK:   -5.63 KCAL/MOL
REMARK 922        TOTAL FREE ENERGY PREDICTED BY IDOCK:  -11.00 KCAL/MOL
REMARK 923 INTER-LIGAND FREE ENERGY PREDICTED BY IDOCK:   -9.44 KCAL/MOL
REMARK 924 INTRA-LIGAND FREE ENERGY PREDICTED BY IDOCK:   -1.56 KCAL/MOL
REMARK 927      BINDING AFFINITY PREDICTED BY RF-SCORE:    0.00 PKD
ROOT
HETATM    1  O   UNL     1     -12.088  14.763  71.791  1.00  0.00    -0.338 OA 
HETATM    2  C   UNL     1     -12.606  13.596  71.341  1.00  0.00    -0.328 C  
HETATM    3  C   UNL     1     -12.444  13.424  69.833  1.00  0.00    -0.093 C  
HETATM    4  O   UNL     1     -13.180  12.794  72.063  1.00  0.00    -0.454 OA 
ENDROOT
BRANCH   3   5
HETATM    5  N   UNL     1     -11.195  14.074  69.302  1.00  0.00    -0.261 NA 
BRANCH   5   6
HETATM    6  C   UNL     1     -10.565  13.164  68.287  1.00  0.00    -0.248 C  
BRANCH   6   7
HETATM    7  C   UNL     1     -11.574  12.254  67.524  1.00  0.00    -0.353 C  
BRANCH   7   8
HETATM    8  N   UNL     1     -11.443  12.220  66.026  1.00  0.00    -0.364 NA 
BRANCH   8   9
HETATM    9  C   UNL     1      -9.965  12.340  65.699  1.00  0.00    -0.251 C  
HETATM   10  O   UNL     1     -10.254  10.293  64.471  1.00  0.00    -0.314 OA 
HETATM   11  C   UNL     1      -9.369  11.033  65.178  1.00  0.00    -0.220 C  
HETATM   12  O   UNL     1      -8.209  10.694  65.354  1.00  0.00    -0.160 OA 
ENDBRANCH   8   9
BRANCH   8  13
HETATM   13  C   UNL     1     -12.117  13.454  65.473  1.00  0.00    -0.428 C  
HETATM   14  O   UNL     1     -12.824  12.044  63.668  1.00  0.00    -0.713 OA 
HETATM   15  O   UNL     1     -12.536  14.246  63.216  1.00  0.00    -0.716 OA 
HETATM   16  C   UNL     1     -12.489  13.313  64.001  1.00  0.00    -0.257 C  
ENDBRANCH   8  13
ENDBRANCH   7   8
ENDBRANCH   6   7
ENDBRANCH   5   6
BRANCH   5  17
HETATM   17  C   UNL     1     -11.572  15.352  68.618  1.00  0.00    -0.359 C  
BRANCH  17  18
HETATM   18  C   UNL     1     -10.838  16.642  69.082  1.00  0.00    -0.315 C  
BRANCH  18  19
HETATM   19  N   UNL     1     -10.067  17.365  68.003  1.00  0.00    -0.308 NA 
BRANCH  19  20
HETATM   20  C   UNL     1     -10.216  16.557  66.726  1.00  0.00    -0.295 C  
HETATM   21  O   UNL     1     -11.310  16.986  64.598  1.00  0.00    -0.889 OA 
HETATM   22  O   UNL     1     -10.223  18.691  65.617  1.00  0.00    -0.536 OA 
HETATM   23  C   UNL     1     -10.660  17.412  65.541  1.00  0.00    -0.108 C  
ENDBRANCH  19  20
BRANCH  19  24
HETATM   24  C   UNL     1      -8.600  17.328  68.374  1.00  0.00    -0.251 C  
HETATM   25  C   UNL     1      -7.936  18.700  68.309  1.00  0.00    -0.312 C  
HETATM   26  O   UNL     1      -6.753  18.875  68.067  1.00  0.00    -0.222 OA 
HETATM   27  O   UNL     1      -8.785  19.707  68.623  1.00  0.00    -0.343 OA 
ENDBRANCH  19  24
ENDBRANCH  18  19
ENDBRANCH  17  18
ENDBRANCH   5  17
ENDBRANCH   3   5
TORSDOF 11
ENDMDL
MODEL        9
REMARK 921   NORMALIZED FREE ENERGY PREDICTED BY IDOCK:   -5.62 KCAL/MOL
REMARK 922        TOTAL FREE ENERGY PREDICTED BY IDOCK:  -10.97 KCAL/MOL
REMARK 923 INTER-LIGAND FREE ENERGY PREDICTED BY IDOCK:   -9.65 KCAL/MOL
REMARK 924 INTRA-LIGAND FREE ENERGY PREDICTED BY IDOCK:   -1.32 KCAL/MOL
REMARK 927      BINDING AFFINITY PREDICTED BY RF-SCORE:    0.00 PKD
ROOT
HETATM    1  O   UNL     1     -13.143  13.658  65.179  1.00  0.00    -0.750 OA 
HETATM    2  C   UNL     1     -12.612  12.520  64.676  1.00  0.00    -0.426 C  
HETATM    3  C   UNL     1     -11.472  11.974  65.533  1.00  0.00    -0.313 C  
HETATM    4  O   UNL     1     -12.979  12.014  63.625  1.00  0.00    -0.747 OA 
ENDROOT
BRANCH   3   5
HETATM    5  N   UNL     1     -11.651  12.268  66.998  1.00  0.00    -0.419 NA 
BRANCH   5   6
HETATM    6  C   UNL     1     -11.476  10.995  67.776  1.00  0.00    -0.261 C  
BRANCH   6   7
HETATM    7  C   UNL     1     -12.122  11.015  69.194  1.00  0.00    -0.263 C  
BRANCH   7   8
HETATM    8  N   UNL     1     -11.817   9.840  70.084  1.00  0.00    -0.144 NA 
BRANCH   8   9
HETATM    9  C   UNL     1     -12.501  10.093  71.416  1.00  0.00    -0.423 C  
HETATM   10  O   UNL     1     -12.758   7.706  71.533  1.00  0.00    -0.327 OA 
HETATM   11  C   UNL     1     -13.302   8.888  71.905  1.00  0.00    -0.405 C  
HETATM   12  O   UNL     1     -14.314   8.970  72.582  1.00  0.00    -0.603 OA 
ENDBRANCH   8   9
BRANCH   8  13
HETATM   13  C   UNL     1     -10.330   9.833  70.349  1.00  0.00    -0.293 C  
HETATM   14  O   UNL     1     -10.252   7.966  68.847  1.00  0.00    -0.197 OA 
HETATM   15  O   UNL     1      -8.676   8.059  70.472  1.00  0.00    -0.132 OA 
HETATM   16  C   UNL     1      -9.664   8.526  69.930  1.00  0.00    -0.179 C  
ENDBRANCH   8  13
ENDBRANCH   7   8
ENDBRANCH   6   7
ENDBRANCH   5   6
BRANCH   5  17
HETATM   17  C   UNL     1     -10.589  13.232  67.427  1.00  0.00    -0.246 C  
BRANCH  17  18
HETATM   18  C   UNL     1     -11.040  14.689  67.731  1.00  0.00    -0.298 C  
BRANCH  18  19
HETATM   19  N   UNL     1     -10.184  15.769  67.111  1.00  0.00    -0.273 NA 
BRANCH  19  20
HETATM   20  C   UNL     1     -10.231  15.572  65.606  1.00  0.00    -0.376 C  
HETATM   21  O   UNL     1     -11.586  16.545  63.839  1.00  0.00    -1.175 OA 
HETATM   22  O   UNL     1     -10.893  17.883  65.529  1.00  0.00    -0.480 OA 
HETATM   23  C   UNL     1     -10.987  16.691  64.893  1.00  0.00    -0.150 C  
ENDBRANCH  19  20
BRANCH  19  24
HETATM   24  C   UNL     1      -8.752  15.531  67.537  1.00  0.00    -0.172 C  
HETATM   25  C   UNL     1      -8.023  16.816  67.915  1.00  0.00    -0.177 C  
HETATM   26  O   UNL     1      -6.818  16.976  67.803  1.00  0.00    -0.142 OA 
HETATM   27  O   UNL     1      -8.844  17.742  68.462  1.00  0.00    -0.282 OA 
ENDBRANCH  19  24
ENDBRANCH  18  19
ENDBRANCH  17  18
ENDBRANCH   5  17
ENDBRANCH   3   5
TORSDOF 11
ENDMDL
MODEL       10
REMARK 921   NORMALIZED FREE ENERGY PREDICTED BY IDOCK:   -5.62 KCAL/MOL
REMARK 922        TOTAL FREE ENERGY PREDICTED BY IDOCK:  -10.97 KCAL/MOL
REMARK 923 INTER-LIGAND FREE ENERGY PREDICTED BY IDOCK:   -9.48 KCAL/MOL
REMARK 924 INTRA-LIGAND FREE ENERGY PREDICTED BY IDOCK:   -1.49 KCAL/MOL
REMARK 927      BINDING AFFINITY PREDICTED BY RF-SCORE:    0.00 PKD
ROOT
HETATM    1  O   UNL     1     -11.652  15.911  72.299  1.00  0.00    -0.427 OA 
HETATM    2  C   UNL     1     -12.881  15.460  71.953  1.00  0.00    -0.396 C  
HETATM    3  C   UNL     1     -13.071  15.373  70.441  1.00  0.00    -0.180 C  
HETATM    4  O   UNL     1     -13.754  15.198  72.768  1.00  0.00    -0.468 OA 
ENDROOT
BRANCH   3   5
HETATM    5  N   UNL     1     -11.797  15.046  69.710  1.00  0.00    -0.301 NA 
BRANCH   5   6
HETATM    6  C   UNL     1     -12.000  13.792  68.910  1.00  0.00    -0.359 C  
BRANCH   6   7
HETATM    7  C   UNL     1     -11.959  14.000  67.366  1.00  0.00    -0.404 C  
BRANCH   7   8
HETATM    8  N   UNL     1     -11.455  12.842  66.548  1.00  0.00    -0.323 NA 
BRANCH   8   9
HETATM    9  C   UNL     1     -12.422  12.652  65.393  1.00  0.00    -0.355 C  
HETATM   10  O   UNL     1     -10.516  13.017  63.973  1.00  0.00    -0.418 OA 
HETATM   11  C   UNL     1     -11.860  13.156  64.065  1.00  0.00    -0.453 C  
HETATM   12  O   UNL     1     -12.544  13.614  63.163  1.00  0.00    -0.792 OA 
ENDBRANCH   8   9
BRANCH   8  13
HETATM   13  C   UNL     1     -11.542  11.599  67.402  1.00  0.00    -0.254 C  
HETATM   14  O   UNL     1      -9.292  11.171  66.692  1.00  0.00    -0.170 OA 
HETATM   15  O   UNL     1     -10.581   9.378  67.200  1.00  0.00    -0.260 OA 
HETATM   16  C   UNL     1     -10.450  10.585  67.076  1.00  0.00    -0.249 C  
ENDBRANCH   8  13
ENDBRANCH   7   8
ENDBRANCH   6   7
ENDBRANCH   5   6
BRANCH   5  17
HETATM   17  C   UNL     1     -11.487  16.164  68.763  1.00  0.00    -0.340 C  
BRANCH  17  18
HETATM   18  C   UNL     1     -10.225  17.019  69.071  1.00  0.00    -0.313 C  
BRANCH  18  19
HETATM   19  N   UNL     1      -9.605  17.703  67.875  1.00  0.00    -0.275 NA 
BRANCH  19  20
HETATM   20  C   UNL     1      -8.316  18.352  68.346  1.00  0.00    -0.308 C  
HETATM   21  O   UNL     1      -5.966  17.827  68.013  1.00  0.00    -0.159 OA 
HETATM   22  O   UNL     1      -7.391  17.544  66.278  1.00  0.00    -0.266 OA 
HETATM   23  C   UNL     1      -7.098  17.874  67.558  1.00  0.00    -0.194 C  
ENDBRANCH  19  20
BRANCH  19  24
HETATM   24  C   UNL     1     -10.527  18.824  67.448  1.00  0.00    -0.431 C  
HETATM   25  C   UNL     1     -10.647  18.951  65.933  1.00  0.00    -0.373 C  
HETATM   26  O   UNL     1     -10.883  19.998  65.352  1.00  0.00    -0.363 OA 
HETATM   27  O   UNL     1     -10.538  17.760  65.298  1.00  0.00    -0.651 OA 
ENDBRANCH  19  24
ENDBRANCH  18  19
ENDBRANCH  17  18
ENDBRANCH   5  17
ENDBRANCH   3   5
TORSDOF 11
ENDMDL
MODEL       11
REMARK 921   NORMALIZED FREE ENERGY PREDICTED BY IDOCK:   -5.58 KCAL/MOL
REMARK 922        TOTAL FREE ENERGY PREDICTED BY IDOCK:  -10.91 KCAL/MOL
REMARK 923 INTER-LIGAND FREE ENERGY PREDICTED BY IDOCK:   -9.62 KCAL/MOL
REMARK 924 INTRA-LIGAND FREE ENERGY PREDICTED BY IDOCK:   -1.29 KCAL/MOL
REMARK 927      BINDING AFFINITY PREDICTED BY RF-SCORE:    0.00 PKD
ROOT
HETATM    1  O   UNL     1     -13.915  14.414  71.669  1.00  0.00    -0.400 OA 
HETATM    2  C   UNL     1     -12.716  15.030  71.553  1.00  0.00    -0.340 C  
HETATM    3  C   UNL     1     -11.729  14.240  70.698  1.00  0.00    -0.223 C  
HETATM    4  O   UNL     1     -12.444  16.083  72.113  1.00  0.00    -0.451 OA 
ENDROOT
BRANCH   3   5
HETATM    5  N   UNL     1     -12.402  13.453  69.606  1.00  0.00    -0.199 NA 
BRANCH   5   6
HETATM    6  C   UNL     1     -11.996  14.018  68.275  1.00  0.00    -0.349 C  
BRANCH   6   7
HETATM    7  C   UNL     1     -11.689  12.944  67.187  1.00  0.00    -0.377 C  
BRANCH   7   8
HETATM    8  N   UNL     1     -11.516  13.448  65.780  1.00  0.00    -0.314 NA 
BRANCH   8   9
HETATM    9  C   UNL     1     -10.232  12.845  65.240  1.00  0.00    -0.278 C  
HETATM   10  O   UNL     1     -11.613  11.903  63.512  1.00  0.00    -0.439 OA 
HETATM   11  C   UNL     1     -10.485  11.720  64.238  1.00  0.00    -0.325 C  
HETATM   12  O   UNL     1      -9.742  10.764  64.082  1.00  0.00    -0.254 OA 
ENDBRANCH   8   9
BRANCH   8  13
HETATM   13  C   UNL     1     -11.306  14.943  65.846  1.00  0.00    -0.306 C  
HETATM   14  O   UNL     1     -12.783  15.054  63.961  1.00  0.00    -0.772 OA 
HETATM   15  O   UNL     1     -11.218  16.681  64.153  1.00  0.00    -1.103 OA 
HETATM   16  C   UNL     1     -11.730  15.653  64.565  1.00  0.00    -0.220 C  
ENDBRANCH   8  13
ENDBRANCH   7   8
ENDBRANCH   6   7
ENDBRANCH   5   6
BRANCH   5  17
HETATM   17  C   UNL     1     -11.933  12.033  69.678  1.00  0.00    -0.293 C  
BRANCH  17  18
HETATM   18  C   UNL     1     -12.380  11.204  70.916  1.00  0.00    -0.399 C  
BRANCH  18  19
HETATM   19  N   UNL     1     -11.628   9.912  71.129  1.00  0.00    -0.370 NA 
BRANCH  19  20
HETATM   20  C   UNL     1     -10.796   9.665  69.884  1.00  0.00    -0.256 C  
HETATM   21  O   UNL     1      -8.455  10.031  69.341  1.00  0.00    -0.143 OA 
HETATM   22  O   UNL     1      -8.980   9.295  71.416  1.00  0.00    -0.311 OA 
HETATM   23  C   UNL     1      -9.296   9.703  70.164  1.00  0.00    -0.251 C  
ENDBRANCH  19  20
BRANCH  19  24
HETATM   24  C   UNL     1     -12.640   8.790  71.208  1.00  0.00    -0.246 C  
HETATM   25  C   UNL     1     -12.117   7.569  71.957  1.00  0.00    -0.291 C  
HETATM   26  O   UNL     1     -12.486   6.426  71.741  1.00  0.00    -0.316 OA 
HETATM   27  O   UNL     1     -11.249   7.893  72.944  1.00  0.00    -0.398 OA 
ENDBRANCH  19  24
ENDBRANCH  18  19
ENDBRANCH  17  18
ENDBRANCH   5  17
ENDBRANCH   3   5
TORSDOF 11
ENDMDL
MODEL       12
REMARK 921   NORMALIZED FREE ENERGY PREDICTED BY IDOCK:   -5.58 KCAL/MOL
REMARK 922        TOTAL FREE ENERGY PREDICTED BY IDOCK:  -10.90 KCAL/MOL
REMARK 923 INTER-LIGAND FREE ENERGY PREDICTED BY IDOCK:   -9.48 KCAL/MOL
REMARK 924 INTRA-LIGAND FREE ENERGY PREDICTED BY IDOCK:   -1.42 KCAL/MOL
REMARK 927      BINDING AFFINITY PREDICTED BY RF-SCORE:    0.00 PKD
ROOT
HETATM    1  O   UNL     1     -12.460  15.363  69.499  1.00  0.00    -0.218 OA 
HETATM    2  C   UNL     1     -11.459  15.951  70.194  1.00  0.00    -0.361 C  
HETATM    3  C   UNL     1     -10.175  16.084  69.378  1.00  0.00    -0.270 C  
HETATM    4  O   UNL     1     -11.563  16.293  71.363  1.00  0.00    -0.448 OA 
ENDROOT
BRANCH   3   5
HETATM    5  N   UNL     1     -10.436  16.281  67.909  1.00  0.00    -0.285 NA 
BRANCH   5   6
HETATM    6  C   UNL     1     -10.485  17.753  67.615  1.00  0.00    -0.388 C  
BRANCH   6   7
HETATM    7  C   UNL     1      -9.496  18.611  68.460  1.00  0.00    -0.350 C  
BRANCH   7   8
HETATM    8  N   UNL     1      -8.147  18.873  67.848  1.00  0.00    -0.267 NA 
BRANCH   8   9
HETATM    9  C   UNL     1      -7.301  19.567  68.901  1.00  0.00    -0.363 C  
HETATM   10  O   UNL     1      -5.703  17.813  68.514  1.00  0.00    -0.163 OA 
HETATM   11  C   UNL     1      -6.183  18.675  69.440  1.00  0.00    -0.265 C  
HETATM   12  O   UNL     1      -5.744  18.743  70.577  1.00  0.00    -0.232 OA 
ENDBRANCH   8   9
BRANCH   8  13
HETATM   13  C   UNL     1      -8.333  19.856  66.717  1.00  0.00    -0.322 C  
HETATM   14  O   UNL     1      -6.948  18.376  65.438  1.00  0.00    -0.519 OA 
HETATM   15  O   UNL     1      -6.904  20.574  64.890  1.00  0.00    -0.292 OA 
HETATM   16  C   UNL     1      -7.311  19.670  65.600  1.00  0.00    -0.251 C  
ENDBRANCH   8  13
ENDBRANCH   7   8
ENDBRANCH   6   7
ENDBRANCH   5   6
BRANCH   5  17
HETATM   17  C   UNL     1      -9.300  15.684  67.136  1.00  0.00    -0.218 C  
BRANCH  17  18
HETATM   18  C   UNL     1      -9.306  14.140  66.953  1.00  0.00    -0.264 C  
BRANCH  18  19
HETATM   19  N   UNL     1     -10.583  13.565  66.388  1.00  0.00    -0.280 NA 
BRANCH  19  20
HETATM   20  C   UNL     1     -10.367  12.071  66.218  1.00  0.00    -0.221 C  
HETATM   21  O   UNL     1     -10.631  10.168  67.707  1.00  0.00    -0.218 OA 
HETATM   22  O   UNL     1     -12.157  11.838  67.807  1.00  0.00    -0.595 OA 
HETATM   23  C   UNL     1     -11.036  11.255  67.321  1.00  0.00    -0.286 C  
ENDBRANCH  19  20
BRANCH  19  24
HETATM   24  C   UNL     1     -10.778  14.137  65.001  1.00  0.00    -0.416 C  
HETATM   25  C   UNL     1     -12.195  13.942  64.472  1.00  0.00    -0.417 C  
HETATM   26  O   UNL     1     -12.474  13.842  63.288  1.00  0.00    -0.817 OA 
HETATM   27  O   UNL     1     -13.128  13.966  65.453  1.00  0.00    -0.752 OA 
ENDBRANCH  19  24
ENDBRANCH  18  19
ENDBRANCH  17  18
ENDBRANCH   5  17
ENDBRANCH   3   5
TORSDOF 11
ENDMDL
MODEL       13
REMARK 921   NORMALIZED FREE ENERGY PREDICTED BY IDOCK:   -5.56 KCAL/MOL
REMARK 922        TOTAL FREE ENERGY PREDICTED BY IDOCK:  -10.88 KCAL/MOL
REMARK 923 INTER-LIGAND FREE ENERGY PREDICTED BY IDOCK:   -9.37 KCAL/MOL
REMARK 924 INTRA-LIGAND FREE ENERGY PREDICTED BY IDOCK:   -1.51 KCAL/MOL
REMARK 927      BINDING AFFINITY PREDICTED BY RF-SCORE:    0.00 PKD
ROOT
HETATM    1  O   UNL     1     -11.475  16.505  64.024  1.00  0.00    -1.137 OA 
HETATM    2  C   UNL     1     -11.807  15.239  64.370  1.00  0.00    -0.281 C  
HETATM    3  C   UNL     1     -10.974  14.710  65.535  1.00  0.00    -0.340 C  
HETATM    4  O   UNL     1     -12.652  14.581  63.780  1.00  0.00    -0.825 OA 
ENDROOT
BRANCH   3   5
HETATM    5  N   UNL     1     -10.571  15.790  66.502  1.00  0.00    -0.309 NA 
BRANCH   5   6
HETATM    6  C   UNL     1     -11.315  15.594  67.791  1.00  0.00    -0.261 C  
BRANCH   6   7
HETATM    7  C   UNL     1     -11.783  14.129  68.047  1.00  0.00    -0.359 C  
BRANCH   7   8
HETATM    8  N   UNL     1     -11.415  13.532  69.378  1.00  0.00    -0.284 NA 
BRANCH   8   9
HETATM    9  C   UNL     1     -11.321  12.028  69.187  1.00  0.00    -0.281 C  
HETATM   10  O   UNL     1      -9.119  12.456  68.322  1.00  0.00    -0.195 OA 
HETATM   11  C   UNL     1     -10.184  11.623  68.251  1.00  0.00    -0.199 C  
HETATM   12  O   UNL     1     -10.210  10.638  67.530  1.00  0.00    -0.183 OA 
ENDBRANCH   8   9
BRANCH   8  13
HETATM   13  C   UNL     1     -12.559  13.782  70.331  1.00  0.00    -0.256 C  
HETATM   14  O   UNL     1     -11.214  15.568  71.196  1.00  0.00    -0.344 OA 
HETATM   15  O   UNL     1     -12.665  14.574  72.625  1.00  0.00    -0.361 OA 
HETATM   16  C   UNL     1     -12.157  14.652  71.518  1.00  0.00    -0.348 C  
ENDBRANCH   8  13
ENDBRANCH   7   8
ENDBRANCH   6   7
ENDBRANCH   5   6
BRANCH   5  17
HETATM   17  C   UNL     1      -9.105  15.663  66.779  1.00  0.00    -0.254 C  
BRANCH  17  18
HETATM   18  C   UNL     1      -8.199  16.851  66.346  1.00  0.00    -0.307 C  
BRANCH  18  19
HETATM   19  N   UNL     1      -8.415  18.135  67.111  1.00  0.00    -0.238 NA 
BRANCH  19  20
HETATM   20  C   UNL     1      -8.931  19.166  66.123  1.00  0.00    -0.219 C  
HETATM   21  O   UNL     1     -11.149  19.729  65.305  1.00  0.00    -0.395 OA 
HETATM   22  O   UNL     1     -10.909  19.190  67.491  1.00  0.00    -0.473 OA 
HETATM   23  C   UNL     1     -10.438  19.382  66.236  1.00  0.00    -0.493 C  
ENDBRANCH  19  20
BRANCH  19  24
HETATM   24  C   UNL     1      -7.066  18.626  67.590  1.00  0.00    -0.211 C  
HETATM   25  C   UNL     1      -7.172  19.704  68.663  1.00  0.00    -0.336 C  
HETATM   26  O   UNL     1      -6.337  20.576  68.840  1.00  0.00    -0.314 OA 
HETATM   27  O   UNL     1      -8.259  19.549  69.455  1.00  0.00    -0.167 OA 
ENDBRANCH  19  24
ENDBRANCH  18  19
ENDBRANCH  17  18
ENDBRANCH   5  17
ENDBRANCH   3   5
TORSDOF 11
ENDMDL
MODEL       14
REMARK 921   NORMALIZED FREE ENERGY PREDICTED BY IDOCK:   -5.56 KCAL/MOL
REMARK 922        TOTAL FREE ENERGY PREDICTED BY IDOCK:  -10.88 KCAL/MOL
REMARK 923 INTER-LIGAND FREE ENERGY PREDICTED BY IDOCK:   -9.28 KCAL/MOL
REMARK 924 INTRA-LIGAND FREE ENERGY PREDICTED BY IDOCK:   -1.61 KCAL/MOL
REMARK 927      BINDING AFFINITY PREDICTED BY RF-SCORE:    0.00 PKD
ROOT
HETATM    1  O   UNL     1     -12.421  14.308  71.941  1.00  0.00    -0.330 OA 
HETATM    2  C   UNL     1     -13.038  15.202  71.134  1.00  0.00    -0.450 C  
HETATM    3  C   UNL     1     -12.178  15.609  69.940  1.00  0.00    -0.294 C  
HETATM    4  O   UNL     1     -14.145  15.664  71.367  1.00  0.00    -0.541 OA 
ENDROOT
BRANCH   3   5
HETATM    5  N   UNL     1     -11.274  14.502  69.467  1.00  0.00    -0.259 NA 
BRANCH   5   6
HETATM    6  C   UNL     1     -12.075  13.538  68.641  1.00  0.00    -0.268 C  
BRANCH   6   7
HETATM    7  C   UNL     1     -12.137  13.887  67.124  1.00  0.00    -0.387 C  
BRANCH   7   8
HETATM    8  N   UNL     1     -11.520  12.889  66.182  1.00  0.00    -0.330 NA 
BRANCH   8   9
HETATM    9  C   UNL     1     -12.519  12.645  65.065  1.00  0.00    -0.487 C  
HETATM   10  O   UNL     1     -10.629  12.787  63.586  1.00  0.00    -0.393 OA 
HETATM   11  C   UNL     1     -11.961  13.000  63.688  1.00  0.00    -0.539 C  
HETATM   12  O   UNL     1     -12.642  13.409  62.760  1.00  0.00    -0.403 OA 
ENDBRANCH   8   9
BRANCH   8  13
HETATM   13  C   UNL     1     -11.365  11.584  66.926  1.00  0.00    -0.253 C  
HETATM   14  O   UNL     1      -9.052  11.710  66.308  1.00  0.00    -0.210 OA 
HETATM   15  O   UNL     1      -9.939   9.645  66.597  1.00  0.00    -0.205 OA 
HETATM   16  C   UNL     1     -10.069  10.858  66.579  1.00  0.00    -0.222 C  
ENDBRANCH   8  13
ENDBRANCH   7   8
ENDBRANCH   6   7
ENDBRANCH   5   6
BRANCH   5  17
HETATM   17  C   UNL     1     -10.206  15.092  68.599  1.00  0.00    -0.227 C  
BRANCH  17  18
HETATM   18  C   UNL     1      -9.770  16.552  68.911  1.00  0.00    -0.257 C  
BRANCH  18  19
HETATM   19  N   UNL     1      -9.727  17.478  67.719  1.00  0.00    -0.267 NA 
BRANCH  19  20
HETATM   20  C   UNL     1      -9.598  16.611  66.480  1.00  0.00    -0.273 C  
HETATM   21  O   UNL     1     -11.017  16.253  64.540  1.00  0.00    -0.687 OA 
HETATM   22  O   UNL     1     -10.848  18.347  65.382  1.00  0.00    -0.577 OA 
HETATM   23  C   UNL     1     -10.567  17.023  65.374  1.00  0.00    -0.134 C  
ENDBRANCH  19  20
BRANCH  19  24
HETATM   24  C   UNL     1      -8.458  18.298  67.811  1.00  0.00    -0.249 C  
HETATM   25  C   UNL     1      -8.673  19.767  67.460  1.00  0.00    -0.330 C  
HETATM   26  O   UNL     1      -7.812  20.488  66.982  1.00  0.00    -0.324 OA 
HETATM   27  O   UNL     1      -9.904  20.212  67.805  1.00  0.00    -0.380 OA 
ENDBRANCH  19  24
ENDBRANCH  18  19
ENDBRANCH  17  18
ENDBRANCH   5  17
ENDBRANCH   3   5
TORSDOF 11
ENDMDL
MODEL       15
REMARK 921   NORMALIZED FREE ENERGY PREDICTED BY IDOCK:   -5.55 KCAL/MOL
REMARK 922        TOTAL FREE ENERGY PREDICTED BY IDOCK:  -10.86 KCAL/MOL
REMARK 923 INTER-LIGAND FREE ENERGY PREDICTED BY IDOCK:   -9.46 KCAL/MOL
REMARK 924 INTRA-LIGAND FREE ENERGY PREDICTED BY IDOCK:   -1.40 KCAL/MOL
REMARK 927      BINDING AFFINITY PREDICTED BY RF-SCORE:    0.00 PKD
ROOT
HETATM    1  O   UNL     1     -13.881  15.243  71.413  1.00  0.00    -0.474 OA 
HETATM    2  C   UNL     1     -12.611  15.606  71.710  1.00  0.00    -0.442 C  
HETATM    3  C   UNL     1     -11.585  14.980  70.768  1.00  0.00    -0.317 C  
HETATM    4  O   UNL     1     -12.321  16.320  72.658  1.00  0.00    -0.472 OA 
ENDROOT
BRANCH   3   5
HETATM    5  N   UNL     1     -12.120  14.775  69.376  1.00  0.00    -0.293 NA 
BRANCH   5   6
HETATM    6  C   UNL     1     -11.708  15.936  68.519  1.00  0.00    -0.292 C  
BRANCH   6   7
HETATM    7  C   UNL     1     -10.550  16.794  69.111  1.00  0.00    -0.343 C  
BRANCH   7   8
HETATM    8  N   UNL     1      -9.712  17.560  68.123  1.00  0.00    -0.289 NA 
BRANCH   8   9
HETATM    9  C   UNL     1      -8.293  17.029  68.228  1.00  0.00    -0.228 C  
HETATM   10  O   UNL     1      -8.354  16.902  65.828  1.00  0.00    -0.472 OA 
HETATM   11  C   UNL     1      -7.821  16.351  66.943  1.00  0.00    -0.238 C  
HETATM   12  O   UNL     1      -7.026  15.424  66.912  1.00  0.00    -0.207 OA 
ENDBRANCH   8   9
BRANCH   8  13
HETATM   13  C   UNL     1      -9.675  19.003  68.566  1.00  0.00    -0.400 C  
HETATM   14  O   UNL     1     -10.964  19.456  66.596  1.00  0.00    -0.394 OA 
HETATM   15  O   UNL     1      -9.614  21.109  67.358  1.00  0.00    -0.343 OA 
HETATM   16  C   UNL     1     -10.047  19.972  67.448  1.00  0.00    -0.428 C  
ENDBRANCH   8  13
ENDBRANCH   7   8
ENDBRANCH   6   7
ENDBRANCH   5   6
BRANCH   5  17
HETATM   17  C   UNL     1     -11.511  13.530  68.807  1.00  0.00    -0.311 C  
BRANCH  17  18
HETATM   18  C   UNL     1     -10.547  13.705  67.599  1.00  0.00    -0.241 C  
BRANCH  18  19
HETATM   19  N   UNL     1     -10.869  12.855  66.393  1.00  0.00    -0.272 NA 
BRANCH  19  20
HETATM   20  C   UNL     1      -9.709  11.896  66.195  1.00  0.00    -0.232 C  
HETATM   21  O   UNL     1      -8.814  10.065  67.519  1.00  0.00    -0.128 OA 
HETATM   22  O   UNL     1     -11.061  10.328  67.419  1.00  0.00    -0.291 OA 
HETATM   23  C   UNL     1      -9.789  10.682  67.118  1.00  0.00    -0.175 C  
ENDBRANCH  19  20
BRANCH  19  24
HETATM   24  C   UNL     1     -10.899  13.759  65.180  1.00  0.00    -0.345 C  
HETATM   25  C   UNL     1     -12.292  13.897  64.575  1.00  0.00    -0.372 C  
HETATM   26  O   UNL     1     -12.506  14.119  63.394  1.00  0.00    -0.797 OA 
HETATM   27  O   UNL     1     -13.275  13.822  65.503  1.00  0.00    -0.662 OA 
ENDBRANCH  19  24
ENDBRANCH  18  19
ENDBRANCH  17  18
ENDBRANCH   5  17
ENDBRANCH   3   5
TORSDOF 11
ENDMDL
MODEL       16
REMARK 921   NORMALIZED FREE ENERGY PREDICTED BY IDOCK:   -5.53 KCAL/MOL
REMARK 922        TOTAL FREE ENERGY PREDICTED BY IDOCK:  -10.83 KCAL/MOL
REMARK 923 INTER-LIGAND FREE ENERGY PREDICTED BY IDOCK:   -9.35 KCAL/MOL
REMARK 924 INTRA-LIGAND FREE ENERGY PREDICTED BY IDOCK:   -1.48 KCAL/MOL
REMARK 927      BINDING AFFINITY PREDICTED BY RF-SCORE:    0.00 PKD
ROOT
HETATM    1  O   UNL     1     -13.582  15.571  71.728  1.00  0.00    -0.461 OA 
HETATM    2  C   UNL     1     -12.347  15.911  72.162  1.00  0.00    -0.477 C  
HETATM    3  C   UNL     1     -11.237  15.363  71.268  1.00  0.00    -0.352 C  
HETATM    4  O   UNL     1     -12.146  16.550  73.185  1.00  0.00    -0.513 OA 
ENDROOT
BRANCH   3   5
HETATM    5  N   UNL     1     -11.647  15.266  69.823  1.00  0.00    -0.290 NA 
BRANCH   5   6
HETATM    6  C   UNL     1     -10.508  15.729  68.961  1.00  0.00    -0.225 C  
BRANCH   6   7
HETATM    7  C   UNL     1     -10.575  17.234  68.560  1.00  0.00    -0.350 C  
BRANCH   7   8
HETATM    8  N   UNL     1     -10.239  17.561  67.131  1.00  0.00    -0.314 NA 
BRANCH   8   9
HETATM    9  C   UNL     1      -9.948  16.248  66.424  1.00  0.00    -0.300 C  
HETATM   10  O   UNL     1     -11.153  17.188  64.568  1.00  0.00    -1.105 OA 
HETATM   11  C   UNL     1     -10.830  16.033  65.195  1.00  0.00    -0.395 C  
HETATM   12  O   UNL     1     -11.190  14.937  64.797  1.00  0.00    -0.387 OA 
ENDBRANCH   8   9
BRANCH   8  13
HETATM   13  C   UNL     1      -8.954  18.355  67.127  1.00  0.00    -0.268 C  
HETATM   14  O   UNL     1     -10.312  20.210  66.447  1.00  0.00    -0.440 OA 
HETATM   15  O   UNL     1      -8.150  20.202  65.770  1.00  0.00    -0.265 OA 
HETATM   16  C   UNL     1      -9.076  19.667  66.357  1.00  0.00    -0.379 C  
ENDBRANCH   8  13
ENDBRANCH   7   8
ENDBRANCH   6   7
ENDBRANCH   5   6
BRANCH   5  17
HETATM   17  C   UNL     1     -11.930  13.831  69.499  1.00  0.00    -0.345 C  
BRANCH  17  18
HETATM   18  C   UNL     1     -11.878  13.423  68.000  1.00  0.00    -0.357 C  
BRANCH  18  19
HETATM   19  N   UNL     1     -11.158  12.127  67.712  1.00  0.00    -0.235 NA 
BRANCH  19  20
HETATM   20  C   UNL     1     -11.506  11.726  66.289  1.00  0.00    -0.227 C  
HETATM   21  O   UNL     1     -10.297  11.829  64.184  1.00  0.00    -0.278 OA 
HETATM   22  O   UNL     1      -9.156  11.272  66.058  1.00  0.00    -0.200 OA 
HETATM   23  C   UNL     1     -10.276  11.634  65.389  1.00  0.00    -0.263 C  
ENDBRANCH  19  20
BRANCH  19  24
HETATM   24  C   UNL     1     -11.735  11.062  68.618  1.00  0.00    -0.296 C  
HETATM   25  C   UNL     1     -10.676  10.110  69.165  1.00  0.00    -0.226 C  
HETATM   26  O   UNL     1     -10.894   8.948  69.470  1.00  0.00    -0.225 OA 
HETATM   27  O   UNL     1      -9.476  10.710  69.349  1.00  0.00    -0.176 OA 
ENDBRANCH  19  24
ENDBRANCH  18  19
ENDBRANCH  17  18
ENDBRANCH   5  17
ENDBRANCH   3   5
TORSDOF 11
ENDMDL
MODEL       17
REMARK 921   NORMALIZED FREE ENERGY PREDICTED BY IDOCK:   -5.53 KCAL/MOL
REMARK 922        TOTAL FREE ENERGY PREDICTED BY IDOCK:  -10.82 KCAL/MOL
REMARK 923 INTER-LIGAND FREE ENERGY PREDICTED BY IDOCK:   -9.53 KCAL/MOL
REMARK 924 INTRA-LIGAND FREE ENERGY PREDICTED BY IDOCK:   -1.29 KCAL/MOL
REMARK 927      BINDING AFFINITY PREDICTED BY RF-SCORE:    0.00 PKD
ROOT
HETATM    1  O   UNL     1     -14.096  15.581  71.922  1.00  0.00    -0.495 OA 
HETATM    2  C   UNL     1     -12.854  15.614  72.457  1.00  0.00    -0.435 C  
HETATM    3  C   UNL     1     -11.912  14.595  71.820  1.00  0.00    -0.285 C  
HETATM    4  O   UNL     1     -12.540  16.350  73.381  1.00  0.00    -0.464 OA 
ENDROOT
BRANCH   3   5
HETATM    5  N   UNL     1     -12.217  14.345  70.368  1.00  0.00    -0.316 NA 
BRANCH   5   6
HETATM    6  C   UNL     1     -11.102  14.902  69.531  1.00  0.00    -0.281 C  
BRANCH   6   7
HETATM    7  C   UNL     1     -11.553  15.458  68.147  1.00  0.00    -0.319 C  
BRANCH   7   8
HETATM    8  N   UNL     1     -11.224  14.613  66.947  1.00  0.00    -0.334 NA 
BRANCH   8   9
HETATM    9  C   UNL     1     -10.732  15.549  65.857  1.00  0.00    -0.339 C  
HETATM   10  O   UNL     1      -8.539  15.165  66.766  1.00  0.00    -0.243 OA 
HETATM   11  C   UNL     1      -9.317  16.062  66.115  1.00  0.00    -0.342 C  
HETATM   12  O   UNL     1      -8.911  17.156  65.755  1.00  0.00    -0.526 OA 
ENDBRANCH   8   9
BRANCH   8  13
HETATM   13  C   UNL     1     -12.509  13.995  66.448  1.00  0.00    -0.355 C  
HETATM   14  O   UNL     1     -11.161  12.103  65.857  1.00  0.00    -0.293 OA 
HETATM   15  O   UNL     1     -13.021  12.481  64.620  1.00  0.00    -0.803 OA 
HETATM   16  C   UNL     1     -12.270  12.804  65.525  1.00  0.00    -0.463 C  
ENDBRANCH   8  13
ENDBRANCH   7   8
ENDBRANCH   6   7
ENDBRANCH   5   6
BRANCH   5  17
HETATM   17  C   UNL     1     -12.285  12.866  70.140  1.00  0.00    -0.266 C  
BRANCH  17  18
HETATM   18  C   UNL     1     -12.645  11.979  71.365  1.00  0.00    -0.225 C  
BRANCH  18  19
HETATM   19  N   UNL     1     -12.224  10.533  71.257  1.00  0.00    -0.370 NA 
BRANCH  19  20
HETATM   20  C   UNL     1     -11.660  10.332  69.861  1.00  0.00    -0.256 C  
HETATM   21  O   UNL     1      -9.406  10.361  68.953  1.00  0.00    -0.168 OA 
HETATM   22  O   UNL     1      -9.738   9.427  70.989  1.00  0.00    -0.275 OA 
HETATM   23  C   UNL     1     -10.157  10.066  69.871  1.00  0.00    -0.246 C  
ENDBRANCH  19  20
BRANCH  19  24
HETATM   24  C   UNL     1     -13.468   9.676  71.351  1.00  0.00    -0.329 C  
HETATM   25  C   UNL     1     -13.168   8.235  71.752  1.00  0.00    -0.347 C  
HETATM   26  O   UNL     1     -13.853   7.279  71.425  1.00  0.00    -0.394 OA 
HETATM   27  O   UNL     1     -12.098   8.132  72.575  1.00  0.00    -0.365 OA 
ENDBRANCH  19  24
ENDBRANCH  18  19
ENDBRANCH  17  18
ENDBRANCH   5  17
ENDBRANCH   3   5
TORSDOF 11
ENDMDL
MODEL       18
REMARK 921   NORMALIZED FREE ENERGY PREDICTED BY IDOCK:   -5.52 KCAL/MOL
REMARK 922        TOTAL FREE ENERGY PREDICTED BY IDOCK:  -10.80 KCAL/MOL
REMARK 923 INTER-LIGAND FREE ENERGY PREDICTED BY IDOCK:   -9.60 KCAL/MOL
REMARK 924 INTRA-LIGAND FREE ENERGY PREDICTED BY IDOCK:   -1.21 KCAL/MOL
REMARK 927      BINDING AFFINITY PREDICTED BY RF-SCORE:    0.00 PKD
ROOT
HETATM    1  O   UNL     1     -13.024  14.006  64.983  1.00  0.00    -0.728 OA 
HETATM    2  C   UNL     1     -12.616  12.721  64.860  1.00  0.00    -0.470 C  
HETATM    3  C   UNL     1     -11.635  12.308  65.955  1.00  0.00    -0.393 C  
HETATM    4  O   UNL     1     -12.963  11.991  63.944  1.00  0.00    -0.669 OA 
ENDROOT
BRANCH   3   5
HETATM    5  N   UNL     1     -11.890  13.010  67.262  1.00  0.00    -0.372 NA 
BRANCH   5   6
HETATM    6  C   UNL     1     -12.029  11.983  68.349  1.00  0.00    -0.194 C  
BRANCH   6   7
HETATM    7  C   UNL     1     -11.205  10.682  68.113  1.00  0.00    -0.302 C  
BRANCH   7   8
HETATM    8  N   UNL     1     -10.717   9.967  69.344  1.00  0.00    -0.221 NA 
BRANCH   8   9
HETATM    9  C   UNL     1     -11.462  10.553  70.531  1.00  0.00    -0.345 C  
HETATM   10  O   UNL     1     -11.988   8.276  71.095  1.00  0.00    -0.286 OA 
HETATM   11  C   UNL     1     -12.423   9.555  71.174  1.00  0.00    -0.315 C  
HETATM   12  O   UNL     1     -13.466   9.870  71.726  1.00  0.00    -0.382 OA 
ENDBRANCH   8   9
BRANCH   8  13
HETATM   13  C   UNL     1      -9.257  10.308  69.531  1.00  0.00    -0.170 C  
HETATM   14  O   UNL     1      -9.001   8.034  70.246  1.00  0.00    -0.144 OA 
HETATM   15  O   UNL     1      -7.568   9.563  71.108  1.00  0.00    -0.328 OA 
HETATM   16  C   UNL     1      -8.521   9.291  70.397  1.00  0.00    -0.206 C  
ENDBRANCH   8  13
ENDBRANCH   7   8
ENDBRANCH   6   7
ENDBRANCH   5   6
BRANCH   5  17
HETATM   17  C   UNL     1     -10.709  13.876  67.580  1.00  0.00    -0.267 C  
BRANCH  17  18
HETATM   18  C   UNL     1     -11.007  15.307  68.111  1.00  0.00    -0.292 C  
BRANCH  18  19
HETATM   19  N   UNL     1     -10.490  16.433  67.247  1.00  0.00    -0.303 NA 
BRANCH  19  20
HETATM   20  C   UNL     1     -10.351  15.889  65.836  1.00  0.00    -0.365 C  
HETATM   21  O   UNL     1     -11.388  16.468  63.716  1.00  0.00    -0.966 OA 
HETATM   22  O   UNL     1     -10.835  18.139  65.139  1.00  0.00    -0.658 OA 
HETATM   23  C   UNL     1     -10.926  16.836  64.785  1.00  0.00    -0.025 C  
ENDBRANCH  19  20
BRANCH  19  24
HETATM   24  C   UNL     1      -9.096  16.782  67.720  1.00  0.00    -0.221 C  
HETATM   25  C   UNL     1      -8.996  18.195  68.284  1.00  0.00    -0.296 C  
HETATM   26  O   UNL     1      -7.981  18.872  68.257  1.00  0.00    -0.287 OA 
HETATM   27  O   UNL     1     -10.138  18.599  68.889  1.00  0.00    -0.391 OA 
ENDBRANCH  19  24
ENDBRANCH  18  19
ENDBRANCH  17  18
ENDBRANCH   5  17
ENDBRANCH   3   5
TORSDOF 11
ENDMDL
MODEL       19
REMARK 921   NORMALIZED FREE ENERGY PREDICTED BY IDOCK:   -5.51 KCAL/MOL
REMARK 922        TOTAL FREE ENERGY PREDICTED BY IDOCK:  -10.80 KCAL/MOL
REMARK 923 INTER-LIGAND FREE ENERGY PREDICTED BY IDOCK:   -9.35 KCAL/MOL
REMARK 924 INTRA-LIGAND FREE ENERGY PREDICTED BY IDOCK:   -1.45 KCAL/MOL
REMARK 927      BINDING AFFINITY PREDICTED BY RF-SCORE:    0.00 PKD
ROOT
HETATM    1  O   UNL     1     -12.433  14.038  63.203  1.00  0.00    -0.733 OA 
HETATM    2  C   UNL     1     -12.153  12.889  63.861  1.00  0.00    -0.480 C  
HETATM    3  C   UNL     1     -11.188  13.098  65.025  1.00  0.00    -0.298 C  
HETATM    4  O   UNL     1     -12.593  11.799  63.526  1.00  0.00    -0.523 OA 
ENDROOT
BRANCH   3   5
HETATM    5  N   UNL     1     -11.339  14.448  65.673  1.00  0.00    -0.323 NA 
BRANCH   5   6
HETATM    6  C   UNL     1     -11.813  14.261  67.086  1.00  0.00    -0.425 C  
BRANCH   6   7
HETATM    7  C   UNL     1     -11.869  12.775  67.554  1.00  0.00    -0.343 C  
BRANCH   7   8
HETATM    8  N   UNL     1     -11.910  12.544  69.040  1.00  0.00    -0.307 NA 
BRANCH   8   9
HETATM    9  C   UNL     1     -11.223  13.726  69.700  1.00  0.00    -0.115 C  
HETATM   10  O   UNL     1     -12.984  13.606  71.334  1.00  0.00    -0.342 OA 
HETATM   11  C   UNL     1     -12.122  14.441  70.708  1.00  0.00    -0.338 C  
HETATM   12  O   UNL     1     -12.059  15.636  70.951  1.00  0.00    -0.344 OA 
ENDBRANCH   8   9
BRANCH   8  13
HETATM   13  C   UNL     1     -11.072  11.324  69.343  1.00  0.00    -0.257 C  
HETATM   14  O   UNL     1     -13.013  10.491  70.477  1.00  0.00    -0.345 OA 
HETATM   15  O   UNL     1     -10.992   9.792  71.226  1.00  0.00    -0.351 OA 
HETATM   16  C   UNL     1     -11.659  10.469  70.461  1.00  0.00    -0.350 C  
ENDBRANCH   8  13
ENDBRANCH   7   8
ENDBRANCH   6   7
ENDBRANCH   5   6
BRANCH   5  17
HETATM   17  C   UNL     1      -9.999  15.116  65.711  1.00  0.00    -0.345 C  
BRANCH  17  18
HETATM   18  C   UNL     1      -9.517  15.652  67.088  1.00  0.00    -0.217 C  
BRANCH  18  19
HETATM   19  N   UNL     1      -9.119  17.109  67.107  1.00  0.00    -0.224 NA 
BRANCH  19  20
HETATM   20  C   UNL     1      -7.618  17.163  67.328  1.00  0.00    -0.167 C  
HETATM   21  O   UNL     1      -5.719  17.425  65.835  1.00  0.00    -0.218 OA 
HETATM   22  O   UNL     1      -7.592  18.627  65.421  1.00  0.00    -0.433 OA 
HETATM   23  C   UNL     1      -6.868  17.724  66.123  1.00  0.00    -0.294 C  
ENDBRANCH  19  20
BRANCH  19  24
HETATM   24  C   UNL     1      -9.762  17.753  68.315  1.00  0.00    -0.320 C  
HETATM   25  C   UNL     1     -10.285  19.157  68.033  1.00  0.00    -0.401 C  
HETATM   26  O   UNL     1     -10.371  20.036  68.875  1.00  0.00    -0.411 OA 
HETATM   27  O   UNL     1     -10.719  19.307  66.759  1.00  0.00    -0.442 OA 
ENDBRANCH  19  24
ENDBRANCH  18  19
ENDBRANCH  17  18
ENDBRANCH   5  17
ENDBRANCH   3   5
TORSDOF 11
ENDMDL
MODEL       20
REMARK 921   NORMALIZED FREE ENERGY PREDICTED BY IDOCK:   -5.51 KCAL/MOL
REMARK 922        TOTAL FREE ENERGY PREDICTED BY IDOCK:  -10.79 KCAL/MOL
REMARK 923 INTER-LIGAND FREE ENERGY PREDICTED BY IDOCK:   -9.40 KCAL/MOL
REMARK 924 INTRA-LIGAND FREE ENERGY PREDICTED BY IDOCK:   -1.39 KCAL/MOL
REMARK 927      BINDING AFFINITY PREDICTED BY RF-SCORE:    0.00 PKD
ROOT
HETATM    1  O   UNL     1     -13.607  15.650  71.064  1.00  0.00    -0.588 OA 
HETATM    2  C   UNL     1     -12.333  15.812  71.489  1.00  0.00    -0.455 C  
HETATM    3  C   UNL     1     -11.306  15.410  70.433  1.00  0.00    -0.327 C  
HETATM    4  O   UNL     1     -12.043  16.195  72.613  1.00  0.00    -0.485 OA 
ENDROOT
BRANCH   3   5
HETATM    5  N   UNL     1     -11.784  15.660  69.029  1.00  0.00    -0.385 NA 
BRANCH   5   6
HETATM    6  C   UNL     1     -10.723  16.411  68.278  1.00  0.00    -0.337 C  
BRANCH   6   7
HETATM    7  C   UNL     1     -10.130  17.629  69.048  1.00  0.00    -0.300 C  
BRANCH   7   8
HETATM    8  N   UNL     1      -9.138  18.476  68.298  1.00  0.00    -0.308 NA 
BRANCH   8   9
HETATM    9  C   UNL     1      -9.386  18.256  66.816  1.00  0.00    -0.295 C  
HETATM   10  O   UNL     1      -9.841  20.615  66.724  1.00  0.00    -0.392 OA 
HETATM   11  C   UNL     1     -10.134  19.418  66.164  1.00  0.00    -0.452 C  
HETATM   12  O   UNL     1     -10.898  19.295  65.220  1.00  0.00    -0.503 OA 
ENDBRANCH   8   9
BRANCH   8  13
HETATM   13  C   UNL     1      -7.756  17.946  68.595  1.00  0.00    -0.289 C  
HETATM   14  O   UNL     1      -7.091  20.246  68.711  1.00  0.00    -0.223 OA 
HETATM   15  O   UNL     1      -5.524  18.742  68.066  1.00  0.00    -0.172 OA 
HETATM   16  C   UNL     1      -6.668  18.998  68.404  1.00  0.00    -0.252 C  
ENDBRANCH   8  13
ENDBRANCH   7   8
ENDBRANCH   6   7
ENDBRANCH   5   6
BRANCH   5  17
HETATM   17  C   UNL     1     -11.996  14.340  68.352  1.00  0.00    -0.309 C  
BRANCH  17  18
HETATM   18  C   UNL     1     -11.886  14.318  66.801  1.00  0.00    -0.426 C  
BRANCH  18  19
HETATM   19  N   UNL     1     -11.114  13.153  66.228  1.00  0.00    -0.284 NA 
BRANCH  19  20
HETATM   20  C   UNL     1     -12.117  12.239  65.548  1.00  0.00    -0.257 C  
HETATM   21  O   UNL     1     -13.013  12.130  63.292  1.00  0.00    -0.735 OA 
HETATM   22  O   UNL     1     -10.822  12.631  63.560  1.00  0.00    -0.429 OA 
HETATM   23  C   UNL     1     -12.058  12.335  64.026  1.00  0.00    -0.471 C  
ENDBRANCH  19  20
BRANCH  19  24
HETATM   24  C   UNL     1     -10.524  12.372  67.382  1.00  0.00    -0.215 C  
HETATM   25  C   UNL     1      -9.001  12.435  67.425  1.00  0.00    -0.185 C  
HETATM   26  O   UNL     1      -8.294  11.555  67.889  1.00  0.00    -0.125 OA 
HETATM   27  O   UNL     1      -8.512  13.609  66.961  1.00  0.00    -0.196 OA 
ENDBRANCH  19  24
ENDBRANCH  18  19
ENDBRANCH  17  18
ENDBRANCH   5  17
ENDBRANCH   3   5
TORSDOF 11
ENDMDL
MODEL       21
REMARK 921   NORMALIZED FREE ENERGY PREDICTED BY IDOCK:   -5.48 KCAL/MOL
REMARK 922        TOTAL FREE ENERGY PREDICTED BY IDOCK:  -10.74 KCAL/MOL
REMARK 923 INTER-LIGAND FREE ENERGY PREDICTED BY IDOCK:   -9.54 KCAL/MOL
REMARK 924 INTRA-LIGAND FREE ENERGY PREDICTED BY IDOCK:   -1.20 KCAL/MOL
REMARK 927      BINDING AFFINITY PREDICTED BY RF-SCORE:    0.00 PKD
ROOT
HETATM    1  O   UNL     1     -14.187  14.816  71.051  1.00  0.00    -0.285 OA 
HETATM    2  C   UNL     1     -12.950  15.225  71.419  1.00  0.00    -0.431 C  
HETATM    3  C   UNL     1     -11.850  14.295  70.914  1.00  0.00    -0.255 C  
HETATM    4  O   UNL     1     -12.748  16.207  72.118  1.00  0.00    -0.438 OA 
ENDROOT
BRANCH   3   5
HETATM    5  N   UNL     1     -12.188  13.651  69.597  1.00  0.00    -0.302 NA 
BRANCH   5   6
HETATM    6  C   UNL     1     -11.335  14.261  68.522  1.00  0.00    -0.282 C  
BRANCH   6   7
HETATM    7  C   UNL     1     -11.989  14.265  67.107  1.00  0.00    -0.417 C  
BRANCH   7   8
HETATM    8  N   UNL     1     -11.207  14.937  66.011  1.00  0.00    -0.338 NA 
BRANCH   8   9
HETATM    9  C   UNL     1     -10.842  13.868  64.997  1.00  0.00    -0.382 C  
HETATM   10  O   UNL     1     -12.781  14.611  63.784  1.00  0.00    -0.778 OA 
HETATM   11  C   UNL     1     -11.991  13.543  64.044  1.00  0.00    -0.449 C  
HETATM   12  O   UNL     1     -12.172  12.444  63.543  1.00  0.00    -0.504 OA 
ENDBRANCH   8   9
BRANCH   8  13
HETATM   13  C   UNL     1      -9.913  15.439  66.606  1.00  0.00    -0.260 C  
HETATM   14  O   UNL     1     -10.474  17.543  65.602  1.00  0.00    -0.588 OA 
HETATM   15  O   UNL     1      -8.274  17.074  65.871  1.00  0.00    -0.505 OA 
HETATM   16  C   UNL     1      -9.445  16.748  65.977  1.00  0.00    -0.223 C  
ENDBRANCH   8  13
ENDBRANCH   7   8
ENDBRANCH   6   7
ENDBRANCH   5   6
BRANCH   5  17
HETATM   17  C   UNL     1     -11.867  12.190  69.680  1.00  0.00    -0.322 C  
BRANCH  17  18
HETATM   18  C   UNL     1     -12.093  11.496  71.053  1.00  0.00    -0.153 C  
BRANCH  18  19
HETATM   19  N   UNL     1     -11.512  10.107  71.174  1.00  0.00    -0.350 NA 
BRANCH  19  20
HETATM   20  C   UNL     1     -10.771   9.815  69.881  1.00  0.00    -0.268 C  
HETATM   21  O   UNL     1      -8.457  10.079  69.188  1.00  0.00    -0.132 OA 
HETATM   22  O   UNL     1      -8.879   9.380  71.299  1.00  0.00    -0.287 OA 
HETATM   23  C   UNL     1      -9.256   9.793  70.066  1.00  0.00    -0.229 C  
ENDBRANCH  19  20
BRANCH  19  24
HETATM   24  C   UNL     1     -12.661   9.125  71.249  1.00  0.00    -0.288 C  
HETATM   25  C   UNL     1     -12.278   7.814  71.928  1.00  0.00    -0.306 C  
HETATM   26  O   UNL     1     -12.804   6.740  71.684  1.00  0.00    -0.358 OA 
HETATM   27  O   UNL     1     -11.341   7.977  72.891  1.00  0.00    -0.408 OA 
ENDBRANCH  19  24
ENDBRANCH  18  19
ENDBRANCH  17  18
ENDBRANCH   5  17
ENDBRANCH   3   5
TORSDOF 11
ENDMDL
MODEL       22
REMARK 921   NORMALIZED FREE ENERGY PREDICTED BY IDOCK:   -5.47 KCAL/MOL
REMARK 922        TOTAL FREE ENERGY PREDICTED BY IDOCK:  -10.73 KCAL/MOL
REMARK 923 INTER-LIGAND FREE ENERGY PREDICTED BY IDOCK:   -9.52 KCAL/MOL
REMARK 924 INTRA-LIGAND FREE ENERGY PREDICTED BY IDOCK:   -1.20 KCAL/MOL
REMARK 927      BINDING AFFINITY PREDICTED BY RF-SCORE:    0.00 PKD
ROOT
HETATM    1  O   UNL     1     -11.691  15.051  71.930  1.00  0.00    -0.376 OA 
HETATM    2  C   UNL     1     -12.762  14.224  71.969  1.00  0.00    -0.324 C  
HETATM    3  C   UNL     1     -13.122  13.663  70.596  1.00  0.00     0.029 C  
HETATM    4  O   UNL     1     -13.395  13.994  72.989  1.00  0.00    -0.641 OA 
ENDROOT
BRANCH   3   5
HETATM    5  N   UNL     1     -11.921  13.475  69.708  1.00  0.00    -0.329 NA 
BRANCH   5   6
HETATM    6  C   UNL     1     -11.914  12.067  69.188  1.00  0.00    -0.268 C  
BRANCH   6   7
HETATM    7  C   UNL     1     -11.885  10.971  70.296  1.00  0.00    -0.367 C  
BRANCH   7   8
HETATM    8  N   UNL     1     -11.031   9.764  70.021  1.00  0.00    -0.260 NA 
BRANCH   8   9
HETATM    9  C   UNL     1     -10.556   9.233  71.362  1.00  0.00    -0.347 C  
HETATM   10  O   UNL     1     -11.717   7.212  70.769  1.00  0.00    -0.306 OA 
HETATM   11  C   UNL     1     -11.320   7.987  71.806  1.00  0.00    -0.270 C  
HETATM   12  O   UNL     1     -11.535   7.698  72.973  1.00  0.00    -0.342 OA 
ENDBRANCH   8   9
BRANCH   8  13
HETATM   13  C   UNL     1      -9.803  10.226  69.272  1.00  0.00    -0.228 C  
HETATM   14  O   UNL     1     -10.796   9.179  67.357  1.00  0.00    -0.243 OA 
HETATM   15  O   UNL     1      -8.534   9.286  67.427  1.00  0.00    -0.121 OA 
HETATM   16  C   UNL     1      -9.618   9.502  67.941  1.00  0.00    -0.133 C  
ENDBRANCH   8  13
ENDBRANCH   7   8
ENDBRANCH   6   7
ENDBRANCH   5   6
BRANCH   5  17
HETATM   17  C   UNL     1     -12.036  14.408  68.542  1.00  0.00    -0.298 C  
BRANCH  17  18
HETATM   18  C   UNL     1     -12.265  13.766  67.145  1.00  0.00    -0.313 C  
BRANCH  18  19
HETATM   19  N   UNL     1     -11.742  14.567  65.976  1.00  0.00    -0.362 NA 
BRANCH  19  20
HETATM   20  C   UNL     1     -10.905  13.628  65.126  1.00  0.00    -0.334 C  
HETATM   21  O   UNL     1     -11.455  11.953  63.453  1.00  0.00    -0.412 OA 
HETATM   22  O   UNL     1     -12.652  13.875  63.492  1.00  0.00    -0.842 OA 
HETATM   23  C   UNL     1     -11.689  13.042  63.954  1.00  0.00    -0.468 C  
ENDBRANCH  19  20
BRANCH  19  24
HETATM   24  C   UNL     1     -10.802  15.622  66.516  1.00  0.00    -0.260 C  
HETATM   25  C   UNL     1     -10.290  16.570  65.438  1.00  0.00    -0.221 C  
HETATM   26  O   UNL     1      -9.211  17.139  65.484  1.00  0.00    -0.376 OA 
HETATM   27  O   UNL     1     -11.194  16.778  64.451  1.00  0.00    -1.112 OA 
ENDBRANCH  19  24
ENDBRANCH  18  19
ENDBRANCH  17  18
ENDBRANCH   5  17
ENDBRANCH   3   5
TORSDOF 11
ENDMDL
MODEL       23
REMARK 921   NORMALIZED FREE ENERGY PREDICTED BY IDOCK:   -5.45 KCAL/MOL
REMARK 922        TOTAL FREE ENERGY PREDICTED BY IDOCK:  -10.70 KCAL/MOL
REMARK 923 INTER-LIGAND FREE ENERGY PREDICTED BY IDOCK:   -9.43 KCAL/MOL
REMARK 924 INTRA-LIGAND FREE ENERGY PREDICTED BY IDOCK:   -1.27 KCAL/MOL
REMARK 927      BINDING AFFINITY PREDICTED BY RF-SCORE:    0.00 PKD
ROOT
HETATM    1  O   UNL     1     -11.126  12.212  63.560  1.00  0.00    -0.415 OA 
HETATM    2  C   UNL     1     -11.933  13.161  64.089  1.00  0.00    -0.436 C  
HETATM    3  C   UNL     1     -11.825  13.245  65.609  1.00  0.00    -0.380 C  
HETATM    4  O   UNL     1     -12.696  13.843  63.420  1.00  0.00    -0.806 OA 
ENDROOT
BRANCH   3   5
HETATM    5  N   UNL     1     -10.451  12.901  66.117  1.00  0.00    -0.265 NA 
BRANCH   5   6
HETATM    6  C   UNL     1      -9.745  14.167  66.509  1.00  0.00    -0.295 C  
BRANCH   6   7
HETATM    7  C   UNL     1      -9.955  15.354  65.521  1.00  0.00    -0.344 C  
BRANCH   7   8
HETATM    8  N   UNL     1      -9.428  16.692  65.961  1.00  0.00    -0.446 NA 
BRANCH   8   9
HETATM    9  C   UNL     1      -8.164  16.438  66.762  1.00  0.00    -0.251 C  
HETATM   10  O   UNL     1      -7.299  18.405  65.683  1.00  0.00    -0.510 OA 
HETATM   11  C   UNL     1      -6.960  17.212  66.226  1.00  0.00    -0.222 C  
HETATM   12  O   UNL     1      -5.807  16.817  66.298  1.00  0.00    -0.273 OA 
ENDBRANCH   8   9
BRANCH   8  13
HETATM   13  C   UNL     1     -10.435  17.298  66.910  1.00  0.00    -0.272 C  
HETATM   14  O   UNL     1     -10.508  19.139  65.376  1.00  0.00    -0.462 OA 
HETATM   15  O   UNL     1     -10.940  19.584  67.555  1.00  0.00    -0.452 OA 
HETATM   16  C   UNL     1     -10.638  18.792  66.678  1.00  0.00    -0.383 C  
ENDBRANCH   8  13
ENDBRANCH   7   8
ENDBRANCH   6   7
ENDBRANCH   5   6
BRANCH   5  17
HETATM   17  C   UNL     1     -10.590  12.043  67.336  1.00  0.00    -0.223 C  
BRANCH  17  18
HETATM   18  C   UNL     1     -10.238  12.696  68.703  1.00  0.00    -0.154 C  
BRANCH  18  19
HETATM   19  N   UNL     1     -11.372  12.753  69.699  1.00  0.00    -0.159 NA 
BRANCH  19  20
HETATM   20  C   UNL     1     -12.243  11.532  69.459  1.00  0.00    -0.221 C  
HETATM   21  O   UNL     1     -12.943   9.680  70.868  1.00  0.00    -0.277 OA 
HETATM   22  O   UNL     1     -12.833  11.749  71.780  1.00  0.00    -0.369 OA 
HETATM   23  C   UNL     1     -12.694  10.871  70.759  1.00  0.00    -0.340 C  
ENDBRANCH  19  20
BRANCH  19  24
HETATM   24  C   UNL     1     -12.218  13.964  69.373  1.00  0.00    -0.292 C  
HETATM   25  C   UNL     1     -12.407  14.895  70.566  1.00  0.00    -0.342 C  
HETATM   26  O   UNL     1     -13.383  15.610  70.727  1.00  0.00    -0.535 OA 
HETATM   27  O   UNL     1     -11.338  14.904  71.397  1.00  0.00    -0.304 OA 
ENDBRANCH  19  24
ENDBRANCH  18  19
ENDBRANCH  17  18
ENDBRANCH   5  17
ENDBRANCH   3   5
TORSDOF 11
ENDMDL
MODEL       24
REMARK 921   NORMALIZED FREE ENERGY PREDICTED BY IDOCK:   -5.45 KCAL/MOL
REMARK 922        TOTAL FREE ENERGY PREDICTED BY IDOCK:  -10.69 KCAL/MOL
REMARK 923 INTER-LIGAND FREE ENERGY PREDICTED BY IDOCK:   -9.16 KCAL/MOL
REMARK 924 INTRA-LIGAND FREE ENERGY PREDICTED BY IDOCK:   -1.53 KCAL/MOL
REMARK 927      BINDING AFFINITY PREDICTED BY RF-SCORE:    0.00 PKD
ROOT
HETATM    1  O   UNL     1     -12.757  13.516  62.822  1.00  0.00    -0.419 OA 
HETATM    2  C   UNL     1     -12.016  12.673  63.578  1.00  0.00    -0.548 C  
HETATM    3  C   UNL     1     -11.227  13.398  64.666  1.00  0.00    -0.359 C  
HETATM    4  O   UNL     1     -11.954  11.469  63.377  1.00  0.00    -0.345 OA 
ENDROOT
BRANCH   3   5
HETATM    5  N   UNL     1     -11.934  14.622  65.182  1.00  0.00    -0.358 NA 
BRANCH   5   6
HETATM    6  C   UNL     1     -12.112  14.493  66.668  1.00  0.00    -0.296 C  
BRANCH   6   7
HETATM    7  C   UNL     1     -11.587  13.153  67.265  1.00  0.00    -0.355 C  
BRANCH   7   8
HETATM    8  N   UNL     1     -11.135  13.192  68.700  1.00  0.00    -0.257 NA 
BRANCH   8   9
HETATM    9  C   UNL     1     -11.496  11.854  69.322  1.00  0.00    -0.306 C  
HETATM   10  O   UNL     1      -9.220  11.230  68.862  1.00  0.00    -0.158 OA 
HETATM   11  C   UNL     1     -10.482  10.759  68.994  1.00  0.00    -0.215 C  
HETATM   12  O   UNL     1     -10.765   9.577  68.886  1.00  0.00    -0.222 OA 
ENDBRANCH   8   9
BRANCH   8  13
HETATM   13  C   UNL     1     -11.951  14.243  69.415  1.00  0.00    -0.337 C  
HETATM   14  O   UNL     1      -9.897  15.466  69.585  1.00  0.00    -0.264 OA 
HETATM   15  O   UNL     1     -11.444  15.802  71.206  1.00  0.00    -0.361 OA 
HETATM   16  C   UNL     1     -11.087  15.234  70.187  1.00  0.00    -0.293 C  
ENDBRANCH   8  13
ENDBRANCH   7   8
ENDBRANCH   6   7
ENDBRANCH   5   6
BRANCH   5  17
HETATM   17  C   UNL     1     -11.077  15.820  64.913  1.00  0.00    -0.399 C  
BRANCH  17  18
HETATM   18  C   UNL     1      -9.693  15.871  65.619  1.00  0.00    -0.271 C  
BRANCH  18  19
HETATM   19  N   UNL     1      -9.249  17.244  66.065  1.00  0.00    -0.514 NA 
BRANCH  19  20
HETATM   20  C   UNL     1      -7.976  17.066  66.872  1.00  0.00    -0.222 C  
HETATM   21  O   UNL     1      -5.621  16.982  66.277  1.00  0.00    -0.334 OA 
HETATM   22  O   UNL     1      -6.957  18.453  65.193  1.00  0.00    -0.501 OA 
HETATM   23  C   UNL     1      -6.727  17.467  66.091  1.00  0.00    -0.263 C  
ENDBRANCH  19  20
BRANCH  19  24
HETATM   24  C   UNL     1     -10.295  17.788  67.014  1.00  0.00    -0.344 C  
HETATM   25  C   UNL     1     -10.213  19.301  67.185  1.00  0.00    -0.402 C  
HETATM   26  O   UNL     1     -10.556  19.893  68.195  1.00  0.00    -0.388 OA 
HETATM   27  O   UNL     1      -9.788  19.932  66.065  1.00  0.00    -0.430 OA 
ENDBRANCH  19  24
ENDBRANCH  18  19
ENDBRANCH  17  18
ENDBRANCH   5  17
ENDBRANCH   3   5
TORSDOF 11
ENDMDL
MODEL       25
REMARK 921   NORMALIZED FREE ENERGY PREDICTED BY IDOCK:   -5.45 KCAL/MOL
REMARK 922        TOTAL FREE ENERGY PREDICTED BY IDOCK:  -10.69 KCAL/MOL
REMARK 923 INTER-LIGAND FREE ENERGY PREDICTED BY IDOCK:   -9.11 KCAL/MOL
REMARK 924 INTRA-LIGAND FREE ENERGY PREDICTED BY IDOCK:   -1.58 KCAL/MOL
REMARK 927      BINDING AFFINITY PREDICTED BY RF-SCORE:    0.00 PKD
ROOT
HETATM    1  O   UNL     1     -13.716  15.614  70.771  1.00  0.00    -0.490 OA 
HETATM    2  C   UNL     1     -12.501  15.559  71.365  1.00  0.00    -0.417 C  
HETATM    3  C   UNL     1     -11.629  14.432  70.817  1.00  0.00    -0.167 C  
HETATM    4  O   UNL     1     -12.164  16.305  72.273  1.00  0.00    -0.482 OA 
ENDROOT
BRANCH   3   5
HETATM    5  N   UNL     1     -11.890  14.146  69.363  1.00  0.00    -0.309 NA 
BRANCH   5   6
HETATM    6  C   UNL     1     -10.771  14.719  68.544  1.00  0.00    -0.247 C  
BRANCH   6   7
HETATM    7  C   UNL     1     -11.091  16.099  67.894  1.00  0.00    -0.293 C  
BRANCH   7   8
HETATM    8  N   UNL     1     -10.533  16.335  66.516  1.00  0.00    -0.303 NA 
BRANCH   8   9
HETATM    9  C   UNL     1     -10.871  15.115  65.678  1.00  0.00    -0.360 C  
HETATM   10  O   UNL     1     -11.479  16.686  63.962  1.00  0.00    -1.192 OA 
HETATM   11  C   UNL     1     -11.734  15.455  64.464  1.00  0.00    -0.277 C  
HETATM   12  O   UNL     1     -12.554  14.694  63.975  1.00  0.00    -0.819 OA 
ENDBRANCH   8   9
BRANCH   8  13
HETATM   13  C   UNL     1      -9.027  16.388  66.628  1.00  0.00    -0.258 C  
HETATM   14  O   UNL     1      -9.266  18.756  66.340  1.00  0.00    -0.318 OA 
HETATM   15  O   UNL     1      -7.337  17.810  65.620  1.00  0.00    -0.518 OA 
HETATM   16  C   UNL     1      -8.445  17.702  66.120  1.00  0.00    -0.132 C  
ENDBRANCH   8  13
ENDBRANCH   7   8
ENDBRANCH   6   7
ENDBRANCH   5   6
BRANCH   5  17
HETATM   17  C   UNL     1     -11.909  12.662  69.162  1.00  0.00    -0.297 C  
BRANCH  17  18
HETATM   18  C   UNL     1     -11.733  12.145  67.706  1.00  0.00    -0.320 C  
BRANCH  18  19
HETATM   19  N   UNL     1     -10.660  11.098  67.522  1.00  0.00    -0.207 NA 
BRANCH  19  20
HETATM   20  C   UNL     1      -9.888  11.011  68.826  1.00  0.00    -0.198 C  
HETATM   21  O   UNL     1     -10.031   9.539  70.754  1.00  0.00    -0.278 OA 
HETATM   22  O   UNL     1     -10.328   8.650  68.693  1.00  0.00    -0.196 OA 
HETATM   23  C   UNL     1     -10.098   9.679  69.543  1.00  0.00    -0.209 C  
ENDBRANCH  19  20
BRANCH  19  24
HETATM   24  C   UNL     1      -9.692  11.602  66.474  1.00  0.00    -0.206 C  
HETATM   25  C   UNL     1      -9.054  10.477  65.664  1.00  0.00    -0.182 C  
HETATM   26  O   UNL     1      -7.947  10.545  65.156  1.00  0.00    -0.149 OA 
HETATM   27  O   UNL     1      -9.879   9.416  65.503  1.00  0.00    -0.290 OA 
ENDBRANCH  19  24
ENDBRANCH  18  19
ENDBRANCH  17  18
ENDBRANCH   5  17
ENDBRANCH   3   5
TORSDOF 11
ENDMDL
MODEL       26
REMARK 921   NORMALIZED FREE ENERGY PREDICTED BY IDOCK:   -5.44 KCAL/MOL
REMARK 922        TOTAL FREE ENERGY PREDICTED BY IDOCK:  -10.68 KCAL/MOL
REMARK 923 INTER-LIGAND FREE ENERGY PREDICTED BY IDOCK:   -9.24 KCAL/MOL
REMARK 924 INTRA-LIGAND FREE ENERGY PREDICTED BY IDOCK:   -1.44 KCAL/MOL
REMARK 927      BINDING AFFINITY PREDICTED BY RF-SCORE:    0.00 PKD
ROOT
HETATM    1  O   UNL     1     -11.802  16.417  72.250  1.00  0.00    -0.534 OA 
HETATM    2  C   UNL     1     -13.005  15.798  72.222  1.00  0.00    -0.447 C  
HETATM    3  C   UNL     1     -13.272  15.091  70.895  1.00  0.00    -0.399 C  
HETATM    4  O   UNL     1     -13.806  15.842  73.144  1.00  0.00    -0.548 OA 
ENDROOT
BRANCH   3   5
HETATM    5  N   UNL     1     -12.017  14.566  70.251  1.00  0.00    -0.294 NA 
BRANCH   5   6
HETATM    6  C   UNL     1     -12.191  13.102  69.965  1.00  0.00    -0.253 C  
BRANCH   6   7
HETATM    7  C   UNL     1     -12.462  12.228  71.227  1.00  0.00    -0.175 C  
BRANCH   7   8
HETATM    8  N   UNL     1     -12.119  10.767  71.114  1.00  0.00    -0.334 NA 
BRANCH   8   9
HETATM    9  C   UNL     1     -11.690  10.514  69.680  1.00  0.00    -0.256 C  
HETATM   10  O   UNL     1      -9.671   9.621  70.633  1.00  0.00    -0.257 OA 
HETATM   11  C   UNL     1     -10.190  10.249  69.553  1.00  0.00    -0.236 C  
HETATM   12  O   UNL     1      -9.526  10.546  68.572  1.00  0.00    -0.151 OA 
ENDBRANCH   8   9
BRANCH   8  13
HETATM   13  C   UNL     1     -13.386   9.976  71.339  1.00  0.00    -0.347 C  
HETATM   14  O   UNL     1     -12.005   8.457  72.578  1.00  0.00    -0.393 OA 
HETATM   15  O   UNL     1     -13.841   7.600  71.562  1.00  0.00    -0.383 OA 
HETATM   16  C   UNL     1     -13.114   8.549  71.806  1.00  0.00    -0.355 C  
ENDBRANCH   8  13
ENDBRANCH   7   8
ENDBRANCH   6   7
ENDBRANCH   5   6
BRANCH   5  17
HETATM   17  C   UNL     1     -11.810  15.279  68.950  1.00  0.00    -0.320 C  
BRANCH  17  18
HETATM   18  C   UNL     1     -12.025  14.452  67.651  1.00  0.00    -0.343 C  
BRANCH  18  19
HETATM   19  N   UNL     1     -11.003  14.687  66.564  1.00  0.00    -0.313 NA 
BRANCH  19  20
HETATM   20  C   UNL     1     -10.078  13.483  66.549  1.00  0.00    -0.282 C  
HETATM   21  O   UNL     1     -10.101  11.376  65.337  1.00  0.00    -0.237 OA 
HETATM   22  O   UNL     1     -10.743  13.255  64.250  1.00  0.00    -0.396 OA 
HETATM   23  C   UNL     1     -10.313  12.579  65.341  1.00  0.00    -0.282 C  
ENDBRANCH  19  20
BRANCH  19  24
HETATM   24  C   UNL     1     -10.161  15.878  66.964  1.00  0.00    -0.283 C  
HETATM   25  C   UNL     1      -9.804  16.777  65.785  1.00  0.00    -0.180 C  
HETATM   26  O   UNL     1      -8.793  17.458  65.727  1.00  0.00    -0.522 OA 
HETATM   27  O   UNL     1     -10.768  16.800  64.834  1.00  0.00    -0.721 OA 
ENDBRANCH  19  24
ENDBRANCH  18  19
ENDBRANCH  17  18
ENDBRANCH   5  17
ENDBRANCH   3   5
TORSDOF 11
ENDMDL
MODEL       27
REMARK 921   NORMALIZED FREE ENERGY PREDICTED BY IDOCK:   -5.43 KCAL/MOL
REMARK 922        TOTAL FREE ENERGY PREDICTED BY IDOCK:  -10.66 KCAL/MOL
REMARK 923 INTER-LIGAND FREE ENERGY PREDICTED BY IDOCK:   -9.12 KCAL/MOL
REMARK 924 INTRA-LIGAND FREE ENERGY PREDICTED BY IDOCK:   -1.54 KCAL/MOL
REMARK 927      BINDING AFFINITY PREDICTED BY RF-SCORE:    0.00 PKD
ROOT
HETATM    1  O   UNL     1     -10.778  17.634  65.530  1.00  0.00    -0.565 OA 
HETATM    2  C   UNL     1      -9.788  17.934  66.403  1.00  0.00    -0.337 C  
HETATM    3  C   UNL     1     -10.016  17.324  67.783  1.00  0.00    -0.301 C  
HETATM    4  O   UNL     1      -8.840  18.653  66.122  1.00  0.00    -0.452 OA 
ENDROOT
BRANCH   3   5
HETATM    5  N   UNL     1     -10.747  16.009  67.727  1.00  0.00    -0.316 NA 
BRANCH   5   6
HETATM    6  C   UNL     1      -9.761  14.915  67.436  1.00  0.00    -0.217 C  
BRANCH   6   7
HETATM    7  C   UNL     1      -9.851  14.335  65.992  1.00  0.00    -0.314 C  
BRANCH   7   8
HETATM    8  N   UNL     1     -10.466  12.969  65.857  1.00  0.00    -0.277 NA 
BRANCH   8   9
HETATM    9  C   UNL     1      -9.373  11.952  66.137  1.00  0.00    -0.219 C  
HETATM   10  O   UNL     1     -11.106  10.639  67.164  1.00  0.00    -0.282 OA 
HETATM   11  C   UNL     1      -9.782  10.922  67.188  1.00  0.00    -0.174 C  
HETATM   12  O   UNL     1      -9.001  10.383  67.957  1.00  0.00    -0.127 OA 
ENDBRANCH   8   9
BRANCH   8  13
HETATM   13  C   UNL     1     -10.877  12.785  64.415  1.00  0.00    -0.368 C  
HETATM   14  O   UNL     1     -13.064  13.450  65.139  1.00  0.00    -0.724 OA 
HETATM   15  O   UNL     1     -12.938  12.057  63.357  1.00  0.00    -0.772 OA 
HETATM   16  C   UNL     1     -12.390  12.694  64.241  1.00  0.00    -0.435 C  
ENDBRANCH   8  13
ENDBRANCH   7   8
ENDBRANCH   6   7
ENDBRANCH   5   6
BRANCH   5  17
HETATM   17  C   UNL     1     -11.362  15.745  69.067  1.00  0.00    -0.354 C  
BRANCH  17  18
HETATM   18  C   UNL     1     -12.568  14.764  69.108  1.00  0.00     0.176 C  
BRANCH  18  19
HETATM   19  N   UNL     1     -12.529  13.744  70.221  1.00  0.00    -0.316 NA 
BRANCH  19  20
HETATM   20  C   UNL     1     -12.069  14.465  71.475  1.00  0.00    -0.300 C  
HETATM   21  O   UNL     1     -13.213  15.211  73.486  1.00  0.00    -0.470 OA 
HETATM   22  O   UNL     1     -13.803  13.220  72.583  1.00  0.00    -0.712 OA 
HETATM   23  C   UNL     1     -13.083  14.366  72.612  1.00  0.00    -0.476 C  
ENDBRANCH  19  20
BRANCH  19  24
HETATM   24  C   UNL     1     -11.461  12.727  69.885  1.00  0.00    -0.069 C  
HETATM   25  C   UNL     1     -11.797  11.325  70.383  1.00  0.00    -0.350 C  
HETATM   26  O   UNL     1     -10.960  10.491  70.690  1.00  0.00    -0.237 OA 
HETATM   27  O   UNL     1     -13.127  11.073  70.380  1.00  0.00    -0.127 OA 
ENDBRANCH  19  24
ENDBRANCH  18  19
ENDBRANCH  17  18
ENDBRANCH   5  17
ENDBRANCH   3   5
TORSDOF 11
ENDMDL
MODEL       28
REMARK 921   NORMALIZED FREE ENERGY PREDICTED BY IDOCK:   -5.42 KCAL/MOL
REMARK 922        TOTAL FREE ENERGY PREDICTED BY IDOCK:  -10.64 KCAL/MOL
REMARK 923 INTER-LIGAND FREE ENERGY PREDICTED BY IDOCK:   -9.68 KCAL/MOL
REMARK 924 INTRA-LIGAND FREE ENERGY PREDICTED BY IDOCK:   -0.96 KCAL/MOL
REMARK 927      BINDING AFFINITY PREDICTED BY RF-SCORE:    0.00 PKD
ROOT
HETATM    1  O   UNL     1      -9.479  19.265  68.354  1.00  0.00    -0.336 OA 
HETATM    2  C   UNL     1      -8.612  18.236  68.506  1.00  0.00    -0.306 C  
HETATM    3  C   UNL     1      -9.316  16.910  68.781  1.00  0.00    -0.260 C  
HETATM    4  O   UNL     1      -7.398  18.370  68.472  1.00  0.00    -0.268 OA 
ENDROOT
BRANCH   3   5
HETATM    5  N   UNL     1     -10.660  16.812  68.109  1.00  0.00    -0.336 NA 
BRANCH   5   6
HETATM    6  C   UNL     1     -10.483  16.205  66.748  1.00  0.00    -0.294 C  
BRANCH   6   7
HETATM    7  C   UNL     1     -11.503  15.077  66.408  1.00  0.00    -0.225 C  
BRANCH   7   8
HETATM    8  N   UNL     1     -10.928  13.713  66.141  1.00  0.00    -0.283 NA 
BRANCH   8   9
HETATM    9  C   UNL     1      -9.478  13.738  66.590  1.00  0.00    -0.279 C  
HETATM   10  O   UNL     1     -10.177  12.226  68.324  1.00  0.00    -0.209 OA 
HETATM   11  C   UNL     1      -9.291  13.200  68.007  1.00  0.00    -0.219 C  
HETATM   12  O   UNL     1      -8.421  13.582  68.774  1.00  0.00    -0.065 OA 
ENDBRANCH   8   9
BRANCH   8  13
HETATM   13  C   UNL     1     -10.921  13.498  64.645  1.00  0.00    -0.385 C  
HETATM   14  O   UNL     1     -13.109  12.566  64.947  1.00  0.00    -0.833 OA 
HETATM   15  O   UNL     1     -11.879  11.790  63.210  1.00  0.00    -0.401 OA 
HETATM   16  C   UNL     1     -11.990  12.512  64.187  1.00  0.00    -0.429 C  
ENDBRANCH   8  13
ENDBRANCH   7   8
ENDBRANCH   6   7
ENDBRANCH   5   6
BRANCH   5  17
HETATM   17  C   UNL     1     -11.536  15.906  68.919  1.00  0.00    -0.388 C  
BRANCH  17  18
HETATM   18  C   UNL     1     -11.267  15.847  70.449  1.00  0.00    -0.378 C  
BRANCH  18  19
HETATM   19  N   UNL     1     -12.295  15.087  71.253  1.00  0.00    -0.298 NA 
BRANCH  19  20
HETATM   20  C   UNL     1     -11.899  15.203  72.714  1.00  0.00    -0.359 C  
HETATM   21  O   UNL     1     -12.540  16.720  74.501  1.00  0.00    -0.693 OA 
HETATM   22  O   UNL     1     -14.131  16.036  73.043  1.00  0.00    -0.508 OA 
HETATM   23  C   UNL     1     -12.862  16.077  73.514  1.00  0.00    -0.590 C  
ENDBRANCH  19  20
BRANCH  19  24
HETATM   24  C   UNL     1     -12.186  13.623  70.886  1.00  0.00    -0.328 C  
HETATM   25  C   UNL     1     -13.125  12.735  71.695  1.00  0.00    -0.331 C  
HETATM   26  O   UNL     1     -12.900  11.566  71.961  1.00  0.00    -0.350 OA 
HETATM   27  O   UNL     1     -14.279  13.361  72.028  1.00  0.00    -0.330 OA 
ENDBRANCH  19  24
ENDBRANCH  18  19
ENDBRANCH  17  18
ENDBRANCH   5  17
ENDBRANCH   3   5
TORSDOF 11
ENDMDL
MODEL       29
REMARK 921   NORMALIZED FREE ENERGY PREDICTED BY IDOCK:   -5.40 KCAL/MOL
REMARK 922        TOTAL FREE ENERGY PREDICTED BY IDOCK:  -10.61 KCAL/MOL
REMARK 923 INTER-LIGAND FREE ENERGY PREDICTED BY IDOCK:   -9.18 KCAL/MOL
REMARK 924 INTRA-LIGAND FREE ENERGY PREDICTED BY IDOCK:   -1.43 KCAL/MOL
REMARK 927      BINDING AFFINITY PREDICTED BY RF-SCORE:    0.00 PKD
ROOT
HETATM    1  O   UNL     1     -11.628  11.748  63.765  1.00  0.00    -0.414 OA 
HETATM    2  C   UNL     1     -12.189  12.344  64.842  1.00  0.00    -0.418 C  
HETATM    3  C   UNL     1     -11.593  11.857  66.161  1.00  0.00    -0.229 C  
HETATM    4  O   UNL     1     -13.105  13.150  64.763  1.00  0.00    -0.728 OA 
ENDROOT
BRANCH   3   5
HETATM    5  N   UNL     1     -10.140  11.484  66.042  1.00  0.00    -0.223 NA 
BRANCH   5   6
HETATM    6  C   UNL     1      -9.304  12.719  66.208  1.00  0.00    -0.152 C  
BRANCH   6   7
HETATM    7  C   UNL     1      -9.705  13.610  67.422  1.00  0.00    -0.228 C  
BRANCH   7   8
HETATM    8  N   UNL     1     -10.179  15.002  67.103  1.00  0.00    -0.247 NA 
BRANCH   8   9
HETATM    9  C   UNL     1     -11.564  15.156  67.706  1.00  0.00    -0.289 C  
HETATM   10  O   UNL     1     -10.557  16.791  69.152  1.00  0.00    -0.316 OA 
HETATM   11  C   UNL     1     -11.543  15.869  69.057  1.00  0.00    -0.389 C  
HETATM   12  O   UNL     1     -12.343  15.656  69.954  1.00  0.00    -0.354 OA 
ENDBRANCH   8   9
BRANCH   8  13
HETATM   13  C   UNL     1     -10.338  15.106  65.605  1.00  0.00    -0.357 C  
HETATM   14  O   UNL     1     -10.221  17.477  65.935  1.00  0.00    -0.509 OA 
HETATM   15  O   UNL     1     -11.415  16.733  64.159  1.00  0.00    -1.171 OA 
HETATM   16  C   UNL     1     -10.743  16.505  65.151  1.00  0.00    -0.244 C  
ENDBRANCH   8  13
ENDBRANCH   7   8
ENDBRANCH   6   7
ENDBRANCH   5   6
BRANCH   5  17
HETATM   17  C   UNL     1      -9.798  10.531  67.146  1.00  0.00    -0.176 C  
BRANCH  17  18
HETATM   18  C   UNL     1     -10.981   9.962  67.979  1.00  0.00    -0.213 C  
BRANCH  18  19
HETATM   19  N   UNL     1     -10.717   9.826  69.460  1.00  0.00    -0.223 NA 
BRANCH  19  20
HETATM   20  C   UNL     1     -11.412  10.987  70.149  1.00  0.00    -0.296 C  
HETATM   21  O   UNL     1     -13.382  11.151  71.561  1.00  0.00    -0.315 OA 
HETATM   22  O   UNL     1     -12.010   9.371  71.825  1.00  0.00    -0.360 OA 
HETATM   23  C   UNL     1     -12.385  10.528  71.231  1.00  0.00    -0.397 C  
ENDBRANCH  19  20
BRANCH  19  24
HETATM   24  C   UNL     1      -9.232  10.009  69.688  1.00  0.00    -0.215 C  
HETATM   25  C   UNL     1      -8.665   9.035  70.716  1.00  0.00    -0.224 C  
HETATM   26  O   UNL     1      -7.698   9.274  71.422  1.00  0.00    -0.334 OA 
HETATM   27  O   UNL     1      -9.301   7.840  70.712  1.00  0.00    -0.160 OA 
ENDBRANCH  19  24
ENDBRANCH  18  19
ENDBRANCH  17  18
ENDBRANCH   5  17
ENDBRANCH   3   5
TORSDOF 11
ENDMDL
MODEL       30
REMARK 921   NORMALIZED FREE ENERGY PREDICTED BY IDOCK:   -5.40 KCAL/MOL
REMARK 922        TOTAL FREE ENERGY PREDICTED BY IDOCK:  -10.61 KCAL/MOL
REMARK 923 INTER-LIGAND FREE ENERGY PREDICTED BY IDOCK:   -9.35 KCAL/MOL
REMARK 924 INTRA-LIGAND FREE ENERGY PREDICTED BY IDOCK:   -1.26 KCAL/MOL
REMARK 927      BINDING AFFINITY PREDICTED BY RF-SCORE:    0.00 PKD
ROOT
HETATM    1  O   UNL     1     -11.027  12.521  63.990  1.00  0.00    -0.337 OA 
HETATM    2  C   UNL     1     -12.059  13.396  63.992  1.00  0.00    -0.449 C  
HETATM    3  C   UNL     1     -12.427  13.869  65.396  1.00  0.00    -0.501 C  
HETATM    4  O   UNL     1     -12.658  13.730  62.980  1.00  0.00    -0.721 OA 
ENDROOT
BRANCH   3   5
HETATM    5  N   UNL     1     -11.240  13.936  66.319  1.00  0.00    -0.305 NA 
BRANCH   5   6
HETATM    6  C   UNL     1     -10.991  15.369  66.691  1.00  0.00    -0.275 C  
BRANCH   6   7
HETATM    7  C   UNL     1     -10.048  16.133  65.714  1.00  0.00    -0.363 C  
BRANCH   7   8
HETATM    8  N   UNL     1      -9.431  17.402  66.235  1.00  0.00    -0.400 NA 
BRANCH   8   9
HETATM    9  C   UNL     1      -7.983  17.095  66.572  1.00  0.00    -0.289 C  
HETATM   10  O   UNL     1      -7.491  19.243  65.608  1.00  0.00    -0.428 OA 
HETATM   11  C   UNL     1      -7.001  18.001  65.830  1.00  0.00    -0.231 C  
HETATM   12  O   UNL     1      -5.879  17.659  65.491  1.00  0.00    -0.088 OA 
ENDBRANCH   8   9
BRANCH   8  13
HETATM   13  C   UNL     1     -10.119  17.753  67.533  1.00  0.00    -0.340 C  
HETATM   14  O   UNL     1     -10.673  19.830  66.472  1.00  0.00    -0.469 OA 
HETATM   15  O   UNL     1     -10.444  19.843  68.726  1.00  0.00    -0.367 OA 
HETATM   16  C   UNL     1     -10.405  19.246  67.663  1.00  0.00    -0.429 C  
ENDBRANCH   8  13
ENDBRANCH   7   8
ENDBRANCH   6   7
ENDBRANCH   5   6
BRANCH   5  17
HETATM   17  C   UNL     1     -11.560  13.173  67.568  1.00  0.00    -0.352 C  
BRANCH  17  18
HETATM   18  C   UNL     1     -12.230  13.965  68.726  1.00  0.00    -0.197 C  
BRANCH  18  19
HETATM   19  N   UNL     1     -12.408  13.194  70.013  1.00  0.00    -0.224 NA 
BRANCH  19  20
HETATM   20  C   UNL     1     -12.017  14.121  71.150  1.00  0.00    -0.239 C  
HETATM   21  O   UNL     1     -13.293  15.337  72.824  1.00  0.00    -0.417 OA 
HETATM   22  O   UNL     1     -13.967  13.251  72.258  1.00  0.00    -0.532 OA 
HETATM   23  C   UNL     1     -13.150  14.326  72.153  1.00  0.00    -0.382 C  
ENDBRANCH  19  20
BRANCH  19  24
HETATM   24  C   UNL     1     -11.412  12.055  70.016  1.00  0.00    -0.101 C  
HETATM   25  C   UNL     1     -11.910  10.832  70.779  1.00  0.00    -0.339 C  
HETATM   26  O   UNL     1     -11.178  10.034  71.343  1.00  0.00    -0.306 OA 
HETATM   27  O   UNL     1     -13.253  10.680  70.704  1.00  0.00    -0.266 OA 
ENDBRANCH  19  24
ENDBRANCH  18  19
ENDBRANCH  17  18
ENDBRANCH   5  17
ENDBRANCH   3   5
TORSDOF 11
ENDMDL
MODEL       31
REMARK 921   NORMALIZED FREE ENERGY PREDICTED BY IDOCK:   -5.39 KCAL/MOL
REMARK 922        TOTAL FREE ENERGY PREDICTED BY IDOCK:  -10.60 KCAL/MOL
REMARK 923 INTER-LIGAND FREE ENERGY PREDICTED BY IDOCK:   -9.68 KCAL/MOL
REMARK 924 INTRA-LIGAND FREE ENERGY PREDICTED BY IDOCK:   -0.92 KCAL/MOL
REMARK 927      BINDING AFFINITY PREDICTED BY RF-SCORE:    0.00 PKD
ROOT
HETATM    1  O   UNL     1     -10.474  17.529  65.380  1.00  0.00    -0.647 OA 
HETATM    2  C   UNL     1      -9.399  17.610  66.198  1.00  0.00    -0.136 C  
HETATM    3  C   UNL     1      -9.672  17.040  67.588  1.00  0.00    -0.257 C  
HETATM    4  O   UNL     1      -8.342  18.128  65.868  1.00  0.00    -0.513 OA 
ENDROOT
BRANCH   3   5
HETATM    5  N   UNL     1     -10.655  15.900  67.568  1.00  0.00    -0.309 NA 
BRANCH   5   6
HETATM    6  C   UNL     1      -9.899  14.603  67.539  1.00  0.00    -0.218 C  
BRANCH   6   7
HETATM    7  C   UNL     1      -9.351  14.209  66.134  1.00  0.00    -0.136 C  
BRANCH   7   8
HETATM    8  N   UNL     1     -10.045  13.067  65.442  1.00  0.00    -0.279 NA 
BRANCH   8   9
HETATM    9  C   UNL     1     -11.453  12.987  66.006  1.00  0.00    -0.335 C  
HETATM   10  O   UNL     1     -12.183  13.514  63.777  1.00  0.00    -0.596 OA 
HETATM   11  C   UNL     1     -12.492  13.630  65.090  1.00  0.00    -0.449 C  
HETATM   12  O   UNL     1     -13.512  14.171  65.487  1.00  0.00    -0.643 OA 
ENDBRANCH   8   9
BRANCH   8  13
HETATM   13  C   UNL     1      -9.341  11.790  65.835  1.00  0.00    -0.202 C  
HETATM   14  O   UNL     1     -10.055  10.952  63.705  1.00  0.00    -0.307 OA 
HETATM   15  O   UNL     1      -9.779   9.446  65.376  1.00  0.00    -0.280 OA 
HETATM   16  C   UNL     1      -9.761  10.599  64.979  1.00  0.00    -0.279 C  
ENDBRANCH   8  13
ENDBRANCH   7   8
ENDBRANCH   6   7
ENDBRANCH   5   6
BRANCH   5  17
HETATM   17  C   UNL     1     -11.467  15.944  68.825  1.00  0.00    -0.393 C  
BRANCH  17  18
HETATM   18  C   UNL     1     -10.852  15.272  70.086  1.00  0.00    -0.281 C  
BRANCH  18  19
HETATM   19  N   UNL     1     -11.825  14.486  70.933  1.00  0.00    -0.313 NA 
BRANCH  19  20
HETATM   20  C   UNL     1     -12.278  13.295  70.109  1.00  0.00    -0.306 C  
HETATM   21  O   UNL     1     -12.628  10.946  70.626  1.00  0.00    -0.331 OA 
HETATM   22  O   UNL     1     -13.229  12.491  72.167  1.00  0.00    -0.483 OA 
HETATM   23  C   UNL     1     -12.708  12.113  70.976  1.00  0.00    -0.228 C  
ENDBRANCH  19  20
BRANCH  19  24
HETATM   24  C   UNL     1     -13.047  15.349  71.162  1.00  0.00    -0.498 C  
HETATM   25  C   UNL     1     -13.128  15.898  72.582  1.00  0.00    -0.472 C  
HETATM   26  O   UNL     1     -14.174  16.167  73.152  1.00  0.00    -0.335 OA 
HETATM   27  O   UNL     1     -11.910  16.131  73.125  1.00  0.00    -0.450 OA 
ENDBRANCH  19  24
ENDBRANCH  18  19
ENDBRANCH  17  18
ENDBRANCH   5  17
ENDBRANCH   3   5
TORSDOF 11
ENDMDL
MODEL       32
REMARK 921   NORMALIZED FREE ENERGY PREDICTED BY IDOCK:   -5.39 KCAL/MOL
REMARK 922        TOTAL FREE ENERGY PREDICTED BY IDOCK:  -10.60 KCAL/MOL
REMARK 923 INTER-LIGAND FREE ENERGY PREDICTED BY IDOCK:   -9.07 KCAL/MOL
REMARK 924 INTRA-LIGAND FREE ENERGY PREDICTED BY IDOCK:   -1.53 KCAL/MOL
REMARK 927      BINDING AFFINITY PREDICTED BY RF-SCORE:    0.00 PKD
ROOT
HETATM    1  O   UNL     1     -11.529  11.980  63.723  1.00  0.00    -0.392 OA 
HETATM    2  C   UNL     1     -12.093  13.209  63.778  1.00  0.00    -0.495 C  
HETATM    3  C   UNL     1     -11.852  13.908  65.114  1.00  0.00    -0.362 C  
HETATM    4  O   UNL     1     -12.760  13.683  62.870  1.00  0.00    -0.577 OA 
ENDROOT
BRANCH   3   5
HETATM    5  N   UNL     1     -10.534  13.537  65.738  1.00  0.00    -0.286 NA 
BRANCH   5   6
HETATM    6  C   UNL     1      -9.628  14.733  65.713  1.00  0.00    -0.254 C  
BRANCH   6   7
HETATM    7  C   UNL     1     -10.359  16.089  65.477  1.00  0.00    -0.390 C  
BRANCH   7   8
HETATM    8  N   UNL     1      -9.618  17.330  65.895  1.00  0.00    -0.527 NA 
BRANCH   8   9
HETATM    9  C   UNL     1      -8.299  16.885  66.501  1.00  0.00    -0.280 C  
HETATM   10  O   UNL     1      -7.429  18.977  65.696  1.00  0.00    -0.466 OA 
HETATM   11  C   UNL     1      -7.110  17.694  65.984  1.00  0.00    -0.283 C  
HETATM   12  O   UNL     1      -5.981  17.246  65.863  1.00  0.00    -0.190 OA 
ENDBRANCH   8   9
BRANCH   8  13
HETATM   13  C   UNL     1     -10.408  17.992  67.000  1.00  0.00    -0.369 C  
HETATM   14  O   UNL     1     -10.617  19.847  65.497  1.00  0.00    -0.464 OA 
HETATM   15  O   UNL     1     -10.645  20.299  67.717  1.00  0.00    -0.255 OA 
HETATM   16  C   UNL     1     -10.548  19.497  66.803  1.00  0.00    -0.488 C  
ENDBRANCH   8  13
ENDBRANCH   7   8
ENDBRANCH   6   7
ENDBRANCH   5   6
BRANCH   5  17
HETATM   17  C   UNL     1     -10.770  13.154  67.167  1.00  0.00    -0.255 C  
BRANCH  17  18
HETATM   18  C   UNL     1     -12.119  13.595  67.802  1.00  0.00    -0.290 C  
BRANCH  18  19
HETATM   19  N   UNL     1     -12.021  14.134  69.209  1.00  0.00    -0.328 NA 
BRANCH  19  20
HETATM   20  C   UNL     1     -10.545  14.229  69.552  1.00  0.00    -0.011 C  
HETATM   21  O   UNL     1      -8.941  16.054  69.528  1.00  0.00    -0.222 OA 
HETATM   22  O   UNL     1     -11.053  16.482  70.221  1.00  0.00    -0.348 OA 
HETATM   23  C   UNL     1     -10.080  15.670  69.744  1.00  0.00    -0.287 C  
ENDBRANCH  19  20
BRANCH  19  24
HETATM   24  C   UNL     1     -12.621  13.107  70.145  1.00  0.00    -0.009 C  
HETATM   25  C   UNL     1     -13.284  13.732  71.367  1.00  0.00    -0.305 C  
HETATM   26  O   UNL     1     -13.380  13.179  72.451  1.00  0.00    -0.533 OA 
HETATM   27  O   UNL     1     -13.826  14.945  71.106  1.00  0.00    -0.406 OA 
ENDBRANCH  19  24
ENDBRANCH  18  19
ENDBRANCH  17  18
ENDBRANCH   5  17
ENDBRANCH   3   5
TORSDOF 11
ENDMDL
MODEL       33
REMARK 921   NORMALIZED FREE ENERGY PREDICTED BY IDOCK:   -5.39 KCAL/MOL
REMARK 922        TOTAL FREE ENERGY PREDICTED BY IDOCK:  -10.60 KCAL/MOL
REMARK 923 INTER-LIGAND FREE ENERGY PREDICTED BY IDOCK:   -8.86 KCAL/MOL
REMARK 924 INTRA-LIGAND FREE ENERGY PREDICTED BY IDOCK:   -1.74 KCAL/MOL
REMARK 927      BINDING AFFINITY PREDICTED BY RF-SCORE:    0.00 PKD
ROOT
HETATM    1  O   UNL     1     -12.663  14.031  63.264  1.00  0.00    -0.750 OA 
HETATM    2  C   UNL     1     -12.103  12.872  63.683  1.00  0.00    -0.535 C  
HETATM    3  C   UNL     1     -11.006  13.090  64.722  1.00  0.00    -0.327 C  
HETATM    4  O   UNL     1     -12.415  11.776  63.239  1.00  0.00    -0.543 OA 
ENDROOT
BRANCH   3   5
HETATM    5  N   UNL     1     -11.260  14.289  65.595  1.00  0.00    -0.307 NA 
BRANCH   5   6
HETATM    6  C   UNL     1     -11.841  13.828  66.901  1.00  0.00    -0.413 C  
BRANCH   6   7
HETATM    7  C   UNL     1     -11.779  12.287  67.124  1.00  0.00    -0.326 C  
BRANCH   7   8
HETATM    8  N   UNL     1     -11.010  11.816  68.328  1.00  0.00    -0.214 NA 
BRANCH   8   9
HETATM    9  C   UNL     1      -9.854  10.971  67.822  1.00  0.00    -0.173 C  
HETATM   10  O   UNL     1      -8.477  12.878  68.319  1.00  0.00    -0.168 OA 
HETATM   11  C   UNL     1      -8.610  11.801  67.510  1.00  0.00    -0.157 C  
HETATM   12  O   UNL     1      -7.799  11.517  66.642  1.00  0.00    -0.154 OA 
ENDBRANCH   8   9
BRANCH   8  13
HETATM   13  C   UNL     1     -11.908  10.898  69.123  1.00  0.00    -0.317 C  
HETATM   14  O   UNL     1     -12.205  12.762  70.601  1.00  0.00    -0.370 OA 
HETATM   15  O   UNL     1     -12.382  10.688  71.496  1.00  0.00    -0.360 OA 
HETATM   16  C   UNL     1     -12.170  11.411  70.536  1.00  0.00    -0.386 C  
ENDBRANCH   8  13
ENDBRANCH   7   8
ENDBRANCH   6   7
ENDBRANCH   5   6
BRANCH   5  17
HETATM   17  C   UNL     1      -9.953  14.965  65.874  1.00  0.00    -0.331 C  
BRANCH  17  18
HETATM   18  C   UNL     1      -9.992  16.499  66.130  1.00  0.00    -0.343 C  
BRANCH  18  19
HETATM   19  N   UNL     1      -9.459  16.939  67.473  1.00  0.00    -0.239 NA 
BRANCH  19  20
HETATM   20  C   UNL     1     -10.656  17.268  68.347  1.00  0.00    -0.368 C  
HETATM   21  O   UNL     1     -12.019  15.956  69.872  1.00  0.00    -0.334 OA 
HETATM   22  O   UNL     1      -9.788  15.579  69.822  1.00  0.00    -0.281 OA 
HETATM   23  C   UNL     1     -10.916  16.203  69.409  1.00  0.00    -0.333 C  
ENDBRANCH  19  20
BRANCH  19  24
HETATM   24  C   UNL     1      -8.698  18.231  67.272  1.00  0.00    -0.255 C  
HETATM   25  C   UNL     1      -7.805  18.586  68.456  1.00  0.00    -0.318 C  
HETATM   26  O   UNL     1      -7.505  19.727  68.768  1.00  0.00    -0.332 OA 
HETATM   27  O   UNL     1      -7.313  17.493  69.086  1.00  0.00    -0.224 OA 
ENDBRANCH  19  24
ENDBRANCH  18  19
ENDBRANCH  17  18
ENDBRANCH   5  17
ENDBRANCH   3   5
TORSDOF 11
ENDMDL
MODEL       34
REMARK 921   NORMALIZED FREE ENERGY PREDICTED BY IDOCK:   -5.39 KCAL/MOL
REMARK 922        TOTAL FREE ENERGY PREDICTED BY IDOCK:  -10.60 KCAL/MOL
REMARK 923 INTER-LIGAND FREE ENERGY PREDICTED BY IDOCK:   -9.26 KCAL/MOL
REMARK 924 INTRA-LIGAND FREE ENERGY PREDICTED BY IDOCK:   -1.33 KCAL/MOL
REMARK 927      BINDING AFFINITY PREDICTED BY RF-SCORE:    0.00 PKD
ROOT
HETATM    1  O   UNL     1     -10.477  18.642  65.898  1.00  0.00    -0.520 OA 
HETATM    2  C   UNL     1     -10.679  18.880  67.215  1.00  0.00    -0.449 C  
HETATM    3  C   UNL     1     -10.436  17.645  68.080  1.00  0.00    -0.394 C  
HETATM    4  O   UNL     1     -11.059  19.956  67.653  1.00  0.00    -0.193 OA 
ENDROOT
BRANCH   3   5
HETATM    5  N   UNL     1      -9.370  16.742  67.521  1.00  0.00    -0.229 NA 
BRANCH   5   6
HETATM    6  C   UNL     1      -8.063  17.058  68.188  1.00  0.00    -0.212 C  
BRANCH   6   7
HETATM    7  C   UNL     1      -6.921  17.464  67.208  1.00  0.00    -0.168 C  
BRANCH   7   8
HETATM    8  N   UNL     1      -6.539  18.919  67.193  1.00  0.00    -0.199 NA 
BRANCH   8   9
HETATM    9  C   UNL     1      -7.107  19.548  68.453  1.00  0.00    -0.314 C  
HETATM   10  O   UNL     1      -5.194  21.002  68.374  1.00  0.00    -0.274 OA 
HETATM   11  C   UNL     1      -6.083  20.401  69.199  1.00  0.00    -0.337 C  
HETATM   12  O   UNL     1      -6.073  20.552  70.411  1.00  0.00    -0.484 OA 
ENDBRANCH   8   9
BRANCH   8  13
HETATM   13  C   UNL     1      -7.239  19.571  66.023  1.00  0.00    -0.288 C  
HETATM   14  O   UNL     1      -5.253  19.063  64.781  1.00  0.00    -0.158 OA 
HETATM   15  O   UNL     1      -6.449  20.875  64.134  1.00  0.00    -0.327 OA 
HETATM   16  C   UNL     1      -6.282  19.935  64.893  1.00  0.00    -0.274 C  
ENDBRANCH   8  13
ENDBRANCH   7   8
ENDBRANCH   6   7
ENDBRANCH   5   6
BRANCH   5  17
HETATM   17  C   UNL     1      -9.729  15.323  67.837  1.00  0.00    -0.211 C  
BRANCH  17  18
HETATM   18  C   UNL     1      -9.338  14.246  66.786  1.00  0.00    -0.276 C  
BRANCH  18  19
HETATM   19  N   UNL     1     -10.498  13.512  66.155  1.00  0.00    -0.291 NA 
BRANCH  19  20
HETATM   20  C   UNL     1     -10.055  12.076  65.934  1.00  0.00    -0.236 C  
HETATM   21  O   UNL     1     -10.238  10.051  67.265  1.00  0.00    -0.196 OA 
HETATM   22  O   UNL     1     -11.982  11.494  67.250  1.00  0.00    -0.605 OA 
HETATM   23  C   UNL     1     -10.738  11.100  66.889  1.00  0.00    -0.274 C  
ENDBRANCH  19  20
BRANCH  19  24
HETATM   24  C   UNL     1     -10.739  14.110  64.786  1.00  0.00    -0.419 C  
HETATM   25  C   UNL     1     -12.182  13.957  64.317  1.00  0.00    -0.408 C  
HETATM   26  O   UNL     1     -12.515  13.881  63.145  1.00  0.00    -0.766 OA 
HETATM   27  O   UNL     1     -13.071  13.988  65.338  1.00  0.00    -0.763 OA 
ENDBRANCH  19  24
ENDBRANCH  18  19
ENDBRANCH  17  18
ENDBRANCH   5  17
ENDBRANCH   3   5
TORSDOF 11
ENDMDL
MODEL       35
REMARK 921   NORMALIZED FREE ENERGY PREDICTED BY IDOCK:   -5.38 KCAL/MOL
REMARK 922        TOTAL FREE ENERGY PREDICTED BY IDOCK:  -10.58 KCAL/MOL
REMARK 923 INTER-LIGAND FREE ENERGY PREDICTED BY IDOCK:   -9.42 KCAL/MOL
REMARK 924 INTRA-LIGAND FREE ENERGY PREDICTED BY IDOCK:   -1.16 KCAL/MOL
REMARK 927      BINDING AFFINITY PREDICTED BY RF-SCORE:    0.00 PKD
ROOT
HETATM    1  O   UNL     1     -12.611  14.238  63.549  1.00  0.00    -0.814 OA 
HETATM    2  C   UNL     1     -12.146  13.013  63.888  1.00  0.00    -0.471 C  
HETATM    3  C   UNL     1     -11.225  13.048  65.105  1.00  0.00    -0.293 C  
HETATM    4  O   UNL     1     -12.404  11.999  63.255  1.00  0.00    -0.543 OA 
ENDROOT
BRANCH   3   5
HETATM    5  N   UNL     1     -11.593  14.131  66.083  1.00  0.00    -0.358 NA 
BRANCH   5   6
HETATM    6  C   UNL     1     -11.803  13.515  67.437  1.00  0.00    -0.384 C  
BRANCH   6   7
HETATM    7  C   UNL     1     -10.514  12.922  68.081  1.00  0.00    -0.237 C  
BRANCH   7   8
HETATM    8  N   UNL     1     -10.669  11.611  68.803  1.00  0.00    -0.212 NA 
BRANCH   8   9
HETATM    9  C   UNL     1     -11.120  10.583  67.780  1.00  0.00    -0.317 C  
HETATM   10  O   UNL     1      -8.924   9.635  68.032  1.00  0.00    -0.123 OA 
HETATM   11  C   UNL     1      -9.953   9.809  67.169  1.00  0.00    -0.198 C  
HETATM   12  O   UNL     1      -9.948   9.367  66.031  1.00  0.00    -0.293 OA 
ENDBRANCH   8   9
BRANCH   8  13
HETATM   13  C   UNL     1     -11.795  11.761  69.799  1.00  0.00    -0.349 C  
HETATM   14  O   UNL     1     -10.756   9.950  70.977  1.00  0.00    -0.309 OA 
HETATM   15  O   UNL     1     -13.001  10.179  71.191  1.00  0.00    -0.353 OA 
HETATM   16  C   UNL     1     -11.942  10.546  70.709  1.00  0.00    -0.370 C  
ENDBRANCH   8  13
ENDBRANCH   7   8
ENDBRANCH   6   7
ENDBRANCH   5   6
BRANCH   5  17
HETATM   17  C   UNL     1     -10.454  15.099  66.178  1.00  0.00    -0.312 C  
BRANCH  17  18
HETATM   18  C   UNL     1     -10.620  16.290  67.165  1.00  0.00    -0.291 C  
BRANCH  18  19
HETATM   19  N   UNL     1      -9.675  17.446  66.941  1.00  0.00    -0.274 NA 
BRANCH  19  20
HETATM   20  C   UNL     1      -8.327  17.043  67.512  1.00  0.00    -0.188 C  
HETATM   21  O   UNL     1      -6.180  16.512  66.505  1.00  0.00    -0.290 OA 
HETATM   22  O   UNL     1      -7.406  18.194  65.612  1.00  0.00    -0.528 OA 
HETATM   23  C   UNL     1      -7.194  17.193  66.500  1.00  0.00    -0.273 C  
ENDBRANCH  19  20
BRANCH  19  24
HETATM   24  C   UNL     1     -10.166  18.616  67.766  1.00  0.00    -0.386 C  
HETATM   25  C   UNL     1     -10.166  19.930  66.992  1.00  0.00    -0.455 C  
HETATM   26  O   UNL     1     -10.024  21.027  67.509  1.00  0.00    -0.315 OA 
HETATM   27  O   UNL     1     -10.416  19.761  65.672  1.00  0.00    -0.480 OA 
ENDBRANCH  19  24
ENDBRANCH  18  19
ENDBRANCH  17  18
ENDBRANCH   5  17
ENDBRANCH   3   5
TORSDOF 11
ENDMDL
MODEL       36
REMARK 921   NORMALIZED FREE ENERGY PREDICTED BY IDOCK:   -5.38 KCAL/MOL
REMARK 922        TOTAL FREE ENERGY PREDICTED BY IDOCK:  -10.58 KCAL/MOL
REMARK 923 INTER-LIGAND FREE ENERGY PREDICTED BY IDOCK:   -9.37 KCAL/MOL
REMARK 924 INTRA-LIGAND FREE ENERGY PREDICTED BY IDOCK:   -1.21 KCAL/MOL
REMARK 927      BINDING AFFINITY PREDICTED BY RF-SCORE:    0.00 PKD
ROOT
HETATM    1  O   UNL     1     -13.390  13.122  65.056  1.00  0.00    -0.634 OA 
HETATM    2  C   UNL     1     -12.396  12.306  64.633  1.00  0.00    -0.369 C  
HETATM    3  C   UNL     1     -11.292  12.138  65.674  1.00  0.00    -0.347 C  
HETATM    4  O   UNL     1     -12.370  11.800  63.521  1.00  0.00    -0.509 OA 
ENDROOT
BRANCH   3   5
HETATM    5  N   UNL     1     -11.804  12.211  67.086  1.00  0.00    -0.591 NA 
BRANCH   5   6
HETATM    6  C   UNL     1     -11.448  10.940  67.802  1.00  0.00    -0.243 C  
BRANCH   6   7
HETATM    7  C   UNL     1     -11.793  10.939  69.322  1.00  0.00    -0.324 C  
BRANCH   7   8
HETATM    8  N   UNL     1     -11.463   9.683  70.082  1.00  0.00    -0.223 NA 
BRANCH   8   9
HETATM    9  C   UNL     1     -12.024   9.843  71.484  1.00  0.00    -0.390 C  
HETATM   10  O   UNL     1     -12.851   7.602  71.215  1.00  0.00    -0.318 OA 
HETATM   11  C   UNL     1     -13.079   8.791  71.820  1.00  0.00    -0.363 C  
HETATM   12  O   UNL     1     -14.020   8.983  72.574  1.00  0.00    -0.478 OA 
ENDBRANCH   8   9
BRANCH   8  13
HETATM   13  C   UNL     1      -9.961   9.604  70.217  1.00  0.00    -0.270 C  
HETATM   14  O   UNL     1     -10.129   7.591  68.926  1.00  0.00    -0.181 OA 
HETATM   15  O   UNL     1      -8.406   7.746  70.390  1.00  0.00    -0.119 OA 
HETATM   16  C   UNL     1      -9.412   8.219  69.887  1.00  0.00    -0.167 C  
ENDBRANCH   8  13
ENDBRANCH   7   8
ENDBRANCH   6   7
ENDBRANCH   5   6
BRANCH   5  17
HETATM   17  C   UNL     1     -11.127  13.351  67.784  1.00  0.00    -0.268 C  
BRANCH  17  18
HETATM   18  C   UNL     1     -11.765  14.759  67.617  1.00  0.00    -0.341 C  
BRANCH  18  19
HETATM   19  N   UNL     1     -11.177  15.839  68.495  1.00  0.00    -0.335 NA 
BRANCH  19  20
HETATM   20  C   UNL     1      -9.868  16.271  67.860  1.00  0.00    -0.237 C  
HETATM   21  O   UNL     1      -9.311  17.835  66.084  1.00  0.00    -0.456 OA 
HETATM   22  O   UNL     1     -10.960  18.389  67.533  1.00  0.00    -0.354 OA 
HETATM   23  C   UNL     1     -10.007  17.557  67.049  1.00  0.00    -0.311 C  
ENDBRANCH  19  20
BRANCH  19  24
HETATM   24  C   UNL     1     -10.830  15.217  69.830  1.00  0.00    -0.284 C  
HETATM   25  C   UNL     1     -11.795  15.617  70.941  1.00  0.00    -0.388 C  
HETATM   26  O   UNL     1     -11.489  15.683  72.120  1.00  0.00    -0.414 OA 
HETATM   27  O   UNL     1     -13.056  15.819  70.491  1.00  0.00    -0.461 OA 
ENDBRANCH  19  24
ENDBRANCH  18  19
ENDBRANCH  17  18
ENDBRANCH   5  17
ENDBRANCH   3   5
TORSDOF 11
ENDMDL
MODEL       37
REMARK 921   NORMALIZED FREE ENERGY PREDICTED BY IDOCK:   -5.37 KCAL/MOL
REMARK 922        TOTAL FREE ENERGY PREDICTED BY IDOCK:  -10.56 KCAL/MOL
REMARK 923 INTER-LIGAND FREE ENERGY PREDICTED BY IDOCK:   -9.32 KCAL/MOL
REMARK 924 INTRA-LIGAND FREE ENERGY PREDICTED BY IDOCK:   -1.23 KCAL/MOL
REMARK 927      BINDING AFFINITY PREDICTED BY RF-SCORE:    0.00 PKD
ROOT
HETATM    1  O   UNL     1     -13.280  13.827  65.261  1.00  0.00    -0.755 OA 
HETATM    2  C   UNL     1     -12.730  12.713  64.723  1.00  0.00    -0.379 C  
HETATM    3  C   UNL     1     -11.594  12.149  65.573  1.00  0.00    -0.343 C  
HETATM    4  O   UNL     1     -13.080  12.241  63.651  1.00  0.00    -0.780 OA 
ENDROOT
BRANCH   3   5
HETATM    5  N   UNL     1     -11.792  12.387  67.045  1.00  0.00    -0.546 NA 
BRANCH   5   6
HETATM    6  C   UNL     1     -11.633  11.086  67.776  1.00  0.00    -0.194 C  
BRANCH   6   7
HETATM    7  C   UNL     1     -11.914  11.169  69.307  1.00  0.00    -0.351 C  
BRANCH   7   8
HETATM    8  N   UNL     1     -11.733   9.898  70.091  1.00  0.00    -0.213 NA 
BRANCH   8   9
HETATM    9  C   UNL     1     -12.364  10.115  71.455  1.00  0.00    -0.416 C  
HETATM   10  O   UNL     1     -12.991   7.797  71.335  1.00  0.00    -0.328 OA 
HETATM   11  C   UNL     1     -13.342   9.004  71.835  1.00  0.00    -0.417 C  
HETATM   12  O   UNL     1     -14.326   9.172  72.538  1.00  0.00    -0.529 OA 
ENDBRANCH   8   9
BRANCH   8  13
HETATM   13  C   UNL     1     -10.253   9.699  70.318  1.00  0.00    -0.277 C  
HETATM   14  O   UNL     1     -10.436   7.890  68.756  1.00  0.00    -0.207 OA 
HETATM   15  O   UNL     1      -8.827   7.734  70.344  1.00  0.00    -0.143 OA 
HETATM   16  C   UNL     1      -9.762   8.336  69.842  1.00  0.00    -0.180 C  
ENDBRANCH   8  13
ENDBRANCH   7   8
ENDBRANCH   6   7
ENDBRANCH   5   6
BRANCH   5  17
HETATM   17  C   UNL     1     -10.731  13.330  67.526  1.00  0.00    -0.250 C  
BRANCH  17  18
HETATM   18  C   UNL     1     -11.203  14.721  68.036  1.00  0.00    -0.299 C  
BRANCH  18  19
HETATM   19  N   UNL     1     -10.247  15.860  67.771  1.00  0.00    -0.255 NA 
BRANCH  19  20
HETATM   20  C   UNL     1      -8.889  15.441  68.304  1.00  0.00    -0.176 C  
HETATM   21  O   UNL     1      -6.855  14.639  67.242  1.00  0.00    -0.254 OA 
HETATM   22  O   UNL     1      -8.038  16.273  66.215  1.00  0.00    -0.308 OA 
HETATM   23  C   UNL     1      -7.824  15.382  67.212  1.00  0.00    -0.206 C  
ENDBRANCH  19  20
BRANCH  19  24
HETATM   24  C   UNL     1     -10.693  17.046  68.599  1.00  0.00    -0.333 C  
HETATM   25  C   UNL     1     -10.410  18.383  67.923  1.00  0.00    -0.401 C  
HETATM   26  O   UNL     1     -10.201  19.423  68.526  1.00  0.00    -0.412 OA 
HETATM   27  O   UNL     1     -10.487  18.314  66.573  1.00  0.00    -0.372 OA 
ENDBRANCH  19  24
ENDBRANCH  18  19
ENDBRANCH  17  18
ENDBRANCH   5  17
ENDBRANCH   3   5
TORSDOF 11
ENDMDL
MODEL       38
REMARK 921   NORMALIZED FREE ENERGY PREDICTED BY IDOCK:   -5.34 KCAL/MOL
REMARK 922        TOTAL FREE ENERGY PREDICTED BY IDOCK:  -10.52 KCAL/MOL
REMARK 923 INTER-LIGAND FREE ENERGY PREDICTED BY IDOCK:   -9.16 KCAL/MOL
REMARK 924 INTRA-LIGAND FREE ENERGY PREDICTED BY IDOCK:   -1.36 KCAL/MOL
REMARK 927      BINDING AFFINITY PREDICTED BY RF-SCORE:    0.00 PKD
ROOT
HETATM    1  O   UNL     1     -13.239  12.417  64.456  1.00  0.00    -0.834 OA 
HETATM    2  C   UNL     1     -11.928  12.111  64.325  1.00  0.00    -0.380 C  
HETATM    3  C   UNL     1     -11.151  12.278  65.629  1.00  0.00    -0.317 C  
HETATM    4  O   UNL     1     -11.417  11.783  63.264  1.00  0.00    -0.359 OA 
ENDROOT
BRANCH   3   5
HETATM    5  N   UNL     1     -11.986  11.986  66.847  1.00  0.00    -0.609 NA 
BRANCH   5   6
HETATM    6  C   UNL     1     -11.333  10.888  67.635  1.00  0.00    -0.270 C  
BRANCH   6   7
HETATM    7  C   UNL     1     -11.745  10.842  69.138  1.00  0.00    -0.326 C  
BRANCH   7   8
HETATM    8  N   UNL     1     -11.526   9.536  69.852  1.00  0.00    -0.131 NA 
BRANCH   8   9
HETATM    9  C   UNL     1     -11.916   9.745  71.304  1.00  0.00    -0.386 C  
HETATM   10  O   UNL     1     -12.749   7.491  71.217  1.00  0.00    -0.335 OA 
HETATM   11  C   UNL     1     -12.914   8.700  71.801  1.00  0.00    -0.359 C  
HETATM   12  O   UNL     1     -13.760   8.916  72.656  1.00  0.00    -0.444 OA 
ENDBRANCH   8   9
BRANCH   8  13
HETATM   13  C   UNL     1     -10.044   9.242  69.834  1.00  0.00    -0.209 C  
HETATM   14  O   UNL     1     -10.593   7.481  68.303  1.00  0.00    -0.193 OA 
HETATM   15  O   UNL     1      -8.763   7.191  69.607  1.00  0.00    -0.140 OA 
HETATM   16  C   UNL     1      -9.725   7.861  69.270  1.00  0.00    -0.159 C  
ENDBRANCH   8  13
ENDBRANCH   7   8
ENDBRANCH   6   7
ENDBRANCH   5   6
BRANCH   5  17
HETATM   17  C   UNL     1     -12.035  13.215  67.701  1.00  0.00    -0.315 C  
BRANCH  17  18
HETATM   18  C   UNL     1     -11.885  14.584  66.978  1.00  0.00    -0.385 C  
BRANCH  18  19
HETATM   19  N   UNL     1     -10.703  15.415  67.415  1.00  0.00    -0.291 NA 
BRANCH  19  20
HETATM   20  C   UNL     1     -11.211  16.421  68.432  1.00  0.00    -0.324 C  
HETATM   21  O   UNL     1     -11.413  16.389  70.854  1.00  0.00    -0.380 OA 
HETATM   22  O   UNL     1      -9.584  15.446  69.910  1.00  0.00    -0.259 OA 
HETATM   23  C   UNL     1     -10.777  16.085  69.856  1.00  0.00    -0.334 C  
ENDBRANCH  19  20
BRANCH  19  24
HETATM   24  C   UNL     1     -10.222  16.208  66.220  1.00  0.00    -0.320 C  
HETATM   25  C   UNL     1      -8.721  16.479  66.251  1.00  0.00    -0.333 C  
HETATM   26  O   UNL     1      -8.192  17.452  65.737  1.00  0.00    -0.540 OA 
HETATM   27  O   UNL     1      -8.022  15.485  66.846  1.00  0.00    -0.224 OA 
ENDBRANCH  19  24
ENDBRANCH  18  19
ENDBRANCH  17  18
ENDBRANCH   5  17
ENDBRANCH   3   5
TORSDOF 11
ENDMDL
MODEL       39
REMARK 921   NORMALIZED FREE ENERGY PREDICTED BY IDOCK:   -5.33 KCAL/MOL
REMARK 922        TOTAL FREE ENERGY PREDICTED BY IDOCK:  -10.50 KCAL/MOL
REMARK 923 INTER-LIGAND FREE ENERGY PREDICTED BY IDOCK:   -8.89 KCAL/MOL
REMARK 924 INTRA-LIGAND FREE ENERGY PREDICTED BY IDOCK:   -1.60 KCAL/MOL
REMARK 927      BINDING AFFINITY PREDICTED BY RF-SCORE:    0.00 PKD
ROOT
HETATM    1  O   UNL     1     -14.261  14.874  71.159  1.00  0.00    -0.393 OA 
HETATM    2  C   UNL     1     -13.333  14.167  71.845  1.00  0.00    -0.393 C  
HETATM    3  C   UNL     1     -12.391  13.389  70.930  1.00  0.00    -0.353 C  
HETATM    4  O   UNL     1     -13.289  14.125  73.066  1.00  0.00    -0.635 OA 
ENDROOT
BRANCH   3   5
HETATM    5  N   UNL     1     -12.149  14.082  69.617  1.00  0.00    -0.340 NA 
BRANCH   5   6
HETATM    6  C   UNL     1     -10.813  14.766  69.665  1.00  0.00    -0.226 C  
BRANCH   6   7
HETATM    7  C   UNL     1     -10.883  16.321  69.579  1.00  0.00    -0.342 C  
BRANCH   7   8
HETATM    8  N   UNL     1      -9.795  16.997  68.790  1.00  0.00    -0.266 NA 
BRANCH   8   9
HETATM    9  C   UNL     1     -10.457  17.697  67.616  1.00  0.00    -0.372 C  
HETATM   10  O   UNL     1      -9.031  19.557  68.154  1.00  0.00    -0.314 OA 
HETATM   11  C   UNL     1     -10.227  19.208  67.626  1.00  0.00    -0.403 C  
HETATM   12  O   UNL     1     -11.022  20.022  67.183  1.00  0.00    -0.283 OA 
ENDBRANCH   8   9
BRANCH   8  13
HETATM   13  C   UNL     1      -8.903  15.922  68.214  1.00  0.00    -0.179 C  
HETATM   14  O   UNL     1      -7.125  17.014  69.393  1.00  0.00    -0.225 OA 
HETATM   15  O   UNL     1      -6.584  15.899  67.496  1.00  0.00    -0.153 OA 
HETATM   16  C   UNL     1      -7.423  16.278  68.296  1.00  0.00    -0.157 C  
ENDBRANCH   8  13
ENDBRANCH   7   8
ENDBRANCH   6   7
ENDBRANCH   5   6
BRANCH   5  17
HETATM   17  C   UNL     1     -12.111  13.052  68.530  1.00  0.00    -0.149 C  
BRANCH  17  18
HETATM   18  C   UNL     1     -10.803  12.955  67.695  1.00  0.00    -0.232 C  
BRANCH  18  19
HETATM   19  N   UNL     1     -10.999  12.899  66.198  1.00  0.00    -0.277 NA 
BRANCH  19  20
HETATM   20  C   UNL     1      -9.781  12.208  65.611  1.00  0.00    -0.207 C  
HETATM   21  O   UNL     1      -9.472  10.142  64.368  1.00  0.00    -0.269 OA 
HETATM   22  O   UNL     1     -11.301  11.403  63.929  1.00  0.00    -0.370 OA 
HETATM   23  C   UNL     1     -10.153  11.132  64.594  1.00  0.00    -0.302 C  
ENDBRANCH  19  20
BRANCH  19  24
HETATM   24  C   UNL     1     -10.992  14.317  65.673  1.00  0.00    -0.309 C  
HETATM   25  C   UNL     1     -12.219  14.645  64.828  1.00  0.00    -0.394 C  
HETATM   26  O   UNL     1     -12.227  15.466  63.925  1.00  0.00    -0.607 OA 
HETATM   27  O   UNL     1     -13.326  13.980  65.234  1.00  0.00    -0.741 OA 
ENDBRANCH  19  24
ENDBRANCH  18  19
ENDBRANCH  17  18
ENDBRANCH   5  17
ENDBRANCH   3   5
TORSDOF 11
ENDMDL
MODEL       40
REMARK 921   NORMALIZED FREE ENERGY PREDICTED BY IDOCK:   -5.31 KCAL/MOL
REMARK 922        TOTAL FREE ENERGY PREDICTED BY IDOCK:  -10.47 KCAL/MOL
REMARK 923 INTER-LIGAND FREE ENERGY PREDICTED BY IDOCK:   -9.03 KCAL/MOL
REMARK 924 INTRA-LIGAND FREE ENERGY PREDICTED BY IDOCK:   -1.44 KCAL/MOL
REMARK 927      BINDING AFFINITY PREDICTED BY RF-SCORE:    0.00 PKD
ROOT
HETATM    1  O   UNL     1     -11.444  12.178  63.791  1.00  0.00    -0.389 OA 
HETATM    2  C   UNL     1     -12.152  13.277  64.140  1.00  0.00    -0.432 C  
HETATM    3  C   UNL     1     -12.339  13.401  65.650  1.00  0.00    -0.470 C  
HETATM    4  O   UNL     1     -12.626  14.057  63.327  1.00  0.00    -0.801 OA 
ENDROOT
BRANCH   3   5
HETATM    5  N   UNL     1     -11.182  12.838  66.430  1.00  0.00    -0.286 NA 
BRANCH   5   6
HETATM    6  C   UNL     1     -10.075  13.852  66.463  1.00  0.00    -0.286 C  
BRANCH   6   7
HETATM    7  C   UNL     1      -9.629  14.271  67.896  1.00  0.00    -0.221 C  
BRANCH   7   8
HETATM    8  N   UNL     1     -10.044  15.644  68.351  1.00  0.00    -0.212 NA 
BRANCH   8   9
HETATM    9  C   UNL     1      -8.947  16.608  67.933  1.00  0.00    -0.217 C  
HETATM   10  O   UNL     1     -10.730  18.009  67.133  1.00  0.00    -0.356 OA 
HETATM   11  C   UNL     1      -9.435  17.663  66.942  1.00  0.00    -0.276 C  
HETATM   12  O   UNL     1      -8.733  18.167  66.079  1.00  0.00    -0.498 OA 
ENDBRANCH   8   9
BRANCH   8  13
HETATM   13  C   UNL     1     -10.075  15.643  69.861  1.00  0.00    -0.265 C  
HETATM   14  O   UNL     1     -12.457  15.498  69.634  1.00  0.00    -0.270 OA 
HETATM   15  O   UNL     1     -11.650  16.519  71.488  1.00  0.00    -0.384 OA 
HETATM   16  C   UNL     1     -11.458  15.960  70.421  1.00  0.00    -0.378 C  
ENDBRANCH   8  13
ENDBRANCH   7   8
ENDBRANCH   6   7
ENDBRANCH   5   6
BRANCH   5  17
HETATM   17  C   UNL     1     -11.629  12.583  67.836  1.00  0.00    -0.347 C  
BRANCH  17  18
HETATM   18  C   UNL     1     -11.935  11.108  68.223  1.00  0.00    -0.101 C  
BRANCH  18  19
HETATM   19  N   UNL     1     -11.965  10.826  69.706  1.00  0.00    -0.315 NA 
BRANCH  19  20
HETATM   20  C   UNL     1     -12.046  12.165  70.417  1.00  0.00    -0.309 C  
HETATM   21  O   UNL     1     -13.710  13.189  71.864  1.00  0.00    -0.399 OA 
HETATM   22  O   UNL     1     -13.299  10.974  72.089  1.00  0.00    -0.451 OA 
HETATM   23  C   UNL     1     -13.111  12.184  71.511  1.00  0.00    -0.257 C  
ENDBRANCH  19  20
BRANCH  19  24
HETATM   24  C   UNL     1     -10.639  10.208  70.091  1.00  0.00    -0.281 C  
HETATM   25  C   UNL     1     -10.786   9.048  71.070  1.00  0.00    -0.269 C  
HETATM   26  O   UNL     1      -9.934   8.729  71.885  1.00  0.00    -0.290 OA 
HETATM   27  O   UNL     1     -11.936   8.355  70.892  1.00  0.00    -0.270 OA 
ENDBRANCH  19  24
ENDBRANCH  18  19
ENDBRANCH  17  18
ENDBRANCH   5  17
ENDBRANCH   3   5
TORSDOF 11
ENDMDL
MODEL       41
REMARK 921   NORMALIZED FREE ENERGY PREDICTED BY IDOCK:   -5.30 KCAL/MOL
REMARK 922        TOTAL FREE ENERGY PREDICTED BY IDOCK:  -10.46 KCAL/MOL
REMARK 923 INTER-LIGAND FREE ENERGY PREDICTED BY IDOCK:   -9.48 KCAL/MOL
REMARK 924 INTRA-LIGAND FREE ENERGY PREDICTED BY IDOCK:   -0.98 KCAL/MOL
REMARK 927      BINDING AFFINITY PREDICTED BY RF-SCORE:    0.00 PKD
ROOT
HETATM    1  O   UNL     1     -10.577  13.308  63.979  1.00  0.00    -0.373 OA 
HETATM    2  C   UNL     1     -11.769  12.711  64.209  1.00  0.00    -0.381 C  
HETATM    3  C   UNL     1     -11.918  12.230  65.650  1.00  0.00    -0.306 C  
HETATM    4  O   UNL     1     -12.612  12.538  63.341  1.00  0.00    -0.690 OA 
ENDROOT
BRANCH   3   5
HETATM    5  N   UNL     1     -11.187  13.102  66.635  1.00  0.00    -0.296 NA 
BRANCH   5   6
HETATM    6  C   UNL     1     -12.098  14.211  67.076  1.00  0.00    -0.414 C  
BRANCH   6   7
HETATM    7  C   UNL     1     -11.428  15.260  68.014  1.00  0.00    -0.341 C  
BRANCH   7   8
HETATM    8  N   UNL     1     -10.699  16.390  67.341  1.00  0.00    -0.309 NA 
BRANCH   8   9
HETATM    9  C   UNL     1     -10.385  15.944  65.924  1.00  0.00    -0.365 C  
HETATM   10  O   UNL     1     -11.002  18.176  65.276  1.00  0.00    -0.571 OA 
HETATM   11  C   UNL     1     -10.962  16.886  64.868  1.00  0.00    -0.001 C  
HETATM   12  O   UNL     1     -11.327  16.528  63.760  1.00  0.00    -0.966 OA 
ENDBRANCH   8   9
BRANCH   8  13
HETATM   13  C   UNL     1      -9.376  16.575  68.047  1.00  0.00    -0.218 C  
HETATM   14  O   UNL     1     -10.282  18.654  68.822  1.00  0.00    -0.373 OA 
HETATM   15  O   UNL     1      -8.034  18.529  68.571  1.00  0.00    -0.308 OA 
HETATM   16  C   UNL     1      -9.137  18.017  68.482  1.00  0.00    -0.284 C  
ENDBRANCH   8  13
ENDBRANCH   7   8
ENDBRANCH   6   7
ENDBRANCH   5   6
BRANCH   5  17
HETATM   17  C   UNL     1     -10.833  12.278  67.835  1.00  0.00    -0.218 C  
BRANCH  17  18
HETATM   18  C   UNL     1     -11.863  11.201  68.280  1.00  0.00    -0.190 C  
BRANCH  18  19
HETATM   19  N   UNL     1     -11.822  10.840  69.746  1.00  0.00    -0.312 NA 
BRANCH  19  20
HETATM   20  C   UNL     1     -11.990  12.129  70.531  1.00  0.00    -0.216 C  
HETATM   21  O   UNL     1     -13.729  12.970  72.005  1.00  0.00    -0.452 OA 
HETATM   22  O   UNL     1     -13.195  10.773  72.109  1.00  0.00    -0.473 OA 
HETATM   23  C   UNL     1     -13.069  12.023  71.606  1.00  0.00    -0.318 C  
ENDBRANCH  19  20
BRANCH  19  24
HETATM   24  C   UNL     1     -10.438  10.315  70.059  1.00  0.00    -0.241 C  
HETATM   25  C   UNL     1     -10.456   9.118  71.003  1.00  0.00    -0.298 C  
HETATM   26  O   UNL     1      -9.551   8.842  71.774  1.00  0.00    -0.287 OA 
HETATM   27  O   UNL     1     -11.556   8.343  70.846  1.00  0.00    -0.277 OA 
ENDBRANCH  19  24
ENDBRANCH  18  19
ENDBRANCH  17  18
ENDBRANCH   5  17
ENDBRANCH   3   5
TORSDOF 11
ENDMDL
MODEL       42
REMARK 921   NORMALIZED FREE ENERGY PREDICTED BY IDOCK:   -5.30 KCAL/MOL
REMARK 922        TOTAL FREE ENERGY PREDICTED BY IDOCK:  -10.45 KCAL/MOL
REMARK 923 INTER-LIGAND FREE ENERGY PREDICTED BY IDOCK:   -8.95 KCAL/MOL
REMARK 924 INTRA-LIGAND FREE ENERGY PREDICTED BY IDOCK:   -1.50 KCAL/MOL
REMARK 927      BINDING AFFINITY PREDICTED BY RF-SCORE:    0.00 PKD
ROOT
HETATM    1  O   UNL     1     -10.738  12.498  63.443  1.00  0.00    -0.426 OA 
HETATM    2  C   UNL     1     -11.727  13.241  63.992  1.00  0.00    -0.430 C  
HETATM    3  C   UNL     1     -11.647  13.293  65.515  1.00  0.00    -0.326 C  
HETATM    4  O   UNL     1     -12.611  13.772  63.336  1.00  0.00    -0.842 OA 
ENDROOT
BRANCH   3   5
HETATM    5  N   UNL     1     -10.234  13.226  66.029  1.00  0.00    -0.286 NA 
BRANCH   5   6
HETATM    6  C   UNL     1      -9.688  14.620  66.139  1.00  0.00    -0.319 C  
BRANCH   6   7
HETATM    7  C   UNL     1      -9.436  15.098  67.601  1.00  0.00    -0.201 C  
BRANCH   7   8
HETATM    8  N   UNL     1     -10.256  16.268  68.072  1.00  0.00    -0.249 NA 
BRANCH   8   9
HETATM    9  C   UNL     1     -11.675  15.770  68.279  1.00  0.00    -0.222 C  
HETATM   10  O   UNL     1     -11.313  16.252  70.607  1.00  0.00    -0.386 OA 
HETATM   11  C   UNL     1     -11.980  15.452  69.742  1.00  0.00    -0.358 C  
HETATM   12  O   UNL     1     -12.762  14.588  70.105  1.00  0.00    -0.323 OA 
ENDBRANCH   8   9
BRANCH   8  13
HETATM   13  C   UNL     1     -10.305  17.281  66.953  1.00  0.00    -0.310 C  
HETATM   14  O   UNL     1      -9.652  18.883  68.612  1.00  0.00    -0.353 OA 
HETATM   15  O   UNL     1     -10.891  19.636  66.871  1.00  0.00    -0.483 OA 
HETATM   16  C   UNL     1     -10.345  18.719  67.461  1.00  0.00    -0.416 C  
ENDBRANCH   8  13
ENDBRANCH   7   8
ENDBRANCH   6   7
ENDBRANCH   5   6
BRANCH   5  17
HETATM   17  C   UNL     1     -10.249  12.616  67.396  1.00  0.00    -0.217 C  
BRANCH  17  18
HETATM   18  C   UNL     1     -11.589  11.989  67.875  1.00  0.00    -0.337 C  
BRANCH  18  19
HETATM   19  N   UNL     1     -11.453  10.886  68.898  1.00  0.00    -0.276 NA 
BRANCH  19  20
HETATM   20  C   UNL     1     -11.662  11.512  70.265  1.00  0.00    -0.289 C  
HETATM   21  O   UNL     1     -13.274  11.133  72.045  1.00  0.00    -0.493 OA 
HETATM   22  O   UNL     1     -12.479   9.343  70.908  1.00  0.00    -0.264 OA 
HETATM   23  C   UNL     1     -12.567  10.670  71.162  1.00  0.00    -0.423 C  
ENDBRANCH  19  20
BRANCH  19  24
HETATM   24  C   UNL     1     -10.025  10.387  68.860  1.00  0.00    -0.199 C  
HETATM   25  C   UNL     1      -9.913   8.941  68.391  1.00  0.00    -0.178 C  
HETATM   26  O   UNL     1      -9.022   8.179  68.731  1.00  0.00    -0.143 OA 
HETATM   27  O   UNL     1     -10.869   8.606  67.493  1.00  0.00    -0.202 OA 
ENDBRANCH  19  24
ENDBRANCH  18  19
ENDBRANCH  17  18
ENDBRANCH   5  17
ENDBRANCH   3   5
TORSDOF 11
ENDMDL
MODEL       43
REMARK 921   NORMALIZED FREE ENERGY PREDICTED BY IDOCK:   -5.30 KCAL/MOL
REMARK 922        TOTAL FREE ENERGY PREDICTED BY IDOCK:  -10.45 KCAL/MOL
REMARK 923 INTER-LIGAND FREE ENERGY PREDICTED BY IDOCK:   -9.03 KCAL/MOL
REMARK 924 INTRA-LIGAND FREE ENERGY PREDICTED BY IDOCK:   -1.42 KCAL/MOL
REMARK 927      BINDING AFFINITY PREDICTED BY RF-SCORE:    0.00 PKD
ROOT
HETATM    1  O   UNL     1     -10.651  12.728  64.354  1.00  0.00    -0.333 OA 
HETATM    2  C   UNL     1     -11.917  12.974  64.764  1.00  0.00    -0.395 C  
HETATM    3  C   UNL     1     -12.011  13.214  66.269  1.00  0.00    -0.415 C  
HETATM    4  O   UNL     1     -12.881  12.958  64.013  1.00  0.00    -0.668 OA 
ENDROOT
BRANCH   3   5
HETATM    5  N   UNL     1     -10.780  13.870  66.834  1.00  0.00    -0.283 NA 
BRANCH   5   6
HETATM    6  C   UNL     1     -10.905  15.358  66.680  1.00  0.00    -0.302 C  
BRANCH   6   7
HETATM    7  C   UNL     1      -9.810  16.006  65.780  1.00  0.00    -0.323 C  
BRANCH   7   8
HETATM    8  N   UNL     1      -9.287  17.346  66.223  1.00  0.00    -0.411 NA 
BRANCH   8   9
HETATM    9  C   UNL     1      -7.948  17.107  66.898  1.00  0.00    -0.217 C  
HETATM   10  O   UNL     1      -7.086  18.749  65.368  1.00  0.00    -0.505 OA 
HETATM   11  C   UNL     1      -6.773  17.643  66.082  1.00  0.00    -0.285 C  
HETATM   12  O   UNL     1      -5.656  17.149  66.087  1.00  0.00    -0.321 OA 
ENDBRANCH   8   9
BRANCH   8  13
HETATM   13  C   UNL     1     -10.222  17.882  67.280  1.00  0.00    -0.358 C  
HETATM   14  O   UNL     1     -10.014  19.983  66.145  1.00  0.00    -0.445 OA 
HETATM   15  O   UNL     1     -10.428  20.041  68.372  1.00  0.00    -0.411 OA 
HETATM   16  C   UNL     1     -10.217  19.406  67.353  1.00  0.00    -0.420 C  
ENDBRANCH   8  13
ENDBRANCH   7   8
ENDBRANCH   6   7
ENDBRANCH   5   6
BRANCH   5  17
HETATM   17  C   UNL     1     -10.695  13.552  68.295  1.00  0.00    -0.258 C  
BRANCH  17  18
HETATM   18  C   UNL     1     -11.763  12.578  68.869  1.00  0.00    -0.322 C  
BRANCH  18  19
HETATM   19  N   UNL     1     -11.225  11.259  69.370  1.00  0.00    -0.262 NA 
BRANCH  19  20
HETATM   20  C   UNL     1     -11.341  10.264  68.230  1.00  0.00    -0.177 C  
HETATM   21  O   UNL     1     -10.067   9.908  66.191  1.00  0.00    -0.250 OA 
HETATM   22  O   UNL     1      -8.949  10.468  68.078  1.00  0.00    -0.131 OA 
HETATM   23  C   UNL     1     -10.076  10.202  67.376  1.00  0.00    -0.205 C  
ENDBRANCH  19  20
BRANCH  19  24
HETATM   24  C   UNL     1     -12.141  10.770  70.471  1.00  0.00    -0.366 C  
HETATM   25  C   UNL     1     -11.609   9.529  71.179  1.00  0.00    -0.367 C  
HETATM   26  O   UNL     1     -12.317   8.685  71.704  1.00  0.00    -0.303 OA 
HETATM   27  O   UNL     1     -10.256   9.496  71.232  1.00  0.00    -0.296 OA 
ENDBRANCH  19  24
ENDBRANCH  18  19
ENDBRANCH  17  18
ENDBRANCH   5  17
ENDBRANCH   3   5
TORSDOF 11
ENDMDL
MODEL       44
REMARK 921   NORMALIZED FREE ENERGY PREDICTED BY IDOCK:   -5.29 KCAL/MOL
REMARK 922        TOTAL FREE ENERGY PREDICTED BY IDOCK:  -10.44 KCAL/MOL
REMARK 923 INTER-LIGAND FREE ENERGY PREDICTED BY IDOCK:   -9.02 KCAL/MOL
REMARK 924 INTRA-LIGAND FREE ENERGY PREDICTED BY IDOCK:   -1.42 KCAL/MOL
REMARK 927      BINDING AFFINITY PREDICTED BY RF-SCORE:    0.00 PKD
ROOT
HETATM    1  O   UNL     1     -11.922  12.767  64.007  1.00  0.00    -0.380 OA 
HETATM    2  C   UNL     1     -12.338  13.936  64.546  1.00  0.00    -0.372 C  
HETATM    3  C   UNL     1     -12.313  13.923  66.072  1.00  0.00    -0.475 C  
HETATM    4  O   UNL     1     -12.734  14.880  63.878  1.00  0.00    -0.789 OA 
ENDROOT
BRANCH   3   5
HETATM    5  N   UNL     1     -11.213  13.061  66.630  1.00  0.00    -0.296 NA 
BRANCH   5   6
HETATM    6  C   UNL     1     -10.102  13.943  67.120  1.00  0.00    -0.252 C  
BRANCH   6   7
HETATM    7  C   UNL     1     -10.238  14.383  68.609  1.00  0.00    -0.245 C  
BRANCH   7   8
HETATM    8  N   UNL     1     -10.713  15.790  68.850  1.00  0.00    -0.235 NA 
BRANCH   8   9
HETATM    9  C   UNL     1     -12.200  15.718  69.152  1.00  0.00    -0.072 C  
HETATM   10  O   UNL     1     -11.581  16.235  71.418  1.00  0.00    -0.448 OA 
HETATM   11  C   UNL     1     -12.492  15.595  70.647  1.00  0.00    -0.417 C  
HETATM   12  O   UNL     1     -13.457  15.007  71.108  1.00  0.00    -0.405 OA 
ENDBRANCH   8   9
BRANCH   8  13
HETATM   13  C   UNL     1     -10.565  16.557  67.558  1.00  0.00    -0.313 C  
HETATM   14  O   UNL     1      -9.848  18.385  68.933  1.00  0.00    -0.363 OA 
HETATM   15  O   UNL     1     -10.864  18.895  66.973  1.00  0.00    -0.427 OA 
HETATM   16  C   UNL     1     -10.472  18.064  67.775  1.00  0.00    -0.408 C  
ENDBRANCH   8  13
ENDBRANCH   7   8
ENDBRANCH   6   7
ENDBRANCH   5   6
BRANCH   5  17
HETATM   17  C   UNL     1     -11.752  12.290  67.796  1.00  0.00    -0.337 C  
BRANCH  17  18
HETATM   18  C   UNL     1     -11.334  10.797  67.909  1.00  0.00    -0.299 C  
BRANCH  18  19
HETATM   19  N   UNL     1     -11.329  10.235  69.311  1.00  0.00    -0.219 NA 
BRANCH  19  20
HETATM   20  C   UNL     1     -11.603  11.389  70.259  1.00  0.00    -0.243 C  
HETATM   21  O   UNL     1     -13.379  11.853  71.852  1.00  0.00    -0.454 OA 
HETATM   22  O   UNL     1     -12.626   9.726  71.663  1.00  0.00    -0.357 OA 
HETATM   23  C   UNL     1     -12.638  11.037  71.325  1.00  0.00    -0.412 C  
ENDBRANCH  19  20
BRANCH  19  24
HETATM   24  C   UNL     1      -9.930   9.745  69.613  1.00  0.00    -0.223 C  
HETATM   25  C   UNL     1      -9.901   8.311  70.132  1.00  0.00    -0.184 C  
HETATM   26  O   UNL     1      -9.045   7.874  70.884  1.00  0.00    -0.148 OA 
HETATM   27  O   UNL     1     -10.889   7.546  69.610  1.00  0.00    -0.243 OA 
ENDBRANCH  19  24
ENDBRANCH  18  19
ENDBRANCH  17  18
ENDBRANCH   5  17
ENDBRANCH   3   5
TORSDOF 11
ENDMDL
MODEL       45
REMARK 921   NORMALIZED FREE ENERGY PREDICTED BY IDOCK:   -5.29 KCAL/MOL
REMARK 922        TOTAL FREE ENERGY PREDICTED BY IDOCK:  -10.43 KCAL/MOL
REMARK 923 INTER-LIGAND FREE ENERGY PREDICTED BY IDOCK:   -9.53 KCAL/MOL
REMARK 924 INTRA-LIGAND FREE ENERGY PREDICTED BY IDOCK:   -0.89 KCAL/MOL
REMARK 927      BINDING AFFINITY PREDICTED BY RF-SCORE:    0.00 PKD
ROOT
HETATM    1  O   UNL     1     -11.751  16.244  72.136  1.00  0.00    -0.495 OA 
HETATM    2  C   UNL     1     -13.006  15.805  72.389  1.00  0.00    -0.465 C  
HETATM    3  C   UNL     1     -13.482  14.770  71.373  1.00  0.00    -0.404 C  
HETATM    4  O   UNL     1     -13.694  16.229  73.305  1.00  0.00    -0.549 OA 
ENDROOT
BRANCH   3   5
HETATM    5  N   UNL     1     -12.362  13.918  70.839  1.00  0.00    -0.361 NA 
BRANCH   5   6
HETATM    6  C   UNL     1     -12.652  12.478  71.149  1.00  0.00    -0.253 C  
BRANCH   6   7
HETATM    7  C   UNL     1     -11.836  11.459  70.299  1.00  0.00    -0.350 C  
BRANCH   7   8
HETATM    8  N   UNL     1     -11.613  10.103  70.911  1.00  0.00    -0.351 NA 
BRANCH   8   9
HETATM    9  C   UNL     1     -10.910   9.248  69.871  1.00  0.00    -0.234 C  
HETATM   10  O   UNL     1      -9.014   9.329  71.347  1.00  0.00    -0.311 OA 
HETATM   11  C   UNL     1      -9.393   9.229  70.052  1.00  0.00    -0.209 C  
HETATM   12  O   UNL     1      -8.598   9.109  69.133  1.00  0.00    -0.128 OA 
ENDBRANCH   8   9
BRANCH   8  13
HETATM   13  C   UNL     1     -12.965   9.476  71.155  1.00  0.00    -0.274 C  
HETATM   14  O   UNL     1     -11.837   8.090  72.752  1.00  0.00    -0.372 OA 
HETATM   15  O   UNL     1     -13.670   7.226  71.738  1.00  0.00    -0.358 OA 
HETATM   16  C   UNL     1     -12.871   8.138  71.880  1.00  0.00    -0.335 C  
ENDBRANCH   8  13
ENDBRANCH   7   8
ENDBRANCH   6   7
ENDBRANCH   5   6
BRANCH   5  17
HETATM   17  C   UNL     1     -12.306  14.077  69.351  1.00  0.00    -0.205 C  
BRANCH  17  18
HETATM   18  C   UNL     1     -10.905  14.315  68.719  1.00  0.00    -0.253 C  
BRANCH  18  19
HETATM   19  N   UNL     1     -10.905  14.554  67.228  1.00  0.00    -0.291 NA 
BRANCH  19  20
HETATM   20  C   UNL     1     -10.730  16.047  67.011  1.00  0.00    -0.277 C  
HETATM   21  O   UNL     1      -9.116  17.375  65.772  1.00  0.00    -0.517 OA 
HETATM   22  O   UNL     1      -9.831  15.426  64.869  1.00  0.00    -0.223 OA 
HETATM   23  C   UNL     1      -9.798  16.364  65.845  1.00  0.00    -0.315 C  
ENDBRANCH  19  20
BRANCH  19  24
HETATM   24  C   UNL     1     -12.275  14.194  66.697  1.00  0.00    -0.418 C  
HETATM   25  C   UNL     1     -12.271  12.923  65.855  1.00  0.00    -0.407 C  
HETATM   26  O   UNL     1     -13.059  12.701  64.949  1.00  0.00    -0.850 OA 
HETATM   27  O   UNL     1     -11.345  12.025  66.266  1.00  0.00    -0.332 OA 
ENDBRANCH  19  24
ENDBRANCH  18  19
ENDBRANCH  17  18
ENDBRANCH   5  17
ENDBRANCH   3   5
TORSDOF 11
ENDMDL
MODEL       46
REMARK 921   NORMALIZED FREE ENERGY PREDICTED BY IDOCK:   -5.28 KCAL/MOL
REMARK 922        TOTAL FREE ENERGY PREDICTED BY IDOCK:  -10.42 KCAL/MOL
REMARK 923 INTER-LIGAND FREE ENERGY PREDICTED BY IDOCK:   -9.03 KCAL/MOL
REMARK 924 INTRA-LIGAND FREE ENERGY PREDICTED BY IDOCK:   -1.40 KCAL/MOL
REMARK 927      BINDING AFFINITY PREDICTED BY RF-SCORE:    0.00 PKD
ROOT
HETATM    1  O   UNL     1     -12.989  14.147  64.753  1.00  0.00    -0.674 OA 
HETATM    2  C   UNL     1     -12.646  12.840  64.686  1.00  0.00    -0.419 C  
HETATM    3  C   UNL     1     -11.595  12.453  65.724  1.00  0.00    -0.398 C  
HETATM    4  O   UNL     1     -13.097  12.069  63.851  1.00  0.00    -0.695 OA 
ENDROOT
BRANCH   3   5
HETATM    5  N   UNL     1     -11.712  13.249  66.996  1.00  0.00    -0.368 NA 
BRANCH   5   6
HETATM    6  C   UNL     1     -11.910  12.305  68.147  1.00  0.00    -0.311 C  
BRANCH   6   7
HETATM    7  C   UNL     1     -11.392  10.858  67.888  1.00  0.00    -0.308 C  
BRANCH   7   8
HETATM    8  N   UNL     1     -11.107  10.022  69.106  1.00  0.00    -0.215 NA 
BRANCH   8   9
HETATM    9  C   UNL     1     -11.417  10.876  70.323  1.00  0.00    -0.302 C  
HETATM   10  O   UNL     1     -12.481   8.911  71.209  1.00  0.00    -0.305 OA 
HETATM   11  C   UNL     1     -12.497  10.264  71.213  1.00  0.00    -0.408 C  
HETATM   12  O   UNL     1     -13.282  10.918  71.882  1.00  0.00    -0.467 OA 
ENDBRANCH   8   9
BRANCH   8  13
HETATM   13  C   UNL     1      -9.624   9.737  69.137  1.00  0.00    -0.188 C  
HETATM   14  O   UNL     1     -10.222   7.500  68.516  1.00  0.00    -0.187 OA 
HETATM   15  O   UNL     1      -8.324   7.771  69.724  1.00  0.00    -0.127 OA 
HETATM   16  C   UNL     1      -9.312   8.244  69.188  1.00  0.00    -0.151 C  
ENDBRANCH   8  13
ENDBRANCH   7   8
ENDBRANCH   6   7
ENDBRANCH   5   6
BRANCH   5  17
HETATM   17  C   UNL     1     -10.432  13.995  67.214  1.00  0.00    -0.268 C  
BRANCH  17  18
HETATM   18  C   UNL     1     -10.132  14.473  68.664  1.00  0.00    -0.244 C  
BRANCH  18  19
HETATM   19  N   UNL     1     -10.682  15.834  69.018  1.00  0.00    -0.221 NA 
BRANCH  19  20
HETATM   20  C   UNL     1     -12.101  15.630  69.518  1.00  0.00    -0.286 C  
HETATM   21  O   UNL     1     -13.059  14.330  71.334  1.00  0.00    -0.321 OA 
HETATM   22  O   UNL     1     -11.087  15.384  71.684  1.00  0.00    -0.363 OA 
HETATM   23  C   UNL     1     -12.147  15.029  70.921  1.00  0.00    -0.324 C  
ENDBRANCH  19  20
BRANCH  19  24
HETATM   24  C   UNL     1     -10.781  16.644  67.744  1.00  0.00    -0.327 C  
HETATM   25  C   UNL     1     -10.486  18.125  67.956  1.00  0.00    -0.371 C  
HETATM   26  O   UNL     1     -10.960  19.020  67.275  1.00  0.00    -0.459 OA 
HETATM   27  O   UNL     1      -9.579  18.342  68.937  1.00  0.00    -0.320 OA 
ENDBRANCH  19  24
ENDBRANCH  18  19
ENDBRANCH  17  18
ENDBRANCH   5  17
ENDBRANCH   3   5
TORSDOF 11
ENDMDL
MODEL       47
REMARK 921   NORMALIZED FREE ENERGY PREDICTED BY IDOCK:   -5.28 KCAL/MOL
REMARK 922        TOTAL FREE ENERGY PREDICTED BY IDOCK:  -10.42 KCAL/MOL
REMARK 923 INTER-LIGAND FREE ENERGY PREDICTED BY IDOCK:   -8.93 KCAL/MOL
REMARK 924 INTRA-LIGAND FREE ENERGY PREDICTED BY IDOCK:   -1.49 KCAL/MOL
REMARK 927      BINDING AFFINITY PREDICTED BY RF-SCORE:    0.00 PKD
ROOT
HETATM    1  O   UNL     1     -10.535  13.049  63.928  1.00  0.00    -0.392 OA 
HETATM    2  C   UNL     1     -11.826  12.744  64.198  1.00  0.00    -0.413 C  
HETATM    3  C   UNL     1     -12.082  12.535  65.688  1.00  0.00    -0.400 C  
HETATM    4  O   UNL     1     -12.679  12.607  63.333  1.00  0.00    -0.705 OA 
ENDROOT
BRANCH   3   5
HETATM    5  N   UNL     1     -11.199  13.389  66.557  1.00  0.00    -0.301 NA 
BRANCH   5   6
HETATM    6  C   UNL     1     -11.912  14.674  66.866  1.00  0.00    -0.272 C  
BRANCH   6   7
HETATM    7  C   UNL     1     -11.241  15.531  67.981  1.00  0.00    -0.332 C  
BRANCH   7   8
HETATM    8  N   UNL     1     -10.096  16.409  67.552  1.00  0.00    -0.255 NA 
BRANCH   8   9
HETATM    9  C   UNL     1      -8.988  16.238  68.576  1.00  0.00    -0.219 C  
HETATM   10  O   UNL     1      -7.970  14.773  66.964  1.00  0.00    -0.200 OA 
HETATM   11  C   UNL     1      -8.100  15.029  68.287  1.00  0.00    -0.133 C  
HETATM   12  O   UNL     1      -7.541  14.371  69.150  1.00  0.00    -0.126 OA 
ENDBRANCH   8   9
BRANCH   8  13
HETATM   13  C   UNL     1     -10.556  17.845  67.638  1.00  0.00    -0.387 C  
HETATM   14  O   UNL     1     -10.753  17.739  65.251  1.00  0.00    -0.649 OA 
HETATM   15  O   UNL     1     -10.298  19.761  66.168  1.00  0.00    -0.461 OA 
HETATM   16  C   UNL     1     -10.497  18.564  66.294  1.00  0.00    -0.406 C  
ENDBRANCH   8  13
ENDBRANCH   7   8
ENDBRANCH   6   7
ENDBRANCH   5   6
BRANCH   5  17
HETATM   17  C   UNL     1     -10.950  12.668  67.846  1.00  0.00    -0.230 C  
BRANCH  17  18
HETATM   18  C   UNL     1     -11.981  11.576  68.253  1.00  0.00    -0.169 C  
BRANCH  18  19
HETATM   19  N   UNL     1     -11.937  11.162  69.705  1.00  0.00    -0.335 NA 
BRANCH  19  20
HETATM   20  C   UNL     1     -12.039  12.428  70.537  1.00  0.00    -0.275 C  
HETATM   21  O   UNL     1     -13.723  13.291  72.062  1.00  0.00    -0.462 OA 
HETATM   22  O   UNL     1     -13.285  11.070  72.082  1.00  0.00    -0.481 OA 
HETATM   23  C   UNL     1     -13.109  12.331  71.622  1.00  0.00    -0.306 C  
ENDBRANCH  19  20
BRANCH  19  24
HETATM   24  C   UNL     1     -10.574  10.568  69.980  1.00  0.00    -0.169 C  
HETATM   25  C   UNL     1     -10.634   9.327  70.864  1.00  0.00    -0.296 C  
HETATM   26  O   UNL     1      -9.735   8.977  71.613  1.00  0.00    -0.300 OA 
HETATM   27  O   UNL     1     -11.764   8.605  70.678  1.00  0.00    -0.255 OA 
ENDBRANCH  19  24
ENDBRANCH  18  19
ENDBRANCH  17  18
ENDBRANCH   5  17
ENDBRANCH   3   5
TORSDOF 11
ENDMDL
MODEL       48
REMARK 921   NORMALIZED FREE ENERGY PREDICTED BY IDOCK:   -5.27 KCAL/MOL
REMARK 922        TOTAL FREE ENERGY PREDICTED BY IDOCK:  -10.40 KCAL/MOL
REMARK 923 INTER-LIGAND FREE ENERGY PREDICTED BY IDOCK:   -8.86 KCAL/MOL
REMARK 924 INTRA-LIGAND FREE ENERGY PREDICTED BY IDOCK:   -1.54 KCAL/MOL
REMARK 927      BINDING AFFINITY PREDICTED BY RF-SCORE:    0.00 PKD
ROOT
HETATM    1  O   UNL     1     -12.266  12.248  65.843  1.00  0.00    -0.634 OA 
HETATM    2  C   UNL     1     -12.484  13.584  65.842  1.00  0.00    -0.429 C  
HETATM    3  C   UNL     1     -12.126  14.238  67.174  1.00  0.00    -0.377 C  
HETATM    4  O   UNL     1     -12.959  14.187  64.891  1.00  0.00    -0.705 OA 
ENDROOT
BRANCH   3   5
HETATM    5  N   UNL     1     -10.984  13.551  67.874  1.00  0.00    -0.250 NA 
BRANCH   5   6
HETATM    6  C   UNL     1      -9.761  14.418  67.779  1.00  0.00    -0.221 C  
BRANCH   6   7
HETATM    7  C   UNL     1      -9.807  15.695  68.672  1.00  0.00    -0.210 C  
BRANCH   7   8
HETATM    8  N   UNL     1      -9.598  17.009  67.970  1.00  0.00    -0.254 NA 
BRANCH   8   9
HETATM    9  C   UNL     1      -9.543  16.721  66.480  1.00  0.00    -0.266 C  
HETATM   10  O   UNL     1     -10.812  18.748  66.224  1.00  0.00    -0.293 OA 
HETATM   11  C   UNL     1     -10.567  17.530  65.685  1.00  0.00    -0.140 C  
HETATM   12  O   UNL     1     -11.096  17.140  64.657  1.00  0.00    -1.036 OA 
ENDBRANCH   8   9
BRANCH   8  13
HETATM   13  C   UNL     1      -8.238  17.535  68.365  1.00  0.00    -0.278 C  
HETATM   14  O   UNL     1      -9.418  19.448  69.200  1.00  0.00    -0.365 OA 
HETATM   15  O   UNL     1      -7.293  19.769  68.482  1.00  0.00    -0.317 OA 
HETATM   16  C   UNL     1      -8.249  19.032  68.659  1.00  0.00    -0.364 C  
ENDBRANCH   8  13
ENDBRANCH   7   8
ENDBRANCH   6   7
ENDBRANCH   5   6
BRANCH   5  17
HETATM   17  C   UNL     1     -11.335  13.389  69.321  1.00  0.00    -0.257 C  
BRANCH  17  18
HETATM   18  C   UNL     1     -12.104  12.097  69.719  1.00  0.00    -0.237 C  
BRANCH  18  19
HETATM   19  N   UNL     1     -11.233  10.927  70.113  1.00  0.00    -0.274 NA 
BRANCH  19  20
HETATM   20  C   UNL     1     -11.029  10.079  68.870  1.00  0.00    -0.207 C  
HETATM   21  O   UNL     1      -9.538  10.252  66.959  1.00  0.00    -0.163 OA 
HETATM   22  O   UNL     1      -8.737  10.794  69.006  1.00  0.00    -0.161 OA 
HETATM   23  C   UNL     1      -9.713  10.389  68.160  1.00  0.00    -0.151 C  
ENDBRANCH  19  20
BRANCH  19  24
HETATM   24  C   UNL     1     -12.008  10.079  71.098  1.00  0.00    -0.392 C  
HETATM   25  C   UNL     1     -11.181   8.936  71.677  1.00  0.00    -0.345 C  
HETATM   26  O   UNL     1     -11.653   7.877  72.059  1.00  0.00    -0.275 OA 
HETATM   27  O   UNL     1      -9.868   9.247  71.795  1.00  0.00    -0.252 OA 
ENDBRANCH  19  24
ENDBRANCH  18  19
ENDBRANCH  17  18
ENDBRANCH   5  17
ENDBRANCH   3   5
TORSDOF 11
ENDMDL
MODEL       49
REMARK 921   NORMALIZED FREE ENERGY PREDICTED BY IDOCK:   -5.27 KCAL/MOL
REMARK 922        TOTAL FREE ENERGY PREDICTED BY IDOCK:  -10.39 KCAL/MOL
REMARK 923 INTER-LIGAND FREE ENERGY PREDICTED BY IDOCK:   -8.92 KCAL/MOL
REMARK 924 INTRA-LIGAND FREE ENERGY PREDICTED BY IDOCK:   -1.48 KCAL/MOL
REMARK 927      BINDING AFFINITY PREDICTED BY RF-SCORE:    0.00 PKD
ROOT
HETATM    1  O   UNL     1     -13.146  13.982  65.329  1.00  0.00    -0.782 OA 
HETATM    2  C   UNL     1     -12.453  12.943  64.807  1.00  0.00    -0.455 C  
HETATM    3  C   UNL     1     -11.076  12.774  65.445  1.00  0.00    -0.284 C  
HETATM    4  O   UNL     1     -12.871  12.249  63.892  1.00  0.00    -0.720 OA 
ENDROOT
BRANCH   3   5
HETATM    5  N   UNL     1     -11.049  13.187  66.892  1.00  0.00    -0.276 NA 
BRANCH   5   6
HETATM    6  C   UNL     1     -11.746  12.140  67.712  1.00  0.00    -0.320 C  
BRANCH   6   7
HETATM    7  C   UNL     1     -11.455  12.222  69.241  1.00  0.00    -0.292 C  
BRANCH   7   8
HETATM    8  N   UNL     1     -11.172  10.919  69.939  1.00  0.00    -0.285 NA 
BRANCH   8   9
HETATM    9  C   UNL     1     -10.851   9.893  68.866  1.00  0.00    -0.210 C  
HETATM   10  O   UNL     1      -8.673   9.782  69.878  1.00  0.00    -0.192 OA 
HETATM   11  C   UNL     1      -9.351   9.650  68.714  1.00  0.00    -0.148 C  
HETATM   12  O   UNL     1      -8.812   9.344  67.662  1.00  0.00    -0.116 OA 
ENDBRANCH   8   9
BRANCH   8  13
HETATM   13  C   UNL     1     -12.447  10.466  70.611  1.00  0.00    -0.348 C  
HETATM   14  O   UNL     1     -11.023   9.187  72.053  1.00  0.00    -0.349 OA 
HETATM   15  O   UNL     1     -13.111   8.391  71.682  1.00  0.00    -0.328 OA 
HETATM   16  C   UNL     1     -12.248   9.228  71.478  1.00  0.00    -0.362 C  
ENDBRANCH   8  13
ENDBRANCH   7   8
ENDBRANCH   6   7
ENDBRANCH   5   6
BRANCH   5  17
HETATM   17  C   UNL     1      -9.623  13.266  67.342  1.00  0.00    -0.223 C  
BRANCH  17  18
HETATM   18  C   UNL     1      -8.903  14.633  67.170  1.00  0.00    -0.221 C  
BRANCH  18  19
HETATM   19  N   UNL     1      -9.617  15.816  67.780  1.00  0.00    -0.213 NA 
BRANCH  19  20
HETATM   20  C   UNL     1      -8.697  17.017  67.642  1.00  0.00    -0.215 C  
HETATM   21  O   UNL     1      -7.830  18.242  65.731  1.00  0.00    -0.517 OA 
HETATM   22  O   UNL     1      -9.970  17.508  65.662  1.00  0.00    -0.561 OA 
HETATM   23  C   UNL     1      -8.759  17.644  66.252  1.00  0.00    -0.179 C  
ENDBRANCH  19  20
BRANCH  19  24
HETATM   24  C   UNL     1      -9.771  15.554  69.262  1.00  0.00    -0.272 C  
HETATM   25  C   UNL     1     -11.144  15.950  69.796  1.00  0.00    -0.324 C  
HETATM   26  O   UNL     1     -11.353  16.308  70.944  1.00  0.00    -0.389 OA 
HETATM   27  O   UNL     1     -12.128  15.790  68.880  1.00  0.00    -0.333 OA 
ENDBRANCH  19  24
ENDBRANCH  18  19
ENDBRANCH  17  18
ENDBRANCH   5  17
ENDBRANCH   3   5
TORSDOF 11
ENDMDL
MODEL       50
REMARK 921   NORMALIZED FREE ENERGY PREDICTED BY IDOCK:   -5.26 KCAL/MOL
REMARK 922        TOTAL FREE ENERGY PREDICTED BY IDOCK:  -10.39 KCAL/MOL
REMARK 923 INTER-LIGAND FREE ENERGY PREDICTED BY IDOCK:   -9.05 KCAL/MOL
REMARK 924 INTRA-LIGAND FREE ENERGY PREDICTED BY IDOCK:   -1.34 KCAL/MOL
REMARK 927      BINDING AFFINITY PREDICTED BY RF-SCORE:    0.00 PKD
ROOT
HETATM    1  O   UNL     1     -10.487  17.497  65.848  1.00  0.00    -0.461 OA 
HETATM    2  C   UNL     1      -9.289  17.587  66.472  1.00  0.00    -0.265 C  
HETATM    3  C   UNL     1      -9.335  17.072  67.909  1.00  0.00    -0.240 C  
HETATM    4  O   UNL     1      -8.295  18.072  65.952  1.00  0.00    -0.516 OA 
ENDROOT
BRANCH   3   5
HETATM    5  N   UNL     1     -10.322  15.952  68.096  1.00  0.00    -0.249 NA 
BRANCH   5   6
HETATM    6  C   UNL     1      -9.631  14.644  67.839  1.00  0.00    -0.212 C  
BRANCH   6   7
HETATM    7  C   UNL     1      -9.771  14.119  66.379  1.00  0.00    -0.298 C  
BRANCH   7   8
HETATM    8  N   UNL     1     -10.372  12.749  66.215  1.00  0.00    -0.254 NA 
BRANCH   8   9
HETATM    9  C   UNL     1     -10.894  12.651  64.793  1.00  0.00    -0.302 C  
HETATM   10  O   UNL     1     -10.094  10.384  64.846  1.00  0.00    -0.322 OA 
HETATM   11  C   UNL     1     -10.332  11.446  64.041  1.00  0.00    -0.362 C  
HETATM   12  O   UNL     1     -10.138  11.422  62.835  1.00  0.00    -0.297 OA 
ENDBRANCH   8   9
BRANCH   8  13
HETATM   13  C   UNL     1     -11.571  12.656  67.130  1.00  0.00    -0.368 C  
HETATM   14  O   UNL     1     -10.216  11.197  68.465  1.00  0.00    -0.183 OA 
HETATM   15  O   UNL     1     -12.459  10.879  68.526  1.00  0.00    -0.375 OA 
HETATM   16  C   UNL     1     -11.488  11.476  68.092  1.00  0.00    -0.315 C  
ENDBRANCH   8  13
ENDBRANCH   7   8
ENDBRANCH   6   7
ENDBRANCH   5   6
BRANCH   5  17
HETATM   17  C   UNL     1     -10.796  15.963  69.517  1.00  0.00    -0.305 C  
BRANCH  17  18
HETATM   18  C   UNL     1     -12.328  15.837  69.750  1.00  0.00    -0.137 C  
BRANCH  18  19
HETATM   19  N   UNL     1     -12.728  15.100  71.006  1.00  0.00    -0.359 NA 
BRANCH  19  20
HETATM   20  C   UNL     1     -11.723  15.467  72.083  1.00  0.00    -0.462 C  
HETATM   21  O   UNL     1     -11.696  17.149  73.837  1.00  0.00    -0.108 OA 
HETATM   22  O   UNL     1     -13.647  16.095  73.382  1.00  0.00    -0.615 OA 
HETATM   23  C   UNL     1     -12.331  16.339  73.179  1.00  0.00    -0.499 C  
ENDBRANCH  19  20
BRANCH  19  24
HETATM   24  C   UNL     1     -12.569  13.618  70.748  1.00  0.00    -0.325 C  
HETATM   25  C   UNL     1     -13.224  12.754  71.821  1.00  0.00    -0.374 C  
HETATM   26  O   UNL     1     -12.841  11.636  72.126  1.00  0.00    -0.270 OA 
HETATM   27  O   UNL     1     -14.329  13.328  72.353  1.00  0.00    -0.574 OA 
ENDBRANCH  19  24
ENDBRANCH  18  19
ENDBRANCH  17  18
ENDBRANCH   5  17
ENDBRANCH   3   5
TORSDOF 11
ENDMDL
MODEL       51
REMARK 921   NORMALIZED FREE ENERGY PREDICTED BY IDOCK:   -5.26 KCAL/MOL
REMARK 922        TOTAL FREE ENERGY PREDICTED BY IDOCK:  -10.39 KCAL/MOL
REMARK 923 INTER-LIGAND FREE ENERGY PREDICTED BY IDOCK:   -9.48 KCAL/MOL
REMARK 924 INTRA-LIGAND FREE ENERGY PREDICTED BY IDOCK:   -0.91 KCAL/MOL
REMARK 927      BINDING AFFINITY PREDICTED BY RF-SCORE:    0.00 PKD
ROOT
HETATM    1  O   UNL     1     -13.667  12.745  72.240  1.00  0.00    -0.527 OA 
HETATM    2  C   UNL     1     -13.189  14.007  72.340  1.00  0.00    -0.488 C  
HETATM    3  C   UNL     1     -12.163  14.335  71.258  1.00  0.00    -0.350 C  
HETATM    4  O   UNL     1     -13.513  14.779  73.230  1.00  0.00    -0.561 OA 
ENDROOT
BRANCH   3   5
HETATM    5  N   UNL     1     -12.429  13.615  69.964  1.00  0.00    -0.257 NA 
BRANCH   5   6
HETATM    6  C   UNL     1     -12.135  14.541  68.820  1.00  0.00    -0.221 C  
BRANCH   6   7
HETATM    7  C   UNL     1     -12.103  13.850  67.423  1.00  0.00    -0.345 C  
BRANCH   7   8
HETATM    8  N   UNL     1     -11.679  14.707  66.262  1.00  0.00    -0.354 NA 
BRANCH   8   9
HETATM    9  C   UNL     1     -10.868  13.829  65.325  1.00  0.00    -0.324 C  
HETATM   10  O   UNL     1     -12.750  13.988  63.837  1.00  0.00    -0.670 OA 
HETATM   11  C   UNL     1     -11.719  13.200  64.223  1.00  0.00    -0.395 C  
HETATM   12  O   UNL     1     -11.487  12.113  63.718  1.00  0.00    -0.389 OA 
ENDBRANCH   8   9
BRANCH   8  13
HETATM   13  C   UNL     1     -10.743  15.770  66.787  1.00  0.00    -0.293 C  
HETATM   14  O   UNL     1     -11.109  16.877  64.693  1.00  0.00    -0.934 OA 
HETATM   15  O   UNL     1      -9.120  17.227  65.720  1.00  0.00    -0.523 OA 
HETATM   16  C   UNL     1     -10.211  16.683  65.687  1.00  0.00    -0.262 C  
ENDBRANCH   8  13
ENDBRANCH   7   8
ENDBRANCH   6   7
ENDBRANCH   5   6
BRANCH   5  17
HETATM   17  C   UNL     1     -11.504  12.440  69.868  1.00  0.00    -0.097 C  
BRANCH  17  18
HETATM   18  C   UNL     1     -12.154  11.050  69.619  1.00  0.00    -0.340 C  
BRANCH  18  19
HETATM   19  N   UNL     1     -11.304   9.864  70.012  1.00  0.00    -0.254 NA 
BRANCH  19  20
HETATM   20  C   UNL     1     -11.368   9.747  71.525  1.00  0.00    -0.275 C  
HETATM   21  O   UNL     1     -13.028   8.853  73.059  1.00  0.00    -0.297 OA 
HETATM   22  O   UNL     1     -12.657   7.759  71.113  1.00  0.00    -0.284 OA 
HETATM   23  C   UNL     1     -12.443   8.767  71.990  1.00  0.00    -0.386 C  
ENDBRANCH  19  20
BRANCH  19  24
HETATM   24  C   UNL     1      -9.867  10.183  69.661  1.00  0.00    -0.225 C  
HETATM   25  C   UNL     1      -9.244   9.157  68.720  1.00  0.00    -0.136 C  
HETATM   26  O   UNL     1      -8.052   8.894  68.688  1.00  0.00    -0.108 OA 
HETATM   27  O   UNL     1     -10.144   8.616  67.865  1.00  0.00    -0.182 OA 
ENDBRANCH  19  24
ENDBRANCH  18  19
ENDBRANCH  17  18
ENDBRANCH   5  17
ENDBRANCH   3   5
TORSDOF 11
ENDMDL
MODEL       52
REMARK 921   NORMALIZED FREE ENERGY PREDICTED BY IDOCK:   -5.26 KCAL/MOL
REMARK 922        TOTAL FREE ENERGY PREDICTED BY IDOCK:  -10.38 KCAL/MOL
REMARK 923 INTER-LIGAND FREE ENERGY PREDICTED BY IDOCK:   -9.13 KCAL/MOL
REMARK 924 INTRA-LIGAND FREE ENERGY PREDICTED BY IDOCK:   -1.24 KCAL/MOL
REMARK 927      BINDING AFFINITY PREDICTED BY RF-SCORE:    0.00 PKD
ROOT
HETATM    1  O   UNL     1     -10.164  15.505  70.024  1.00  0.00    -0.301 OA 
HETATM    2  C   UNL     1     -11.424  15.543  70.516  1.00  0.00    -0.347 C  
HETATM    3  C   UNL     1     -12.350  14.534  69.841  1.00  0.00    -0.298 C  
HETATM    4  O   UNL     1     -11.786  16.333  71.375  1.00  0.00    -0.438 OA 
ENDROOT
BRANCH   3   5
HETATM    5  N   UNL     1     -11.633  13.285  69.404  1.00  0.00    -0.297 NA 
BRANCH   5   6
HETATM    6  C   UNL     1     -12.092  12.136  70.254  1.00  0.00    -0.302 C  
BRANCH   6   7
HETATM    7  C   UNL     1     -11.966  10.740  69.571  1.00  0.00    -0.292 C  
BRANCH   7   8
HETATM    8  N   UNL     1     -10.668  10.008  69.780  1.00  0.00    -0.251 NA 
BRANCH   8   9
HETATM    9  C   UNL     1     -10.157   9.597  68.410  1.00  0.00    -0.176 C  
HETATM   10  O   UNL     1      -8.676  11.482  68.595  1.00  0.00    -0.158 OA 
HETATM   11  C   UNL     1      -9.357  10.703  67.723  1.00  0.00    -0.146 C  
HETATM   12  O   UNL     1      -9.310  10.861  66.513  1.00  0.00    -0.167 OA 
ENDBRANCH   8   9
BRANCH   8  13
HETATM   13  C   UNL     1     -10.970   8.736  70.536  1.00  0.00    -0.239 C  
HETATM   14  O   UNL     1      -8.875   9.107  71.641  1.00  0.00    -0.339 OA 
HETATM   15  O   UNL     1      -9.569   6.961  71.422  1.00  0.00    -0.167 OA 
HETATM   16  C   UNL     1      -9.738   8.153  71.221  1.00  0.00    -0.164 C  
ENDBRANCH   8  13
ENDBRANCH   7   8
ENDBRANCH   6   7
ENDBRANCH   5   6
BRANCH   5  17
HETATM   17  C   UNL     1     -11.998  12.994  67.981  1.00  0.00    -0.290 C  
BRANCH  17  18
HETATM   18  C   UNL     1     -11.951  14.186  66.983  1.00  0.00    -0.439 C  
BRANCH  18  19
HETATM   19  N   UNL     1     -11.589  13.821  65.563  1.00  0.00    -0.318 NA 
BRANCH  19  20
HETATM   20  C   UNL     1     -11.987  14.992  64.682  1.00  0.00    -0.358 C  
HETATM   21  O   UNL     1     -11.281  17.315  64.575  1.00  0.00    -1.083 OA 
HETATM   22  O   UNL     1      -9.718  15.729  64.985  1.00  0.00    -0.274 OA 
HETATM   23  C   UNL     1     -10.986  16.142  64.750  1.00  0.00    -0.313 C  
ENDBRANCH  19  20
BRANCH  19  24
HETATM   24  C   UNL     1     -12.453  12.650  65.148  1.00  0.00    -0.463 C  
HETATM   25  C   UNL     1     -12.244  12.243  63.693  1.00  0.00    -0.567 C  
HETATM   26  O   UNL     1     -13.103  11.722  63.000  1.00  0.00    -0.508 OA 
HETATM   27  O   UNL     1     -10.976  12.453  63.267  1.00  0.00    -0.438 OA 
ENDBRANCH  19  24
ENDBRANCH  18  19
ENDBRANCH  17  18
ENDBRANCH   5  17
ENDBRANCH   3   5
TORSDOF 11
ENDMDL
MODEL       53
REMARK 921   NORMALIZED FREE ENERGY PREDICTED BY IDOCK:   -5.22 KCAL/MOL
REMARK 922        TOTAL FREE ENERGY PREDICTED BY IDOCK:  -10.32 KCAL/MOL
REMARK 923 INTER-LIGAND FREE ENERGY PREDICTED BY IDOCK:   -8.77 KCAL/MOL
REMARK 924 INTRA-LIGAND FREE ENERGY PREDICTED BY IDOCK:   -1.55 KCAL/MOL
REMARK 927      BINDING AFFINITY PREDICTED BY RF-SCORE:    0.00 PKD
ROOT
HETATM    1  O   UNL     1     -13.178  13.621  65.169  1.00  0.00    -0.739 OA 
HETATM    2  C   UNL     1     -12.428  12.798  64.401  1.00  0.00    -0.399 C  
HETATM    3  C   UNL     1     -10.938  12.888  64.724  1.00  0.00    -0.318 C  
HETATM    4  O   UNL     1     -12.893  12.096  63.515  1.00  0.00    -0.768 OA 
ENDROOT
BRANCH   3   5
HETATM    5  N   UNL     1     -10.672  13.194  66.173  1.00  0.00    -0.276 NA 
BRANCH   5   6
HETATM    6  C   UNL     1      -9.921  12.047  66.784  1.00  0.00    -0.201 C  
BRANCH   6   7
HETATM    7  C   UNL     1      -9.974  12.000  68.342  1.00  0.00    -0.208 C  
BRANCH   7   8
HETATM    8  N   UNL     1     -10.604  10.778  68.953  1.00  0.00    -0.202 NA 
BRANCH   8   9
HETATM    9  C   UNL     1     -11.013   9.863  67.813  1.00  0.00    -0.217 C  
HETATM   10  O   UNL     1      -9.603   8.222  68.862  1.00  0.00    -0.151 OA 
HETATM   11  C   UNL     1     -10.099   8.647  67.676  1.00  0.00    -0.213 C  
HETATM   12  O   UNL     1      -9.854   8.092  66.616  1.00  0.00    -0.228 OA 
ENDBRANCH   8   9
BRANCH   8  13
HETATM   13  C   UNL     1     -11.874  11.209  69.648  1.00  0.00    -0.348 C  
HETATM   14  O   UNL     1     -11.180   9.762  71.429  1.00  0.00    -0.366 OA 
HETATM   15  O   UNL     1     -13.407  10.079  71.154  1.00  0.00    -0.380 OA 
HETATM   16  C   UNL     1     -12.258  10.285  70.798  1.00  0.00    -0.350 C  
ENDBRANCH   8  13
ENDBRANCH   7   8
ENDBRANCH   6   7
ENDBRANCH   5   6
BRANCH   5  17
HETATM   17  C   UNL     1      -9.813  14.418  66.256  1.00  0.00    -0.304 C  
BRANCH  17  18
HETATM   18  C   UNL     1     -10.541  15.792  66.265  1.00  0.00    -0.310 C  
BRANCH  18  19
HETATM   19  N   UNL     1     -10.406  16.582  67.545  1.00  0.00    -0.288 NA 
BRANCH  19  20
HETATM   20  C   UNL     1     -11.565  16.187  68.441  1.00  0.00    -0.228 C  
HETATM   21  O   UNL     1     -11.817  14.548  70.219  1.00  0.00    -0.275 OA 
HETATM   22  O   UNL     1      -9.871  15.695  70.075  1.00  0.00    -0.268 OA 
HETATM   23  C   UNL     1     -11.117  15.376  69.655  1.00  0.00    -0.276 C  
ENDBRANCH  19  20
BRANCH  19  24
HETATM   24  C   UNL     1     -10.591  18.046  67.211  1.00  0.00    -0.346 C  
HETATM   25  C   UNL     1      -9.848  18.972  68.169  1.00  0.00    -0.368 C  
HETATM   26  O   UNL     1     -10.208  20.107  68.437  1.00  0.00    -0.421 OA 
HETATM   27  O   UNL     1      -8.700  18.429  68.638  1.00  0.00    -0.318 OA 
ENDBRANCH  19  24
ENDBRANCH  18  19
ENDBRANCH  17  18
ENDBRANCH   5  17
ENDBRANCH   3   5
TORSDOF 11
ENDMDL
MODEL       54
REMARK 921   NORMALIZED FREE ENERGY PREDICTED BY IDOCK:   -5.21 KCAL/MOL
REMARK 922        TOTAL FREE ENERGY PREDICTED BY IDOCK:  -10.31 KCAL/MOL
REMARK 923 INTER-LIGAND FREE ENERGY PREDICTED BY IDOCK:   -9.07 KCAL/MOL
REMARK 924 INTRA-LIGAND FREE ENERGY PREDICTED BY IDOCK:   -1.24 KCAL/MOL
REMARK 927      BINDING AFFINITY PREDICTED BY RF-SCORE:    0.00 PKD
ROOT
HETATM    1  O   UNL     1     -10.282  15.576  70.118  1.00  0.00    -0.308 OA 
HETATM    2  C   UNL     1     -11.511  15.529  70.683  1.00  0.00    -0.358 C  
HETATM    3  C   UNL     1     -12.409  14.468  70.050  1.00  0.00    -0.323 C  
HETATM    4  O   UNL     1     -11.872  16.287  71.571  1.00  0.00    -0.458 OA 
ENDROOT
BRANCH   3   5
HETATM    5  N   UNL     1     -11.640  13.271  69.558  1.00  0.00    -0.293 NA 
BRANCH   5   6
HETATM    6  C   UNL     1     -12.022  12.074  70.380  1.00  0.00    -0.291 C  
BRANCH   6   7
HETATM    7  C   UNL     1     -12.260  10.775  69.551  1.00  0.00    -0.221 C  
BRANCH   7   8
HETATM    8  N   UNL     1     -11.400   9.591  69.902  1.00  0.00    -0.179 NA 
BRANCH   8   9
HETATM    9  C   UNL     1     -11.382   9.479  71.416  1.00  0.00    -0.392 C  
HETATM   10  O   UNL     1     -12.580   7.418  71.097  1.00  0.00    -0.335 OA 
HETATM   11  C   UNL     1     -12.389   8.458  71.942  1.00  0.00    -0.347 C  
HETATM   12  O   UNL     1     -12.951   8.548  73.023  1.00  0.00    -0.194 OA 
ENDBRANCH   8   9
BRANCH   8  13
HETATM   13  C   UNL     1      -9.986   9.901  69.468  1.00  0.00    -0.222 C  
HETATM   14  O   UNL     1     -10.010   7.727  68.457  1.00  0.00    -0.171 OA 
HETATM   15  O   UNL     1      -8.008   8.527  69.156  1.00  0.00    -0.107 OA 
HETATM   16  C   UNL     1      -9.216   8.656  69.040  1.00  0.00    -0.145 C  
ENDBRANCH   8  13
ENDBRANCH   7   8
ENDBRANCH   6   7
ENDBRANCH   5   6
BRANCH   5  17
HETATM   17  C   UNL     1     -12.023  13.007  68.134  1.00  0.00    -0.280 C  
BRANCH  17  18
HETATM   18  C   UNL     1     -11.973  14.214  67.155  1.00  0.00    -0.426 C  
BRANCH  18  19
HETATM   19  N   UNL     1     -11.569  13.877  65.740  1.00  0.00    -0.328 NA 
BRANCH  19  20
HETATM   20  C   UNL     1     -11.989  15.042  64.862  1.00  0.00    -0.255 C  
HETATM   21  O   UNL     1     -11.245  17.349  64.681  1.00  0.00    -0.992 OA 
HETATM   22  O   UNL     1      -9.694  15.738  65.034  1.00  0.00    -0.274 OA 
HETATM   23  C   UNL     1     -10.964  16.173  64.859  1.00  0.00    -0.349 C  
ENDBRANCH  19  20
BRANCH  19  24
HETATM   24  C   UNL     1     -12.380  12.680  65.295  1.00  0.00    -0.466 C  
HETATM   25  C   UNL     1     -12.004  12.193  63.900  1.00  0.00    -0.486 C  
HETATM   26  O   UNL     1     -12.777  11.629  63.142  1.00  0.00    -0.447 OA 
HETATM   27  O   UNL     1     -10.695  12.384  63.613  1.00  0.00    -0.417 OA 
ENDBRANCH  19  24
ENDBRANCH  18  19
ENDBRANCH  17  18
ENDBRANCH   5  17
ENDBRANCH   3   5
TORSDOF 11
ENDMDL
MODEL       55
REMARK 921   NORMALIZED FREE ENERGY PREDICTED BY IDOCK:   -5.21 KCAL/MOL
REMARK 922        TOTAL FREE ENERGY PREDICTED BY IDOCK:  -10.31 KCAL/MOL
REMARK 923 INTER-LIGAND FREE ENERGY PREDICTED BY IDOCK:   -8.74 KCAL/MOL
REMARK 924 INTRA-LIGAND FREE ENERGY PREDICTED BY IDOCK:   -1.57 KCAL/MOL
REMARK 927      BINDING AFFINITY PREDICTED BY RF-SCORE:    0.00 PKD
ROOT
HETATM    1  O   UNL     1     -13.268  13.952  65.252  1.00  0.00    -0.774 OA 
HETATM    2  C   UNL     1     -12.657  12.888  64.681  1.00  0.00    -0.391 C  
HETATM    3  C   UNL     1     -11.136  12.949  64.802  1.00  0.00    -0.309 C  
HETATM    4  O   UNL     1     -13.260  12.001  64.095  1.00  0.00    -0.712 OA 
ENDROOT
BRANCH   3   5
HETATM    5  N   UNL     1     -10.678  13.633  66.062  1.00  0.00    -0.278 NA 
BRANCH   5   6
HETATM    6  C   UNL     1      -9.852  12.671  66.867  1.00  0.00    -0.234 C  
BRANCH   6   7
HETATM    7  C   UNL     1     -10.301  12.524  68.352  1.00  0.00    -0.230 C  
BRANCH   7   8
HETATM    8  N   UNL     1     -10.824  11.175  68.763  1.00  0.00    -0.198 NA 
BRANCH   8   9
HETATM    9  C   UNL     1     -11.143  10.409  67.491  1.00  0.00    -0.267 C  
HETATM   10  O   UNL     1     -10.139   8.520  68.591  1.00  0.00    -0.180 OA 
HETATM   11  C   UNL     1     -10.373   9.093  67.387  1.00  0.00    -0.264 C  
HETATM   12  O   UNL     1     -10.022   8.590  66.331  1.00  0.00    -0.269 OA 
ENDBRANCH   8   9
BRANCH   8  13
HETATM   13  C   UNL     1     -12.132  11.385  69.488  1.00  0.00    -0.302 C  
HETATM   14  O   UNL     1     -11.199   9.995  71.205  1.00  0.00    -0.350 OA 
HETATM   15  O   UNL     1     -13.452   9.984  70.968  1.00  0.00    -0.367 OA 
HETATM   16  C   UNL     1     -12.354  10.373  70.608  1.00  0.00    -0.346 C  
ENDBRANCH   8  13
ENDBRANCH   7   8
ENDBRANCH   6   7
ENDBRANCH   5   6
BRANCH   5  17
HETATM   17  C   UNL     1      -9.814  14.798  65.689  1.00  0.00    -0.327 C  
BRANCH  17  18
HETATM   18  C   UNL     1     -10.348  16.214  66.043  1.00  0.00    -0.358 C  
BRANCH  18  19
HETATM   19  N   UNL     1      -9.656  16.890  67.203  1.00  0.00    -0.239 NA 
BRANCH  19  20
HETATM   20  C   UNL     1      -9.148  18.232  66.704  1.00  0.00    -0.288 C  
HETATM   21  O   UNL     1      -9.826  20.529  67.113  1.00  0.00    -0.454 OA 
HETATM   22  O   UNL     1      -9.861  19.068  68.843  1.00  0.00    -0.401 OA 
HETATM   23  C   UNL     1      -9.656  19.400  67.546  1.00  0.00    -0.326 C  
ENDBRANCH  19  20
BRANCH  19  24
HETATM   24  C   UNL     1      -8.437  16.069  67.562  1.00  0.00    -0.163 C  
HETATM   25  C   UNL     1      -8.362  15.735  69.048  1.00  0.00    -0.236 C  
HETATM   26  O   UNL     1      -7.319  15.552  69.655  1.00  0.00    -0.205 OA 
HETATM   27  O   UNL     1      -9.583  15.587  69.614  1.00  0.00    -0.274 OA 
ENDBRANCH  19  24
ENDBRANCH  18  19
ENDBRANCH  17  18
ENDBRANCH   5  17
ENDBRANCH   3   5
TORSDOF 11
ENDMDL
MODEL       56
REMARK 921   NORMALIZED FREE ENERGY PREDICTED BY IDOCK:   -5.21 KCAL/MOL
REMARK 922        TOTAL FREE ENERGY PREDICTED BY IDOCK:  -10.30 KCAL/MOL
REMARK 923 INTER-LIGAND FREE ENERGY PREDICTED BY IDOCK:   -9.15 KCAL/MOL
REMARK 924 INTRA-LIGAND FREE ENERGY PREDICTED BY IDOCK:   -1.15 KCAL/MOL
REMARK 927      BINDING AFFINITY PREDICTED BY RF-SCORE:    0.00 PKD
ROOT
HETATM    1  O   UNL     1     -12.109  13.927  71.101  1.00  0.00    -0.344 OA 
HETATM    2  C   UNL     1     -12.757  12.749  71.259  1.00  0.00    -0.269 C  
HETATM    3  C   UNL     1     -12.528  11.791  70.093  1.00  0.00    -0.107 C  
HETATM    4  O   UNL     1     -13.482  12.504  72.212  1.00  0.00    -0.556 OA 
ENDROOT
BRANCH   3   5
HETATM    5  N   UNL     1     -11.170  11.950  69.465  1.00  0.00    -0.206 NA 
BRANCH   5   6
HETATM    6  C   UNL     1     -10.634  10.593  69.111  1.00  0.00    -0.226 C  
BRANCH   6   7
HETATM    7  C   UNL     1     -10.121   9.766  70.329  1.00  0.00    -0.266 C  
BRANCH   7   8
HETATM    8  N   UNL     1     -10.941   8.565  70.716  1.00  0.00    -0.241 NA 
BRANCH   8   9
HETATM    9  C   UNL     1     -11.550   8.854  72.076  1.00  0.00    -0.364 C  
HETATM   10  O   UNL     1     -13.470   7.650  71.273  1.00  0.00    -0.304 OA 
HETATM   11  C   UNL     1     -13.062   8.639  72.102  1.00  0.00    -0.383 C  
HETATM   12  O   UNL     1     -13.830   9.269  72.813  1.00  0.00    -0.403 OA 
ENDBRANCH   8   9
BRANCH   8  13
HETATM   13  C   UNL     1      -9.999   7.399  70.896  1.00  0.00    -0.184 C  
HETATM   14  O   UNL     1     -11.237   6.356  69.127  1.00  0.00    -0.353 OA 
HETATM   15  O   UNL     1     -10.268   4.997  70.660  1.00  0.00    -0.238 OA 
HETATM   16  C   UNL     1     -10.517   6.118  70.249  1.00  0.00    -0.229 C  
ENDBRANCH   8  13
ENDBRANCH   7   8
ENDBRANCH   6   7
ENDBRANCH   5   6
BRANCH   5  17
HETATM   17  C   UNL     1     -11.314  12.743  68.202  1.00  0.00    -0.288 C  
BRANCH  17  18
HETATM   18  C   UNL     1     -11.404  11.942  66.873  1.00  0.00    -0.330 C  
BRANCH  18  19
HETATM   19  N   UNL     1     -11.526  12.782  65.624  1.00  0.00    -0.326 NA 
BRANCH  19  20
HETATM   20  C   UNL     1     -10.359  12.421  64.723  1.00  0.00    -0.299 C  
HETATM   21  O   UNL     1      -9.992  10.655  63.095  1.00  0.00    -0.320 OA 
HETATM   22  O   UNL     1     -12.041  11.611  63.208  1.00  0.00    -0.409 OA 
HETATM   23  C   UNL     1     -10.757  11.458  63.607  1.00  0.00    -0.401 C  
ENDBRANCH  19  20
BRANCH  19  24
HETATM   24  C   UNL     1     -11.342  14.232  66.017  1.00  0.00    -0.335 C  
HETATM   25  C   UNL     1     -11.543  15.194  64.851  1.00  0.00    -0.336 C  
HETATM   26  O   UNL     1     -10.994  16.280  64.759  1.00  0.00    -0.631 OA 
HETATM   27  O   UNL     1     -12.458  14.750  63.957  1.00  0.00    -0.803 OA 
ENDBRANCH  19  24
ENDBRANCH  18  19
ENDBRANCH  17  18
ENDBRANCH   5  17
ENDBRANCH   3   5
TORSDOF 11
ENDMDL
MODEL       57
REMARK 921   NORMALIZED FREE ENERGY PREDICTED BY IDOCK:   -5.21 KCAL/MOL
REMARK 922        TOTAL FREE ENERGY PREDICTED BY IDOCK:  -10.30 KCAL/MOL
REMARK 923 INTER-LIGAND FREE ENERGY PREDICTED BY IDOCK:   -9.12 KCAL/MOL
REMARK 924 INTRA-LIGAND FREE ENERGY PREDICTED BY IDOCK:   -1.18 KCAL/MOL
REMARK 927      BINDING AFFINITY PREDICTED BY RF-SCORE:    0.00 PKD
ROOT
HETATM    1  O   UNL     1     -13.277  13.799  65.249  1.00  0.00    -0.755 OA 
HETATM    2  C   UNL     1     -12.656  12.635  64.949  1.00  0.00    -0.450 C  
HETATM    3  C   UNL     1     -11.587  12.258  65.972  1.00  0.00    -0.393 C  
HETATM    4  O   UNL     1     -12.898  11.984  63.943  1.00  0.00    -0.624 OA 
ENDROOT
BRANCH   3   5
HETATM    5  N   UNL     1     -11.922  12.723  67.363  1.00  0.00    -0.393 NA 
BRANCH   5   6
HETATM    6  C   UNL     1     -12.011  11.528  68.269  1.00  0.00    -0.169 C  
BRANCH   6   7
HETATM    7  C   UNL     1     -11.196  11.661  69.591  1.00  0.00    -0.177 C  
BRANCH   7   8
HETATM    8  N   UNL     1     -10.539  10.407  70.100  1.00  0.00    -0.248 NA 
BRANCH   8   9
HETATM    9  C   UNL     1     -10.344   9.485  68.909  1.00  0.00    -0.208 C  
HETATM   10  O   UNL     1      -8.001   9.972  69.143  1.00  0.00    -0.096 OA 
HETATM   11  C   UNL     1      -8.972   9.645  68.258  1.00  0.00    -0.123 C  
HETATM   12  O   UNL     1      -8.756   9.474  67.068  1.00  0.00    -0.127 OA 
ENDBRANCH   8   9
BRANCH   8  13
HETATM   13  C   UNL     1     -11.508   9.720  71.033  1.00  0.00    -0.383 C  
HETATM   14  O   UNL     1      -9.577   8.648  71.964  1.00  0.00    -0.271 OA 
HETATM   15  O   UNL     1     -11.542   7.524  72.068  1.00  0.00    -0.268 OA 
HETATM   16  C   UNL     1     -10.901   8.502  71.721  1.00  0.00    -0.304 C  
ENDBRANCH   8  13
ENDBRANCH   7   8
ENDBRANCH   6   7
ENDBRANCH   5   6
BRANCH   5  17
HETATM   17  C   UNL     1     -10.814  13.604  67.854  1.00  0.00    -0.250 C  
BRANCH  17  18
HETATM   18  C   UNL     1     -11.199  15.049  68.280  1.00  0.00    -0.299 C  
BRANCH  18  19
HETATM   19  N   UNL     1     -10.593  16.149  67.440  1.00  0.00    -0.311 NA 
BRANCH  19  20
HETATM   20  C   UNL     1     -10.560  15.653  66.006  1.00  0.00    -0.328 C  
HETATM   21  O   UNL     1     -11.534  16.473  63.935  1.00  0.00    -1.145 OA 
HETATM   22  O   UNL     1     -10.713  17.979  65.412  1.00  0.00    -0.632 OA 
HETATM   23  C   UNL     1     -11.004  16.720  65.007  1.00  0.00    -0.108 C  
ENDBRANCH  19  20
BRANCH  19  24
HETATM   24  C   UNL     1      -9.154  16.327  67.873  1.00  0.00    -0.196 C  
HETATM   25  C   UNL     1      -8.795  17.782  68.156  1.00  0.00    -0.267 C  
HETATM   26  O   UNL     1      -7.674  18.246  68.026  1.00  0.00    -0.246 OA 
HETATM   27  O   UNL     1      -9.839  18.494  68.643  1.00  0.00    -0.355 OA 
ENDBRANCH  19  24
ENDBRANCH  18  19
ENDBRANCH  17  18
ENDBRANCH   5  17
ENDBRANCH   3   5
TORSDOF 11
ENDMDL
MODEL       58
REMARK 921   NORMALIZED FREE ENERGY PREDICTED BY IDOCK:   -5.19 KCAL/MOL
REMARK 922        TOTAL FREE ENERGY PREDICTED BY IDOCK:  -10.27 KCAL/MOL
REMARK 923 INTER-LIGAND FREE ENERGY PREDICTED BY IDOCK:   -8.96 KCAL/MOL
REMARK 924 INTRA-LIGAND FREE ENERGY PREDICTED BY IDOCK:   -1.31 KCAL/MOL
REMARK 927      BINDING AFFINITY PREDICTED BY RF-SCORE:    0.00 PKD
ROOT
HETATM    1  O   UNL     1     -10.623  13.215  63.984  1.00  0.00    -0.402 OA 
HETATM    2  C   UNL     1     -11.943  13.475  64.133  1.00  0.00    -0.448 C  
HETATM    3  C   UNL     1     -12.475  13.053  65.501  1.00  0.00    -0.438 C  
HETATM    4  O   UNL     1     -12.638  13.952  63.247  1.00  0.00    -0.824 OA 
ENDROOT
BRANCH   3   5
HETATM    5  N   UNL     1     -11.445  13.177  66.591  1.00  0.00    -0.331 NA 
BRANCH   5   6
HETATM    6  C   UNL     1     -11.759  14.385  67.425  1.00  0.00    -0.397 C  
BRANCH   6   7
HETATM    7  C   UNL     1     -10.590  15.410  67.538  1.00  0.00    -0.283 C  
BRANCH   7   8
HETATM    8  N   UNL     1     -10.636  16.349  68.713  1.00  0.00    -0.289 NA 
BRANCH   8   9
HETATM    9  C   UNL     1      -9.423  17.257  68.612  1.00  0.00    -0.278 C  
HETATM   10  O   UNL     1     -10.907  18.821  67.548  1.00  0.00    -0.435 OA 
HETATM   11  C   UNL     1      -9.623  18.398  67.616  1.00  0.00    -0.279 C  
HETATM   12  O   UNL     1      -8.722  18.902  66.964  1.00  0.00    -0.280 OA 
ENDBRANCH   8   9
BRANCH   8  13
HETATM   13  C   UNL     1     -10.465  15.528  69.970  1.00  0.00    -0.309 C  
HETATM   14  O   UNL     1     -12.771  16.028  70.395  1.00  0.00    -0.324 OA 
HETATM   15  O   UNL     1     -11.435  15.675  72.191  1.00  0.00    -0.414 OA 
HETATM   16  C   UNL     1     -11.580  15.766  70.983  1.00  0.00    -0.411 C  
ENDBRANCH   8  13
ENDBRANCH   7   8
ENDBRANCH   6   7
ENDBRANCH   5   6
BRANCH   5  17
HETATM   17  C   UNL     1     -11.526  11.965  67.467  1.00  0.00    -0.326 C  
BRANCH  17  18
HETATM   18  C   UNL     1     -10.384  11.766  68.503  1.00  0.00    -0.217 C  
BRANCH  18  19
HETATM   19  N   UNL     1     -10.414  10.453  69.249  1.00  0.00    -0.220 NA 
BRANCH  19  20
HETATM   20  C   UNL     1     -10.896   9.393  68.274  1.00  0.00    -0.112 C  
HETATM   21  O   UNL     1      -9.831   8.205  66.441  1.00  0.00    -0.236 OA 
HETATM   22  O   UNL     1      -8.621   8.615  68.310  1.00  0.00    -0.136 OA 
HETATM   23  C   UNL     1      -9.745   8.689  67.559  1.00  0.00    -0.165 C  
ENDBRANCH  19  20
BRANCH  19  24
HETATM   24  C   UNL     1     -11.464  10.557  70.334  1.00  0.00    -0.341 C  
HETATM   25  C   UNL     1     -11.280   9.523  71.440  1.00  0.00    -0.382 C  
HETATM   26  O   UNL     1     -12.194   9.070  72.110  1.00  0.00    -0.365 OA 
HETATM   27  O   UNL     1      -9.980   9.211  71.654  1.00  0.00    -0.316 OA 
ENDBRANCH  19  24
ENDBRANCH  18  19
ENDBRANCH  17  18
ENDBRANCH   5  17
ENDBRANCH   3   5
TORSDOF 11
ENDMDL
MODEL       59
REMARK 921   NORMALIZED FREE ENERGY PREDICTED BY IDOCK:   -5.19 KCAL/MOL
REMARK 922        TOTAL FREE ENERGY PREDICTED BY IDOCK:  -10.27 KCAL/MOL
REMARK 923 INTER-LIGAND FREE ENERGY PREDICTED BY IDOCK:   -8.88 KCAL/MOL
REMARK 924 INTRA-LIGAND FREE ENERGY PREDICTED BY IDOCK:   -1.39 KCAL/MOL
REMARK 927      BINDING AFFINITY PREDICTED BY RF-SCORE:    0.00 PKD
ROOT
HETATM    1  O   UNL     1     -10.875  11.168  64.581  1.00  0.00    -0.305 OA 
HETATM    2  C   UNL     1      -9.710  10.622  65.001  1.00  0.00    -0.279 C  
HETATM    3  C   UNL     1      -9.143  11.322  66.234  1.00  0.00    -0.199 C  
HETATM    4  O   UNL     1      -9.154   9.699  64.423  1.00  0.00    -0.237 OA 
ENDROOT
BRANCH   3   5
HETATM    5  N   UNL     1     -10.214  11.867  67.139  1.00  0.00    -0.207 NA 
BRANCH   5   6
HETATM    6  C   UNL     1     -10.146  11.157  68.460  1.00  0.00    -0.201 C  
BRANCH   6   7
HETATM    7  C   UNL     1     -10.634   9.677  68.420  1.00  0.00    -0.225 C  
BRANCH   7   8
HETATM    8  N   UNL     1     -11.167   9.114  69.710  1.00  0.00    -0.127 NA 
BRANCH   8   9
HETATM    9  C   UNL     1     -11.243  10.258  70.705  1.00  0.00    -0.325 C  
HETATM   10  O   UNL     1     -13.389   9.356  71.305  1.00  0.00    -0.347 OA 
HETATM   11  C   UNL     1     -12.660  10.494  71.225  1.00  0.00    -0.426 C  
HETATM   12  O   UNL     1     -13.091  11.585  71.561  1.00  0.00    -0.422 OA 
ENDBRANCH   8   9
BRANCH   8  13
HETATM   13  C   UNL     1     -10.148   8.134  70.244  1.00  0.00    -0.192 C  
HETATM   14  O   UNL     1     -11.967   6.576  70.351  1.00  0.00    -0.397 OA 
HETATM   15  O   UNL     1     -10.280   6.310  71.841  1.00  0.00    -0.197 OA 
HETATM   16  C   UNL     1     -10.791   6.928  70.922  1.00  0.00    -0.244 C  
ENDBRANCH   8  13
ENDBRANCH   7   8
ENDBRANCH   6   7
ENDBRANCH   5   6
BRANCH   5  17
HETATM   17  C   UNL     1      -9.949  13.323  67.373  1.00  0.00    -0.233 C  
BRANCH  17  18
HETATM   18  C   UNL     1      -9.845  14.232  66.116  1.00  0.00    -0.316 C  
BRANCH  18  19
HETATM   19  N   UNL     1     -10.877  15.332  66.032  1.00  0.00    -0.327 NA 
BRANCH  19  20
HETATM   20  C   UNL     1     -11.329  15.416  64.585  1.00  0.00    -0.355 C  
HETATM   21  O   UNL     1     -12.490  13.874  63.108  1.00  0.00    -0.766 OA 
HETATM   22  O   UNL     1     -13.132  13.982  65.277  1.00  0.00    -0.782 OA 
HETATM   23  C   UNL     1     -12.353  14.341  64.229  1.00  0.00    -0.377 C  
ENDBRANCH  19  20
BRANCH  19  24
HETATM   24  C   UNL     1     -10.190  16.642  66.351  1.00  0.00    -0.315 C  
HETATM   25  C   UNL     1     -10.766  17.331  67.584  1.00  0.00    -0.307 C  
HETATM   26  O   UNL     1     -10.763  18.539  67.755  1.00  0.00    -0.410 OA 
HETATM   27  O   UNL     1     -11.217  16.453  68.510  1.00  0.00    -0.358 OA 
ENDBRANCH  19  24
ENDBRANCH  18  19
ENDBRANCH  17  18
ENDBRANCH   5  17
ENDBRANCH   3   5
TORSDOF 11
ENDMDL
MODEL       60
REMARK 921   NORMALIZED FREE ENERGY PREDICTED BY IDOCK:   -5.19 KCAL/MOL
REMARK 922        TOTAL FREE ENERGY PREDICTED BY IDOCK:  -10.26 KCAL/MOL
REMARK 923 INTER-LIGAND FREE ENERGY PREDICTED BY IDOCK:   -8.97 KCAL/MOL
REMARK 924 INTRA-LIGAND FREE ENERGY PREDICTED BY IDOCK:   -1.29 KCAL/MOL
REMARK 927      BINDING AFFINITY PREDICTED BY RF-SCORE:    0.00 PKD
ROOT
HETATM    1  O   UNL     1     -13.242  14.178  65.345  1.00  0.00    -0.741 OA 
HETATM    2  C   UNL     1     -12.270  13.853  64.462  1.00  0.00    -0.417 C  
HETATM    3  C   UNL     1     -10.874  13.902  65.080  1.00  0.00    -0.382 C  
HETATM    4  O   UNL     1     -12.488  13.594  63.288  1.00  0.00    -0.801 OA 
ENDROOT
BRANCH   3   5
HETATM    5  N   UNL     1     -10.869  13.538  66.540  1.00  0.00    -0.282 NA 
BRANCH   5   6
HETATM    6  C   UNL     1     -11.098  12.061  66.676  1.00  0.00    -0.310 C  
BRANCH   6   7
HETATM    7  C   UNL     1     -11.842  11.642  67.979  1.00  0.00    -0.225 C  
BRANCH   7   8
HETATM    8  N   UNL     1     -11.301  10.438  68.702  1.00  0.00    -0.244 NA 
BRANCH   8   9
HETATM    9  C   UNL     1     -11.306  10.762  70.185  1.00  0.00    -0.309 C  
HETATM   10  O   UNL     1     -11.596   8.399  70.517  1.00  0.00    -0.238 OA 
HETATM   11  C   UNL     1     -11.861   9.621  71.035  1.00  0.00    -0.347 C  
HETATM   12  O   UNL     1     -12.459   9.781  72.088  1.00  0.00    -0.336 OA 
ENDBRANCH   8   9
BRANCH   8  13
HETATM   13  C   UNL     1      -9.856  10.265  68.296  1.00  0.00    -0.146 C  
HETATM   14  O   UNL     1     -10.623   8.378  67.032  1.00  0.00    -0.314 OA 
HETATM   15  O   UNL     1      -8.494   8.316  67.803  1.00  0.00    -0.129 OA 
HETATM   16  C   UNL     1      -9.570   8.884  67.715  1.00  0.00    -0.147 C  
ENDBRANCH   8  13
ENDBRANCH   7   8
ENDBRANCH   6   7
ENDBRANCH   5   6
BRANCH   5  17
HETATM   17  C   UNL     1      -9.522  13.860  67.110  1.00  0.00    -0.246 C  
BRANCH  17  18
HETATM   18  C   UNL     1      -9.015  15.321  66.940  1.00  0.00    -0.249 C  
BRANCH  18  19
HETATM   19  N   UNL     1      -9.748  16.354  67.763  1.00  0.00    -0.233 NA 
BRANCH  19  20
HETATM   20  C   UNL     1      -8.932  17.634  67.707  1.00  0.00    -0.247 C  
HETATM   21  O   UNL     1      -8.228  19.086  65.890  1.00  0.00    -0.465 OA 
HETATM   22  O   UNL     1     -10.304  18.186  65.811  1.00  0.00    -0.586 OA 
HETATM   23  C   UNL     1      -9.089  18.371  66.379  1.00  0.00    -0.261 C  
ENDBRANCH  19  20
BRANCH  19  24
HETATM   24  C   UNL     1      -9.740  15.895  69.204  1.00  0.00    -0.249 C  
HETATM   25  C   UNL     1     -11.123  15.931  69.846  1.00  0.00    -0.343 C  
HETATM   26  O   UNL     1     -11.318  16.102  71.039  1.00  0.00    -0.387 OA 
HETATM   27  O   UNL     1     -12.117  15.678  68.963  1.00  0.00    -0.337 OA 
ENDBRANCH  19  24
ENDBRANCH  18  19
ENDBRANCH  17  18
ENDBRANCH   5  17
ENDBRANCH   3   5
TORSDOF 11
ENDMDL
MODEL       61
REMARK 921   NORMALIZED FREE ENERGY PREDICTED BY IDOCK:   -5.18 KCAL/MOL
REMARK 922        TOTAL FREE ENERGY PREDICTED BY IDOCK:  -10.25 KCAL/MOL
REMARK 923 INTER-LIGAND FREE ENERGY PREDICTED BY IDOCK:   -8.94 KCAL/MOL
REMARK 924 INTRA-LIGAND FREE ENERGY PREDICTED BY IDOCK:   -1.30 KCAL/MOL
REMARK 927      BINDING AFFINITY PREDICTED BY RF-SCORE:    0.00 PKD
ROOT
HETATM    1  O   UNL     1     -12.092   8.823  71.059  1.00  0.00    -0.289 OA 
HETATM    2  C   UNL     1     -10.864   9.389  71.000  1.00  0.00    -0.336 C  
HETATM    3  C   UNL     1     -10.744  10.420  69.881  1.00  0.00    -0.279 C  
HETATM    4  O   UNL     1      -9.942   9.070  71.737  1.00  0.00    -0.325 OA 
ENDROOT
BRANCH   3   5
HETATM    5  N   UNL     1     -12.037  11.140  69.610  1.00  0.00    -0.336 NA 
BRANCH   5   6
HETATM    6  C   UNL     1     -12.017  12.465  70.315  1.00  0.00    -0.289 C  
BRANCH   6   7
HETATM    7  C   UNL     1     -12.095  13.700  69.368  1.00  0.00    -0.314 C  
BRANCH   7   8
HETATM    8  N   UNL     1     -11.886  15.046  70.006  1.00  0.00    -0.298 NA 
BRANCH   8   9
HETATM    9  C   UNL     1     -13.161  15.394  70.754  1.00  0.00    -0.424 C  
HETATM   10  O   UNL     1     -11.725  16.544  72.302  1.00  0.00    -0.501 OA 
HETATM   11  C   UNL     1     -12.894  15.874  72.180  1.00  0.00    -0.423 C  
HETATM   12  O   UNL     1     -13.661  15.699  73.114  1.00  0.00    -0.520 OA 
ENDBRANCH   8   9
BRANCH   8  13
HETATM   13  C   UNL     1     -11.736  16.065  68.900  1.00  0.00    -0.319 C  
HETATM   14  O   UNL     1      -9.407  16.077  69.472  1.00  0.00    -0.241 OA 
HETATM   15  O   UNL     1     -10.274  17.980  68.596  1.00  0.00    -0.376 OA 
HETATM   16  C   UNL     1     -10.419  16.831  68.981  1.00  0.00    -0.336 C  
ENDBRANCH   8  13
ENDBRANCH   7   8
ENDBRANCH   6   7
ENDBRANCH   5   6
BRANCH   5  17
HETATM   17  C   UNL     1     -12.146  11.392  68.137  1.00  0.00     0.041 C  
BRANCH  17  18
HETATM   18  C   UNL     1     -10.989  10.863  67.243  1.00  0.00    -0.294 C  
BRANCH  18  19
HETATM   19  N   UNL     1     -10.867  11.525  65.891  1.00  0.00    -0.275 NA 
BRANCH  19  20
HETATM   20  C   UNL     1      -9.390  11.773  65.643  1.00  0.00    -0.152 C  
HETATM   21  O   UNL     1      -7.465  10.305  65.427  1.00  0.00    -0.140 OA 
HETATM   22  O   UNL     1      -9.431   9.650  64.515  1.00  0.00    -0.253 OA 
HETATM   23  C   UNL     1      -8.650  10.511  65.209  1.00  0.00    -0.177 C  
ENDBRANCH  19  20
BRANCH  19  24
HETATM   24  C   UNL     1     -11.529  12.883  65.976  1.00  0.00    -0.340 C  
HETATM   25  C   UNL     1     -12.504  13.142  64.832  1.00  0.00    -0.433 C  
HETATM   26  O   UNL     1     -12.762  14.251  64.392  1.00  0.00    -0.661 OA 
HETATM   27  O   UNL     1     -13.115  12.013  64.400  1.00  0.00    -0.655 OA 
ENDBRANCH  19  24
ENDBRANCH  18  19
ENDBRANCH  17  18
ENDBRANCH   5  17
ENDBRANCH   3   5
TORSDOF 11
ENDMDL
MODEL       62
REMARK 921   NORMALIZED FREE ENERGY PREDICTED BY IDOCK:   -5.17 KCAL/MOL
REMARK 922        TOTAL FREE ENERGY PREDICTED BY IDOCK:  -10.24 KCAL/MOL
REMARK 923 INTER-LIGAND FREE ENERGY PREDICTED BY IDOCK:   -8.96 KCAL/MOL
REMARK 924 INTRA-LIGAND FREE ENERGY PREDICTED BY IDOCK:   -1.28 KCAL/MOL
REMARK 927      BINDING AFFINITY PREDICTED BY RF-SCORE:    0.00 PKD
ROOT
HETATM    1  O   UNL     1     -13.174  12.499  64.575  1.00  0.00    -0.832 OA 
HETATM    2  C   UNL     1     -11.884  12.097  64.491  1.00  0.00    -0.343 C  
HETATM    3  C   UNL     1     -11.118  12.301  65.795  1.00  0.00    -0.323 C  
HETATM    4  O   UNL     1     -11.382  11.663  63.464  1.00  0.00    -0.417 OA 
ENDROOT
BRANCH   3   5
HETATM    5  N   UNL     1     -11.988  12.151  67.013  1.00  0.00    -0.598 NA 
BRANCH   5   6
HETATM    6  C   UNL     1     -11.364  11.148  67.939  1.00  0.00    -0.309 C  
BRANCH   6   7
HETATM    7  C   UNL     1     -10.219  10.306  67.299  1.00  0.00    -0.218 C  
BRANCH   7   8
HETATM    8  N   UNL     1     -10.054   8.901  67.812  1.00  0.00    -0.197 NA 
BRANCH   8   9
HETATM    9  C   UNL     1      -8.777   8.868  68.634  1.00  0.00    -0.134 C  
HETATM   10  O   UNL     1     -10.212   8.432  70.513  1.00  0.00    -0.191 OA 
HETATM   11  C   UNL     1      -9.040   8.992  70.134  1.00  0.00    -0.188 C  
HETATM   12  O   UNL     1      -8.267   9.515  70.921  1.00  0.00    -0.291 OA 
ENDBRANCH   8   9
BRANCH   8  13
HETATM   13  C   UNL     1      -9.834   7.996  66.623  1.00  0.00    -0.252 C  
HETATM   14  O   UNL     1     -11.244   6.436  67.774  1.00  0.00    -0.323 OA 
HETATM   15  O   UNL     1      -9.674   5.585  66.381  1.00  0.00    -0.152 OA 
HETATM   16  C   UNL     1     -10.208   6.545  66.911  1.00  0.00    -0.215 C  
ENDBRANCH   8  13
ENDBRANCH   7   8
ENDBRANCH   6   7
ENDBRANCH   5   6
BRANCH   5  17
HETATM   17  C   UNL     1     -12.055  13.469  67.722  1.00  0.00    -0.280 C  
BRANCH  17  18
HETATM   18  C   UNL     1     -11.977  13.439  69.275  1.00  0.00    -0.317 C  
BRANCH  18  19
HETATM   19  N   UNL     1     -11.891  14.793  69.939  1.00  0.00    -0.297 NA 
BRANCH  19  20
HETATM   20  C   UNL     1     -13.231  15.054  70.603  1.00  0.00    -0.295 C  
HETATM   21  O   UNL     1     -13.904  15.447  72.905  1.00  0.00    -0.486 OA 
HETATM   22  O   UNL     1     -11.969  16.366  72.174  1.00  0.00    -0.509 OA 
HETATM   23  C   UNL     1     -13.086  15.617  72.015  1.00  0.00    -0.459 C  
ENDBRANCH  19  20
BRANCH  19  24
HETATM   24  C   UNL     1     -11.731  15.836  68.855  1.00  0.00    -0.394 C  
HETATM   25  C   UNL     1     -10.426  16.616  68.968  1.00  0.00    -0.328 C  
HETATM   26  O   UNL     1     -10.281  17.765  68.583  1.00  0.00    -0.355 OA 
HETATM   27  O   UNL     1      -9.415  15.873  69.477  1.00  0.00    -0.260 OA 
ENDBRANCH  19  24
ENDBRANCH  18  19
ENDBRANCH  17  18
ENDBRANCH   5  17
ENDBRANCH   3   5
TORSDOF 11
ENDMDL
MODEL       63
REMARK 921   NORMALIZED FREE ENERGY PREDICTED BY IDOCK:   -5.16 KCAL/MOL
REMARK 922        TOTAL FREE ENERGY PREDICTED BY IDOCK:  -10.22 KCAL/MOL
REMARK 923 INTER-LIGAND FREE ENERGY PREDICTED BY IDOCK:   -8.67 KCAL/MOL
REMARK 924 INTRA-LIGAND FREE ENERGY PREDICTED BY IDOCK:   -1.56 KCAL/MOL
REMARK 927      BINDING AFFINITY PREDICTED BY RF-SCORE:    0.00 PKD
ROOT
HETATM    1  O   UNL     1     -10.570  14.191  64.533  1.00  0.00    -0.406 OA 
HETATM    2  C   UNL     1     -11.877  14.456  64.765  1.00  0.00    -0.433 C  
HETATM    3  C   UNL     1     -12.261  14.282  66.232  1.00  0.00    -0.410 C  
HETATM    4  O   UNL     1     -12.668  14.756  63.883  1.00  0.00    -0.794 OA 
ENDROOT
BRANCH   3   5
HETATM    5  N   UNL     1     -11.135  14.613  67.173  1.00  0.00    -0.316 NA 
BRANCH   5   6
HETATM    6  C   UNL     1     -11.686  15.366  68.349  1.00  0.00    -0.316 C  
BRANCH   6   7
HETATM    7  C   UNL     1     -10.969  16.719  68.642  1.00  0.00    -0.298 C  
BRANCH   7   8
HETATM    8  N   UNL     1     -10.092  17.261  67.546  1.00  0.00    -0.304 NA 
BRANCH   8   9
HETATM    9  C   UNL     1      -8.667  17.267  68.072  1.00  0.00    -0.231 C  
HETATM   10  O   UNL     1      -8.169  15.816  66.221  1.00  0.00    -0.243 OA 
HETATM   11  C   UNL     1      -7.819  16.139  67.487  1.00  0.00    -0.147 C  
HETATM   12  O   UNL     1      -6.901  15.596  68.083  1.00  0.00    -0.110 OA 
ENDBRANCH   8   9
BRANCH   8  13
HETATM   13  C   UNL     1     -10.479  18.702  67.312  1.00  0.00    -0.423 C  
HETATM   14  O   UNL     1     -10.910  18.032  65.050  1.00  0.00    -0.738 OA 
HETATM   15  O   UNL     1     -10.284  20.182  65.396  1.00  0.00    -0.287 OA 
HETATM   16  C   UNL     1     -10.520  19.067  65.831  1.00  0.00    -0.399 C  
ENDBRANCH   8  13
ENDBRANCH   7   8
ENDBRANCH   6   7
ENDBRANCH   5   6
BRANCH   5  17
HETATM   17  C   UNL     1     -10.533  13.335  67.672  1.00  0.00    -0.229 C  
BRANCH  17  18
HETATM   18  C   UNL     1     -10.984  12.845  69.077  1.00  0.00    -0.197 C  
BRANCH  18  19
HETATM   19  N   UNL     1     -11.289  11.369  69.175  1.00  0.00    -0.261 NA 
BRANCH  19  20
HETATM   20  C   UNL     1     -11.496  10.858  67.761  1.00  0.00    -0.243 C  
HETATM   21  O   UNL     1     -10.220   9.372  66.321  1.00  0.00    -0.274 OA 
HETATM   22  O   UNL     1     -10.360   8.881  68.526  1.00  0.00    -0.195 OA 
HETATM   23  C   UNL     1     -10.620   9.649  67.442  1.00  0.00    -0.268 C  
ENDBRANCH  19  20
BRANCH  19  24
HETATM   24  C   UNL     1     -12.612  11.213  69.893  1.00  0.00    -0.105 C  
HETATM   25  C   UNL     1     -12.584  10.125  70.961  1.00  0.00    -0.381 C  
HETATM   26  O   UNL     1     -13.561   9.478  71.304  1.00  0.00    -0.360 OA 
HETATM   27  O   UNL     1     -11.370   9.998  71.548  1.00  0.00    -0.301 OA 
ENDBRANCH  19  24
ENDBRANCH  18  19
ENDBRANCH  17  18
ENDBRANCH   5  17
ENDBRANCH   3   5
TORSDOF 11
ENDMDL
MODEL       64
REMARK 921   NORMALIZED FREE ENERGY PREDICTED BY IDOCK:   -5.16 KCAL/MOL
REMARK 922        TOTAL FREE ENERGY PREDICTED BY IDOCK:  -10.21 KCAL/MOL
REMARK 923 INTER-LIGAND FREE ENERGY PREDICTED BY IDOCK:   -9.31 KCAL/MOL
REMARK 924 INTRA-LIGAND FREE ENERGY PREDICTED BY IDOCK:   -0.91 KCAL/MOL
REMARK 927      BINDING AFFINITY PREDICTED BY RF-SCORE:    0.00 PKD
ROOT
HETATM    1  O   UNL     1     -12.321  11.814  65.258  1.00  0.00    -0.223 OA 
HETATM    2  C   UNL     1     -12.543  13.140  65.104  1.00  0.00    -0.465 C  
HETATM    3  C   UNL     1     -12.505  13.901  66.427  1.00  0.00    -0.370 C  
HETATM    4  O   UNL     1     -12.793  13.659  64.025  1.00  0.00    -0.582 OA 
ENDROOT
BRANCH   3   5
HETATM    5  N   UNL     1     -11.549  13.298  67.419  1.00  0.00    -0.331 NA 
BRANCH   5   6
HETATM    6  C   UNL     1     -10.183  13.883  67.200  1.00  0.00    -0.258 C  
BRANCH   6   7
HETATM    7  C   UNL     1      -9.898  15.176  68.022  1.00  0.00    -0.213 C  
BRANCH   7   8
HETATM    8  N   UNL     1      -9.631  16.427  67.230  1.00  0.00    -0.232 NA 
BRANCH   8   9
HETATM    9  C   UNL     1      -9.738  16.062  65.760  1.00  0.00    -0.305 C  
HETATM   10  O   UNL     1     -10.743  18.228  65.481  1.00  0.00    -0.596 OA 
HETATM   11  C   UNL     1     -10.708  16.964  64.998  1.00  0.00    -0.040 C  
HETATM   12  O   UNL     1     -11.367  16.599  64.037  1.00  0.00    -1.120 OA 
ENDBRANCH   8   9
BRANCH   8  13
HETATM   13  C   UNL     1      -8.198  16.836  67.478  1.00  0.00    -0.173 C  
HETATM   14  O   UNL     1      -9.122  18.668  68.718  1.00  0.00    -0.321 OA 
HETATM   15  O   UNL     1      -7.108  18.991  67.731  1.00  0.00    -0.224 OA 
HETATM   16  C   UNL     1      -8.072  18.278  67.957  1.00  0.00    -0.270 C  
ENDBRANCH   8  13
ENDBRANCH   7   8
ENDBRANCH   6   7
ENDBRANCH   5   6
BRANCH   5  17
HETATM   17  C   UNL     1     -11.999  13.659  68.801  1.00  0.00    -0.359 C  
BRANCH  17  18
HETATM   18  C   UNL     1     -12.099  12.502  69.836  1.00  0.00    -0.252 C  
BRANCH  18  19
HETATM   19  N   UNL     1     -12.466  12.925  71.238  1.00  0.00    -0.278 NA 
BRANCH  19  20
HETATM   20  C   UNL     1     -13.435  11.890  71.781  1.00  0.00    -0.086 C  
HETATM   21  O   UNL     1     -13.693   9.499  71.427  1.00  0.00    -0.345 OA 
HETATM   22  O   UNL     1     -11.600  10.352  71.559  1.00  0.00    -0.202 OA 
HETATM   23  C   UNL     1     -12.950  10.459  71.557  1.00  0.00    -0.458 C  
ENDBRANCH  19  20
BRANCH  19  24
HETATM   24  C   UNL     1     -13.227  14.229  71.148  1.00  0.00    -0.321 C  
HETATM   25  C   UNL     1     -13.017  15.125  72.365  1.00  0.00    -0.362 C  
HETATM   26  O   UNL     1     -13.840  15.930  72.771  1.00  0.00    -0.584 OA 
HETATM   27  O   UNL     1     -11.785  14.989  72.908  1.00  0.00    -0.340 OA 
ENDBRANCH  19  24
ENDBRANCH  18  19
ENDBRANCH  17  18
ENDBRANCH   5  17
ENDBRANCH   3   5
TORSDOF 11
ENDMDL
MODEL       65
REMARK 921   NORMALIZED FREE ENERGY PREDICTED BY IDOCK:   -5.16 KCAL/MOL
REMARK 922        TOTAL FREE ENERGY PREDICTED BY IDOCK:  -10.21 KCAL/MOL
REMARK 923 INTER-LIGAND FREE ENERGY PREDICTED BY IDOCK:   -8.75 KCAL/MOL
REMARK 924 INTRA-LIGAND FREE ENERGY PREDICTED BY IDOCK:   -1.46 KCAL/MOL
REMARK 927      BINDING AFFINITY PREDICTED BY RF-SCORE:    0.00 PKD
ROOT
HETATM    1  O   UNL     1     -11.554  14.984  71.544  1.00  0.00    -0.347 OA 
HETATM    2  C   UNL     1     -12.558  15.341  70.710  1.00  0.00    -0.417 C  
HETATM    3  C   UNL     1     -12.152  15.278  69.240  1.00  0.00    -0.249 C  
HETATM    4  O   UNL     1     -13.654  15.716  71.100  1.00  0.00    -0.582 OA 
ENDROOT
BRANCH   3   5
HETATM    5  N   UNL     1     -11.142  14.199  68.959  1.00  0.00    -0.256 NA 
BRANCH   5   6
HETATM    6  C   UNL     1     -11.722  13.231  67.969  1.00  0.00    -0.359 C  
BRANCH   6   7
HETATM    7  C   UNL     1     -11.125  11.794  68.048  1.00  0.00    -0.242 C  
BRANCH   7   8
HETATM    8  N   UNL     1     -10.490  11.263  66.791  1.00  0.00    -0.238 NA 
BRANCH   8   9
HETATM    9  C   UNL     1      -9.065  11.785  66.751  1.00  0.00    -0.194 C  
HETATM   10  O   UNL     1      -8.409   9.497  67.097  1.00  0.00    -0.128 OA 
HETATM   11  C   UNL     1      -8.056  10.786  67.316  1.00  0.00    -0.117 C  
HETATM   12  O   UNL     1      -7.023  11.105  67.883  1.00  0.00    -0.067 OA 
ENDBRANCH   8   9
BRANCH   8  13
HETATM   13  C   UNL     1     -11.214  11.872  65.613  1.00  0.00    -0.306 C  
HETATM   14  O   UNL     1     -10.141  10.174  64.304  1.00  0.00    -0.253 OA 
HETATM   15  O   UNL     1     -10.644  12.125  63.266  1.00  0.00    -0.428 OA 
HETATM   16  C   UNL     1     -10.628  11.437  64.274  1.00  0.00    -0.355 C  
ENDBRANCH   8  13
ENDBRANCH   7   8
ENDBRANCH   6   7
ENDBRANCH   5   6
BRANCH   5  17
HETATM   17  C   UNL     1      -9.926  14.826  68.349  1.00  0.00    -0.223 C  
BRANCH  17  18
HETATM   18  C   UNL     1      -9.926  16.375  68.210  1.00  0.00    -0.243 C  
BRANCH  18  19
HETATM   19  N   UNL     1      -9.890  16.893  66.792  1.00  0.00    -0.267 NA 
BRANCH  19  20
HETATM   20  C   UNL     1     -10.054  15.696  65.872  1.00  0.00    -0.353 C  
HETATM   21  O   UNL     1     -11.798  15.008  64.325  1.00  0.00    -0.380 OA 
HETATM   22  O   UNL     1     -11.279  17.208  64.458  1.00  0.00    -1.104 OA 
HETATM   23  C   UNL     1     -11.141  15.911  64.821  1.00  0.00    -0.384 C  
ENDBRANCH  19  20
BRANCH  19  24
HETATM   24  C   UNL     1      -8.509  17.454  66.535  1.00  0.00    -0.264 C  
HETATM   25  C   UNL     1      -8.519  18.954  66.258  1.00  0.00    -0.256 C  
HETATM   26  O   UNL     1      -7.693  19.526  65.564  1.00  0.00    -0.419 OA 
HETATM   27  O   UNL     1      -9.501  19.603  66.926  1.00  0.00    -0.322 OA 
ENDBRANCH  19  24
ENDBRANCH  18  19
ENDBRANCH  17  18
ENDBRANCH   5  17
ENDBRANCH   3   5
TORSDOF 11
ENDMDL
MODEL       66
REMARK 921   NORMALIZED FREE ENERGY PREDICTED BY IDOCK:   -5.13 KCAL/MOL
REMARK 922        TOTAL FREE ENERGY PREDICTED BY IDOCK:  -10.17 KCAL/MOL
REMARK 923 INTER-LIGAND FREE ENERGY PREDICTED BY IDOCK:   -8.95 KCAL/MOL
REMARK 924 INTRA-LIGAND FREE ENERGY PREDICTED BY IDOCK:   -1.22 KCAL/MOL
REMARK 927      BINDING AFFINITY PREDICTED BY RF-SCORE:    0.00 PKD
ROOT
HETATM    1  O   UNL     1     -10.574   9.325  71.348  1.00  0.00    -0.314 OA 
HETATM    2  C   UNL     1     -11.902   9.073  71.263  1.00  0.00    -0.312 C  
HETATM    3  C   UNL     1     -12.737  10.348  71.169  1.00  0.00    -0.415 C  
HETATM    4  O   UNL     1     -12.376   7.947  71.305  1.00  0.00    -0.307 OA 
ENDROOT
BRANCH   3   5
HETATM    5  N   UNL     1     -12.023  11.461  70.451  1.00  0.00    -0.362 NA 
BRANCH   5   6
HETATM    6  C   UNL     1     -12.398  11.425  68.997  1.00  0.00     0.033 C  
BRANCH   6   7
HETATM    7  C   UNL     1     -11.232  11.030  68.042  1.00  0.00    -0.309 C  
BRANCH   7   8
HETATM    8  N   UNL     1     -11.221  11.693  66.691  1.00  0.00    -0.310 NA 
BRANCH   8   9
HETATM    9  C   UNL     1      -9.768  11.940  66.322  1.00  0.00    -0.229 C  
HETATM   10  O   UNL     1     -10.132  10.349  64.557  1.00  0.00    -0.346 OA 
HETATM   11  C   UNL     1      -9.204  10.864  65.397  1.00  0.00    -0.207 C  
HETATM   12  O   UNL     1      -8.034  10.516  65.388  1.00  0.00    -0.152 OA 
ENDBRANCH   8   9
BRANCH   8  13
HETATM   13  C   UNL     1     -11.874  13.047  66.833  1.00  0.00    -0.380 C  
HETATM   14  O   UNL     1     -13.061  12.487  64.827  1.00  0.00    -0.853 OA 
HETATM   15  O   UNL     1     -12.668  14.683  65.224  1.00  0.00    -0.309 OA 
HETATM   16  C   UNL     1     -12.549  13.513  65.547  1.00  0.00    -0.481 C  
ENDBRANCH   8  13
ENDBRANCH   7   8
ENDBRANCH   6   7
ENDBRANCH   5   6
BRANCH   5  17
HETATM   17  C   UNL     1     -12.478  12.769  71.022  1.00  0.00    -0.277 C  
BRANCH  17  18
HETATM   18  C   UNL     1     -12.535  13.982  70.049  1.00  0.00    -0.281 C  
BRANCH  18  19
HETATM   19  N   UNL     1     -11.886  15.246  70.560  1.00  0.00    -0.295 NA 
BRANCH  19  20
HETATM   20  C   UNL     1     -10.440  15.228  70.098  1.00  0.00    -0.230 C  
HETATM   21  O   UNL     1      -9.390  15.179  67.906  1.00  0.00    -0.184 OA 
HETATM   22  O   UNL     1     -11.248  16.441  68.186  1.00  0.00    -0.346 OA 
HETATM   23  C   UNL     1     -10.293  15.586  68.621  1.00  0.00    -0.219 C  
ENDBRANCH  19  20
BRANCH  19  24
HETATM   24  C   UNL     1     -11.861  15.180  72.072  1.00  0.00    -0.416 C  
HETATM   25  C   UNL     1     -13.024  15.925  72.718  1.00  0.00    -0.483 C  
HETATM   26  O   UNL     1     -12.976  16.438  73.825  1.00  0.00    -0.635 OA 
HETATM   27  O   UNL     1     -14.149  15.895  71.965  1.00  0.00    -0.333 OA 
ENDBRANCH  19  24
ENDBRANCH  18  19
ENDBRANCH  17  18
ENDBRANCH   5  17
ENDBRANCH   3   5
TORSDOF 11
ENDMDL
MODEL       67
REMARK 921   NORMALIZED FREE ENERGY PREDICTED BY IDOCK:   -5.12 KCAL/MOL
REMARK 922        TOTAL FREE ENERGY PREDICTED BY IDOCK:  -10.16 KCAL/MOL
REMARK 923 INTER-LIGAND FREE ENERGY PREDICTED BY IDOCK:   -8.76 KCAL/MOL
REMARK 924 INTRA-LIGAND FREE ENERGY PREDICTED BY IDOCK:   -1.40 KCAL/MOL
REMARK 927      BINDING AFFINITY PREDICTED BY RF-SCORE:    0.00 PKD
ROOT
HETATM    1  O   UNL     1     -12.568  13.676  62.973  1.00  0.00    -0.729 OA 
HETATM    2  C   UNL     1     -11.802  12.799  63.663  1.00  0.00    -0.532 C  
HETATM    3  C   UNL     1     -10.936  13.480  64.720  1.00  0.00    -0.373 C  
HETATM    4  O   UNL     1     -11.776  11.600  63.427  1.00  0.00    -0.402 OA 
ENDROOT
BRANCH   3   5
HETATM    5  N   UNL     1     -11.587  14.703  65.308  1.00  0.00    -0.351 NA 
BRANCH   5   6
HETATM    6  C   UNL     1     -12.055  14.387  66.699  1.00  0.00    -0.367 C  
BRANCH   6   7
HETATM    7  C   UNL     1     -11.751  12.931  67.165  1.00  0.00    -0.377 C  
BRANCH   7   8
HETATM    8  N   UNL     1     -11.146  12.779  68.534  1.00  0.00    -0.251 NA 
BRANCH   8   9
HETATM    9  C   UNL     1     -11.000  14.173  69.120  1.00  0.00    -0.251 C  
HETATM   10  O   UNL     1     -12.354  13.357  70.932  1.00  0.00    -0.366 OA 
HETATM   11  C   UNL     1     -12.021  14.459  70.220  1.00  0.00    -0.321 C  
HETATM   12  O   UNL     1     -12.476  15.567  70.457  1.00  0.00    -0.399 OA 
ENDBRANCH   8   9
BRANCH   8  13
HETATM   13  C   UNL     1      -9.751  12.225  68.367  1.00  0.00    -0.191 C  
HETATM   14  O   UNL     1     -10.730  10.093  68.859  1.00  0.00    -0.203 OA 
HETATM   15  O   UNL     1      -8.555  10.393  69.420  1.00  0.00    -0.165 OA 
HETATM   16  C   UNL     1      -9.597  10.828  68.958  1.00  0.00    -0.180 C  
ENDBRANCH   8  13
ENDBRANCH   7   8
ENDBRANCH   6   7
ENDBRANCH   5   6
BRANCH   5  17
HETATM   17  C   UNL     1     -10.566  15.796  65.392  1.00  0.00    -0.421 C  
BRANCH  17  18
HETATM   18  C   UNL     1     -10.597  16.694  66.660  1.00  0.00    -0.203 C  
BRANCH  18  19
HETATM   19  N   UNL     1      -9.279  17.337  67.025  1.00  0.00    -0.237 NA 
BRANCH  19  20
HETATM   20  C   UNL     1      -9.281  18.734  66.432  1.00  0.00    -0.307 C  
HETATM   21  O   UNL     1      -9.851  20.923  67.322  1.00  0.00    -0.444 OA 
HETATM   22  O   UNL     1      -8.760  19.462  68.664  1.00  0.00    -0.361 OA 
HETATM   23  C   UNL     1      -9.350  19.823  67.500  1.00  0.00    -0.340 C  
ENDBRANCH  19  20
BRANCH  19  24
HETATM   24  C   UNL     1      -8.177  16.569  66.328  1.00  0.00    -0.325 C  
HETATM   25  C   UNL     1      -6.897  16.486  67.153  1.00  0.00    -0.195 C  
HETATM   26  O   UNL     1      -5.779  16.391  66.672  1.00  0.00    -0.323 OA 
HETATM   27  O   UNL     1      -7.135  16.452  68.486  1.00  0.00    -0.144 OA 
ENDBRANCH  19  24
ENDBRANCH  18  19
ENDBRANCH  17  18
ENDBRANCH   5  17
ENDBRANCH   3   5
TORSDOF 11
ENDMDL
MODEL       68
REMARK 921   NORMALIZED FREE ENERGY PREDICTED BY IDOCK:   -5.12 KCAL/MOL
REMARK 922        TOTAL FREE ENERGY PREDICTED BY IDOCK:  -10.15 KCAL/MOL
REMARK 923 INTER-LIGAND FREE ENERGY PREDICTED BY IDOCK:   -8.54 KCAL/MOL
REMARK 924 INTRA-LIGAND FREE ENERGY PREDICTED BY IDOCK:   -1.61 KCAL/MOL
REMARK 927      BINDING AFFINITY PREDICTED BY RF-SCORE:    0.00 PKD
ROOT
HETATM    1  O   UNL     1     -11.116  11.344  64.080  1.00  0.00    -0.362 OA 
HETATM    2  C   UNL     1     -12.157  12.194  63.920  1.00  0.00    -0.488 C  
HETATM    3  C   UNL     1     -12.226  13.252  65.019  1.00  0.00    -0.432 C  
HETATM    4  O   UNL     1     -12.975  12.093  63.018  1.00  0.00    -0.535 OA 
ENDROOT
BRANCH   3   5
HETATM    5  N   UNL     1     -10.869  13.639  65.543  1.00  0.00    -0.288 NA 
BRANCH   5   6
HETATM    6  C   UNL     1     -10.631  15.093  65.255  1.00  0.00    -0.411 C  
BRANCH   6   7
HETATM    7  C   UNL     1     -10.898  16.040  66.464  1.00  0.00    -0.167 C  
BRANCH   7   8
HETATM    8  N   UNL     1      -9.713  16.801  66.992  1.00  0.00    -0.244 NA 
BRANCH   8   9
HETATM    9  C   UNL     1      -9.922  18.264  66.642  1.00  0.00    -0.364 C  
HETATM   10  O   UNL     1      -8.772  18.735  68.701  1.00  0.00    -0.337 OA 
HETATM   11  C   UNL     1      -9.709  19.191  67.837  1.00  0.00    -0.333 C  
HETATM   12  O   UNL     1     -10.299  20.249  67.994  1.00  0.00    -0.359 OA 
ENDBRANCH   8   9
BRANCH   8  13
HETATM   13  C   UNL     1      -8.490  16.339  66.235  1.00  0.00    -0.334 C  
HETATM   14  O   UNL     1      -7.896  15.184  68.250  1.00  0.00    -0.118 OA 
HETATM   15  O   UNL     1      -6.205  15.864  66.904  1.00  0.00    -0.302 OA 
HETATM   16  C   UNL     1      -7.397  15.801  67.152  1.00  0.00    -0.222 C  
ENDBRANCH   8  13
ENDBRANCH   7   8
ENDBRANCH   6   7
ENDBRANCH   5   6
BRANCH   5  17
HETATM   17  C   UNL     1     -10.854  13.444  67.028  1.00  0.00    -0.273 C  
BRANCH  17  18
HETATM   18  C   UNL     1     -11.903  12.462  67.621  1.00  0.00    -0.295 C  
BRANCH  18  19
HETATM   19  N   UNL     1     -11.955  12.412  69.130  1.00  0.00    -0.274 NA 
BRANCH  19  20
HETATM   20  C   UNL     1     -11.291  13.676  69.645  1.00  0.00    -0.161 C  
HETATM   21  O   UNL     1     -12.142  15.704  70.679  1.00  0.00    -0.352 OA 
HETATM   22  O   UNL     1     -13.088  13.726  71.242  1.00  0.00    -0.329 OA 
HETATM   23  C   UNL     1     -12.209  14.491  70.552  1.00  0.00    -0.332 C  
ENDBRANCH  19  20
BRANCH  19  24
HETATM   24  C   UNL     1     -11.099  11.252  69.588  1.00  0.00    -0.206 C  
HETATM   25  C   UNL     1     -11.760  10.422  70.684  1.00  0.00    -0.351 C  
HETATM   26  O   UNL     1     -11.144   9.799  71.534  1.00  0.00    -0.343 OA 
HETATM   27  O   UNL     1     -13.108  10.386  70.572  1.00  0.00    -0.328 OA 
ENDBRANCH  19  24
ENDBRANCH  18  19
ENDBRANCH  17  18
ENDBRANCH   5  17
ENDBRANCH   3   5
TORSDOF 11
ENDMDL
MODEL       69
REMARK 921   NORMALIZED FREE ENERGY PREDICTED BY IDOCK:   -5.08 KCAL/MOL
REMARK 922        TOTAL FREE ENERGY PREDICTED BY IDOCK:  -10.09 KCAL/MOL
REMARK 923 INTER-LIGAND FREE ENERGY PREDICTED BY IDOCK:   -8.72 KCAL/MOL
REMARK 924 INTRA-LIGAND FREE ENERGY PREDICTED BY IDOCK:   -1.37 KCAL/MOL
REMARK 927      BINDING AFFINITY PREDICTED BY RF-SCORE:    0.00 PKD
ROOT
HETATM    1  O   UNL     1     -10.776   8.142  66.743  1.00  0.00    -0.278 OA 
HETATM    2  C   UNL     1      -9.624   8.835  66.899  1.00  0.00    -0.190 C  
HETATM    3  C   UNL     1      -9.863  10.305  67.238  1.00  0.00    -0.182 C  
HETATM    4  O   UNL     1      -8.517   8.343  66.740  1.00  0.00    -0.110 OA 
ENDROOT
BRANCH   3   5
HETATM    5  N   UNL     1     -11.115  10.522  68.044  1.00  0.00    -0.287 NA 
BRANCH   5   6
HETATM    6  C   UNL     1     -10.761  10.532  69.503  1.00  0.00    -0.255 C  
BRANCH   6   7
HETATM    7  C   UNL     1     -11.521   9.472  70.357  1.00  0.00    -0.242 C  
BRANCH   7   8
HETATM    8  N   UNL     1     -10.707   8.310  70.860  1.00  0.00    -0.214 NA 
BRANCH   8   9
HETATM    9  C   UNL     1     -11.421   7.040  70.431  1.00  0.00    -0.310 C  
HETATM   10  O   UNL     1      -9.233   6.211  69.880  1.00  0.00    -0.147 OA 
HETATM   11  C   UNL     1     -10.547   6.138  69.562  1.00  0.00    -0.287 C  
HETATM   12  O   UNL     1     -10.980   5.404  68.688  1.00  0.00    -0.043 OA 
ENDBRANCH   8   9
BRANCH   8  13
HETATM   13  C   UNL     1     -10.738   8.342  72.370  1.00  0.00    -0.341 C  
HETATM   14  O   UNL     1      -8.404   8.874  72.228  1.00  0.00    -0.384 OA 
HETATM   15  O   UNL     1      -9.107   7.764  74.074  1.00  0.00    -0.263 OA 
HETATM   16  C   UNL     1      -9.345   8.266  72.988  1.00  0.00    -0.240 C  
ENDBRANCH   8  13
ENDBRANCH   7   8
ENDBRANCH   6   7
ENDBRANCH   5   6
BRANCH   5  17
HETATM   17  C   UNL     1     -11.689  11.859  67.689  1.00  0.00    -0.275 C  
BRANCH  17  18
HETATM   18  C   UNL     1     -10.740  12.868  66.982  1.00  0.00    -0.257 C  
BRANCH  18  19
HETATM   19  N   UNL     1     -11.263  13.439  65.685  1.00  0.00    -0.291 NA 
BRANCH  19  20
HETATM   20  C   UNL     1     -10.319  12.989  64.583  1.00  0.00    -0.352 C  
HETATM   21  O   UNL     1     -10.199  10.993  63.202  1.00  0.00    -0.328 OA 
HETATM   22  O   UNL     1     -12.238  11.853  63.683  1.00  0.00    -0.494 OA 
HETATM   23  C   UNL     1     -10.886  11.833  63.763  1.00  0.00    -0.424 C  
ENDBRANCH  19  20
BRANCH  19  24
HETATM   24  C   UNL     1     -11.156  14.946  65.762  1.00  0.00    -0.342 C  
HETATM   25  C   UNL     1     -11.725  15.646  64.532  1.00  0.00    -0.220 C  
HETATM   26  O   UNL     1     -11.336  16.727  64.120  1.00  0.00    -1.194 OA 
HETATM   27  O   UNL     1     -12.765  14.976  63.982  1.00  0.00    -0.772 OA 
ENDBRANCH  19  24
ENDBRANCH  18  19
ENDBRANCH  17  18
ENDBRANCH   5  17
ENDBRANCH   3   5
TORSDOF 11
ENDMDL
MODEL       70
REMARK 921   NORMALIZED FREE ENERGY PREDICTED BY IDOCK:   -5.08 KCAL/MOL
REMARK 922        TOTAL FREE ENERGY PREDICTED BY IDOCK:  -10.09 KCAL/MOL
REMARK 923 INTER-LIGAND FREE ENERGY PREDICTED BY IDOCK:   -8.62 KCAL/MOL
REMARK 924 INTRA-LIGAND FREE ENERGY PREDICTED BY IDOCK:   -1.47 KCAL/MOL
REMARK 927      BINDING AFFINITY PREDICTED BY RF-SCORE:    0.00 PKD
ROOT
HETATM    1  O   UNL     1     -10.403  12.492  64.740  1.00  0.00    -0.292 OA 
HETATM    2  C   UNL     1     -11.515  13.171  65.105  1.00  0.00    -0.300 C  
HETATM    3  C   UNL     1     -12.117  12.657  66.410  1.00  0.00    -0.260 C  
HETATM    4  O   UNL     1     -12.005  14.068  64.433  1.00  0.00    -0.420 OA 
ENDROOT
BRANCH   3   5
HETATM    5  N   UNL     1     -11.079  12.129  67.363  1.00  0.00    -0.259 NA 
BRANCH   5   6
HETATM    6  C   UNL     1     -10.648  13.236  68.280  1.00  0.00    -0.251 C  
BRANCH   6   7
HETATM    7  C   UNL     1     -11.616  13.495  69.475  1.00  0.00    -0.294 C  
BRANCH   7   8
HETATM    8  N   UNL     1     -11.679  14.907  69.990  1.00  0.00    -0.276 NA 
BRANCH   8   9
HETATM    9  C   UNL     1     -13.009  15.067  70.706  1.00  0.00    -0.389 C  
HETATM   10  O   UNL     1     -11.827  16.541  72.193  1.00  0.00    -0.501 OA 
HETATM   11  C   UNL     1     -12.858  15.669  72.102  1.00  0.00    -0.439 C  
HETATM   12  O   UNL     1     -13.600  15.416  73.038  1.00  0.00    -0.499 OA 
ENDBRANCH   8   9
BRANCH   8  13
HETATM   13  C   UNL     1     -11.708  15.835  68.798  1.00  0.00    -0.378 C  
HETATM   14  O   UNL     1      -9.455  16.390  69.400  1.00  0.00    -0.222 OA 
HETATM   15  O   UNL     1     -10.671  17.983  68.342  1.00  0.00    -0.285 OA 
HETATM   16  C   UNL     1     -10.586  16.867  68.828  1.00  0.00    -0.355 C  
ENDBRANCH   8  13
ENDBRANCH   7   8
ENDBRANCH   6   7
ENDBRANCH   5   6
BRANCH   5  17
HETATM   17  C   UNL     1     -11.696  11.044  68.191  1.00  0.00    -0.202 C  
BRANCH  17  18
HETATM   18  C   UNL     1     -10.725  10.046  68.884  1.00  0.00    -0.219 C  
BRANCH  18  19
HETATM   19  N   UNL     1     -11.331   9.231  70.002  1.00  0.00    -0.172 NA 
BRANCH  19  20
HETATM   20  C   UNL     1     -11.496  10.155  71.194  1.00  0.00    -0.307 C  
HETATM   21  O   UNL     1     -13.362  11.457  72.050  1.00  0.00    -0.467 OA 
HETATM   22  O   UNL     1     -13.778   9.397  71.209  1.00  0.00    -0.346 OA 
HETATM   23  C   UNL     1     -12.962  10.430  71.523  1.00  0.00    -0.458 C  
ENDBRANCH  19  20
BRANCH  19  24
HETATM   24  C   UNL     1     -10.327   8.173  70.405  1.00  0.00    -0.206 C  
HETATM   25  C   UNL     1     -10.980   6.931  71.002  1.00  0.00    -0.252 C  
HETATM   26  O   UNL     1     -10.442   6.204  71.822  1.00  0.00    -0.206 OA 
HETATM   27  O   UNL     1     -12.197   6.673  70.470  1.00  0.00    -0.364 OA 
ENDBRANCH  19  24
ENDBRANCH  18  19
ENDBRANCH  17  18
ENDBRANCH   5  17
ENDBRANCH   3   5
TORSDOF 11
ENDMDL
MODEL       71
REMARK 921   NORMALIZED FREE ENERGY PREDICTED BY IDOCK:   -5.07 KCAL/MOL
REMARK 922        TOTAL FREE ENERGY PREDICTED BY IDOCK:  -10.07 KCAL/MOL
REMARK 923 INTER-LIGAND FREE ENERGY PREDICTED BY IDOCK:   -8.98 KCAL/MOL
REMARK 924 INTRA-LIGAND FREE ENERGY PREDICTED BY IDOCK:   -1.08 KCAL/MOL
REMARK 927      BINDING AFFINITY PREDICTED BY RF-SCORE:    0.00 PKD
ROOT
HETATM    1  O   UNL     1     -13.284  13.927  65.235  1.00  0.00    -0.774 OA 
HETATM    2  C   UNL     1     -12.610  12.794  64.925  1.00  0.00    -0.470 C  
HETATM    3  C   UNL     1     -11.704  12.321  66.059  1.00  0.00    -0.388 C  
HETATM    4  O   UNL     1     -12.689  12.242  63.838  1.00  0.00    -0.668 OA 
ENDROOT
BRANCH   3   5
HETATM    5  N   UNL     1     -12.251  12.653  67.421  1.00  0.00    -0.363 NA 
BRANCH   5   6
HETATM    6  C   UNL     1     -12.005  11.494  68.343  1.00  0.00    -0.198 C  
BRANCH   6   7
HETATM    7  C   UNL     1     -10.876  10.527  67.874  1.00  0.00    -0.282 C  
BRANCH   7   8
HETATM    8  N   UNL     1     -10.289   9.624  68.924  1.00  0.00    -0.196 NA 
BRANCH   8   9
HETATM    9  C   UNL     1     -10.380   8.202  68.398  1.00  0.00    -0.199 C  
HETATM   10  O   UNL     1      -8.072   8.476  67.780  1.00  0.00    -0.113 OA 
HETATM   11  C   UNL     1      -9.227   7.847  67.461  1.00  0.00    -0.136 C  
HETATM   12  O   UNL     1      -9.321   7.060  66.532  1.00  0.00    -0.160 OA 
ENDBRANCH   8   9
BRANCH   8  13
HETATM   13  C   UNL     1     -11.175   9.697  70.146  1.00  0.00    -0.256 C  
HETATM   14  O   UNL     1      -9.174   9.288  71.401  1.00  0.00    -0.282 OA 
HETATM   15  O   UNL     1     -11.129   8.574  72.298  1.00  0.00    -0.342 OA 
HETATM   16  C   UNL     1     -10.516   9.105  71.387  1.00  0.00    -0.344 C  
ENDBRANCH   8  13
ENDBRANCH   7   8
ENDBRANCH   6   7
ENDBRANCH   5   6
BRANCH   5  17
HETATM   17  C   UNL     1     -11.517  13.844  67.956  1.00  0.00    -0.307 C  
BRANCH  17  18
HETATM   18  C   UNL     1     -11.306  13.910  69.495  1.00  0.00    -0.237 C  
BRANCH  18  19
HETATM   19  N   UNL     1     -11.491  15.277  70.111  1.00  0.00    -0.268 NA 
BRANCH  19  20
HETATM   20  C   UNL     1     -12.845  15.282  70.797  1.00  0.00    -0.437 C  
HETATM   21  O   UNL     1     -13.607  14.561  72.989  1.00  0.00    -0.586 OA 
HETATM   22  O   UNL     1     -11.589  15.573  72.827  1.00  0.00    -0.460 OA 
HETATM   23  C   UNL     1     -12.737  15.079  72.306  1.00  0.00    -0.338 C  
ENDBRANCH  19  20
BRANCH  19  24
HETATM   24  C   UNL     1     -11.567  16.288  68.987  1.00  0.00    -0.231 C  
HETATM   25  C   UNL     1     -10.325  17.169  68.895  1.00  0.00    -0.348 C  
HETATM   26  O   UNL     1     -10.328  18.310  68.463  1.00  0.00    -0.372 OA 
HETATM   27  O   UNL     1      -9.197  16.524  69.274  1.00  0.00    -0.227 OA 
ENDBRANCH  19  24
ENDBRANCH  18  19
ENDBRANCH  17  18
ENDBRANCH   5  17
ENDBRANCH   3   5
TORSDOF 11
ENDMDL
MODEL       72
REMARK 921   NORMALIZED FREE ENERGY PREDICTED BY IDOCK:   -5.06 KCAL/MOL
REMARK 922        TOTAL FREE ENERGY PREDICTED BY IDOCK:  -10.06 KCAL/MOL
REMARK 923 INTER-LIGAND FREE ENERGY PREDICTED BY IDOCK:   -8.48 KCAL/MOL
REMARK 924 INTRA-LIGAND FREE ENERGY PREDICTED BY IDOCK:   -1.58 KCAL/MOL
REMARK 927      BINDING AFFINITY PREDICTED BY RF-SCORE:    0.00 PKD
ROOT
HETATM    1  O   UNL     1      -9.838  16.598  65.556  1.00  0.00    -0.549 OA 
HETATM    2  C   UNL     1     -10.844  16.055  64.832  1.00  0.00    -0.372 C  
HETATM    3  C   UNL     1     -11.019  14.562  65.098  1.00  0.00    -0.379 C  
HETATM    4  O   UNL     1     -11.505  16.686  64.021  1.00  0.00    -1.192 OA 
ENDROOT
BRANCH   3   5
HETATM    5  N   UNL     1     -10.667  14.174  66.508  1.00  0.00    -0.287 NA 
BRANCH   5   6
HETATM    6  C   UNL     1     -11.909  13.709  67.212  1.00  0.00    -0.391 C  
BRANCH   6   7
HETATM    7  C   UNL     1     -11.707  13.377  68.721  1.00  0.00    -0.340 C  
BRANCH   7   8
HETATM    8  N   UNL     1     -12.067  14.461  69.700  1.00  0.00    -0.328 NA 
BRANCH   8   9
HETATM    9  C   UNL     1     -10.770  15.113  70.148  1.00  0.00    -0.221 C  
HETATM   10  O   UNL     1     -11.327  16.867  68.601  1.00  0.00    -0.193 OA 
HETATM   11  C   UNL     1     -10.303  16.211  69.194  1.00  0.00    -0.259 C  
HETATM   12  O   UNL     1      -9.131  16.494  69.000  1.00  0.00    -0.256 OA 
ENDBRANCH   8   9
BRANCH   8  13
HETATM   13  C   UNL     1     -12.672  13.805  70.918  1.00  0.00    -0.323 C  
HETATM   14  O   UNL     1     -14.131  15.705  70.997  1.00  0.00    -0.499 OA 
HETATM   15  O   UNL     1     -13.651  14.681  72.961  1.00  0.00    -0.561 OA 
HETATM   16  C   UNL     1     -13.508  14.770  71.752  1.00  0.00    -0.380 C  
ENDBRANCH   8  13
ENDBRANCH   7   8
ENDBRANCH   6   7
ENDBRANCH   5   6
BRANCH   5  17
HETATM   17  C   UNL     1      -9.696  13.035  66.465  1.00  0.00    -0.266 C  
BRANCH  17  18
HETATM   18  C   UNL     1     -10.068  11.825  65.562  1.00  0.00    -0.249 C  
BRANCH  18  19
HETATM   19  N   UNL     1      -9.446  10.508  65.964  1.00  0.00    -0.175 NA 
BRANCH  19  20
HETATM   20  C   UNL     1      -9.257  10.542  67.470  1.00  0.00    -0.142 C  
HETATM   21  O   UNL     1     -10.678   9.930  69.344  1.00  0.00    -0.211 OA 
HETATM   22  O   UNL     1     -10.713   8.628  67.492  1.00  0.00    -0.249 OA 
HETATM   23  C   UNL     1     -10.291   9.697  68.209  1.00  0.00    -0.204 C  
ENDBRANCH  19  20
BRANCH  19  24
HETATM   24  C   UNL     1      -8.064  10.438  65.352  1.00  0.00    -0.152 C  
HETATM   25  C   UNL     1      -7.486   9.027  65.350  1.00  0.00    -0.089 C  
HETATM   26  O   UNL     1      -6.292   8.778  65.396  1.00  0.00    -0.061 OA 
HETATM   27  O   UNL     1      -8.436   8.072  65.216  1.00  0.00    -0.148 OA 
ENDBRANCH  19  24
ENDBRANCH  18  19
ENDBRANCH  17  18
ENDBRANCH   5  17
ENDBRANCH   3   5
TORSDOF 11
ENDMDL
MODEL       73
REMARK 921   NORMALIZED FREE ENERGY PREDICTED BY IDOCK:   -5.06 KCAL/MOL
REMARK 922        TOTAL FREE ENERGY PREDICTED BY IDOCK:  -10.06 KCAL/MOL
REMARK 923 INTER-LIGAND FREE ENERGY PREDICTED BY IDOCK:   -8.74 KCAL/MOL
REMARK 924 INTRA-LIGAND FREE ENERGY PREDICTED BY IDOCK:   -1.32 KCAL/MOL
REMARK 927      BINDING AFFINITY PREDICTED BY RF-SCORE:    0.00 PKD
ROOT
HETATM    1  O   UNL     1      -8.389   9.831  65.720  1.00  0.00    -0.124 OA 
HETATM    2  C   UNL     1      -9.613  10.323  65.419  1.00  0.00    -0.251 C  
HETATM    3  C   UNL     1     -10.383  10.781  66.655  1.00  0.00    -0.241 C  
HETATM    4  O   UNL     1     -10.065  10.352  64.284  1.00  0.00    -0.334 OA 
ENDROOT
BRANCH   3   5
HETATM    5  N   UNL     1      -9.484  11.311  67.740  1.00  0.00    -0.167 NA 
BRANCH   5   6
HETATM    6  C   UNL     1      -9.654  12.800  67.831  1.00  0.00    -0.211 C  
BRANCH   6   7
HETATM    7  C   UNL     1     -11.019  13.326  67.293  1.00  0.00    -0.268 C  
BRANCH   7   8
HETATM    8  N   UNL     1     -10.955  14.391  66.233  1.00  0.00    -0.313 NA 
BRANCH   8   9
HETATM    9  C   UNL     1     -11.178  13.709  64.894  1.00  0.00    -0.342 C  
HETATM   10  O   UNL     1     -13.523  13.985  65.347  1.00  0.00    -0.679 OA 
HETATM   11  C   UNL     1     -12.610  13.207  64.720  1.00  0.00    -0.364 C  
HETATM   12  O   UNL     1     -12.914  12.222  64.065  1.00  0.00    -0.740 OA 
ENDBRANCH   8   9
BRANCH   8  13
HETATM   13  C   UNL     1      -9.550  14.944  66.215  1.00  0.00    -0.307 C  
HETATM   14  O   UNL     1     -10.553  17.030  66.838  1.00  0.00    -0.295 OA 
HETATM   15  O   UNL     1      -8.629  17.117  65.645  1.00  0.00    -0.470 OA 
HETATM   16  C   UNL     1      -9.517  16.468  66.172  1.00  0.00    -0.315 C  
ENDBRANCH   8  13
ENDBRANCH   7   8
ENDBRANCH   6   7
ENDBRANCH   5   6
BRANCH   5  17
HETATM   17  C   UNL     1      -9.901  10.709  69.046  1.00  0.00    -0.205 C  
BRANCH  17  18
HETATM   18  C   UNL     1     -10.190   9.181  69.058  1.00  0.00    -0.207 C  
BRANCH  18  19
HETATM   19  N   UNL     1     -11.069   8.702  70.189  1.00  0.00    -0.230 NA 
BRANCH  19  20
HETATM   20  C   UNL     1     -11.209   9.853  71.168  1.00  0.00    -0.334 C  
HETATM   21  O   UNL     1     -13.001  11.422  71.655  1.00  0.00    -0.448 OA 
HETATM   22  O   UNL     1     -13.541   9.269  71.210  1.00  0.00    -0.341 OA 
HETATM   23  C   UNL     1     -12.660  10.286  71.360  1.00  0.00    -0.434 C  
ENDBRANCH  19  20
BRANCH  19  24
HETATM   24  C   UNL     1     -10.335   7.597  70.916  1.00  0.00    -0.201 C  
HETATM   25  C   UNL     1     -10.948   6.221  70.681  1.00  0.00    -0.309 C  
HETATM   26  O   UNL     1     -10.892   5.302  71.483  1.00  0.00    -0.194 OA 
HETATM   27  O   UNL     1     -11.502   6.097  69.452  1.00  0.00    -0.423 OA 
ENDBRANCH  19  24
ENDBRANCH  18  19
ENDBRANCH  17  18
ENDBRANCH   5  17
ENDBRANCH   3   5
TORSDOF 11
ENDMDL
MODEL       74
REMARK 921   NORMALIZED FREE ENERGY PREDICTED BY IDOCK:   -5.06 KCAL/MOL
REMARK 922        TOTAL FREE ENERGY PREDICTED BY IDOCK:  -10.06 KCAL/MOL
REMARK 923 INTER-LIGAND FREE ENERGY PREDICTED BY IDOCK:   -8.94 KCAL/MOL
REMARK 924 INTRA-LIGAND FREE ENERGY PREDICTED BY IDOCK:   -1.12 KCAL/MOL
REMARK 927      BINDING AFFINITY PREDICTED BY RF-SCORE:    0.00 PKD
ROOT
HETATM    1  O   UNL     1     -10.408  13.521  64.046  1.00  0.00    -0.298 OA 
HETATM    2  C   UNL     1     -11.737  13.709  64.224  1.00  0.00    -0.403 C  
HETATM    3  C   UNL     1     -12.165  13.540  65.679  1.00  0.00    -0.458 C  
HETATM    4  O   UNL     1     -12.511  13.942  63.307  1.00  0.00    -0.817 OA 
ENDROOT
BRANCH   3   5
HETATM    5  N   UNL     1     -11.097  13.960  66.654  1.00  0.00    -0.302 NA 
BRANCH   5   6
HETATM    6  C   UNL     1     -11.649  15.027  67.554  1.00  0.00    -0.301 C  
BRANCH   6   7
HETATM    7  C   UNL     1     -10.566  15.916  68.236  1.00  0.00    -0.276 C  
BRANCH   7   8
HETATM    8  N   UNL     1      -9.766  16.811  67.329  1.00  0.00    -0.245 NA 
BRANCH   8   9
HETATM    9  C   UNL     1      -8.415  17.029  67.987  1.00  0.00    -0.216 C  
HETATM   10  O   UNL     1      -7.577  17.330  65.753  1.00  0.00    -0.440 OA 
HETATM   11  C   UNL     1      -7.254  16.915  67.001  1.00  0.00    -0.198 C  
HETATM   12  O   UNL     1      -6.140  16.516  67.301  1.00  0.00    -0.144 OA 
ENDBRANCH   8   9
BRANCH   8  13
HETATM   13  C   UNL     1     -10.453  18.155  67.280  1.00  0.00    -0.393 C  
HETATM   14  O   UNL     1     -11.004  17.592  65.016  1.00  0.00    -0.780 OA 
HETATM   15  O   UNL     1     -10.774  19.791  65.514  1.00  0.00    -0.479 OA 
HETATM   16  C   UNL     1     -10.736  18.620  65.855  1.00  0.00    -0.227 C  
ENDBRANCH   8  13
ENDBRANCH   7   8
ENDBRANCH   6   7
ENDBRANCH   5   6
BRANCH   5  17
HETATM   17  C   UNL     1     -10.726  12.778  67.496  1.00  0.00    -0.229 C  
BRANCH  17  18
HETATM   18  C   UNL     1     -11.868  11.792  67.871  1.00  0.00    -0.219 C  
BRANCH  18  19
HETATM   19  N   UNL     1     -11.498  10.736  68.885  1.00  0.00    -0.281 NA 
BRANCH  19  20
HETATM   20  C   UNL     1     -11.748  11.327  70.261  1.00  0.00    -0.324 C  
HETATM   21  O   UNL     1     -13.118  10.640  72.148  1.00  0.00    -0.460 OA 
HETATM   22  O   UNL     1     -12.029   9.045  70.967  1.00  0.00    -0.287 OA 
HETATM   23  C   UNL     1     -12.388  10.326  71.221  1.00  0.00    -0.403 C  
ENDBRANCH  19  20
BRANCH  19  24
HETATM   24  C   UNL     1     -10.009  10.489  68.780  1.00  0.00    -0.192 C  
HETATM   25  C   UNL     1      -9.673   9.087  68.285  1.00  0.00    -0.152 C  
HETATM   26  O   UNL     1      -8.650   8.486  68.576  1.00  0.00    -0.136 OA 
HETATM   27  O   UNL     1     -10.596   8.600  67.422  1.00  0.00    -0.274 OA 
ENDBRANCH  19  24
ENDBRANCH  18  19
ENDBRANCH  17  18
ENDBRANCH   5  17
ENDBRANCH   3   5
TORSDOF 11
ENDMDL
MODEL       75
REMARK 921   NORMALIZED FREE ENERGY PREDICTED BY IDOCK:   -5.04 KCAL/MOL
REMARK 922        TOTAL FREE ENERGY PREDICTED BY IDOCK:  -10.03 KCAL/MOL
REMARK 923 INTER-LIGAND FREE ENERGY PREDICTED BY IDOCK:   -8.48 KCAL/MOL
REMARK 924 INTRA-LIGAND FREE ENERGY PREDICTED BY IDOCK:   -1.55 KCAL/MOL
REMARK 927      BINDING AFFINITY PREDICTED BY RF-SCORE:    0.00 PKD
ROOT
HETATM    1  O   UNL     1     -10.897  12.627  64.110  1.00  0.00    -0.341 OA 
HETATM    2  C   UNL     1     -12.138  12.535  64.640  1.00  0.00    -0.428 C  
HETATM    3  C   UNL     1     -12.148  12.737  66.153  1.00  0.00    -0.364 C  
HETATM    4  O   UNL     1     -13.133  12.273  63.980  1.00  0.00    -0.764 OA 
ENDROOT
BRANCH   3   5
HETATM    5  N   UNL     1     -11.079  13.686  66.623  1.00  0.00    -0.302 NA 
BRANCH   5   6
HETATM    6  C   UNL     1     -11.653  15.071  66.696  1.00  0.00    -0.198 C  
BRANCH   6   7
HETATM    7  C   UNL     1     -11.038  15.964  67.816  1.00  0.00    -0.288 C  
BRANCH   7   8
HETATM    8  N   UNL     1      -9.946  16.909  67.393  1.00  0.00    -0.262 NA 
BRANCH   8   9
HETATM    9  C   UNL     1      -8.870  16.863  68.463  1.00  0.00    -0.251 C  
HETATM   10  O   UNL     1      -7.733  15.331  66.999  1.00  0.00    -0.208 OA 
HETATM   11  C   UNL     1      -7.922  15.677  68.294  1.00  0.00    -0.129 C  
HETATM   12  O   UNL     1      -7.367  15.109  69.222  1.00  0.00    -0.157 OA 
ENDBRANCH   8   9
BRANCH   8  13
HETATM   13  C   UNL     1     -10.515  18.309  67.402  1.00  0.00    -0.409 C  
HETATM   14  O   UNL     1     -10.827  18.006  65.045  1.00  0.00    -0.738 OA 
HETATM   15  O   UNL     1     -10.489  20.120  65.785  1.00  0.00    -0.430 OA 
HETATM   16  C   UNL     1     -10.584  18.925  66.009  1.00  0.00    -0.403 C  
ENDBRANCH   8  13
ENDBRANCH   7   8
ENDBRANCH   6   7
ENDBRANCH   5   6
BRANCH   5  17
HETATM   17  C   UNL     1     -10.647  13.281  67.998  1.00  0.00    -0.240 C  
BRANCH  17  18
HETATM   18  C   UNL     1     -11.569  12.291  68.764  1.00  0.00    -0.330 C  
BRANCH  18  19
HETATM   19  N   UNL     1     -10.896  11.028  69.247  1.00  0.00    -0.230 NA 
BRANCH  19  20
HETATM   20  C   UNL     1     -11.142   9.958  68.199  1.00  0.00    -0.156 C  
HETATM   21  O   UNL     1     -10.064   9.407  66.092  1.00  0.00    -0.292 OA 
HETATM   22  O   UNL     1      -8.768  10.060  67.829  1.00  0.00    -0.125 OA 
HETATM   23  C   UNL     1      -9.960   9.787  67.248  1.00  0.00    -0.191 C  
ENDBRANCH  19  20
BRANCH  19  24
HETATM   24  C   UNL     1     -11.601  10.575  70.507  1.00  0.00    -0.350 C  
HETATM   25  C   UNL     1     -10.884   9.427  71.209  1.00  0.00    -0.361 C  
HETATM   26  O   UNL     1     -11.447   8.587  71.894  1.00  0.00    -0.290 OA 
HETATM   27  O   UNL     1      -9.540   9.476  71.055  1.00  0.00    -0.238 OA 
ENDBRANCH  19  24
ENDBRANCH  18  19
ENDBRANCH  17  18
ENDBRANCH   5  17
ENDBRANCH   3   5
TORSDOF 11
ENDMDL
MODEL       76
REMARK 921   NORMALIZED FREE ENERGY PREDICTED BY IDOCK:   -5.04 KCAL/MOL
REMARK 922        TOTAL FREE ENERGY PREDICTED BY IDOCK:  -10.02 KCAL/MOL
REMARK 923 INTER-LIGAND FREE ENERGY PREDICTED BY IDOCK:   -8.59 KCAL/MOL
REMARK 924 INTRA-LIGAND FREE ENERGY PREDICTED BY IDOCK:   -1.43 KCAL/MOL
REMARK 927      BINDING AFFINITY PREDICTED BY RF-SCORE:    0.00 PKD
ROOT
HETATM    1  O   UNL     1     -14.218  15.431  71.152  1.00  0.00    -0.493 OA 
HETATM    2  C   UNL     1     -13.244  15.635  72.069  1.00  0.00    -0.457 C  
HETATM    3  C   UNL     1     -11.860  15.252  71.550  1.00  0.00    -0.380 C  
HETATM    4  O   UNL     1     -13.461  16.039  73.202  1.00  0.00    -0.578 OA 
ENDROOT
BRANCH   3   5
HETATM    5  N   UNL     1     -11.709  15.472  70.069  1.00  0.00    -0.319 NA 
BRANCH   5   6
HETATM    6  C   UNL     1     -10.388  16.133  69.805  1.00  0.00    -0.244 C  
BRANCH   6   7
HETATM    7  C   UNL     1     -10.475  17.417  68.927  1.00  0.00    -0.312 C  
BRANCH   7   8
HETATM    8  N   UNL     1      -9.321  17.670  67.995  1.00  0.00    -0.267 NA 
BRANCH   8   9
HETATM    9  C   UNL     1      -9.905  18.017  66.637  1.00  0.00    -0.352 C  
HETATM   10  O   UNL     1      -8.603  20.032  66.792  1.00  0.00    -0.315 OA 
HETATM   11  C   UNL     1      -9.735  19.493  66.282  1.00  0.00    -0.402 C  
HETATM   12  O   UNL     1     -10.519  20.124  65.591  1.00  0.00    -0.416 OA 
ENDBRANCH   8   9
BRANCH   8  13
HETATM   13  C   UNL     1      -8.566  16.372  67.829  1.00  0.00    -0.168 C  
HETATM   14  O   UNL     1      -6.610  17.647  68.373  1.00  0.00    -0.184 OA 
HETATM   15  O   UNL     1      -6.334  15.841  67.033  1.00  0.00    -0.308 OA 
HETATM   16  C   UNL     1      -7.063  16.581  67.672  1.00  0.00    -0.133 C  
ENDBRANCH   8  13
ENDBRANCH   7   8
ENDBRANCH   6   7
ENDBRANCH   5   6
BRANCH   5  17
HETATM   17  C   UNL     1     -11.715  14.140  69.383  1.00  0.00    -0.313 C  
BRANCH  17  18
HETATM   18  C   UNL     1     -11.951  14.140  67.846  1.00  0.00    -0.343 C  
BRANCH  18  19
HETATM   19  N   UNL     1     -11.355  12.967  67.105  1.00  0.00    -0.289 NA 
BRANCH  19  20
HETATM   20  C   UNL     1     -12.161  12.781  65.832  1.00  0.00    -0.426 C  
HETATM   21  O   UNL     1     -11.649  13.079  63.475  1.00  0.00    -0.467 OA 
HETATM   22  O   UNL     1     -10.056  12.202  64.824  1.00  0.00    -0.267 OA 
HETATM   23  C   UNL     1     -11.282  12.726  64.585  1.00  0.00    -0.319 C  
ENDBRANCH  19  20
BRANCH  19  24
HETATM   24  C   UNL     1     -11.572  11.726  67.943  1.00  0.00    -0.307 C  
HETATM   25  C   UNL     1     -10.319  10.866  68.068  1.00  0.00    -0.185 C  
HETATM   26  O   UNL     1     -10.334   9.656  68.230  1.00  0.00    -0.186 OA 
HETATM   27  O   UNL     1      -9.179  11.597  68.057  1.00  0.00    -0.165 OA 
ENDBRANCH  19  24
ENDBRANCH  18  19
ENDBRANCH  17  18
ENDBRANCH   5  17
ENDBRANCH   3   5
TORSDOF 11
ENDMDL
MODEL       77
REMARK 921   NORMALIZED FREE ENERGY PREDICTED BY IDOCK:   -5.02 KCAL/MOL
REMARK 922        TOTAL FREE ENERGY PREDICTED BY IDOCK:  -10.00 KCAL/MOL
REMARK 923 INTER-LIGAND FREE ENERGY PREDICTED BY IDOCK:   -8.40 KCAL/MOL
REMARK 924 INTRA-LIGAND FREE ENERGY PREDICTED BY IDOCK:   -1.60 KCAL/MOL
REMARK 927      BINDING AFFINITY PREDICTED BY RF-SCORE:    0.00 PKD
ROOT
HETATM    1  O   UNL     1      -7.494  15.272  69.796  1.00  0.00    -0.201 OA 
HETATM    2  C   UNL     1      -7.534  15.240  68.444  1.00  0.00    -0.111 C  
HETATM    3  C   UNL     1      -8.858  14.702  67.907  1.00  0.00    -0.170 C  
HETATM    4  O   UNL     1      -6.591  15.565  67.736  1.00  0.00    -0.131 OA 
ENDROOT
BRANCH   3   5
HETATM    5  N   UNL     1     -10.026  15.034  68.795  1.00  0.00    -0.221 NA 
BRANCH   5   6
HETATM    6  C   UNL     1     -10.745  16.226  68.232  1.00  0.00    -0.322 C  
BRANCH   6   7
HETATM    7  C   UNL     1     -10.309  17.590  68.847  1.00  0.00    -0.338 C  
BRANCH   7   8
HETATM    8  N   UNL     1      -9.526  18.509  67.950  1.00  0.00    -0.289 NA 
BRANCH   8   9
HETATM    9  C   UNL     1      -8.551  19.274  68.827  1.00  0.00    -0.340 C  
HETATM   10  O   UNL     1      -6.919  18.782  67.132  1.00  0.00    -0.199 OA 
HETATM   11  C   UNL     1      -7.093  19.012  68.454  1.00  0.00    -0.273 C  
HETATM   12  O   UNL     1      -6.170  19.032  69.253  1.00  0.00    -0.252 OA 
ENDBRANCH   8   9
BRANCH   8  13
HETATM   13  C   UNL     1     -10.486  19.523  67.373  1.00  0.00    -0.471 C  
HETATM   14  O   UNL     1     -10.520  18.120  65.429  1.00  0.00    -0.598 OA 
HETATM   15  O   UNL     1     -10.885  20.335  65.120  1.00  0.00    -0.137 OA 
HETATM   16  C   UNL     1     -10.635  19.399  65.860  1.00  0.00    -0.459 C  
ENDBRANCH   8  13
ENDBRANCH   7   8
ENDBRANCH   6   7
ENDBRANCH   5   6
BRANCH   5  17
HETATM   17  C   UNL     1     -10.971  13.872  68.799  1.00  0.00    -0.263 C  
BRANCH  17  18
HETATM   18  C   UNL     1     -11.895  13.710  67.559  1.00  0.00    -0.381 C  
BRANCH  18  19
HETATM   19  N   UNL     1     -11.281  12.971  66.394  1.00  0.00    -0.291 NA 
BRANCH  19  20
HETATM   20  C   UNL     1     -12.202  13.164  65.203  1.00  0.00    -0.450 C  
HETATM   21  O   UNL     1     -12.778  15.087  63.832  1.00  0.00    -0.775 OA 
HETATM   22  O   UNL     1     -10.633  14.853  64.519  1.00  0.00    -0.273 OA 
HETATM   23  C   UNL     1     -11.929  14.467  64.456  1.00  0.00    -0.468 C  
ENDBRANCH  19  20
BRANCH  19  24
HETATM   24  C   UNL     1     -11.293  11.493  66.719  1.00  0.00    -0.238 C  
HETATM   25  C   UNL     1     -10.060  10.760  66.201  1.00  0.00    -0.242 C  
HETATM   26  O   UNL     1     -10.048   9.581  65.886  1.00  0.00    -0.294 OA 
HETATM   27  O   UNL     1      -8.952  11.538  66.196  1.00  0.00    -0.207 OA 
ENDBRANCH  19  24
ENDBRANCH  18  19
ENDBRANCH  17  18
ENDBRANCH   5  17
ENDBRANCH   3   5
TORSDOF 11
ENDMDL
MODEL       78
REMARK 921   NORMALIZED FREE ENERGY PREDICTED BY IDOCK:   -5.01 KCAL/MOL
REMARK 922        TOTAL FREE ENERGY PREDICTED BY IDOCK:   -9.97 KCAL/MOL
REMARK 923 INTER-LIGAND FREE ENERGY PREDICTED BY IDOCK:   -8.61 KCAL/MOL
REMARK 924 INTRA-LIGAND FREE ENERGY PREDICTED BY IDOCK:   -1.37 KCAL/MOL
REMARK 927      BINDING AFFINITY PREDICTED BY RF-SCORE:    0.00 PKD
ROOT
HETATM    1  O   UNL     1     -10.592  12.963  63.913  1.00  0.00    -0.410 OA 
HETATM    2  C   UNL     1     -11.932  13.124  64.015  1.00  0.00    -0.460 C  
HETATM    3  C   UNL     1     -12.471  12.717  65.384  1.00  0.00    -0.416 C  
HETATM    4  O   UNL     1     -12.634  13.509  63.091  1.00  0.00    -0.762 OA 
ENDROOT
BRANCH   3   5
HETATM    5  N   UNL     1     -11.487  12.965  66.495  1.00  0.00    -0.323 NA 
BRANCH   5   6
HETATM    6  C   UNL     1     -11.970  14.117  67.329  1.00  0.00    -0.414 C  
BRANCH   6   7
HETATM    7  C   UNL     1     -11.934  13.859  68.865  1.00  0.00    -0.358 C  
BRANCH   7   8
HETATM    8  N   UNL     1     -11.769  15.069  69.743  1.00  0.00    -0.287 NA 
BRANCH   8   9
HETATM    9  C   UNL     1     -13.060  15.240  70.524  1.00  0.00    -0.289 C  
HETATM   10  O   UNL     1     -11.691  16.266  72.214  1.00  0.00    -0.498 OA 
HETATM   11  C   UNL     1     -12.818  15.548  72.001  1.00  0.00    -0.420 C  
HETATM   12  O   UNL     1     -13.571  15.209  72.901  1.00  0.00    -0.474 OA 
ENDBRANCH   8   9
BRANCH   8  13
HETATM   13  C   UNL     1     -11.635  16.278  68.846  1.00  0.00    -0.230 C  
HETATM   14  O   UNL     1      -9.279  16.092  69.246  1.00  0.00    -0.255 OA 
HETATM   15  O   UNL     1     -10.101  18.160  68.815  1.00  0.00    -0.375 OA 
HETATM   16  C   UNL     1     -10.280  16.964  68.982  1.00  0.00    -0.308 C  
ENDBRANCH   8  13
ENDBRANCH   7   8
ENDBRANCH   6   7
ENDBRANCH   5   6
BRANCH   5  17
HETATM   17  C   UNL     1     -11.427  11.747  67.365  1.00  0.00    -0.305 C  
BRANCH  17  18
HETATM   18  C   UNL     1     -10.726  10.492  66.773  1.00  0.00    -0.188 C  
BRANCH  18  19
HETATM   19  N   UNL     1     -10.208   9.505  67.793  1.00  0.00    -0.202 NA 
BRANCH  19  20
HETATM   20  C   UNL     1     -10.641   8.122  67.341  1.00  0.00    -0.255 C  
HETATM   21  O   UNL     1      -9.532   6.348  66.104  1.00  0.00    -0.136 OA 
HETATM   22  O   UNL     1      -8.326   7.530  67.611  1.00  0.00    -0.117 OA 
HETATM   23  C   UNL     1      -9.461   7.244  66.931  1.00  0.00    -0.164 C  
ENDBRANCH  19  20
BRANCH  19  24
HETATM   24  C   UNL     1     -10.912   9.776  69.104  1.00  0.00    -0.175 C  
HETATM   25  C   UNL     1      -9.984   9.672  70.310  1.00  0.00    -0.270 C  
HETATM   26  O   UNL     1     -10.351   9.352  71.429  1.00  0.00    -0.324 OA 
HETATM   27  O   UNL     1      -8.714  10.047  70.027  1.00  0.00    -0.191 OA 
ENDBRANCH  19  24
ENDBRANCH  18  19
ENDBRANCH  17  18
ENDBRANCH   5  17
ENDBRANCH   3   5
TORSDOF 11
ENDMDL
MODEL       79
REMARK 921   NORMALIZED FREE ENERGY PREDICTED BY IDOCK:   -5.00 KCAL/MOL
REMARK 922        TOTAL FREE ENERGY PREDICTED BY IDOCK:   -9.96 KCAL/MOL
REMARK 923 INTER-LIGAND FREE ENERGY PREDICTED BY IDOCK:   -8.43 KCAL/MOL
REMARK 924 INTRA-LIGAND FREE ENERGY PREDICTED BY IDOCK:   -1.53 KCAL/MOL
REMARK 927      BINDING AFFINITY PREDICTED BY RF-SCORE:    0.00 PKD
ROOT
HETATM    1  O   UNL     1     -12.511  12.822  70.865  1.00  0.00    -0.367 OA 
HETATM    2  C   UNL     1     -12.444  11.473  70.774  1.00  0.00    -0.349 C  
HETATM    3  C   UNL     1     -12.005  10.998  69.391  1.00  0.00    -0.337 C  
HETATM    4  O   UNL     1     -12.749  10.722  71.689  1.00  0.00    -0.411 OA 
ENDROOT
BRANCH   3   5
HETATM    5  N   UNL     1     -11.057  11.955  68.719  1.00  0.00    -0.229 NA 
BRANCH   5   6
HETATM    6  C   UNL     1      -9.823  11.208  68.303  1.00  0.00    -0.189 C  
BRANCH   6   7
HETATM    7  C   UNL     1      -9.920  10.537  66.899  1.00  0.00    -0.200 C  
BRANCH   7   8
HETATM    8  N   UNL     1      -9.429   9.118  66.801  1.00  0.00    -0.163 NA 
BRANCH   8   9
HETATM    9  C   UNL     1      -8.811   8.948  65.424  1.00  0.00    -0.193 C  
HETATM   10  O   UNL     1      -6.733   9.536  66.481  1.00  0.00    -0.073 OA 
HETATM   11  C   UNL     1      -7.425   9.581  65.319  1.00  0.00    -0.107 C  
HETATM   12  O   UNL     1      -6.968  10.057  64.291  1.00  0.00    -0.126 OA 
ENDBRANCH   8   9
BRANCH   8  13
HETATM   13  C   UNL     1     -10.631   8.206  66.858  1.00  0.00    -0.241 C  
HETATM   14  O   UNL     1      -9.930   7.715  69.098  1.00  0.00    -0.172 OA 
HETATM   15  O   UNL     1     -11.063   6.099  67.986  1.00  0.00    -0.329 OA 
HETATM   16  C   UNL     1     -10.560   7.210  68.011  1.00  0.00    -0.196 C  
ENDBRANCH   8  13
ENDBRANCH   7   8
ENDBRANCH   6   7
ENDBRANCH   5   6
BRANCH   5  17
HETATM   17  C   UNL     1     -11.717  12.499  67.489  1.00  0.00    -0.374 C  
BRANCH  17  18
HETATM   18  C   UNL     1     -11.907  14.040  67.414  1.00  0.00    -0.409 C  
BRANCH  18  19
HETATM   19  N   UNL     1     -11.260  14.710  66.225  1.00  0.00    -0.337 NA 
BRANCH  19  20
HETATM   20  C   UNL     1     -11.100  13.655  65.146  1.00  0.00    -0.318 C  
HETATM   21  O   UNL     1     -12.551  12.853  63.369  1.00  0.00    -0.709 OA 
HETATM   22  O   UNL     1     -12.538  15.068  63.835  1.00  0.00    -0.813 OA 
HETATM   23  C   UNL     1     -12.141  13.790  64.036  1.00  0.00    -0.403 C  
ENDBRANCH  19  20
BRANCH  19  24
HETATM   24  C   UNL     1      -9.866  15.134  66.631  1.00  0.00    -0.252 C  
HETATM   25  C   UNL     1      -9.479  16.505  66.086  1.00  0.00    -0.315 C  
HETATM   26  O   UNL     1      -8.334  16.843  65.835  1.00  0.00    -0.498 OA 
HETATM   27  O   UNL     1     -10.538  17.343  65.979  1.00  0.00    -0.320 OA 
ENDBRANCH  19  24
ENDBRANCH  18  19
ENDBRANCH  17  18
ENDBRANCH   5  17
ENDBRANCH   3   5
TORSDOF 11
ENDMDL
MODEL       80
REMARK 921   NORMALIZED FREE ENERGY PREDICTED BY IDOCK:   -5.00 KCAL/MOL
REMARK 922        TOTAL FREE ENERGY PREDICTED BY IDOCK:   -9.96 KCAL/MOL
REMARK 923 INTER-LIGAND FREE ENERGY PREDICTED BY IDOCK:   -8.59 KCAL/MOL
REMARK 924 INTRA-LIGAND FREE ENERGY PREDICTED BY IDOCK:   -1.37 KCAL/MOL
REMARK 927      BINDING AFFINITY PREDICTED BY RF-SCORE:    0.00 PKD
ROOT
HETATM    1  O   UNL     1     -13.139   9.861  71.043  1.00  0.00    -0.367 OA 
HETATM    2  C   UNL     1     -12.884  11.176  71.240  1.00  0.00    -0.412 C  
HETATM    3  C   UNL     1     -11.794  11.709  70.314  1.00  0.00    -0.326 C  
HETATM    4  O   UNL     1     -13.438  11.846  72.100  1.00  0.00    -0.458 OA 
ENDROOT
BRANCH   3   5
HETATM    5  N   UNL     1     -11.774  11.019  68.977  1.00  0.00    -0.312 NA 
BRANCH   5   6
HETATM    6  C   UNL     1     -11.991  12.040  67.898  1.00  0.00    -0.134 C  
BRANCH   6   7
HETATM    7  C   UNL     1     -10.693  12.467  67.147  1.00  0.00    -0.237 C  
BRANCH   7   8
HETATM    8  N   UNL     1     -10.838  13.572  66.136  1.00  0.00    -0.281 NA 
BRANCH   8   9
HETATM    9  C   UNL     1     -11.003  12.920  64.775  1.00  0.00    -0.318 C  
HETATM   10  O   UNL     1     -13.127  14.046  64.694  1.00  0.00    -0.517 OA 
HETATM   11  C   UNL     1     -12.448  12.951  64.279  1.00  0.00    -0.349 C  
HETATM   12  O   UNL     1     -12.942  12.095  63.562  1.00  0.00    -0.794 OA 
ENDBRANCH   8   9
BRANCH   8  13
HETATM   13  C   UNL     1      -9.538  14.341  66.100  1.00  0.00    -0.275 C  
HETATM   14  O   UNL     1     -10.766  16.119  67.137  1.00  0.00    -0.310 OA 
HETATM   15  O   UNL     1      -9.009  16.695  65.827  1.00  0.00    -0.498 OA 
HETATM   16  C   UNL     1      -9.734  15.839  66.307  1.00  0.00    -0.302 C  
ENDBRANCH   8  13
ENDBRANCH   7   8
ENDBRANCH   6   7
ENDBRANCH   5   6
BRANCH   5  17
HETATM   17  C   UNL     1     -10.426  10.399  68.776  1.00  0.00    -0.199 C  
BRANCH  17  18
HETATM   18  C   UNL     1      -9.715   9.832  70.037  1.00  0.00    -0.250 C  
BRANCH  18  19
HETATM   19  N   UNL     1     -10.151   8.447  70.452  1.00  0.00    -0.185 NA 
BRANCH  19  20
HETATM   20  C   UNL     1      -9.149   7.948  71.478  1.00  0.00    -0.137 C  
HETATM   21  O   UNL     1      -8.961   8.204  73.887  1.00  0.00    -0.242 OA 
HETATM   22  O   UNL     1     -11.019   7.915  72.989  1.00  0.00    -0.393 OA 
HETATM   23  C   UNL     1      -9.674   8.051  72.907  1.00  0.00    -0.283 C  
ENDBRANCH  19  20
BRANCH  19  24
HETATM   24  C   UNL     1     -10.030   7.540  69.247  1.00  0.00    -0.179 C  
HETATM   25  C   UNL     1     -10.838   6.254  69.387  1.00  0.00    -0.340 C  
HETATM   26  O   UNL     1     -10.541   5.198  68.851  1.00  0.00    -0.133 OA 
HETATM   27  O   UNL     1     -11.969   6.423  70.113  1.00  0.00    -0.354 OA 
ENDBRANCH  19  24
ENDBRANCH  18  19
ENDBRANCH  17  18
ENDBRANCH   5  17
ENDBRANCH   3   5
TORSDOF 11
ENDMDL
MODEL       81
REMARK 921   NORMALIZED FREE ENERGY PREDICTED BY IDOCK:   -5.00 KCAL/MOL
REMARK 922        TOTAL FREE ENERGY PREDICTED BY IDOCK:   -9.96 KCAL/MOL
REMARK 923 INTER-LIGAND FREE ENERGY PREDICTED BY IDOCK:   -8.73 KCAL/MOL
REMARK 924 INTRA-LIGAND FREE ENERGY PREDICTED BY IDOCK:   -1.23 KCAL/MOL
REMARK 927      BINDING AFFINITY PREDICTED BY RF-SCORE:    0.00 PKD
ROOT
HETATM    1  O   UNL     1     -11.349  15.999  71.712  1.00  0.00    -0.345 OA 
HETATM    2  C   UNL     1     -12.571  15.567  72.102  1.00  0.00    -0.398 C  
HETATM    3  C   UNL     1     -13.197  14.594  71.106  1.00  0.00    -0.372 C  
HETATM    4  O   UNL     1     -13.127  15.954  73.120  1.00  0.00    -0.494 OA 
ENDROOT
BRANCH   3   5
HETATM    5  N   UNL     1     -12.175  13.754  70.390  1.00  0.00    -0.346 NA 
BRANCH   5   6
HETATM    6  C   UNL     1     -12.485  12.303  70.622  1.00  0.00    -0.236 C  
BRANCH   6   7
HETATM    7  C   UNL     1     -11.663  11.319  69.736  1.00  0.00    -0.349 C  
BRANCH   7   8
HETATM    8  N   UNL     1     -11.504   9.919  70.263  1.00  0.00    -0.273 NA 
BRANCH   8   9
HETATM    9  C   UNL     1     -12.048   9.905  71.680  1.00  0.00    -0.373 C  
HETATM   10  O   UNL     1     -12.852   7.700  71.159  1.00  0.00    -0.279 OA 
HETATM   11  C   UNL     1     -13.086   8.807  71.903  1.00  0.00    -0.378 C  
HETATM   12  O   UNL     1     -14.018   8.897  72.686  1.00  0.00    -0.448 OA 
ENDBRANCH   8   9
BRANCH   8  13
HETATM   13  C   UNL     1     -10.026   9.624  70.357  1.00  0.00    -0.271 C  
HETATM   14  O   UNL     1     -10.383   8.148  68.502  1.00  0.00    -0.205 OA 
HETATM   15  O   UNL     1      -8.700   7.635  69.930  1.00  0.00    -0.137 OA 
HETATM   16  C   UNL     1      -9.629   8.356  69.607  1.00  0.00    -0.163 C  
ENDBRANCH   8  13
ENDBRANCH   7   8
ENDBRANCH   6   7
ENDBRANCH   5   6
BRANCH   5  17
HETATM   17  C   UNL     1     -12.272  14.027  68.921  1.00  0.00    -0.226 C  
BRANCH  17  18
HETATM   18  C   UNL     1     -10.940  14.057  68.119  1.00  0.00    -0.252 C  
BRANCH  18  19
HETATM   19  N   UNL     1     -10.980  13.359  66.780  1.00  0.00    -0.285 NA 
BRANCH  19  20
HETATM   20  C   UNL     1      -9.586  12.824  66.509  1.00  0.00    -0.257 C  
HETATM   21  O   UNL     1      -8.653  10.582  66.391  1.00  0.00    -0.136 OA 
HETATM   22  O   UNL     1     -10.718  10.939  65.534  1.00  0.00    -0.211 OA 
HETATM   23  C   UNL     1      -9.587  11.337  66.163  1.00  0.00    -0.214 C  
ENDBRANCH  19  20
BRANCH  19  24
HETATM   24  C   UNL     1     -11.261  14.401  65.719  1.00  0.00    -0.326 C  
HETATM   25  C   UNL     1     -12.317  13.955  64.713  1.00  0.00    -0.400 C  
HETATM   26  O   UNL     1     -12.361  14.338  63.555  1.00  0.00    -0.714 OA 
HETATM   27  O   UNL     1     -13.252  13.143  65.260  1.00  0.00    -0.643 OA 
ENDBRANCH  19  24
ENDBRANCH  18  19
ENDBRANCH  17  18
ENDBRANCH   5  17
ENDBRANCH   3   5
TORSDOF 11
ENDMDL
MODEL       82
REMARK 921   NORMALIZED FREE ENERGY PREDICTED BY IDOCK:   -4.98 KCAL/MOL
REMARK 922        TOTAL FREE ENERGY PREDICTED BY IDOCK:   -9.92 KCAL/MOL
REMARK 923 INTER-LIGAND FREE ENERGY PREDICTED BY IDOCK:   -8.74 KCAL/MOL
REMARK 924 INTRA-LIGAND FREE ENERGY PREDICTED BY IDOCK:   -1.18 KCAL/MOL
REMARK 927      BINDING AFFINITY PREDICTED BY RF-SCORE:    0.00 PKD
ROOT
HETATM    1  O   UNL     1     -12.012  13.273  70.760  1.00  0.00    -0.288 OA 
HETATM    2  C   UNL     1     -12.585  12.081  71.046  1.00  0.00    -0.273 C  
HETATM    3  C   UNL     1     -12.340  11.035  69.962  1.00  0.00    -0.305 C  
HETATM    4  O   UNL     1     -13.264  11.885  72.044  1.00  0.00    -0.495 OA 
ENDROOT
BRANCH   3   5
HETATM    5  N   UNL     1     -11.014  11.209  69.272  1.00  0.00    -0.237 NA 
BRANCH   5   6
HETATM    6  C   UNL     1     -10.107  10.078  69.664  1.00  0.00    -0.236 C  
BRANCH   6   7
HETATM    7  C   UNL     1     -10.846   8.747  70.000  1.00  0.00    -0.223 C  
BRANCH   7   8
HETATM    8  N   UNL     1     -10.601   8.174  71.370  1.00  0.00    -0.215 NA 
BRANCH   8   9
HETATM    9  C   UNL     1     -11.762   8.601  72.252  1.00  0.00    -0.358 C  
HETATM   10  O   UNL     1     -12.902   6.674  71.375  1.00  0.00    -0.277 OA 
HETATM   11  C   UNL     1     -13.075   7.924  71.865  1.00  0.00    -0.289 C  
HETATM   12  O   UNL     1     -14.175   8.438  72.003  1.00  0.00    -0.414 OA 
ENDBRANCH   8   9
BRANCH   8  13
HETATM   13  C   UNL     1      -9.360   8.827  71.931  1.00  0.00    -0.273 C  
HETATM   14  O   UNL     1      -9.046   6.781  73.140  1.00  0.00    -0.127 OA 
HETATM   15  O   UNL     1      -8.232   8.677  74.076  1.00  0.00    -0.359 OA 
HETATM   16  C   UNL     1      -8.832   8.117  73.173  1.00  0.00    -0.257 C  
ENDBRANCH   8  13
ENDBRANCH   7   8
ENDBRANCH   6   7
ENDBRANCH   5   6
BRANCH   5  17
HETATM   17  C   UNL     1     -11.232  11.146  67.792  1.00  0.00    -0.294 C  
BRANCH  17  18
HETATM   18  C   UNL     1     -10.255  11.964  66.900  1.00  0.00    -0.208 C  
BRANCH  18  19
HETATM   19  N   UNL     1     -10.738  13.342  66.515  1.00  0.00    -0.284 NA 
BRANCH  19  20
HETATM   20  C   UNL     1     -10.784  13.395  64.998  1.00  0.00    -0.343 C  
HETATM   21  O   UNL     1     -12.551  13.038  63.369  1.00  0.00    -0.722 OA 
HETATM   22  O   UNL     1     -13.059  14.116  65.294  1.00  0.00    -0.763 OA 
HETATM   23  C   UNL     1     -12.209  13.473  64.458  1.00  0.00    -0.398 C  
ENDBRANCH  19  20
BRANCH  19  24
HETATM   24  C   UNL     1      -9.692  14.344  66.955  1.00  0.00    -0.262 C  
HETATM   25  C   UNL     1     -10.295  15.594  67.586  1.00  0.00    -0.275 C  
HETATM   26  O   UNL     1      -9.770  16.695  67.556  1.00  0.00    -0.241 OA 
HETATM   27  O   UNL     1     -11.447  15.342  68.251  1.00  0.00    -0.323 OA 
ENDBRANCH  19  24
ENDBRANCH  18  19
ENDBRANCH  17  18
ENDBRANCH   5  17
ENDBRANCH   3   5
TORSDOF 11
ENDMDL
MODEL       83
REMARK 921   NORMALIZED FREE ENERGY PREDICTED BY IDOCK:   -4.97 KCAL/MOL
REMARK 922        TOTAL FREE ENERGY PREDICTED BY IDOCK:   -9.90 KCAL/MOL
REMARK 923 INTER-LIGAND FREE ENERGY PREDICTED BY IDOCK:   -8.58 KCAL/MOL
REMARK 924 INTRA-LIGAND FREE ENERGY PREDICTED BY IDOCK:   -1.32 KCAL/MOL
REMARK 927      BINDING AFFINITY PREDICTED BY RF-SCORE:    0.00 PKD
ROOT
HETATM    1  O   UNL     1     -13.456  12.368  64.608  1.00  0.00    -0.671 OA 
HETATM    2  C   UNL     1     -12.135  12.243  64.341  1.00  0.00    -0.399 C  
HETATM    3  C   UNL     1     -11.256  12.642  65.524  1.00  0.00    -0.302 C  
HETATM    4  O   UNL     1     -11.699  11.893  63.254  1.00  0.00    -0.400 OA 
ENDROOT
BRANCH   3   5
HETATM    5  N   UNL     1     -11.898  12.349  66.853  1.00  0.00    -0.557 NA 
BRANCH   5   6
HETATM    6  C   UNL     1     -11.094  11.299  67.563  1.00  0.00    -0.286 C  
BRANCH   6   7
HETATM    7  C   UNL     1      -9.694  11.026  66.935  1.00  0.00    -0.188 C  
BRANCH   7   8
HETATM    8  N   UNL     1      -9.403   9.603  66.542  1.00  0.00    -0.157 NA 
BRANCH   8   9
HETATM    9  C   UNL     1      -9.335   9.559  65.025  1.00  0.00    -0.229 C  
HETATM   10  O   UNL     1      -6.965   9.280  65.319  1.00  0.00    -0.085 OA 
HETATM   11  C   UNL     1      -7.918   9.770  64.493  1.00  0.00    -0.144 C  
HETATM   12  O   UNL     1      -7.663  10.300  63.423  1.00  0.00    -0.152 OA 
ENDBRANCH   8   9
BRANCH   8  13
HETATM   13  C   UNL     1     -10.584   8.757  66.953  1.00  0.00    -0.193 C  
HETATM   14  O   UNL     1      -8.957   7.187  67.749  1.00  0.00    -0.123 OA 
HETATM   15  O   UNL     1     -10.951   6.359  67.061  1.00  0.00    -0.365 OA 
HETATM   16  C   UNL     1     -10.202   7.307  67.231  1.00  0.00    -0.253 C  
ENDBRANCH   8  13
ENDBRANCH   7   8
ENDBRANCH   6   7
ENDBRANCH   5   6
BRANCH   5  17
HETATM   17  C   UNL     1     -11.879  13.597  67.682  1.00  0.00    -0.369 C  
BRANCH  17  18
HETATM   18  C   UNL     1     -11.537  13.437  69.190  1.00  0.00    -0.315 C  
BRANCH  18  19
HETATM   19  N   UNL     1     -11.620  14.706  70.005  1.00  0.00    -0.272 NA 
BRANCH  19  20
HETATM   20  C   UNL     1     -12.946  14.680  70.744  1.00  0.00    -0.347 C  
HETATM   21  O   UNL     1     -13.572  14.144  73.030  1.00  0.00    -0.651 OA 
HETATM   22  O   UNL     1     -11.651  15.288  72.677  1.00  0.00    -0.449 OA 
HETATM   23  C   UNL     1     -12.771  14.652  72.260  1.00  0.00    -0.335 C  
ENDBRANCH  19  20
BRANCH  19  24
HETATM   24  C   UNL     1     -11.678  15.874  69.046  1.00  0.00    -0.370 C  
HETATM   25  C   UNL     1     -10.423  16.740  69.088  1.00  0.00    -0.343 C  
HETATM   26  O   UNL     1     -10.408  17.933  68.831  1.00  0.00    -0.367 OA 
HETATM   27  O   UNL     1      -9.306  16.029  69.368  1.00  0.00    -0.254 OA 
ENDBRANCH  19  24
ENDBRANCH  18  19
ENDBRANCH  17  18
ENDBRANCH   5  17
ENDBRANCH   3   5
TORSDOF 11
ENDMDL
MODEL       84
REMARK 921   NORMALIZED FREE ENERGY PREDICTED BY IDOCK:   -4.96 KCAL/MOL
REMARK 922        TOTAL FREE ENERGY PREDICTED BY IDOCK:   -9.90 KCAL/MOL
REMARK 923 INTER-LIGAND FREE ENERGY PREDICTED BY IDOCK:   -8.57 KCAL/MOL
REMARK 924 INTRA-LIGAND FREE ENERGY PREDICTED BY IDOCK:   -1.33 KCAL/MOL
REMARK 927      BINDING AFFINITY PREDICTED BY RF-SCORE:    0.00 PKD
ROOT
HETATM    1  O   UNL     1     -13.203  12.391  64.461  1.00  0.00    -0.834 OA 
HETATM    2  C   UNL     1     -12.712  13.616  64.761  1.00  0.00    -0.219 C  
HETATM    3  C   UNL     1     -12.393  13.774  66.246  1.00  0.00    -0.433 C  
HETATM    4  O   UNL     1     -12.585  14.509  63.936  1.00  0.00    -0.827 OA 
ENDROOT
BRANCH   3   5
HETATM    5  N   UNL     1     -11.950  12.487  66.888  1.00  0.00    -0.543 NA 
BRANCH   5   6
HETATM    6  C   UNL     1     -10.517  12.227  66.521  1.00  0.00    -0.227 C  
BRANCH   6   7
HETATM    7  C   UNL     1     -10.226  10.766  66.061  1.00  0.00    -0.251 C  
BRANCH   7   8
HETATM    8  N   UNL     1      -9.382   9.930  66.984  1.00  0.00    -0.145 NA 
BRANCH   8   9
HETATM    9  C   UNL     1     -10.302   8.915  67.640  1.00  0.00    -0.251 C  
HETATM   10  O   UNL     1      -9.060   7.263  66.410  1.00  0.00    -0.152 OA 
HETATM   11  C   UNL     1     -10.269   7.555  66.945  1.00  0.00    -0.289 C  
HETATM   12  O   UNL     1     -11.220   6.791  66.894  1.00  0.00    -0.375 OA 
ENDBRANCH   8   9
BRANCH   8  13
HETATM   13  C   UNL     1      -8.865  10.829  68.082  1.00  0.00    -0.133 C  
HETATM   14  O   UNL     1      -6.939   9.401  68.100  1.00  0.00    -0.073 OA 
HETATM   15  O   UNL     1      -7.489  10.429  70.043  1.00  0.00    -0.159 OA 
HETATM   16  C   UNL     1      -7.719  10.199  68.867  1.00  0.00    -0.093 C  
ENDBRANCH   8  13
ENDBRANCH   7   8
ENDBRANCH   6   7
ENDBRANCH   5   6
BRANCH   5  17
HETATM   17  C   UNL     1     -12.036  12.638  68.375  1.00  0.00    -0.221 C  
BRANCH  17  18
HETATM   18  C   UNL     1     -11.059  13.650  69.039  1.00  0.00    -0.255 C  
BRANCH  18  19
HETATM   19  N   UNL     1     -11.720  14.757  69.828  1.00  0.00    -0.292 NA 
BRANCH  19  20
HETATM   20  C   UNL     1     -10.634  15.747  70.208  1.00  0.00    -0.284 C  
HETATM   21  O   UNL     1      -9.007  17.015  68.923  1.00  0.00    -0.267 OA 
HETATM   22  O   UNL     1     -11.090  16.758  68.075  1.00  0.00    -0.336 OA 
HETATM   23  C   UNL     1     -10.136  16.558  69.014  1.00  0.00    -0.279 C  
ENDBRANCH  19  20
BRANCH  19  24
HETATM   24  C   UNL     1     -12.241  14.163  71.118  1.00  0.00    -0.358 C  
HETATM   25  C   UNL     1     -13.337  15.006  71.760  1.00  0.00    -0.386 C  
HETATM   26  O   UNL     1     -13.554  15.045  72.961  1.00  0.00    -0.452 OA 
HETATM   27  O   UNL     1     -14.099  15.656  70.849  1.00  0.00    -0.434 OA 
ENDBRANCH  19  24
ENDBRANCH  18  19
ENDBRANCH  17  18
ENDBRANCH   5  17
ENDBRANCH   3   5
TORSDOF 11
ENDMDL
MODEL       85
REMARK 921   NORMALIZED FREE ENERGY PREDICTED BY IDOCK:   -4.96 KCAL/MOL
REMARK 922        TOTAL FREE ENERGY PREDICTED BY IDOCK:   -9.89 KCAL/MOL
REMARK 923 INTER-LIGAND FREE ENERGY PREDICTED BY IDOCK:   -8.73 KCAL/MOL
REMARK 924 INTRA-LIGAND FREE ENERGY PREDICTED BY IDOCK:   -1.17 KCAL/MOL
REMARK 927      BINDING AFFINITY PREDICTED BY RF-SCORE:    0.00 PKD
ROOT
HETATM    1  O   UNL     1     -11.845  16.419  72.487  1.00  0.00    -0.527 OA 
HETATM    2  C   UNL     1     -12.956  15.692  72.224  1.00  0.00    -0.447 C  
HETATM    3  C   UNL     1     -13.056  15.279  70.758  1.00  0.00    -0.414 C  
HETATM    4  O   UNL     1     -13.806  15.436  73.065  1.00  0.00    -0.456 OA 
ENDROOT
BRANCH   3   5
HETATM    5  N   UNL     1     -11.710  15.057  70.121  1.00  0.00    -0.278 NA 
BRANCH   5   6
HETATM    6  C   UNL     1     -11.683  13.690  69.500  1.00  0.00    -0.322 C  
BRANCH   6   7
HETATM    7  C   UNL     1     -12.083  12.536  70.468  1.00  0.00    -0.274 C  
BRANCH   7   8
HETATM    8  N   UNL     1     -11.534  11.173  70.145  1.00  0.00    -0.295 NA 
BRANCH   8   9
HETATM    9  C   UNL     1     -12.008  10.814  68.748  1.00  0.00    -0.087 C  
HETATM   10  O   UNL     1      -9.675  10.731  68.173  1.00  0.00    -0.152 OA 
HETATM   11  C   UNL     1     -10.915  10.984  67.694  1.00  0.00    -0.275 C  
HETATM   12  O   UNL     1     -11.129  11.290  66.532  1.00  0.00    -0.285 OA 
ENDBRANCH   8   9
BRANCH   8  13
HETATM   13  C   UNL     1     -12.169  10.181  71.092  1.00  0.00    -0.389 C  
HETATM   14  O   UNL     1     -10.092   8.992  70.957  1.00  0.00    -0.232 OA 
HETATM   15  O   UNL     1     -11.962   7.777  71.361  1.00  0.00    -0.291 OA 
HETATM   16  C   UNL     1     -11.427   8.850  71.135  1.00  0.00    -0.301 C  
ENDBRANCH   8  13
ENDBRANCH   7   8
ENDBRANCH   6   7
ENDBRANCH   5   6
BRANCH   5  17
HETATM   17  C   UNL     1     -11.520  16.072  69.036  1.00  0.00    -0.360 C  
BRANCH  17  18
HETATM   18  C   UNL     1     -10.393  17.123  69.243  1.00  0.00    -0.257 C  
BRANCH  18  19
HETATM   19  N   UNL     1      -9.724  17.606  67.978  1.00  0.00    -0.289 NA 
BRANCH  19  20
HETATM   20  C   UNL     1      -8.273  17.892  68.318  1.00  0.00    -0.290 C  
HETATM   21  O   UNL     1      -6.207  16.654  67.992  1.00  0.00    -0.121 OA 
HETATM   22  O   UNL     1      -7.768  16.599  66.354  1.00  0.00    -0.280 OA 
HETATM   23  C   UNL     1      -7.305  16.981  67.567  1.00  0.00    -0.154 C  
ENDBRANCH  19  20
BRANCH  19  24
HETATM   24  C   UNL     1     -10.351  18.928  67.593  1.00  0.00    -0.426 C  
HETATM   25  C   UNL     1     -10.457  19.119  66.084  1.00  0.00    -0.477 C  
HETATM   26  O   UNL     1     -10.439  20.207  65.530  1.00  0.00    -0.387 OA 
HETATM   27  O   UNL     1     -10.649  17.954  65.421  1.00  0.00    -0.656 OA 
ENDBRANCH  19  24
ENDBRANCH  18  19
ENDBRANCH  17  18
ENDBRANCH   5  17
ENDBRANCH   3   5
TORSDOF 11
ENDMDL
MODEL       86
REMARK 921   NORMALIZED FREE ENERGY PREDICTED BY IDOCK:   -4.95 KCAL/MOL
REMARK 922        TOTAL FREE ENERGY PREDICTED BY IDOCK:   -9.88 KCAL/MOL
REMARK 923 INTER-LIGAND FREE ENERGY PREDICTED BY IDOCK:   -8.50 KCAL/MOL
REMARK 924 INTRA-LIGAND FREE ENERGY PREDICTED BY IDOCK:   -1.38 KCAL/MOL
REMARK 927      BINDING AFFINITY PREDICTED BY RF-SCORE:    0.00 PKD
ROOT
HETATM    1  O   UNL     1     -10.858  12.561  63.599  1.00  0.00    -0.423 OA 
HETATM    2  C   UNL     1     -12.034  13.197  63.815  1.00  0.00    -0.508 C  
HETATM    3  C   UNL     1     -12.431  13.213  65.289  1.00  0.00    -0.495 C  
HETATM    4  O   UNL     1     -12.720  13.663  62.918  1.00  0.00    -0.577 OA 
ENDROOT
BRANCH   3   5
HETATM    5  N   UNL     1     -11.244  13.260  66.213  1.00  0.00    -0.294 NA 
BRANCH   5   6
HETATM    6  C   UNL     1     -10.898  14.694  66.492  1.00  0.00    -0.315 C  
BRANCH   6   7
HETATM    7  C   UNL     1      -9.397  15.048  66.272  1.00  0.00    -0.307 C  
BRANCH   7   8
HETATM    8  N   UNL     1      -9.038  16.508  66.331  1.00  0.00    -0.274 NA 
BRANCH   8   9
HETATM    9  C   UNL     1      -7.648  16.607  66.934  1.00  0.00    -0.227 C  
HETATM   10  O   UNL     1      -7.296  18.404  65.375  1.00  0.00    -0.521 OA 
HETATM   11  C   UNL     1      -6.684  17.412  66.062  1.00  0.00    -0.164 C  
HETATM   12  O   UNL     1      -5.482  17.206  66.004  1.00  0.00    -0.318 OA 
ENDBRANCH   8   9
BRANCH   8  13
HETATM   13  C   UNL     1      -9.984  17.179  67.299  1.00  0.00    -0.274 C  
HETATM   14  O   UNL     1     -10.684  18.498  65.424  1.00  0.00    -0.585 OA 
HETATM   15  O   UNL     1     -10.846  19.442  67.478  1.00  0.00    -0.478 OA 
HETATM   16  C   UNL     1     -10.529  18.501  66.769  1.00  0.00    -0.394 C  
ENDBRANCH   8  13
ENDBRANCH   7   8
ENDBRANCH   6   7
ENDBRANCH   5   6
BRANCH   5  17
HETATM   17  C   UNL     1     -11.617  12.605  67.507  1.00  0.00    -0.359 C  
BRANCH  17  18
HETATM   18  C   UNL     1     -10.456  12.245  68.477  1.00  0.00    -0.232 C  
BRANCH  18  19
HETATM   19  N   UNL     1      -9.688  10.994  68.123  1.00  0.00    -0.168 NA 
BRANCH  19  20
HETATM   20  C   UNL     1      -8.564  11.404  67.189  1.00  0.00    -0.151 C  
HETATM   21  O   UNL     1      -6.682  12.927  67.412  1.00  0.00    -0.158 OA 
HETATM   22  O   UNL     1      -7.263  11.660  69.196  1.00  0.00    -0.112 OA 
HETATM   23  C   UNL     1      -7.416  12.094  67.923  1.00  0.00    -0.117 C  
ENDBRANCH  19  20
BRANCH  19  24
HETATM   24  C   UNL     1     -10.607  10.092  67.329  1.00  0.00    -0.257 C  
HETATM   25  C   UNL     1     -10.459   8.619  67.697  1.00  0.00    -0.244 C  
HETATM   26  O   UNL     1     -10.672   7.697  66.926  1.00  0.00    -0.351 OA 
HETATM   27  O   UNL     1     -10.137   8.435  69.000  1.00  0.00    -0.192 OA 
ENDBRANCH  19  24
ENDBRANCH  18  19
ENDBRANCH  17  18
ENDBRANCH   5  17
ENDBRANCH   3   5
TORSDOF 11
ENDMDL
MODEL       87
REMARK 921   NORMALIZED FREE ENERGY PREDICTED BY IDOCK:   -4.95 KCAL/MOL
REMARK 922        TOTAL FREE ENERGY PREDICTED BY IDOCK:   -9.87 KCAL/MOL
REMARK 923 INTER-LIGAND FREE ENERGY PREDICTED BY IDOCK:   -8.62 KCAL/MOL
REMARK 924 INTRA-LIGAND FREE ENERGY PREDICTED BY IDOCK:   -1.25 KCAL/MOL
REMARK 927      BINDING AFFINITY PREDICTED BY RF-SCORE:    0.00 PKD
ROOT
HETATM    1  O   UNL     1     -11.229  11.614  64.837  1.00  0.00    -0.290 OA 
HETATM    2  C   UNL     1     -12.163  12.524  65.198  1.00  0.00    -0.448 C  
HETATM    3  C   UNL     1     -12.011  12.980  66.647  1.00  0.00    -0.387 C  
HETATM    4  O   UNL     1     -13.056  12.901  64.453  1.00  0.00    -0.686 OA 
ENDROOT
BRANCH   3   5
HETATM    5  N   UNL     1     -10.580  12.985  67.110  1.00  0.00    -0.245 NA 
BRANCH   5   6
HETATM    6  C   UNL     1     -10.130  14.405  67.295  1.00  0.00    -0.251 C  
BRANCH   6   7
HETATM    7  C   UNL     1     -11.209  15.346  67.913  1.00  0.00    -0.329 C  
BRANCH   7   8
HETATM    8  N   UNL     1     -10.736  16.296  68.980  1.00  0.00    -0.278 NA 
BRANCH   8   9
HETATM    9  C   UNL     1      -9.343  16.756  68.588  1.00  0.00    -0.252 C  
HETATM   10  O   UNL     1     -10.149  18.978  69.033  1.00  0.00    -0.403 OA 
HETATM   11  C   UNL     1      -9.280  18.253  68.290  1.00  0.00    -0.309 C  
HETATM   12  O   UNL     1      -8.513  18.757  67.485  1.00  0.00    -0.266 OA 
ENDBRANCH   8   9
BRANCH   8  13
HETATM   13  C   UNL     1     -10.595  15.515  70.265  1.00  0.00    -0.304 C  
HETATM   14  O   UNL     1     -12.934  15.946  70.574  1.00  0.00    -0.438 OA 
HETATM   15  O   UNL     1     -11.669  15.688  72.437  1.00  0.00    -0.419 OA 
HETATM   16  C   UNL     1     -11.762  15.741  71.221  1.00  0.00    -0.440 C  
ENDBRANCH   8  13
ENDBRANCH   7   8
ENDBRANCH   6   7
ENDBRANCH   5   6
BRANCH   5  17
HETATM   17  C   UNL     1     -10.502  12.290  68.435  1.00  0.00    -0.233 C  
BRANCH  17  18
HETATM   18  C   UNL     1     -11.714  11.405  68.840  1.00  0.00    -0.343 C  
BRANCH  18  19
HETATM   19  N   UNL     1     -11.361  10.103  69.518  1.00  0.00    -0.229 NA 
BRANCH  19  20
HETATM   20  C   UNL     1     -11.660  10.270  70.997  1.00  0.00    -0.343 C  
HETATM   21  O   UNL     1     -13.249   9.221  72.507  1.00  0.00    -0.437 OA 
HETATM   22  O   UNL     1     -12.244   7.938  70.936  1.00  0.00    -0.243 OA 
HETATM   23  C   UNL     1     -12.482   9.114  71.563  1.00  0.00    -0.346 C  
ENDBRANCH  19  20
BRANCH  19  24
HETATM   24  C   UNL     1      -9.867   9.903  69.395  1.00  0.00    -0.217 C  
HETATM   25  C   UNL     1      -9.492   8.509  68.903  1.00  0.00    -0.147 C  
HETATM   26  O   UNL     1      -8.448   7.943  69.184  1.00  0.00    -0.134 OA 
HETATM   27  O   UNL     1     -10.410   7.989  68.054  1.00  0.00    -0.202 OA 
ENDBRANCH  19  24
ENDBRANCH  18  19
ENDBRANCH  17  18
ENDBRANCH   5  17
ENDBRANCH   3   5
TORSDOF 11
ENDMDL
MODEL       88
REMARK 921   NORMALIZED FREE ENERGY PREDICTED BY IDOCK:   -4.94 KCAL/MOL
REMARK 922        TOTAL FREE ENERGY PREDICTED BY IDOCK:   -9.86 KCAL/MOL
REMARK 923 INTER-LIGAND FREE ENERGY PREDICTED BY IDOCK:   -8.24 KCAL/MOL
REMARK 924 INTRA-LIGAND FREE ENERGY PREDICTED BY IDOCK:   -1.63 KCAL/MOL
REMARK 927      BINDING AFFINITY PREDICTED BY RF-SCORE:    0.00 PKD
ROOT
HETATM    1  O   UNL     1      -8.639  10.590  63.632  1.00  0.00    -0.172 OA 
HETATM    2  C   UNL     1      -9.928  10.827  63.971  1.00  0.00    -0.342 C  
HETATM    3  C   UNL     1     -10.202  10.575  65.452  1.00  0.00    -0.270 C  
HETATM    4  O   UNL     1     -10.784  11.162  63.166  1.00  0.00    -0.252 OA 
ENDROOT
BRANCH   3   5
HETATM    5  N   UNL     1      -9.013  10.872  66.325  1.00  0.00    -0.170 NA 
BRANCH   5   6
HETATM    6  C   UNL     1      -9.008  12.335  66.662  1.00  0.00    -0.189 C  
BRANCH   6   7
HETATM    7  C   UNL     1     -10.389  12.895  67.117  1.00  0.00    -0.238 C  
BRANCH   7   8
HETATM    8  N   UNL     1     -10.723  14.294  66.675  1.00  0.00    -0.288 NA 
BRANCH   8   9
HETATM    9  C   UNL     1     -11.854  14.788  67.559  1.00  0.00    -0.301 C  
HETATM   10  O   UNL     1     -10.273  16.409  68.368  1.00  0.00    -0.239 OA 
HETATM   11  C   UNL     1     -11.365  15.680  68.698  1.00  0.00    -0.357 C  
HETATM   12  O   UNL     1     -11.909  15.755  69.789  1.00  0.00    -0.343 OA 
ENDBRANCH   8   9
BRANCH   8  13
HETATM   13  C   UNL     1     -11.266  14.218  65.268  1.00  0.00    -0.337 C  
HETATM   14  O   UNL     1     -10.429  16.450  65.015  1.00  0.00    -0.642 OA 
HETATM   15  O   UNL     1     -12.231  15.869  63.771  1.00  0.00    -0.817 OA 
HETATM   16  C   UNL     1     -11.392  15.589  64.611  1.00  0.00    -0.357 C  
ENDBRANCH   8  13
ENDBRANCH   7   8
ENDBRANCH   6   7
ENDBRANCH   5   6
BRANCH   5  17
HETATM   17  C   UNL     1      -9.145  10.095  67.598  1.00  0.00    -0.137 C  
BRANCH  17  18
HETATM   18  C   UNL     1     -10.451   9.273  67.790  1.00  0.00    -0.255 C  
BRANCH  18  19
HETATM   19  N   UNL     1     -10.880   9.073  69.224  1.00  0.00    -0.168 NA 
BRANCH  19  20
HETATM   20  C   UNL     1     -10.672  10.393  69.944  1.00  0.00    -0.279 C  
HETATM   21  O   UNL     1     -12.158  12.223  70.537  1.00  0.00    -0.364 OA 
HETATM   22  O   UNL     1     -12.934  10.103  70.706  1.00  0.00    -0.358 OA 
HETATM   23  C   UNL     1     -11.984  11.020  70.408  1.00  0.00    -0.368 C  
ENDBRANCH  19  20
BRANCH  19  24
HETATM   24  C   UNL     1      -9.935   8.076  69.859  1.00  0.00    -0.189 C  
HETATM   25  C   UNL     1     -10.659   6.986  70.642  1.00  0.00    -0.225 C  
HETATM   26  O   UNL     1     -10.183   6.405  71.605  1.00  0.00    -0.193 OA 
HETATM   27  O   UNL     1     -11.864   6.673  70.111  1.00  0.00    -0.389 OA 
ENDBRANCH  19  24
ENDBRANCH  18  19
ENDBRANCH  17  18
ENDBRANCH   5  17
ENDBRANCH   3   5
TORSDOF 11
ENDMDL
MODEL       89
REMARK 921   NORMALIZED FREE ENERGY PREDICTED BY IDOCK:   -4.94 KCAL/MOL
REMARK 922        TOTAL FREE ENERGY PREDICTED BY IDOCK:   -9.86 KCAL/MOL
REMARK 923 INTER-LIGAND FREE ENERGY PREDICTED BY IDOCK:   -8.68 KCAL/MOL
REMARK 924 INTRA-LIGAND FREE ENERGY PREDICTED BY IDOCK:   -1.18 KCAL/MOL
REMARK 927      BINDING AFFINITY PREDICTED BY RF-SCORE:    0.00 PKD
ROOT
HETATM    1  O   UNL     1     -10.709  12.607  63.590  1.00  0.00    -0.425 OA 
HETATM    2  C   UNL     1     -11.958  13.073  63.825  1.00  0.00    -0.518 C  
HETATM    3  C   UNL     1     -12.463  12.722  65.223  1.00  0.00    -0.465 C  
HETATM    4  O   UNL     1     -12.622  13.668  62.989  1.00  0.00    -0.729 OA 
ENDROOT
BRANCH   3   5
HETATM    5  N   UNL     1     -11.359  12.662  66.244  1.00  0.00    -0.311 NA 
BRANCH   5   6
HETATM    6  C   UNL     1     -11.849  13.266  67.528  1.00  0.00    -0.358 C  
BRANCH   6   7
HETATM    7  C   UNL     1     -11.634  14.805  67.639  1.00  0.00    -0.354 C  
BRANCH   7   8
HETATM    8  N   UNL     1     -11.369  15.347  69.017  1.00  0.00    -0.294 NA 
BRANCH   8   9
HETATM    9  C   UNL     1      -9.878  15.618  69.117  1.00  0.00    -0.247 C  
HETATM   10  O   UNL     1     -10.481  17.945  69.060  1.00  0.00    -0.306 OA 
HETATM   11  C   UNL     1      -9.515  17.054  68.739  1.00  0.00    -0.263 C  
HETATM   12  O   UNL     1      -8.455  17.377  68.226  1.00  0.00    -0.233 OA 
ENDBRANCH   8   9
BRANCH   8  13
HETATM   13  C   UNL     1     -11.683  14.255  70.012  1.00  0.00    -0.298 C  
HETATM   14  O   UNL     1     -13.496  15.659  70.712  1.00  0.00    -0.536 OA 
HETATM   15  O   UNL     1     -12.596  14.273  72.262  1.00  0.00    -0.308 OA 
HETATM   16  C   UNL     1     -12.609  14.725  71.129  1.00  0.00    -0.337 C  
ENDBRANCH   8  13
ENDBRANCH   7   8
ENDBRANCH   6   7
ENDBRANCH   5   6
BRANCH   5  17
HETATM   17  C   UNL     1     -11.018  11.226  66.498  1.00  0.00    -0.245 C  
BRANCH  17  18
HETATM   18  C   UNL     1     -11.250  10.690  67.940  1.00  0.00    -0.308 C  
BRANCH  18  19
HETATM   19  N   UNL     1     -10.776   9.277  68.184  1.00  0.00    -0.190 NA 
BRANCH  19  20
HETATM   20  C   UNL     1      -9.880   9.309  69.409  1.00  0.00    -0.174 C  
HETATM   21  O   UNL     1     -10.293   9.007  71.785  1.00  0.00    -0.332 OA 
HETATM   22  O   UNL     1     -11.411   7.693  70.320  1.00  0.00    -0.237 OA 
HETATM   23  C   UNL     1     -10.542   8.683  70.634  1.00  0.00    -0.211 C  
ENDBRANCH  19  20
BRANCH  19  24
HETATM   24  C   UNL     1      -9.904   8.869  67.017  1.00  0.00    -0.214 C  
HETATM   25  C   UNL     1      -9.932   7.368  66.750  1.00  0.00    -0.230 C  
HETATM   26  O   UNL     1      -9.007   6.745  66.255  1.00  0.00    -0.149 OA 
HETATM   27  O   UNL     1     -11.125   6.804  67.054  1.00  0.00    -0.403 OA 
ENDBRANCH  19  24
ENDBRANCH  18  19
ENDBRANCH  17  18
ENDBRANCH   5  17
ENDBRANCH   3   5
TORSDOF 11
ENDMDL
MODEL       90
REMARK 921   NORMALIZED FREE ENERGY PREDICTED BY IDOCK:   -4.93 KCAL/MOL
REMARK 922        TOTAL FREE ENERGY PREDICTED BY IDOCK:   -9.83 KCAL/MOL
REMARK 923 INTER-LIGAND FREE ENERGY PREDICTED BY IDOCK:   -8.53 KCAL/MOL
REMARK 924 INTRA-LIGAND FREE ENERGY PREDICTED BY IDOCK:   -1.31 KCAL/MOL
REMARK 927      BINDING AFFINITY PREDICTED BY RF-SCORE:    0.00 PKD
ROOT
HETATM    1  O   UNL     1     -12.578  13.267  63.128  1.00  0.00    -0.666 OA 
HETATM    2  C   UNL     1     -11.540  12.625  63.714  1.00  0.00    -0.476 C  
HETATM    3  C   UNL     1     -10.704  13.545  64.600  1.00  0.00    -0.416 C  
HETATM    4  O   UNL     1     -11.280  11.448  63.514  1.00  0.00    -0.391 OA 
ENDROOT
BRANCH   3   5
HETATM    5  N   UNL     1     -11.520  14.633  65.246  1.00  0.00    -0.351 NA 
BRANCH   5   6
HETATM    6  C   UNL     1     -11.800  14.253  66.671  1.00  0.00    -0.421 C  
BRANCH   6   7
HETATM    7  C   UNL     1     -11.696  12.725  66.962  1.00  0.00    -0.374 C  
BRANCH   7   8
HETATM    8  N   UNL     1     -10.982  12.331  68.226  1.00  0.00    -0.218 NA 
BRANCH   8   9
HETATM    9  C   UNL     1      -9.926  11.307  67.847  1.00  0.00    -0.175 C  
HETATM   10  O   UNL     1      -8.469  13.194  67.528  1.00  0.00    -0.173 OA 
HETATM   11  C   UNL     1      -8.735  11.930  67.121  1.00  0.00    -0.176 C  
HETATM   12  O   UNL     1      -8.070  11.350  66.277  1.00  0.00    -0.149 OA 
ENDBRANCH   8   9
BRANCH   8  13
HETATM   13  C   UNL     1     -11.975  11.627  69.120  1.00  0.00    -0.313 C  
HETATM   14  O   UNL     1     -12.367  13.786  70.085  1.00  0.00    -0.335 OA 
HETATM   15  O   UNL     1     -12.681  11.980  71.417  1.00  0.00    -0.362 OA 
HETATM   16  C   UNL     1     -12.359  12.457  70.341  1.00  0.00    -0.227 C  
ENDBRANCH   8  13
ENDBRANCH   7   8
ENDBRANCH   6   7
ENDBRANCH   5   6
BRANCH   5  17
HETATM   17  C   UNL     1     -10.719  15.898  65.244  1.00  0.00    -0.424 C  
BRANCH  17  18
HETATM   18  C   UNL     1      -9.294  15.832  65.864  1.00  0.00    -0.321 C  
BRANCH  18  19
HETATM   19  N   UNL     1      -9.051  16.776  67.018  1.00  0.00    -0.218 NA 
BRANCH  19  20
HETATM   20  C   UNL     1      -9.219  18.188  66.487  1.00  0.00    -0.281 C  
HETATM   21  O   UNL     1     -10.887  19.919  66.846  1.00  0.00    -0.433 OA 
HETATM   22  O   UNL     1     -10.255  18.646  68.609  1.00  0.00    -0.375 OA 
HETATM   23  C   UNL     1     -10.216  19.006  67.304  1.00  0.00    -0.399 C  
ENDBRANCH  19  20
BRANCH  19  24
HETATM   24  C   UNL     1      -7.605  16.637  67.438  1.00  0.00    -0.165 C  
HETATM   25  C   UNL     1      -7.435  16.497  68.947  1.00  0.00    -0.225 C  
HETATM   26  O   UNL     1      -6.444  16.862  69.560  1.00  0.00    -0.226 OA 
HETATM   27  O   UNL     1      -8.472  15.853  69.534  1.00  0.00    -0.234 OA 
ENDBRANCH  19  24
ENDBRANCH  18  19
ENDBRANCH  17  18
ENDBRANCH   5  17
ENDBRANCH   3   5
TORSDOF 11
ENDMDL
MODEL       91
REMARK 921   NORMALIZED FREE ENERGY PREDICTED BY IDOCK:   -4.92 KCAL/MOL
REMARK 922        TOTAL FREE ENERGY PREDICTED BY IDOCK:   -9.83 KCAL/MOL
REMARK 923 INTER-LIGAND FREE ENERGY PREDICTED BY IDOCK:   -8.29 KCAL/MOL
REMARK 924 INTRA-LIGAND FREE ENERGY PREDICTED BY IDOCK:   -1.54 KCAL/MOL
REMARK 927      BINDING AFFINITY PREDICTED BY RF-SCORE:    0.00 PKD
ROOT
HETATM    1  O   UNL     1      -7.428   9.401  65.110  1.00  0.00    -0.100 OA 
HETATM    2  C   UNL     1      -7.253   9.705  66.417  1.00  0.00    -0.094 C  
HETATM    3  C   UNL     1      -8.463  10.413  67.023  1.00  0.00    -0.127 C  
HETATM    4  O   UNL     1      -6.219   9.477  67.028  1.00  0.00    -0.063 OA 
ENDROOT
BRANCH   3   5
HETATM    5  N   UNL     1      -9.764   9.976  66.406  1.00  0.00    -0.198 NA 
BRANCH   5   6
HETATM    6  C   UNL     1     -10.559   9.218  67.430  1.00  0.00    -0.255 C  
BRANCH   6   7
HETATM    7  C   UNL     1     -10.537   9.846  68.856  1.00  0.00    -0.218 C  
BRANCH   7   8
HETATM    8  N   UNL     1     -11.109   9.006  69.966  1.00  0.00    -0.220 NA 
BRANCH   8   9
HETATM    9  C   UNL     1     -11.301   9.915  71.167  1.00  0.00    -0.370 C  
HETATM   10  O   UNL     1     -13.555   9.080  71.212  1.00  0.00    -0.309 OA 
HETATM   11  C   UNL     1     -12.774  10.147  71.500  1.00  0.00    -0.436 C  
HETATM   12  O   UNL     1     -13.208  11.173  71.999  1.00  0.00    -0.493 OA 
ENDBRANCH   8   9
BRANCH   8  13
HETATM   13  C   UNL     1     -10.070   7.980  70.354  1.00  0.00    -0.194 C  
HETATM   14  O   UNL     1     -11.681   6.347  69.660  1.00  0.00    -0.389 OA 
HETATM   15  O   UNL     1     -10.215   5.739  71.277  1.00  0.00    -0.200 OA 
HETATM   16  C   UNL     1     -10.655   6.580  70.511  1.00  0.00    -0.234 C  
ENDBRANCH   8  13
ENDBRANCH   7   8
ENDBRANCH   6   7
ENDBRANCH   5   6
BRANCH   5  17
HETATM   17  C   UNL     1     -10.542  11.193  66.013  1.00  0.00    -0.239 C  
BRANCH  17  18
HETATM   18  C   UNL     1      -9.759  12.535  65.931  1.00  0.00    -0.219 C  
BRANCH  18  19
HETATM   19  N   UNL     1     -10.597  13.779  66.108  1.00  0.00    -0.287 NA 
BRANCH  19  20
HETATM   20  C   UNL     1     -11.814  13.389  66.927  1.00  0.00    -0.403 C  
HETATM   21  O   UNL     1     -12.349  13.536  69.293  1.00  0.00    -0.260 OA 
HETATM   22  O   UNL     1     -11.206  15.240  68.337  1.00  0.00    -0.278 OA 
HETATM   23  C   UNL     1     -11.818  14.032  68.312  1.00  0.00    -0.371 C  
ENDBRANCH  19  20
BRANCH  19  24
HETATM   24  C   UNL     1     -11.104  14.198  64.745  1.00  0.00    -0.387 C  
HETATM   25  C   UNL     1     -11.183  15.712  64.580  1.00  0.00    -0.369 C  
HETATM   26  O   UNL     1     -11.978  16.278  63.847  1.00  0.00    -1.003 OA 
HETATM   27  O   UNL     1     -10.225  16.366  65.279  1.00  0.00    -0.575 OA 
ENDBRANCH  19  24
ENDBRANCH  18  19
ENDBRANCH  17  18
ENDBRANCH   5  17
ENDBRANCH   3   5
TORSDOF 11
ENDMDL
MODEL       92
REMARK 921   NORMALIZED FREE ENERGY PREDICTED BY IDOCK:   -4.92 KCAL/MOL
REMARK 922        TOTAL FREE ENERGY PREDICTED BY IDOCK:   -9.83 KCAL/MOL
REMARK 923 INTER-LIGAND FREE ENERGY PREDICTED BY IDOCK:   -8.48 KCAL/MOL
REMARK 924 INTRA-LIGAND FREE ENERGY PREDICTED BY IDOCK:   -1.34 KCAL/MOL
REMARK 927      BINDING AFFINITY PREDICTED BY RF-SCORE:    0.00 PKD
ROOT
HETATM    1  O   UNL     1     -13.027  14.518  70.396  1.00  0.00    -0.326 OA 
HETATM    2  C   UNL     1     -11.948  14.899  69.672  1.00  0.00    -0.320 C  
HETATM    3  C   UNL     1     -11.126  13.713  69.175  1.00  0.00    -0.231 C  
HETATM    4  O   UNL     1     -11.646  16.068  69.481  1.00  0.00    -0.330 OA 
ENDROOT
BRANCH   3   5
HETATM    5  N   UNL     1     -11.966  12.497  68.894  1.00  0.00    -0.281 NA 
BRANCH   5   6
HETATM    6  C   UNL     1     -11.682  12.018  67.499  1.00  0.00    -0.280 C  
BRANCH   6   7
HETATM    7  C   UNL     1     -10.701  12.923  66.696  1.00  0.00    -0.265 C  
BRANCH   7   8
HETATM    8  N   UNL     1     -11.215  13.477  65.395  1.00  0.00    -0.288 NA 
BRANCH   8   9
HETATM    9  C   UNL     1     -10.238  13.060  64.309  1.00  0.00    -0.292 C  
HETATM   10  O   UNL     1     -12.076  11.814  63.386  1.00  0.00    -0.491 OA 
HETATM   11  C   UNL     1     -10.729  11.855  63.508  1.00  0.00    -0.442 C  
HETATM   12  O   UNL     1      -9.990  11.024  63.003  1.00  0.00    -0.320 OA 
ENDBRANCH   8   9
BRANCH   8  13
HETATM   13  C   UNL     1     -11.160  14.985  65.478  1.00  0.00    -0.357 C  
HETATM   14  O   UNL     1     -12.856  14.963  63.785  1.00  0.00    -0.662 OA 
HETATM   15  O   UNL     1     -11.463  16.750  63.838  1.00  0.00    -1.116 OA 
HETATM   16  C   UNL     1     -11.809  15.665  64.278  1.00  0.00    -0.146 C  
ENDBRANCH   8  13
ENDBRANCH   7   8
ENDBRANCH   6   7
ENDBRANCH   5   6
BRANCH   5  17
HETATM   17  C   UNL     1     -11.577  11.413  69.852  1.00  0.00    -0.323 C  
BRANCH  17  18
HETATM   18  C   UNL     1     -10.373  10.515  69.450  1.00  0.00    -0.234 C  
BRANCH  18  19
HETATM   19  N   UNL     1     -10.383   9.125  70.041  1.00  0.00    -0.196 NA 
BRANCH  19  20
HETATM   20  C   UNL     1     -10.234   8.146  68.890  1.00  0.00    -0.210 C  
HETATM   21  O   UNL     1      -8.352   6.891  68.002  1.00  0.00    -0.120 OA 
HETATM   22  O   UNL     1      -8.530   7.125  70.246  1.00  0.00    -0.134 OA 
HETATM   23  C   UNL     1      -8.941   7.337  68.974  1.00  0.00    -0.134 C  
ENDBRANCH  19  20
BRANCH  19  24
HETATM   24  C   UNL     1     -11.750   8.884  70.644  1.00  0.00    -0.179 C  
HETATM   25  C   UNL     1     -11.699   8.051  71.920  1.00  0.00    -0.303 C  
HETATM   26  O   UNL     1     -12.603   7.324  72.298  1.00  0.00    -0.172 OA 
HETATM   27  O   UNL     1     -10.568   8.259  72.635  1.00  0.00    -0.332 OA 
ENDBRANCH  19  24
ENDBRANCH  18  19
ENDBRANCH  17  18
ENDBRANCH   5  17
ENDBRANCH   3   5
TORSDOF 11
ENDMDL
MODEL       93
REMARK 921   NORMALIZED FREE ENERGY PREDICTED BY IDOCK:   -4.92 KCAL/MOL
REMARK 922        TOTAL FREE ENERGY PREDICTED BY IDOCK:   -9.83 KCAL/MOL
REMARK 923 INTER-LIGAND FREE ENERGY PREDICTED BY IDOCK:   -8.60 KCAL/MOL
REMARK 924 INTRA-LIGAND FREE ENERGY PREDICTED BY IDOCK:   -1.23 KCAL/MOL
REMARK 927      BINDING AFFINITY PREDICTED BY RF-SCORE:    0.00 PKD
ROOT
HETATM    1  O   UNL     1     -12.297  13.769  71.112  1.00  0.00    -0.355 OA 
HETATM    2  C   UNL     1     -13.069  12.831  71.709  1.00  0.00    -0.356 C  
HETATM    3  C   UNL     1     -12.988  11.474  71.015  1.00  0.00    -0.159 C  
HETATM    4  O   UNL     1     -13.787  13.064  72.671  1.00  0.00    -0.653 OA 
ENDROOT
BRANCH   3   5
HETATM    5  N   UNL     1     -11.641  11.214  70.396  1.00  0.00    -0.300 NA 
BRANCH   5   6
HETATM    6  C   UNL     1     -11.147   9.870  70.847  1.00  0.00    -0.348 C  
BRANCH   6   7
HETATM    7  C   UNL     1     -10.852   8.871  69.688  1.00  0.00    -0.178 C  
BRANCH   7   8
HETATM    8  N   UNL     1     -10.677   7.428  70.077  1.00  0.00    -0.242 NA 
BRANCH   8   9
HETATM    9  C   UNL     1     -11.308   6.586  68.981  1.00  0.00    -0.220 C  
HETATM   10  O   UNL     1      -9.108   5.666  68.672  1.00  0.00    -0.117 OA 
HETATM   11  C   UNL     1     -10.271   5.964  68.047  1.00  0.00    -0.184 C  
HETATM   12  O   UNL     1     -10.470   5.731  66.865  1.00  0.00    -0.226 OA 
ENDBRANCH   8   9
BRANCH   8  13
HETATM   13  C   UNL     1     -11.480   7.186  71.333  1.00  0.00    -0.272 C  
HETATM   14  O   UNL     1      -9.623   5.851  72.050  1.00  0.00    -0.151 OA 
HETATM   15  O   UNL     1     -11.671   5.292  72.841  1.00  0.00    -0.295 OA 
HETATM   16  C   UNL     1     -10.965   6.000  72.142  1.00  0.00    -0.267 C  
ENDBRANCH   8  13
ENDBRANCH   7   8
ENDBRANCH   6   7
ENDBRANCH   5   6
BRANCH   5  17
HETATM   17  C   UNL     1     -11.795  11.184  68.907  1.00  0.00    -0.337 C  
BRANCH  17  18
HETATM   18  C   UNL     1     -11.839  12.555  68.174  1.00  0.00    -0.317 C  
BRANCH  18  19
HETATM   19  N   UNL     1     -11.570  12.499  66.689  1.00  0.00    -0.362 NA 
BRANCH  19  20
HETATM   20  C   UNL     1     -10.064  12.514  66.504  1.00  0.00    -0.238 C  
HETATM   21  O   UNL     1      -8.420  10.781  66.054  1.00  0.00    -0.160 OA 
HETATM   22  O   UNL     1     -10.430  10.658  65.020  1.00  0.00    -0.295 OA 
HETATM   23  C   UNL     1      -9.540  11.231  65.863  1.00  0.00    -0.221 C  
ENDBRANCH  19  20
BRANCH  19  24
HETATM   24  C   UNL     1     -12.099  13.775  66.070  1.00  0.00    -0.436 C  
HETATM   25  C   UNL     1     -12.647  13.570  64.662  1.00  0.00    -0.251 C  
HETATM   26  O   UNL     1     -12.655  14.433  63.800  1.00  0.00    -0.829 OA 
HETATM   27  O   UNL     1     -13.197  12.345  64.488  1.00  0.00    -0.834 OA 
ENDBRANCH  19  24
ENDBRANCH  18  19
ENDBRANCH  17  18
ENDBRANCH   5  17
ENDBRANCH   3   5
TORSDOF 11
ENDMDL
MODEL       94
REMARK 921   NORMALIZED FREE ENERGY PREDICTED BY IDOCK:   -4.92 KCAL/MOL
REMARK 922        TOTAL FREE ENERGY PREDICTED BY IDOCK:   -9.83 KCAL/MOL
REMARK 923 INTER-LIGAND FREE ENERGY PREDICTED BY IDOCK:   -8.60 KCAL/MOL
REMARK 924 INTRA-LIGAND FREE ENERGY PREDICTED BY IDOCK:   -1.22 KCAL/MOL
REMARK 927      BINDING AFFINITY PREDICTED BY RF-SCORE:    0.00 PKD
ROOT
HETATM    1  O   UNL     1     -12.254  10.401  71.410  1.00  0.00    -0.366 OA 
HETATM    2  C   UNL     1     -12.548  11.676  71.065  1.00  0.00    -0.331 C  
HETATM    3  C   UNL     1     -11.734  12.164  69.869  1.00  0.00    -0.287 C  
HETATM    4  O   UNL     1     -13.346  12.371  71.677  1.00  0.00    -0.351 OA 
ENDROOT
BRANCH   3   5
HETATM    5  N   UNL     1     -11.406  11.063  68.897  1.00  0.00    -0.254 NA 
BRANCH   5   6
HETATM    6  C   UNL     1     -11.781  11.506  67.512  1.00  0.00    -0.184 C  
BRANCH   6   7
HETATM    7  C   UNL     1     -11.666  13.042  67.275  1.00  0.00    -0.375 C  
BRANCH   7   8
HETATM    8  N   UNL     1     -11.679  13.500  65.842  1.00  0.00    -0.337 NA 
BRANCH   8   9
HETATM    9  C   UNL     1     -10.528  12.805  65.136  1.00  0.00    -0.300 C  
HETATM   10  O   UNL     1     -12.213  11.859  63.706  1.00  0.00    -0.458 OA 
HETATM   11  C   UNL     1     -10.992  11.650  64.250  1.00  0.00    -0.355 C  
HETATM   12  O   UNL     1     -10.327  10.650  64.029  1.00  0.00    -0.339 OA 
ENDBRANCH   8   9
BRANCH   8  13
HETATM   13  C   UNL     1     -11.374  14.980  65.826  1.00  0.00    -0.279 C  
HETATM   14  O   UNL     1     -12.775  15.065  63.882  1.00  0.00    -0.775 OA 
HETATM   15  O   UNL     1     -11.115  16.601  64.036  1.00  0.00    -0.914 OA 
HETATM   16  C   UNL     1     -11.707  15.634  64.489  1.00  0.00    -0.220 C  
ENDBRANCH   8  13
ENDBRANCH   7   8
ENDBRANCH   6   7
ENDBRANCH   5   6
BRANCH   5  17
HETATM   17  C   UNL     1      -9.929  10.817  68.930  1.00  0.00    -0.202 C  
BRANCH  17  18
HETATM   18  C   UNL     1      -9.426   9.664  69.844  1.00  0.00    -0.231 C  
BRANCH  18  19
HETATM   19  N   UNL     1      -9.869   8.280  69.434  1.00  0.00    -0.181 NA 
BRANCH  19  20
HETATM   20  C   UNL     1      -9.675   7.371  70.634  1.00  0.00    -0.175 C  
HETATM   21  O   UNL     1     -11.213   6.176  72.088  1.00  0.00    -0.258 OA 
HETATM   22  O   UNL     1     -11.677   6.277  69.874  1.00  0.00    -0.408 OA 
HETATM   23  C   UNL     1     -10.927   6.563  70.965  1.00  0.00    -0.265 C  
ENDBRANCH  19  20
BRANCH  19  24
HETATM   24  C   UNL     1      -8.925   7.788  68.358  1.00  0.00    -0.132 C  
HETATM   25  C   UNL     1      -9.651   7.153  67.176  1.00  0.00    -0.151 C  
HETATM   26  O   UNL     1      -9.172   6.279  66.471  1.00  0.00    -0.147 OA 
HETATM   27  O   UNL     1     -10.860   7.714  66.941  1.00  0.00    -0.328 OA 
ENDBRANCH  19  24
ENDBRANCH  18  19
ENDBRANCH  17  18
ENDBRANCH   5  17
ENDBRANCH   3   5
TORSDOF 11
ENDMDL
MODEL       95
REMARK 921   NORMALIZED FREE ENERGY PREDICTED BY IDOCK:   -4.92 KCAL/MOL
REMARK 922        TOTAL FREE ENERGY PREDICTED BY IDOCK:   -9.82 KCAL/MOL
REMARK 923 INTER-LIGAND FREE ENERGY PREDICTED BY IDOCK:   -8.23 KCAL/MOL
REMARK 924 INTRA-LIGAND FREE ENERGY PREDICTED BY IDOCK:   -1.59 KCAL/MOL
REMARK 927      BINDING AFFINITY PREDICTED BY RF-SCORE:    0.00 PKD
ROOT
HETATM    1  O   UNL     1      -6.689  14.551  69.502  1.00  0.00    -0.133 OA 
HETATM    2  C   UNL     1      -6.655  14.535  68.149  1.00  0.00    -0.136 C  
HETATM    3  C   UNL     1      -8.001  14.163  67.531  1.00  0.00    -0.188 C  
HETATM    4  O   UNL     1      -5.642  14.750  67.500  1.00  0.00    -0.334 OA 
ENDROOT
BRANCH   3   5
HETATM    5  N   UNL     1      -9.170  14.626  68.358  1.00  0.00    -0.191 NA 
BRANCH   5   6
HETATM    6  C   UNL     1      -9.717  15.893  67.765  1.00  0.00    -0.220 C  
BRANCH   6   7
HETATM    7  C   UNL     1      -9.520  17.157  68.656  1.00  0.00    -0.275 C  
BRANCH   7   8
HETATM    8  N   UNL     1      -8.820  18.324  68.014  1.00  0.00    -0.273 NA 
BRANCH   8   9
HETATM    9  C   UNL     1      -9.247  18.361  66.558  1.00  0.00    -0.296 C  
HETATM   10  O   UNL     1      -9.882  20.640  66.989  1.00  0.00    -0.450 OA 
HETATM   11  C   UNL     1     -10.158  19.546  66.242  1.00  0.00    -0.468 C  
HETATM   12  O   UNL     1     -11.031  19.528  65.388  1.00  0.00    -0.447 OA 
ENDBRANCH   8   9
BRANCH   8  13
HETATM   13  C   UNL     1      -7.336  18.040  68.029  1.00  0.00    -0.232 C  
HETATM   14  O   UNL     1      -7.167  19.943  69.477  1.00  0.00    -0.287 OA 
HETATM   15  O   UNL     1      -5.376  19.466  68.174  1.00  0.00    -0.183 OA 
HETATM   16  C   UNL     1      -6.516  19.223  68.534  1.00  0.00    -0.248 C  
ENDBRANCH   8  13
ENDBRANCH   7   8
ENDBRANCH   6   7
ENDBRANCH   5   6
BRANCH   5  17
HETATM   17  C   UNL     1     -10.240  13.580  68.303  1.00  0.00    -0.250 C  
BRANCH  17  18
HETATM   18  C   UNL     1     -11.260  13.675  67.133  1.00  0.00    -0.309 C  
BRANCH  18  19
HETATM   19  N   UNL     1     -11.076  12.653  66.036  1.00  0.00    -0.277 NA 
BRANCH  19  20
HETATM   20  C   UNL     1     -12.298  12.731  65.138  1.00  0.00    -0.496 C  
HETATM   21  O   UNL     1     -12.660  13.559  62.882  1.00  0.00    -0.607 OA 
HETATM   22  O   UNL     1     -10.737  12.451  63.331  1.00  0.00    -0.446 OA 
HETATM   23  C   UNL     1     -11.935  12.979  63.676  1.00  0.00    -0.539 C  
ENDBRANCH  19  20
BRANCH  19  24
HETATM   24  C   UNL     1     -11.089  11.279  66.671  1.00  0.00    -0.235 C  
HETATM   25  C   UNL     1      -9.957  10.385  66.175  1.00  0.00    -0.231 C  
HETATM   26  O   UNL     1     -10.022   9.167  66.122  1.00  0.00    -0.286 OA 
HETATM   27  O   UNL     1      -8.837  11.080  65.868  1.00  0.00    -0.188 OA 
ENDBRANCH  19  24
ENDBRANCH  18  19
ENDBRANCH  17  18
ENDBRANCH   5  17
ENDBRANCH   3   5
TORSDOF 11
ENDMDL
MODEL       96
REMARK 921   NORMALIZED FREE ENERGY PREDICTED BY IDOCK:   -4.91 KCAL/MOL
REMARK 922        TOTAL FREE ENERGY PREDICTED BY IDOCK:   -9.82 KCAL/MOL
REMARK 923 INTER-LIGAND FREE ENERGY PREDICTED BY IDOCK:   -8.55 KCAL/MOL
REMARK 924 INTRA-LIGAND FREE ENERGY PREDICTED BY IDOCK:   -1.26 KCAL/MOL
REMARK 927      BINDING AFFINITY PREDICTED BY RF-SCORE:    0.00 PKD
ROOT
HETATM    1  O   UNL     1      -7.326  10.490  68.782  1.00  0.00    -0.080 OA 
HETATM    2  C   UNL     1      -7.623  10.539  67.462  1.00  0.00    -0.093 C  
HETATM    3  C   UNL     1      -9.125  10.610  67.200  1.00  0.00    -0.143 C  
HETATM    4  O   UNL     1      -6.777  10.484  66.581  1.00  0.00    -0.086 OA 
ENDROOT
BRANCH   3   5
HETATM    5  N   UNL     1      -9.872  11.347  68.278  1.00  0.00    -0.194 NA 
BRANCH   5   6
HETATM    6  C   UNL     1     -10.336  12.668  67.735  1.00  0.00    -0.220 C  
BRANCH   6   7
HETATM    7  C   UNL     1     -11.658  12.597  66.913  1.00  0.00    -0.373 C  
BRANCH   7   8
HETATM    8  N   UNL     1     -11.658  13.300  65.584  1.00  0.00    -0.324 NA 
BRANCH   8   9
HETATM    9  C   UNL     1     -10.457  12.793  64.805  1.00  0.00    -0.335 C  
HETATM   10  O   UNL     1     -12.059  12.025  63.185  1.00  0.00    -0.411 OA 
HETATM   11  C   UNL     1     -10.840  11.786  63.722  1.00  0.00    -0.424 C  
HETATM   12  O   UNL     1     -10.119  10.872  63.355  1.00  0.00    -0.332 OA 
ENDBRANCH   8   9
BRANCH   8  13
HETATM   13  C   UNL     1     -11.428  14.771  65.837  1.00  0.00    -0.319 C  
HETATM   14  O   UNL     1     -12.753  15.136  63.874  1.00  0.00    -0.759 OA 
HETATM   15  O   UNL     1     -11.180  16.690  64.369  1.00  0.00    -1.033 OA 
HETATM   16  C   UNL     1     -11.739  15.635  64.619  1.00  0.00    -0.190 C  
ENDBRANCH   8  13
ENDBRANCH   7   8
ENDBRANCH   6   7
ENDBRANCH   5   6
BRANCH   5  17
HETATM   17  C   UNL     1     -11.077  10.545  68.661  1.00  0.00    -0.267 C  
BRANCH  17  18
HETATM   18  C   UNL     1     -11.327  10.330  70.181  1.00  0.00    -0.316 C  
BRANCH  18  19
HETATM   19  N   UNL     1     -11.651   8.911  70.584  1.00  0.00    -0.252 NA 
BRANCH  19  20
HETATM   20  C   UNL     1     -12.121   8.949  72.027  1.00  0.00    -0.371 C  
HETATM   21  O   UNL     1     -14.255   9.458  73.073  1.00  0.00    -0.310 OA 
HETATM   22  O   UNL     1     -14.254   8.286  71.137  1.00  0.00    -0.260 OA 
HETATM   23  C   UNL     1     -13.643   8.949  72.147  1.00  0.00    -0.453 C  
ENDBRANCH  19  20
BRANCH  19  24
HETATM   24  C   UNL     1     -10.364   8.116  70.565  1.00  0.00    -0.202 C  
HETATM   25  C   UNL     1     -10.596   6.609  70.522  1.00  0.00    -0.229 C  
HETATM   26  O   UNL     1      -9.825   5.785  70.986  1.00  0.00    -0.169 OA 
HETATM   27  O   UNL     1     -11.718   6.272  69.844  1.00  0.00    -0.408 OA 
ENDBRANCH  19  24
ENDBRANCH  18  19
ENDBRANCH  17  18
ENDBRANCH   5  17
ENDBRANCH   3   5
TORSDOF 11
ENDMDL
MODEL       97
REMARK 921   NORMALIZED FREE ENERGY PREDICTED BY IDOCK:   -4.90 KCAL/MOL
REMARK 922        TOTAL FREE ENERGY PREDICTED BY IDOCK:   -9.79 KCAL/MOL
REMARK 923 INTER-LIGAND FREE ENERGY PREDICTED BY IDOCK:   -8.19 KCAL/MOL
REMARK 924 INTRA-LIGAND FREE ENERGY PREDICTED BY IDOCK:   -1.60 KCAL/MOL
REMARK 927      BINDING AFFINITY PREDICTED BY RF-SCORE:    0.00 PKD
ROOT
HETATM    1  O   UNL     1     -11.015  10.215  70.898  1.00  0.00    -0.318 OA 
HETATM    2  C   UNL     1     -12.229  10.721  70.581  1.00  0.00    -0.379 C  
HETATM    3  C   UNL     1     -12.135  12.002  69.757  1.00  0.00    -0.248 C  
HETATM    4  O   UNL     1     -13.282  10.226  70.958  1.00  0.00    -0.389 OA 
ENDROOT
BRANCH   3   5
HETATM    5  N   UNL     1     -10.929  12.030  68.857  1.00  0.00    -0.229 NA 
BRANCH   5   6
HETATM    6  C   UNL     1     -11.216  11.213  67.630  1.00  0.00    -0.297 C  
BRANCH   6   7
HETATM    7  C   UNL     1     -10.153  10.114  67.327  1.00  0.00    -0.206 C  
BRANCH   7   8
HETATM    8  N   UNL     1      -9.316  10.316  66.093  1.00  0.00    -0.163 NA 
BRANCH   8   9
HETATM    9  C   UNL     1      -8.460  11.549  66.325  1.00  0.00    -0.108 C  
HETATM   10  O   UNL     1      -6.585  10.048  66.209  1.00  0.00    -0.077 OA 
HETATM   11  C   UNL     1      -7.034  11.204  66.751  1.00  0.00    -0.137 C  
HETATM   12  O   UNL     1      -6.352  11.904  67.483  1.00  0.00    -0.078 OA 
ENDBRANCH   8   9
BRANCH   8  13
HETATM   13  C   UNL     1     -10.247  10.638  64.948  1.00  0.00    -0.324 C  
HETATM   14  O   UNL     1      -8.436   9.978  63.523  1.00  0.00    -0.158 OA 
HETATM   15  O   UNL     1      -9.888  11.518  62.714  1.00  0.00    -0.307 OA 
HETATM   16  C   UNL     1      -9.515  10.790  63.619  1.00  0.00    -0.291 C  
ENDBRANCH   8  13
ENDBRANCH   7   8
ENDBRANCH   6   7
ENDBRANCH   5   6
BRANCH   5  17
HETATM   17  C   UNL     1     -10.680  13.445  68.433  1.00  0.00    -0.256 C  
BRANCH  17  18
HETATM   18  C   UNL     1     -11.766  14.118  67.546  1.00  0.00    -0.386 C  
BRANCH  18  19
HETATM   19  N   UNL     1     -11.236  14.937  66.393  1.00  0.00    -0.341 NA 
BRANCH  19  20
HETATM   20  C   UNL     1     -11.223  14.038  65.170  1.00  0.00    -0.329 C  
HETATM   21  O   UNL     1     -12.646  13.868  63.208  1.00  0.00    -0.824 OA 
HETATM   22  O   UNL     1     -12.168  15.926  64.020  1.00  0.00    -0.719 OA 
HETATM   23  C   UNL     1     -12.096  14.574  64.039  1.00  0.00    -0.240 C  
ENDBRANCH  19  20
BRANCH  19  24
HETATM   24  C   UNL     1      -9.795  15.288  66.693  1.00  0.00    -0.250 C  
HETATM   25  C   UNL     1      -9.408  16.679  66.202  1.00  0.00    -0.284 C  
HETATM   26  O   UNL     1      -8.277  16.994  65.867  1.00  0.00    -0.505 OA 
HETATM   27  O   UNL     1     -10.438  17.556  66.246  1.00  0.00    -0.341 OA 
ENDBRANCH  19  24
ENDBRANCH  18  19
ENDBRANCH  17  18
ENDBRANCH   5  17
ENDBRANCH   3   5
TORSDOF 11
ENDMDL
MODEL       98
REMARK 921   NORMALIZED FREE ENERGY PREDICTED BY IDOCK:   -4.89 KCAL/MOL
REMARK 922        TOTAL FREE ENERGY PREDICTED BY IDOCK:   -9.77 KCAL/MOL
REMARK 923 INTER-LIGAND FREE ENERGY PREDICTED BY IDOCK:   -8.32 KCAL/MOL
REMARK 924 INTRA-LIGAND FREE ENERGY PREDICTED BY IDOCK:   -1.45 KCAL/MOL
REMARK 927      BINDING AFFINITY PREDICTED BY RF-SCORE:    0.00 PKD
ROOT
HETATM    1  O   UNL     1      -9.581  10.598  64.015  1.00  0.00    -0.246 OA 
HETATM    2  C   UNL     1      -9.036   9.790  64.953  1.00  0.00    -0.216 C  
HETATM    3  C   UNL     1      -9.038  10.418  66.344  1.00  0.00    -0.157 C  
HETATM    4  O   UNL     1      -8.553   8.696  64.699  1.00  0.00    -0.165 OA 
ENDROOT
BRANCH   3   5
HETATM    5  N   UNL     1     -10.214  11.330  66.571  1.00  0.00    -0.220 NA 
BRANCH   5   6
HETATM    6  C   UNL     1     -11.097  10.734  67.629  1.00  0.00    -0.319 C  
BRANCH   6   7
HETATM    7  C   UNL     1     -12.040  11.757  68.331  1.00  0.00    -0.029 C  
BRANCH   7   8
HETATM    8  N   UNL     1     -12.273  11.551  69.803  1.00  0.00    -0.272 NA 
BRANCH   8   9
HETATM    9  C   UNL     1     -11.943  12.859  70.500  1.00  0.00    -0.198 C  
HETATM   10  O   UNL     1     -13.701  12.278  72.034  1.00  0.00    -0.301 OA 
HETATM   11  C   UNL     1     -13.045  13.311  71.456  1.00  0.00    -0.328 C  
HETATM   12  O   UNL     1     -13.299  14.480  71.701  1.00  0.00    -0.326 OA 
ENDBRANCH   8   9
BRANCH   8  13
HETATM   13  C   UNL     1     -11.274  10.529  70.292  1.00  0.00    -0.313 C  
HETATM   14  O   UNL     1     -13.179   9.303  71.076  1.00  0.00    -0.229 OA 
HETATM   15  O   UNL     1     -11.232   9.031  72.203  1.00  0.00    -0.351 OA 
HETATM   16  C   UNL     1     -11.871   9.562  71.309  1.00  0.00    -0.373 C  
ENDBRANCH   8  13
ENDBRANCH   7   8
ENDBRANCH   6   7
ENDBRANCH   5   6
BRANCH   5  17
HETATM   17  C   UNL     1      -9.709  12.650  67.068  1.00  0.00    -0.225 C  
BRANCH  17  18
HETATM   18  C   UNL     1      -9.644  13.813  66.038  1.00  0.00    -0.175 C  
BRANCH  18  19
HETATM   19  N   UNL     1     -10.652  14.917  66.252  1.00  0.00    -0.299 NA 
BRANCH  19  20
HETATM   20  C   UNL     1     -11.236  15.263  64.894  1.00  0.00    -0.415 C  
HETATM   21  O   UNL     1     -12.629  14.045  63.318  1.00  0.00    -0.801 OA 
HETATM   22  O   UNL     1     -13.048  13.817  65.531  1.00  0.00    -0.671 OA 
HETATM   23  C   UNL     1     -12.355  14.311  64.479  1.00  0.00    -0.410 C  
ENDBRANCH  19  20
BRANCH  19  24
HETATM   24  C   UNL     1      -9.905  16.143  66.731  1.00  0.00    -0.245 C  
HETATM   25  C   UNL     1     -10.735  17.017  67.665  1.00  0.00    -0.295 C  
HETATM   26  O   UNL     1     -10.592  18.225  67.777  1.00  0.00    -0.408 OA 
HETATM   27  O   UNL     1     -11.602  16.301  68.419  1.00  0.00    -0.327 OA 
ENDBRANCH  19  24
ENDBRANCH  18  19
ENDBRANCH  17  18
ENDBRANCH   5  17
ENDBRANCH   3   5
TORSDOF 11
ENDMDL
MODEL       99
REMARK 921   NORMALIZED FREE ENERGY PREDICTED BY IDOCK:   -4.88 KCAL/MOL
REMARK 922        TOTAL FREE ENERGY PREDICTED BY IDOCK:   -9.77 KCAL/MOL
REMARK 923 INTER-LIGAND FREE ENERGY PREDICTED BY IDOCK:   -8.24 KCAL/MOL
REMARK 924 INTRA-LIGAND FREE ENERGY PREDICTED BY IDOCK:   -1.52 KCAL/MOL
REMARK 927      BINDING AFFINITY PREDICTED BY RF-SCORE:    0.00 PKD
ROOT
HETATM    1  O   UNL     1     -10.392  12.894  64.172  1.00  0.00    -0.410 OA 
HETATM    2  C   UNL     1     -11.678  13.189  64.474  1.00  0.00    -0.371 C  
HETATM    3  C   UNL     1     -11.886  13.454  65.963  1.00  0.00    -0.383 C  
HETATM    4  O   UNL     1     -12.578  13.195  63.647  1.00  0.00    -0.705 OA 
ENDROOT
BRANCH   3   5
HETATM    5  N   UNL     1     -10.683  14.076  66.619  1.00  0.00    -0.280 NA 
BRANCH   5   6
HETATM    6  C   UNL     1     -10.737  15.564  66.430  1.00  0.00    -0.303 C  
BRANCH   6   7
HETATM    7  C   UNL     1     -10.324  16.388  67.686  1.00  0.00    -0.284 C  
BRANCH   7   8
HETATM    8  N   UNL     1      -9.068  17.209  67.565  1.00  0.00    -0.224 NA 
BRANCH   8   9
HETATM    9  C   UNL     1      -9.414  18.444  66.751  1.00  0.00    -0.297 C  
HETATM   10  O   UNL     1      -8.122  19.656  68.376  1.00  0.00    -0.330 OA 
HETATM   11  C   UNL     1      -9.162  19.742  67.515  1.00  0.00    -0.335 C  
HETATM   12  O   UNL     1      -9.810  20.765  67.355  1.00  0.00    -0.464 OA 
ENDBRANCH   8   9
BRANCH   8  13
HETATM   13  C   UNL     1      -8.071  16.414  66.755  1.00  0.00    -0.252 C  
HETATM   14  O   UNL     1      -6.601  16.687  68.629  1.00  0.00    -0.146 OA 
HETATM   15  O   UNL     1      -5.650  16.474  66.583  1.00  0.00    -0.344 OA 
HETATM   16  C   UNL     1      -6.646  16.545  67.283  1.00  0.00    -0.180 C  
ENDBRANCH   8  13
ENDBRANCH   7   8
ENDBRANCH   6   7
ENDBRANCH   5   6
BRANCH   5  17
HETATM   17  C   UNL     1     -10.733  13.786  68.088  1.00  0.00    -0.248 C  
BRANCH  17  18
HETATM   18  C   UNL     1     -11.717  12.675  68.554  1.00  0.00    -0.330 C  
BRANCH  18  19
HETATM   19  N   UNL     1     -11.065  11.403  69.041  1.00  0.00    -0.225 NA 
BRANCH  19  20
HETATM   20  C   UNL     1     -11.232  10.364  67.947  1.00  0.00    -0.263 C  
HETATM   21  O   UNL     1     -10.114   9.983  65.823  1.00  0.00    -0.273 OA 
HETATM   22  O   UNL     1      -8.871  10.649  67.594  1.00  0.00    -0.131 OA 
HETATM   23  C   UNL     1     -10.039  10.318  66.995  1.00  0.00    -0.218 C  
ENDBRANCH  19  20
BRANCH  19  24
HETATM   24  C   UNL     1     -11.846  10.906  70.238  1.00  0.00    -0.361 C  
HETATM   25  C   UNL     1     -11.217   9.680  70.891  1.00  0.00    -0.352 C  
HETATM   26  O   UNL     1     -11.849   8.828  71.495  1.00  0.00    -0.275 OA 
HETATM   27  O   UNL     1      -9.866   9.672  70.797  1.00  0.00    -0.260 OA 
ENDBRANCH  19  24
ENDBRANCH  18  19
ENDBRANCH  17  18
ENDBRANCH   5  17
ENDBRANCH   3   5
TORSDOF 11
ENDMDL
MODEL      100
REMARK 921   NORMALIZED FREE ENERGY PREDICTED BY IDOCK:   -4.88 KCAL/MOL
REMARK 922        TOTAL FREE ENERGY PREDICTED BY IDOCK:   -9.76 KCAL/MOL
REMARK 923 INTER-LIGAND FREE ENERGY PREDICTED BY IDOCK:   -8.26 KCAL/MOL
REMARK 924 INTRA-LIGAND FREE ENERGY PREDICTED BY IDOCK:   -1.49 KCAL/MOL
REMARK 927      BINDING AFFINITY PREDICTED BY RF-SCORE:    0.00 PKD
ROOT
HETATM    1  O   UNL     1      -7.312  12.271  68.694  1.00  0.00    -0.105 OA 
HETATM    2  C   UNL     1      -6.908  13.046  67.661  1.00  0.00    -0.154 C  
HETATM    3  C   UNL     1      -7.949  14.090  67.266  1.00  0.00    -0.137 C  
HETATM    4  O   UNL     1      -5.842  12.891  67.082  1.00  0.00    -0.339 OA 
ENDROOT
BRANCH   3   5
HETATM    5  N   UNL     1      -8.766  14.570  68.435  1.00  0.00    -0.170 NA 
BRANCH   5   6
HETATM    6  C   UNL     1      -8.013  15.659  69.143  1.00  0.00    -0.227 C  
BRANCH   6   7
HETATM    7  C   UNL     1      -8.515  17.100  68.825  1.00  0.00    -0.225 C  
BRANCH   7   8
HETATM    8  N   UNL     1      -7.484  18.070  68.315  1.00  0.00    -0.256 NA 
BRANCH   8   9
HETATM    9  C   UNL     1      -7.683  19.376  69.066  1.00  0.00    -0.315 C  
HETATM   10  O   UNL     1      -5.285  19.437  69.233  1.00  0.00    -0.183 OA 
HETATM   11  C   UNL     1      -6.438  19.807  69.838  1.00  0.00    -0.327 C  
HETATM   12  O   UNL     1      -6.467  20.441  70.881  1.00  0.00    -0.514 OA 
ENDBRANCH   8   9
BRANCH   8  13
HETATM   13  C   UNL     1      -7.786  18.349  66.862  1.00  0.00    -0.234 C  
HETATM   14  O   UNL     1      -6.067  16.749  66.381  1.00  0.00    -0.297 OA 
HETATM   15  O   UNL     1      -6.413  18.392  64.860  1.00  0.00    -0.419 OA 
HETATM   16  C   UNL     1      -6.682  17.867  65.928  1.00  0.00    -0.277 C  
ENDBRANCH   8  13
ENDBRANCH   7   8
ENDBRANCH   6   7
ENDBRANCH   5   6
BRANCH   5  17
HETATM   17  C   UNL     1     -10.050  15.144  67.920  1.00  0.00    -0.222 C  
BRANCH  17  18
HETATM   18  C   UNL     1     -10.500  14.701  66.498  1.00  0.00    -0.290 C  
BRANCH  18  19
HETATM   19  N   UNL     1     -11.320  13.433  66.450  1.00  0.00    -0.305 NA 
BRANCH  19  20
HETATM   20  C   UNL     1     -12.500  13.696  65.531  1.00  0.00    -0.503 C  
HETATM   21  O   UNL     1     -12.745  13.785  63.115  1.00  0.00    -0.743 OA 
HETATM   22  O   UNL     1     -11.380  12.213  64.004  1.00  0.00    -0.337 OA 
HETATM   23  C   UNL     1     -12.228  13.265  64.092  1.00  0.00    -0.401 C  
ENDBRANCH  19  20
BRANCH  19  24
HETATM   24  C   UNL     1     -11.888  13.192  67.831  1.00  0.00    -0.348 C  
HETATM   25  C   UNL     1     -11.640  11.774  68.336  1.00  0.00    -0.318 C  
HETATM   26  O   UNL     1     -12.371  11.191  69.120  1.00  0.00    -0.438 OA 
HETATM   27  O   UNL     1     -10.477  11.252  67.880  1.00  0.00    -0.178 OA 
ENDBRANCH  19  24
ENDBRANCH  18  19
ENDBRANCH  17  18
ENDBRANCH   5  17
ENDBRANCH   3   5
TORSDOF 11
ENDMDL
MODEL      101
REMARK 921   NORMALIZED FREE ENERGY PREDICTED BY IDOCK:   -4.86 KCAL/MOL
REMARK 922        TOTAL FREE ENERGY PREDICTED BY IDOCK:   -9.73 KCAL/MOL
REMARK 923 INTER-LIGAND FREE ENERGY PREDICTED BY IDOCK:   -8.38 KCAL/MOL
REMARK 924 INTRA-LIGAND FREE ENERGY PREDICTED BY IDOCK:   -1.36 KCAL/MOL
REMARK 927      BINDING AFFINITY PREDICTED BY RF-SCORE:    0.00 PKD
ROOT
HETATM    1  O   UNL     1     -12.030  15.532  71.025  1.00  0.00    -0.312 OA 
HETATM    2  C   UNL     1     -12.641  14.368  71.350  1.00  0.00    -0.354 C  
HETATM    3  C   UNL     1     -12.622  13.356  70.207  1.00  0.00    -0.117 C  
HETATM    4  O   UNL     1     -13.187  14.174  72.426  1.00  0.00    -0.399 OA 
ENDROOT
BRANCH   3   5
HETATM    5  N   UNL     1     -11.396  13.473  69.344  1.00  0.00    -0.254 NA 
BRANCH   5   6
HETATM    6  C   UNL     1     -10.782  12.112  69.180  1.00  0.00    -0.061 C  
BRANCH   6   7
HETATM    7  C   UNL     1     -11.500  10.982  69.978  1.00  0.00    -0.314 C  
BRANCH   7   8
HETATM    8  N   UNL     1     -10.710   9.723  70.211  1.00  0.00    -0.279 NA 
BRANCH   8   9
HETATM    9  C   UNL     1     -11.090   8.743  69.114  1.00  0.00     0.164 C  
HETATM   10  O   UNL     1      -8.770   8.822  68.488  1.00  0.00    -0.133 OA 
HETATM   11  C   UNL     1     -10.027   8.642  68.021  1.00  0.00    -0.182 C  
HETATM   12  O   UNL     1     -10.273   8.398  66.850  1.00  0.00    -0.265 OA 
ENDBRANCH   8   9
BRANCH   8  13
HETATM   13  C   UNL     1     -11.173   9.120  71.516  1.00  0.00    -0.360 C  
HETATM   14  O   UNL     1      -8.842   8.912  72.040  1.00  0.00    -0.367 OA 
HETATM   15  O   UNL     1     -10.255   7.403  72.968  1.00  0.00    -0.226 OA 
HETATM   16  C   UNL     1     -10.064   8.363  72.241  1.00  0.00    -0.312 C  
ENDBRANCH   8  13
ENDBRANCH   7   8
ENDBRANCH   6   7
ENDBRANCH   5   6
BRANCH   5  17
HETATM   17  C   UNL     1     -11.806  13.970  67.992  1.00  0.00    -0.368 C  
BRANCH  17  18
HETATM   18  C   UNL     1     -11.777  12.944  66.824  1.00  0.00    -0.383 C  
BRANCH  18  19
HETATM   19  N   UNL     1     -11.649  13.544  65.444  1.00  0.00    -0.310 NA 
BRANCH  19  20
HETATM   20  C   UNL     1     -10.451  12.890  64.778  1.00  0.00    -0.350 C  
HETATM   21  O   UNL     1     -10.198  10.948  63.339  1.00  0.00    -0.338 OA 
HETATM   22  O   UNL     1     -12.004  12.282  63.045  1.00  0.00    -0.295 OA 
HETATM   23  C   UNL     1     -10.855  11.924  63.667  1.00  0.00    -0.444 C  
ENDBRANCH  19  20
BRANCH  19  24
HETATM   24  C   UNL     1     -11.311  15.011  65.603  1.00  0.00    -0.297 C  
HETATM   25  C   UNL     1     -11.760  15.856  64.415  1.00  0.00    -0.179 C  
HETATM   26  O   UNL     1     -11.207  16.885  64.062  1.00  0.00    -1.037 OA 
HETATM   27  O   UNL     1     -12.888  15.384  63.833  1.00  0.00    -0.604 OA 
ENDBRANCH  19  24
ENDBRANCH  18  19
ENDBRANCH  17  18
ENDBRANCH   5  17
ENDBRANCH   3   5
TORSDOF 11
ENDMDL
MODEL      102
REMARK 921   NORMALIZED FREE ENERGY PREDICTED BY IDOCK:   -4.86 KCAL/MOL
REMARK 922        TOTAL FREE ENERGY PREDICTED BY IDOCK:   -9.73 KCAL/MOL
REMARK 923 INTER-LIGAND FREE ENERGY PREDICTED BY IDOCK:   -8.39 KCAL/MOL
REMARK 924 INTRA-LIGAND FREE ENERGY PREDICTED BY IDOCK:   -1.34 KCAL/MOL
REMARK 927      BINDING AFFINITY PREDICTED BY RF-SCORE:    0.00 PKD
ROOT
HETATM    1  O   UNL     1      -8.808  10.694  64.772  1.00  0.00    -0.187 OA 
HETATM    2  C   UNL     1     -10.128  10.941  64.939  1.00  0.00    -0.312 C  
HETATM    3  C   UNL     1     -10.564  10.845  66.399  1.00  0.00    -0.229 C  
HETATM    4  O   UNL     1     -10.892  11.170  64.013  1.00  0.00    -0.378 OA 
ENDROOT
BRANCH   3   5
HETATM    5  N   UNL     1      -9.481  11.258  67.360  1.00  0.00    -0.165 NA 
BRANCH   5   6
HETATM    6  C   UNL     1      -9.751  12.659  67.827  1.00  0.00    -0.206 C  
BRANCH   6   7
HETATM    7  C   UNL     1      -9.197  13.770  66.885  1.00  0.00    -0.255 C  
BRANCH   7   8
HETATM    8  N   UNL     1     -10.115  14.928  66.604  1.00  0.00    -0.252 NA 
BRANCH   8   9
HETATM    9  C   UNL     1     -11.407  14.673  67.359  1.00  0.00    -0.356 C  
HETATM   10  O   UNL     1     -10.972  16.770  68.452  1.00  0.00    -0.355 OA 
HETATM   11  C   UNL     1     -11.549  15.554  68.599  1.00  0.00    -0.368 C  
HETATM   12  O   UNL     1     -12.141  15.217  69.612  1.00  0.00    -0.323 OA 
ENDBRANCH   8   9
BRANCH   8  13
HETATM   13  C   UNL     1     -10.454  14.905  65.132  1.00  0.00    -0.417 C  
HETATM   14  O   UNL     1     -10.420  17.298  65.268  1.00  0.00    -0.661 OA 
HETATM   15  O   UNL     1     -11.776  16.365  63.711  1.00  0.00    -1.049 OA 
HETATM   16  C   UNL     1     -10.980  16.245  64.628  1.00  0.00    -0.194 C  
ENDBRANCH   8  13
ENDBRANCH   7   8
ENDBRANCH   6   7
ENDBRANCH   5   6
BRANCH   5  17
HETATM   17  C   UNL     1      -9.522  10.349  68.549  1.00  0.00    -0.159 C  
BRANCH  17  18
HETATM   18  C   UNL     1     -10.911   9.776  68.952  1.00  0.00    -0.192 C  
BRANCH  18  19
HETATM   19  N   UNL     1     -10.905   8.864  70.156  1.00  0.00    -0.230 NA 
BRANCH  19  20
HETATM   20  C   UNL     1     -11.742   9.533  71.231  1.00  0.00    -0.370 C  
HETATM   21  O   UNL     1     -13.886   9.004  72.246  1.00  0.00    -0.445 OA 
HETATM   22  O   UNL     1     -12.470   7.305  71.766  1.00  0.00    -0.320 OA 
HETATM   23  C   UNL     1     -12.824   8.611  71.789  1.00  0.00    -0.359 C  
ENDBRANCH  19  20
BRANCH  19  24
HETATM   24  C   UNL     1      -9.488   8.799  70.685  1.00  0.00    -0.197 C  
HETATM   25  C   UNL     1      -9.002   7.370  70.905  1.00  0.00    -0.149 C  
HETATM   26  O   UNL     1      -8.171   7.053  71.741  1.00  0.00    -0.103 OA 
HETATM   27  O   UNL     1      -9.535   6.493  70.022  1.00  0.00    -0.156 OA 
ENDBRANCH  19  24
ENDBRANCH  18  19
ENDBRANCH  17  18
ENDBRANCH   5  17
ENDBRANCH   3   5
TORSDOF 11
ENDMDL
MODEL      103
REMARK 921   NORMALIZED FREE ENERGY PREDICTED BY IDOCK:   -4.86 KCAL/MOL
REMARK 922        TOTAL FREE ENERGY PREDICTED BY IDOCK:   -9.73 KCAL/MOL
REMARK 923 INTER-LIGAND FREE ENERGY PREDICTED BY IDOCK:   -8.56 KCAL/MOL
REMARK 924 INTRA-LIGAND FREE ENERGY PREDICTED BY IDOCK:   -1.17 KCAL/MOL
REMARK 927      BINDING AFFINITY PREDICTED BY RF-SCORE:    0.00 PKD
ROOT
HETATM    1  O   UNL     1     -12.184  14.604  71.287  1.00  0.00    -0.313 OA 
HETATM    2  C   UNL     1     -12.770  13.384  71.320  1.00  0.00    -0.338 C  
HETATM    3  C   UNL     1     -12.573  12.602  70.024  1.00  0.00     0.161 C  
HETATM    4  O   UNL     1     -13.423  12.978  72.270  1.00  0.00    -0.540 OA 
ENDROOT
BRANCH   3   5
HETATM    5  N   UNL     1     -11.264  12.911  69.349  1.00  0.00    -0.181 NA 
BRANCH   5   6
HETATM    6  C   UNL     1     -10.551  11.623  69.052  1.00  0.00    -0.153 C  
BRANCH   6   7
HETATM    7  C   UNL     1     -11.449  10.353  69.151  1.00  0.00    -0.196 C  
BRANCH   7   8
HETATM    8  N   UNL     1     -10.744   9.027  69.061  1.00  0.00    -0.186 NA 
BRANCH   8   9
HETATM    9  C   UNL     1      -9.380   9.196  69.706  1.00  0.00    -0.182 C  
HETATM   10  O   UNL     1     -10.118   7.537  71.281  1.00  0.00    -0.188 OA 
HETATM   11  C   UNL     1      -9.321   8.618  71.119  1.00  0.00    -0.216 C  
HETATM   12  O   UNL     1      -8.612   9.062  72.008  1.00  0.00    -0.367 OA 
ENDBRANCH   8   9
BRANCH   8  13
HETATM   13  C   UNL     1     -10.505   8.727  67.600  1.00  0.00    -0.244 C  
HETATM   14  O   UNL     1     -11.255   6.509  68.115  1.00  0.00    -0.275 OA 
HETATM   15  O   UNL     1      -9.778   6.738  66.411  1.00  0.00    -0.151 OA 
HETATM   16  C   UNL     1     -10.442   7.231  67.308  1.00  0.00    -0.310 C  
ENDBRANCH   8  13
ENDBRANCH   7   8
ENDBRANCH   6   7
ENDBRANCH   5   6
BRANCH   5  17
HETATM   17  C   UNL     1     -11.545  13.603  68.051  1.00  0.00    -0.333 C  
BRANCH  17  18
HETATM   18  C   UNL     1     -11.781  12.701  66.807  1.00  0.00    -0.392 C  
BRANCH  18  19
HETATM   19  N   UNL     1     -11.739  13.416  65.477  1.00  0.00    -0.327 NA 
BRANCH  19  20
HETATM   20  C   UNL     1     -10.594  12.818  64.680  1.00  0.00    -0.349 C  
HETATM   21  O   UNL     1     -10.376  10.816  63.319  1.00  0.00    -0.281 OA 
HETATM   22  O   UNL     1     -12.314  11.982  63.222  1.00  0.00    -0.543 OA 
HETATM   23  C   UNL     1     -11.063  11.756  63.688  1.00  0.00    -0.439 C  
ENDBRANCH  19  20
BRANCH  19  24
HETATM   24  C   UNL     1     -11.381  14.863  65.737  1.00  0.00    -0.314 C  
HETATM   25  C   UNL     1     -11.723  15.779  64.567  1.00  0.00    -0.191 C  
HETATM   26  O   UNL     1     -11.123  16.810  64.308  1.00  0.00    -1.106 OA 
HETATM   27  O   UNL     1     -12.817  15.369  63.883  1.00  0.00    -0.604 OA 
ENDBRANCH  19  24
ENDBRANCH  18  19
ENDBRANCH  17  18
ENDBRANCH   5  17
ENDBRANCH   3   5
TORSDOF 11
ENDMDL
MODEL      104
REMARK 921   NORMALIZED FREE ENERGY PREDICTED BY IDOCK:   -4.86 KCAL/MOL
REMARK 922        TOTAL FREE ENERGY PREDICTED BY IDOCK:   -9.72 KCAL/MOL
REMARK 923 INTER-LIGAND FREE ENERGY PREDICTED BY IDOCK:   -8.19 KCAL/MOL
REMARK 924 INTRA-LIGAND FREE ENERGY PREDICTED BY IDOCK:   -1.52 KCAL/MOL
REMARK 927      BINDING AFFINITY PREDICTED BY RF-SCORE:    0.00 PKD
ROOT
HETATM    1  O   UNL     1      -8.155  10.022  64.771  1.00  0.00    -0.142 OA 
HETATM    2  C   UNL     1      -9.442  10.440  64.750  1.00  0.00    -0.273 C  
HETATM    3  C   UNL     1      -9.952  10.841  66.132  1.00  0.00    -0.232 C  
HETATM    4  O   UNL     1     -10.129  10.449  63.739  1.00  0.00    -0.274 OA 
ENDROOT
BRANCH   3   5
HETATM    5  N   UNL     1      -8.874  11.417  67.008  1.00  0.00    -0.163 NA 
BRANCH   5   6
HETATM    6  C   UNL     1      -9.041  12.908  67.073  1.00  0.00    -0.228 C  
BRANCH   6   7
HETATM    7  C   UNL     1     -10.513  13.397  66.926  1.00  0.00    -0.273 C  
BRANCH   7   8
HETATM    8  N   UNL     1     -10.736  14.594  66.042  1.00  0.00    -0.302 NA 
BRANCH   8   9
HETATM    9  C   UNL     1     -11.018  14.075  64.643  1.00  0.00    -0.392 C  
HETATM   10  O   UNL     1     -13.326  14.038  65.318  1.00  0.00    -0.741 OA 
HETATM   11  C   UNL     1     -12.407  13.451  64.516  1.00  0.00    -0.360 C  
HETATM   12  O   UNL     1     -12.677  12.535  63.755  1.00  0.00    -0.696 OA 
ENDBRANCH   8   9
BRANCH   8  13
HETATM   13  C   UNL     1      -9.439  15.365  65.971  1.00  0.00    -0.346 C  
HETATM   14  O   UNL     1     -10.623  17.114  67.105  1.00  0.00    -0.313 OA 
HETATM   15  O   UNL     1      -8.924  17.727  65.737  1.00  0.00    -0.509 OA 
HETATM   16  C   UNL     1      -9.627  16.857  66.225  1.00  0.00    -0.276 C  
ENDBRANCH   8  13
ENDBRANCH   7   8
ENDBRANCH   6   7
ENDBRANCH   5   6
BRANCH   5  17
HETATM   17  C   UNL     1      -9.033  10.865  68.392  1.00  0.00    -0.154 C  
BRANCH  17  18
HETATM   18  C   UNL     1      -8.821   9.335  68.569  1.00  0.00    -0.129 C  
BRANCH  18  19
HETATM   19  N   UNL     1     -10.004   8.584  69.134  1.00  0.00    -0.187 NA 
BRANCH  19  20
HETATM   20  C   UNL     1     -10.667   7.855  67.979  1.00  0.00    -0.054 C  
HETATM   21  O   UNL     1     -10.793   5.515  67.336  1.00  0.00    -0.205 OA 
HETATM   22  O   UNL     1     -10.917   6.038  69.535  1.00  0.00    -0.336 OA 
HETATM   23  C   UNL     1     -10.783   6.353  68.225  1.00  0.00    -0.285 C  
ENDBRANCH  19  20
BRANCH  19  24
HETATM   24  C   UNL     1     -11.004   9.601  69.639  1.00  0.00    -0.229 C  
HETATM   25  C   UNL     1     -11.196   9.546  71.151  1.00  0.00    -0.376 C  
HETATM   26  O   UNL     1     -12.229   9.860  71.720  1.00  0.00    -0.389 OA 
HETATM   27  O   UNL     1     -10.070   9.182  71.808  1.00  0.00    -0.329 OA 
ENDBRANCH  19  24
ENDBRANCH  18  19
ENDBRANCH  17  18
ENDBRANCH   5  17
ENDBRANCH   3   5
TORSDOF 11
ENDMDL
MODEL      105
REMARK 921   NORMALIZED FREE ENERGY PREDICTED BY IDOCK:   -4.85 KCAL/MOL
REMARK 922        TOTAL FREE ENERGY PREDICTED BY IDOCK:   -9.72 KCAL/MOL
REMARK 923 INTER-LIGAND FREE ENERGY PREDICTED BY IDOCK:   -8.47 KCAL/MOL
REMARK 924 INTRA-LIGAND FREE ENERGY PREDICTED BY IDOCK:   -1.25 KCAL/MOL
REMARK 927      BINDING AFFINITY PREDICTED BY RF-SCORE:    0.00 PKD
ROOT
HETATM    1  O   UNL     1     -10.504  13.055  63.897  1.00  0.00    -0.392 OA 
HETATM    2  C   UNL     1     -11.847  13.203  63.977  1.00  0.00    -0.453 C  
HETATM    3  C   UNL     1     -12.404  12.792  65.338  1.00  0.00    -0.470 C  
HETATM    4  O   UNL     1     -12.538  13.582  63.043  1.00  0.00    -0.716 OA 
ENDROOT
BRANCH   3   5
HETATM    5  N   UNL     1     -11.440  13.049  66.465  1.00  0.00    -0.323 NA 
BRANCH   5   6
HETATM    6  C   UNL     1     -12.051  14.038  67.415  1.00  0.00    -0.349 C  
BRANCH   6   7
HETATM    7  C   UNL     1     -11.427  14.029  68.843  1.00  0.00    -0.294 C  
BRANCH   7   8
HETATM    8  N   UNL     1     -11.227  15.370  69.494  1.00  0.00    -0.263 NA 
BRANCH   8   9
HETATM    9  C   UNL     1      -9.853  15.870  69.086  1.00  0.00    -0.247 C  
HETATM   10  O   UNL     1     -11.017  17.742  68.126  1.00  0.00    -0.271 OA 
HETATM   11  C   UNL     1      -9.916  16.962  68.019  1.00  0.00    -0.279 C  
HETATM   12  O   UNL     1      -9.057  17.138  67.170  1.00  0.00    -0.221 OA 
ENDBRANCH   8   9
BRANCH   8  13
HETATM   13  C   UNL     1     -11.191  15.159  70.989  1.00  0.00    -0.285 C  
HETATM   14  O   UNL     1     -13.524  15.708  70.945  1.00  0.00    -0.569 OA 
HETATM   15  O   UNL     1     -12.379  16.189  72.840  1.00  0.00    -0.455 OA 
HETATM   16  C   UNL     1     -12.401  15.759  71.698  1.00  0.00    -0.457 C  
ENDBRANCH   8  13
ENDBRANCH   7   8
ENDBRANCH   6   7
ENDBRANCH   5   6
BRANCH   5  17
HETATM   17  C   UNL     1     -11.212  11.765  67.203  1.00  0.00    -0.316 C  
BRANCH  17  18
HETATM   18  C   UNL     1      -9.758  11.215  67.229  1.00  0.00    -0.166 C  
BRANCH  18  19
HETATM   19  N   UNL     1      -9.577   9.851  66.605  1.00  0.00    -0.175 NA 
BRANCH  19  20
HETATM   20  C   UNL     1      -9.885   9.990  65.125  1.00  0.00    -0.318 C  
HETATM   21  O   UNL     1      -8.525  10.513  63.180  1.00  0.00    -0.167 OA 
HETATM   22  O   UNL     1      -7.641   9.190  64.791  1.00  0.00    -0.103 OA 
HETATM   23  C   UNL     1      -8.627   9.951  64.259  1.00  0.00    -0.188 C  
ENDBRANCH  19  20
BRANCH  19  24
HETATM   24  C   UNL     1     -10.627   8.929  67.185  1.00  0.00    -0.231 C  
HETATM   25  C   UNL     1     -10.364   7.460  66.875  1.00  0.00    -0.296 C  
HETATM   26  O   UNL     1     -11.239   6.615  66.773  1.00  0.00    -0.333 OA 
HETATM   27  O   UNL     1      -9.043   7.169  66.796  1.00  0.00    -0.135 OA 
ENDBRANCH  19  24
ENDBRANCH  18  19
ENDBRANCH  17  18
ENDBRANCH   5  17
ENDBRANCH   3   5
TORSDOF 11
ENDMDL
MODEL      106
REMARK 921   NORMALIZED FREE ENERGY PREDICTED BY IDOCK:   -4.85 KCAL/MOL
REMARK 922        TOTAL FREE ENERGY PREDICTED BY IDOCK:   -9.71 KCAL/MOL
REMARK 923 INTER-LIGAND FREE ENERGY PREDICTED BY IDOCK:   -8.32 KCAL/MOL
REMARK 924 INTRA-LIGAND FREE ENERGY PREDICTED BY IDOCK:   -1.40 KCAL/MOL
REMARK 927      BINDING AFFINITY PREDICTED BY RF-SCORE:    0.00 PKD
ROOT
HETATM    1  O   UNL     1     -12.637   9.208  71.348  1.00  0.00    -0.312 OA 
HETATM    2  C   UNL     1     -11.323   9.527  71.283  1.00  0.00    -0.376 C  
HETATM    3  C   UNL     1     -10.977  10.346  70.042  1.00  0.00    -0.308 C  
HETATM    4  O   UNL     1     -10.501   9.158  72.109  1.00  0.00    -0.265 OA 
ENDROOT
BRANCH   3   5
HETATM    5  N   UNL     1     -12.103  11.240  69.600  1.00  0.00    -0.326 NA 
BRANCH   5   6
HETATM    6  C   UNL     1     -11.965  12.572  70.279  1.00  0.00    -0.283 C  
BRANCH   6   7
HETATM    7  C   UNL     1     -11.750  13.771  69.306  1.00  0.00    -0.327 C  
BRANCH   7   8
HETATM    8  N   UNL     1     -11.770  15.144  69.922  1.00  0.00    -0.292 NA 
BRANCH   8   9
HETATM    9  C   UNL     1     -13.119  15.315  70.597  1.00  0.00    -0.358 C  
HETATM   10  O   UNL     1     -11.909  16.482  72.316  1.00  0.00    -0.519 OA 
HETATM   11  C   UNL     1     -12.996  15.715  72.067  1.00  0.00    -0.452 C  
HETATM   12  O   UNL     1     -13.802  15.403  72.929  1.00  0.00    -0.486 OA 
ENDBRANCH   8   9
BRANCH   8  13
HETATM   13  C   UNL     1     -11.708  16.155  68.802  1.00  0.00    -0.231 C  
HETATM   14  O   UNL     1      -9.376  16.329  69.327  1.00  0.00    -0.251 OA 
HETATM   15  O   UNL     1     -10.382  18.159  68.447  1.00  0.00    -0.374 OA 
HETATM   16  C   UNL     1     -10.445  17.008  68.848  1.00  0.00    -0.347 C  
ENDBRANCH   8  13
ENDBRANCH   7   8
ENDBRANCH   6   7
ENDBRANCH   5   6
BRANCH   5  17
HETATM   17  C   UNL     1     -11.996  11.452  68.121  1.00  0.00    -0.130 C  
BRANCH  17  18
HETATM   18  C   UNL     1     -10.790  10.786  67.399  1.00  0.00    -0.290 C  
BRANCH  18  19
HETATM   19  N   UNL     1     -10.044  11.680  66.437  1.00  0.00    -0.209 NA 
BRANCH  19  20
HETATM   20  C   UNL     1     -10.452  11.270  65.033  1.00  0.00    -0.298 C  
HETATM   21  O   UNL     1     -11.892  12.277  63.353  1.00  0.00    -0.467 OA 
HETATM   22  O   UNL     1     -10.572  13.632  64.596  1.00  0.00    -0.398 OA 
HETATM   23  C   UNL     1     -11.066  12.423  64.242  1.00  0.00    -0.349 C  
ENDBRANCH  19  20
BRANCH  19  24
HETATM   24  C   UNL     1      -8.568  11.377  66.568  1.00  0.00    -0.175 C  
HETATM   25  C   UNL     1      -7.806  12.454  67.333  1.00  0.00    -0.174 C  
HETATM   26  O   UNL     1      -6.626  12.713  67.155  1.00  0.00    -0.142 OA 
HETATM   27  O   UNL     1      -8.557  13.047  68.290  1.00  0.00    -0.177 OA 
ENDBRANCH  19  24
ENDBRANCH  18  19
ENDBRANCH  17  18
ENDBRANCH   5  17
ENDBRANCH   3   5
TORSDOF 11
ENDMDL
MODEL      107
REMARK 921   NORMALIZED FREE ENERGY PREDICTED BY IDOCK:   -4.85 KCAL/MOL
REMARK 922        TOTAL FREE ENERGY PREDICTED BY IDOCK:   -9.71 KCAL/MOL
REMARK 923 INTER-LIGAND FREE ENERGY PREDICTED BY IDOCK:   -8.49 KCAL/MOL
REMARK 924 INTRA-LIGAND FREE ENERGY PREDICTED BY IDOCK:   -1.22 KCAL/MOL
REMARK 927      BINDING AFFINITY PREDICTED BY RF-SCORE:    0.00 PKD
ROOT
HETATM    1  O   UNL     1     -13.254  13.014  65.125  1.00  0.00    -0.703 OA 
HETATM    2  C   UNL     1     -12.232  12.668  64.308  1.00  0.00    -0.445 C  
HETATM    3  C   UNL     1     -10.931  13.386  64.658  1.00  0.00    -0.377 C  
HETATM    4  O   UNL     1     -12.356  11.899  63.366  1.00  0.00    -0.557 OA 
ENDROOT
BRANCH   3   5
HETATM    5  N   UNL     1     -10.799  13.671  66.129  1.00  0.00    -0.278 NA 
BRANCH   5   6
HETATM    6  C   UNL     1      -9.512  13.079  66.628  1.00  0.00    -0.256 C  
BRANCH   6   7
HETATM    7  C   UNL     1      -9.403  11.534  66.450  1.00  0.00    -0.209 C  
BRANCH   7   8
HETATM    8  N   UNL     1     -10.043  10.691  67.519  1.00  0.00    -0.178 NA 
BRANCH   8   9
HETATM    9  C   UNL     1     -10.178  11.558  68.758  1.00  0.00    -0.192 C  
HETATM   10  O   UNL     1     -12.514  10.995  68.679  1.00  0.00    -0.462 OA 
HETATM   11  C   UNL     1     -11.626  11.947  69.050  1.00  0.00    -0.317 C  
HETATM   12  O   UNL     1     -11.957  12.993  69.586  1.00  0.00    -0.315 OA 
ENDBRANCH   8   9
BRANCH   8  13
HETATM   13  C   UNL     1      -9.084   9.576  67.866  1.00  0.00    -0.125 C  
HETATM   14  O   UNL     1     -10.908   8.097  67.383  1.00  0.00    -0.226 OA 
HETATM   15  O   UNL     1      -9.377   7.398  68.899  1.00  0.00    -0.145 OA 
HETATM   16  C   UNL     1      -9.793   8.252  68.135  1.00  0.00    -0.172 C  
ENDBRANCH   8  13
ENDBRANCH   7   8
ENDBRANCH   6   7
ENDBRANCH   5   6
BRANCH   5  17
HETATM   17  C   UNL     1     -10.743  15.154  66.328  1.00  0.00    -0.320 C  
BRANCH  17  18
HETATM   18  C   UNL     1      -9.729  15.945  65.453  1.00  0.00    -0.058 C  
BRANCH  18  19
HETATM   19  N   UNL     1      -9.225  17.233  66.059  1.00  0.00    -0.514 NA 
BRANCH  19  20
HETATM   20  C   UNL     1      -7.782  17.002  66.471  1.00  0.00    -0.292 C  
HETATM   21  O   UNL     1      -5.658  17.856  65.656  1.00  0.00    -0.181 OA 
HETATM   22  O   UNL     1      -7.425  19.268  65.749  1.00  0.00    -0.369 OA 
HETATM   23  C   UNL     1      -6.836  18.059  65.907  1.00  0.00    -0.297 C  
ENDBRANCH  19  20
BRANCH  19  24
HETATM   24  C   UNL     1     -10.005  17.487  67.330  1.00  0.00    -0.315 C  
HETATM   25  C   UNL     1     -10.456  18.937  67.471  1.00  0.00    -0.450 C  
HETATM   26  O   UNL     1     -10.631  19.497  68.542  1.00  0.00    -0.283 OA 
HETATM   27  O   UNL     1     -10.716  19.523  66.279  1.00  0.00    -0.453 OA 
ENDBRANCH  19  24
ENDBRANCH  18  19
ENDBRANCH  17  18
ENDBRANCH   5  17
ENDBRANCH   3   5
TORSDOF 11
ENDMDL
MODEL      108
REMARK 921   NORMALIZED FREE ENERGY PREDICTED BY IDOCK:   -4.85 KCAL/MOL
REMARK 922        TOTAL FREE ENERGY PREDICTED BY IDOCK:   -9.70 KCAL/MOL
REMARK 923 INTER-LIGAND FREE ENERGY PREDICTED BY IDOCK:   -7.99 KCAL/MOL
REMARK 924 INTRA-LIGAND FREE ENERGY PREDICTED BY IDOCK:   -1.72 KCAL/MOL
REMARK 927      BINDING AFFINITY PREDICTED BY RF-SCORE:    0.00 PKD
ROOT
HETATM    1  O   UNL     1      -6.316  13.899  67.272  1.00  0.00    -0.296 OA 
HETATM    2  C   UNL     1      -6.810  13.529  68.476  1.00  0.00    -0.099 C  
HETATM    3  C   UNL     1      -8.107  12.732  68.360  1.00  0.00    -0.129 C  
HETATM    4  O   UNL     1      -6.293  13.842  69.539  1.00  0.00    -0.110 OA 
ENDROOT
BRANCH   3   5
HETATM    5  N   UNL     1      -8.169  11.897  67.110  1.00  0.00    -0.165 NA 
BRANCH   5   6
HETATM    6  C   UNL     1      -8.239  10.448  67.494  1.00  0.00    -0.114 C  
BRANCH   6   7
HETATM    7  C   UNL     1      -8.669  10.193  68.970  1.00  0.00    -0.161 C  
BRANCH   7   8
HETATM    8  N   UNL     1      -9.994   9.511  69.172  1.00  0.00    -0.176 NA 
BRANCH   8   9
HETATM    9  C   UNL     1     -10.466   9.029  67.812  1.00  0.00    -0.245 C  
HETATM   10  O   UNL     1     -10.704   6.877  68.858  1.00  0.00    -0.216 OA 
HETATM   11  C   UNL     1     -10.446   7.506  67.687  1.00  0.00    -0.250 C  
HETATM   12  O   UNL     1     -10.245   6.909  66.641  1.00  0.00    -0.204 OA 
ENDBRANCH   8   9
BRANCH   8  13
HETATM   13  C   UNL     1     -10.985  10.552  69.636  1.00  0.00    -0.283 C  
HETATM   14  O   UNL     1     -11.055   9.315  71.688  1.00  0.00    -0.349 OA 
HETATM   15  O   UNL     1     -12.917  10.466  71.105  1.00  0.00    -0.367 OA 
HETATM   16  C   UNL     1     -11.777  10.107  70.862  1.00  0.00    -0.378 C  
ENDBRANCH   8  13
ENDBRANCH   7   8
ENDBRANCH   6   7
ENDBRANCH   5   6
BRANCH   5  17
HETATM   17  C   UNL     1      -9.418  12.247  66.360  1.00  0.00    -0.237 C  
BRANCH  17  18
HETATM   18  C   UNL     1     -10.347  13.318  66.999  1.00  0.00    -0.246 C  
BRANCH  18  19
HETATM   19  N   UNL     1     -10.640  14.516  66.127  1.00  0.00    -0.298 NA 
BRANCH  19  20
HETATM   20  C   UNL     1     -10.907  13.998  64.725  1.00  0.00    -0.419 C  
HETATM   21  O   UNL     1     -12.672  12.635  63.759  1.00  0.00    -0.690 OA 
HETATM   22  O   UNL     1     -13.230  14.175  65.322  1.00  0.00    -0.760 OA 
HETATM   23  C   UNL     1     -12.342  13.509  64.546  1.00  0.00    -0.355 C  
ENDBRANCH  19  20
BRANCH  19  24
HETATM   24  C   UNL     1      -9.383  15.355  66.050  1.00  0.00    -0.329 C  
HETATM   25  C   UNL     1      -9.641  16.837  66.300  1.00  0.00    -0.289 C  
HETATM   26  O   UNL     1      -8.967  17.738  65.827  1.00  0.00    -0.509 OA 
HETATM   27  O   UNL     1     -10.658  17.052  67.169  1.00  0.00    -0.312 OA 
ENDBRANCH  19  24
ENDBRANCH  18  19
ENDBRANCH  17  18
ENDBRANCH   5  17
ENDBRANCH   3   5
TORSDOF 11
ENDMDL
MODEL      109
REMARK 921   NORMALIZED FREE ENERGY PREDICTED BY IDOCK:   -4.84 KCAL/MOL
REMARK 922        TOTAL FREE ENERGY PREDICTED BY IDOCK:   -9.69 KCAL/MOL
REMARK 923 INTER-LIGAND FREE ENERGY PREDICTED BY IDOCK:   -8.13 KCAL/MOL
REMARK 924 INTRA-LIGAND FREE ENERGY PREDICTED BY IDOCK:   -1.56 KCAL/MOL
REMARK 927      BINDING AFFINITY PREDICTED BY RF-SCORE:    0.00 PKD
ROOT
HETATM    1  O   UNL     1     -13.908  15.707  71.083  1.00  0.00    -0.583 OA 
HETATM    2  C   UNL     1     -13.058  14.942  71.807  1.00  0.00    -0.339 C  
HETATM    3  C   UNL     1     -12.167  14.064  70.932  1.00  0.00    -0.362 C  
HETATM    4  O   UNL     1     -13.043  14.927  73.029  1.00  0.00    -0.444 OA 
ENDROOT
BRANCH   3   5
HETATM    5  N   UNL     1     -11.838  14.700  69.609  1.00  0.00    -0.301 NA 
BRANCH   5   6
HETATM    6  C   UNL     1     -10.485  15.345  69.699  1.00  0.00    -0.280 C  
BRANCH   6   7
HETATM    7  C   UNL     1     -10.407  16.767  69.067  1.00  0.00    -0.326 C  
BRANCH   7   8
HETATM    8  N   UNL     1      -9.753  16.863  67.715  1.00  0.00    -0.246 NA 
BRANCH   8   9
HETATM    9  C   UNL     1      -8.693  17.947  67.802  1.00  0.00    -0.250 C  
HETATM   10  O   UNL     1      -7.366  16.509  66.405  1.00  0.00    -0.234 OA 
HETATM   11  C   UNL     1      -7.312  17.455  67.371  1.00  0.00    -0.168 C  
HETATM   12  O   UNL     1      -6.263  17.884  67.825  1.00  0.00    -0.161 OA 
ENDBRANCH   8   9
BRANCH   8  13
HETATM   13  C   UNL     1     -10.793  17.344  66.730  1.00  0.00     0.024 C  
HETATM   14  O   UNL     1     -10.419  15.268  65.592  1.00  0.00    -0.307 OA 
HETATM   15  O   UNL     1     -11.082  17.035  64.339  1.00  0.00    -1.144 OA 
HETATM   16  C   UNL     1     -10.768  16.564  65.420  1.00  0.00    -0.259 C  
ENDBRANCH   8  13
ENDBRANCH   7   8
ENDBRANCH   6   7
ENDBRANCH   5   6
BRANCH   5  17
HETATM   17  C   UNL     1     -11.781  13.630  68.563  1.00  0.00    -0.357 C  
BRANCH  17  18
HETATM   18  C   UNL     1     -10.397  12.971  68.302  1.00  0.00    -0.252 C  
BRANCH  18  19
HETATM   19  N   UNL     1     -10.416  11.466  68.174  1.00  0.00    -0.181 NA 
BRANCH  19  20
HETATM   20  C   UNL     1     -11.211  11.131  66.925  1.00  0.00    -0.186 C  
HETATM   21  O   UNL     1     -10.851  11.542  64.557  1.00  0.00    -0.316 OA 
HETATM   22  O   UNL     1      -9.069  10.996  65.842  1.00  0.00    -0.186 OA 
HETATM   23  C   UNL     1     -10.382  11.263  65.650  1.00  0.00    -0.256 C  
ENDBRANCH  19  20
BRANCH  19  24
HETATM   24  C   UNL     1     -11.190  10.908  69.348  1.00  0.00    -0.272 C  
HETATM   25  C   UNL     1     -10.475   9.748  70.034  1.00  0.00    -0.270 C  
HETATM   26  O   UNL     1     -11.048   8.846  70.623  1.00  0.00    -0.248 OA 
HETATM   27  O   UNL     1      -9.127   9.862  69.986  1.00  0.00    -0.225 OA 
ENDBRANCH  19  24
ENDBRANCH  18  19
ENDBRANCH  17  18
ENDBRANCH   5  17
ENDBRANCH   3   5
TORSDOF 11
ENDMDL
MODEL      110
REMARK 921   NORMALIZED FREE ENERGY PREDICTED BY IDOCK:   -4.84 KCAL/MOL
REMARK 922        TOTAL FREE ENERGY PREDICTED BY IDOCK:   -9.69 KCAL/MOL
REMARK 923 INTER-LIGAND FREE ENERGY PREDICTED BY IDOCK:   -8.39 KCAL/MOL
REMARK 924 INTRA-LIGAND FREE ENERGY PREDICTED BY IDOCK:   -1.30 KCAL/MOL
REMARK 927      BINDING AFFINITY PREDICTED BY RF-SCORE:    0.00 PKD
ROOT
HETATM    1  O   UNL     1     -13.036  13.475  65.208  1.00  0.00    -0.713 OA 
HETATM    2  C   UNL     1     -12.523  12.526  64.391  1.00  0.00    -0.446 C  
HETATM    3  C   UNL     1     -11.186  11.982  64.890  1.00  0.00    -0.320 C  
HETATM    4  O   UNL     1     -13.054  12.180  63.346  1.00  0.00    -0.752 OA 
ENDROOT
BRANCH   3   5
HETATM    5  N   UNL     1     -11.082  11.975  66.391  1.00  0.00    -0.303 NA 
BRANCH   5   6
HETATM    6  C   UNL     1     -10.606  10.624  66.841  1.00  0.00    -0.254 C  
BRANCH   6   7
HETATM    7  C   UNL     1     -10.671  10.400  68.383  1.00  0.00    -0.225 C  
BRANCH   7   8
HETATM    8  N   UNL     1     -10.340   9.016  68.872  1.00  0.00    -0.212 NA 
BRANCH   8   9
HETATM    9  C   UNL     1      -8.859   8.999  69.207  1.00  0.00    -0.139 C  
HETATM   10  O   UNL     1      -9.530   8.051  71.312  1.00  0.00    -0.151 OA 
HETATM   11  C   UNL     1      -8.595   8.815  70.700  1.00  0.00    -0.178 C  
HETATM   12  O   UNL     1      -7.631   9.282  71.286  1.00  0.00    -0.306 OA 
ENDBRANCH   8   9
BRANCH   8  13
HETATM   13  C   UNL     1     -10.541   8.057  67.722  1.00  0.00    -0.170 C  
HETATM   14  O   UNL     1     -11.534   6.599  69.345  1.00  0.00    -0.299 OA 
HETATM   15  O   UNL     1     -10.525   5.634  67.561  1.00  0.00    -0.210 OA 
HETATM   16  C   UNL     1     -10.835   6.634  68.187  1.00  0.00    -0.263 C  
ENDBRANCH   8  13
ENDBRANCH   7   8
ENDBRANCH   6   7
ENDBRANCH   5   6
BRANCH   5  17
HETATM   17  C   UNL     1     -10.067  12.995  66.807  1.00  0.00    -0.247 C  
BRANCH  17  18
HETATM   18  C   UNL     1     -10.555  14.130  67.751  1.00  0.00    -0.243 C  
BRANCH  18  19
HETATM   19  N   UNL     1     -10.226  15.532  67.292  1.00  0.00    -0.255 NA 
BRANCH  19  20
HETATM   20  C   UNL     1     -10.090  15.490  65.781  1.00  0.00    -0.360 C  
HETATM   21  O   UNL     1     -11.323  16.537  63.966  1.00  0.00    -1.064 OA 
HETATM   22  O   UNL     1     -10.941  17.739  65.846  1.00  0.00    -0.077 OA 
HETATM   23  C   UNL     1     -10.858  16.616  65.093  1.00  0.00    -0.186 C  
ENDBRANCH  19  20
BRANCH  19  24
HETATM   24  C   UNL     1      -8.864  15.895  67.843  1.00  0.00    -0.179 C  
HETATM   25  C   UNL     1      -8.839  17.267  68.509  1.00  0.00    -0.269 C  
HETATM   26  O   UNL     1      -7.850  17.979  68.569  1.00  0.00    -0.288 OA 
HETATM   27  O   UNL     1     -10.017  17.585  69.097  1.00  0.00    -0.281 OA 
ENDBRANCH  19  24
ENDBRANCH  18  19
ENDBRANCH  17  18
ENDBRANCH   5  17
ENDBRANCH   3   5
TORSDOF 11
ENDMDL
MODEL      111
REMARK 921   NORMALIZED FREE ENERGY PREDICTED BY IDOCK:   -4.83 KCAL/MOL
REMARK 922        TOTAL FREE ENERGY PREDICTED BY IDOCK:   -9.68 KCAL/MOL
REMARK 923 INTER-LIGAND FREE ENERGY PREDICTED BY IDOCK:   -8.34 KCAL/MOL
REMARK 924 INTRA-LIGAND FREE ENERGY PREDICTED BY IDOCK:   -1.34 KCAL/MOL
REMARK 927      BINDING AFFINITY PREDICTED BY RF-SCORE:    0.00 PKD
ROOT
HETATM    1  O   UNL     1      -8.941   8.960  65.723  1.00  0.00    -0.178 OA 
HETATM    2  C   UNL     1      -9.636   9.955  65.124  1.00  0.00    -0.300 C  
HETATM    3  C   UNL     1     -10.465  10.771  66.114  1.00  0.00    -0.214 C  
HETATM    4  O   UNL     1      -9.632  10.146  63.917  1.00  0.00    -0.291 OA 
ENDROOT
BRANCH   3   5
HETATM    5  N   UNL     1      -9.827  10.863  67.473  1.00  0.00    -0.167 NA 
BRANCH   5   6
HETATM    6  C   UNL     1      -9.571  12.307  67.796  1.00  0.00    -0.200 C  
BRANCH   6   7
HETATM    7  C   UNL     1     -10.857  13.140  68.080  1.00  0.00    -0.251 C  
BRANCH   7   8
HETATM    8  N   UNL     1     -11.051  14.376  67.244  1.00  0.00    -0.301 NA 
BRANCH   8   9
HETATM    9  C   UNL     1     -11.491  15.489  68.180  1.00  0.00    -0.326 C  
HETATM   10  O   UNL     1     -10.365  16.970  66.657  1.00  0.00    -0.308 OA 
HETATM   11  C   UNL     1     -10.725  16.790  67.949  1.00  0.00    -0.347 C  
HETATM   12  O   UNL     1     -10.479  17.602  68.827  1.00  0.00    -0.351 OA 
ENDBRANCH   8   9
BRANCH   8  13
HETATM   13  C   UNL     1     -12.199  14.120  66.297  1.00  0.00    -0.449 C  
HETATM   14  O   UNL     1     -10.533  14.085  64.572  1.00  0.00    -0.424 OA 
HETATM   15  O   UNL     1     -12.619  14.753  63.990  1.00  0.00    -0.822 OA 
HETATM   16  C   UNL     1     -11.828  14.378  64.840  1.00  0.00    -0.417 C  
ENDBRANCH   8  13
ENDBRANCH   7   8
ENDBRANCH   6   7
ENDBRANCH   5   6
BRANCH   5  17
HETATM   17  C   UNL     1     -10.781  10.315  68.489  1.00  0.00    -0.227 C  
BRANCH  17  18
HETATM   18  C   UNL     1     -10.229  10.088  69.925  1.00  0.00    -0.260 C  
BRANCH  18  19
HETATM   19  N   UNL     1     -10.357   8.676  70.447  1.00  0.00    -0.195 NA 
BRANCH  19  20
HETATM   20  C   UNL     1      -9.068   8.349  71.179  1.00  0.00    -0.174 C  
HETATM   21  O   UNL     1      -8.373   8.541  73.500  1.00  0.00    -0.381 OA 
HETATM   22  O   UNL     1     -10.493   7.881  73.059  1.00  0.00    -0.334 OA 
HETATM   23  C   UNL     1      -9.254   8.288  72.693  1.00  0.00    -0.274 C  
ENDBRANCH  19  20
BRANCH  19  24
HETATM   24  C   UNL     1     -10.431   7.744  69.257  1.00  0.00    -0.217 C  
HETATM   25  C   UNL     1     -11.137   6.430  69.574  1.00  0.00    -0.396 C  
HETATM   26  O   UNL     1     -10.902   5.374  69.009  1.00  0.00    -0.170 OA 
HETATM   27  O   UNL     1     -12.111   6.571  70.504  1.00  0.00    -0.367 OA 
ENDBRANCH  19  24
ENDBRANCH  18  19
ENDBRANCH  17  18
ENDBRANCH   5  17
ENDBRANCH   3   5
TORSDOF 11
ENDMDL
MODEL      112
REMARK 921   NORMALIZED FREE ENERGY PREDICTED BY IDOCK:   -4.83 KCAL/MOL
REMARK 922        TOTAL FREE ENERGY PREDICTED BY IDOCK:   -9.68 KCAL/MOL
REMARK 923 INTER-LIGAND FREE ENERGY PREDICTED BY IDOCK:   -8.14 KCAL/MOL
REMARK 924 INTRA-LIGAND FREE ENERGY PREDICTED BY IDOCK:   -1.54 KCAL/MOL
REMARK 927      BINDING AFFINITY PREDICTED BY RF-SCORE:    0.00 PKD
ROOT
HETATM    1  O   UNL     1      -6.946   8.580  66.174  1.00  0.00    -0.074 OA 
HETATM    2  C   UNL     1      -7.105   9.307  67.305  1.00  0.00    -0.082 C  
HETATM    3  C   UNL     1      -8.366  10.167  67.279  1.00  0.00    -0.121 C  
HETATM    4  O   UNL     1      -6.297   9.306  68.223  1.00  0.00    -0.053 OA 
ENDROOT
BRANCH   3   5
HETATM    5  N   UNL     1      -9.486   9.537  66.496  1.00  0.00    -0.169 NA 
BRANCH   5   6
HETATM    6  C   UNL     1     -10.470   8.931  67.453  1.00  0.00    -0.277 C  
BRANCH   6   7
HETATM    7  C   UNL     1     -10.616   9.700  68.801  1.00  0.00    -0.216 C  
BRANCH   7   8
HETATM    8  N   UNL     1     -11.156   8.915  69.965  1.00  0.00    -0.212 NA 
BRANCH   8   9
HETATM    9  C   UNL     1     -11.330   9.884  71.121  1.00  0.00    -0.370 C  
HETATM   10  O   UNL     1     -13.453   8.809  71.466  1.00  0.00    -0.345 OA 
HETATM   11  C   UNL     1     -12.778   9.975  71.600  1.00  0.00    -0.435 C  
HETATM   12  O   UNL     1     -13.278  10.981  72.079  1.00  0.00    -0.499 OA 
ENDBRANCH   8   9
BRANCH   8  13
HETATM   13  C   UNL     1     -10.099   7.920  70.383  1.00  0.00    -0.194 C  
HETATM   14  O   UNL     1     -11.625   6.242  69.608  1.00  0.00    -0.430 OA 
HETATM   15  O   UNL     1     -10.204   5.664  71.276  1.00  0.00    -0.203 OA 
HETATM   16  C   UNL     1     -10.642   6.500  70.502  1.00  0.00    -0.234 C  
ENDBRANCH   8  13
ENDBRANCH   7   8
ENDBRANCH   6   7
ENDBRANCH   5   6
BRANCH   5  17
HETATM   17  C   UNL     1     -10.186  10.607  65.715  1.00  0.00    -0.252 C  
BRANCH  17  18
HETATM   18  C   UNL     1      -9.615  12.049  65.826  1.00  0.00    -0.213 C  
BRANCH  18  19
HETATM   19  N   UNL     1     -10.640  13.126  66.093  1.00  0.00    -0.275 NA 
BRANCH  19  20
HETATM   20  C   UNL     1     -10.812  13.912  64.805  1.00  0.00    -0.419 C  
HETATM   21  O   UNL     1     -12.536  13.950  63.092  1.00  0.00    -0.775 OA 
HETATM   22  O   UNL     1     -13.169  13.744  65.256  1.00  0.00    -0.755 OA 
HETATM   23  C   UNL     1     -12.243  13.860  64.275  1.00  0.00    -0.408 C  
ENDBRANCH  19  20
BRANCH  19  24
HETATM   24  C   UNL     1     -10.058  14.081  67.112  1.00  0.00    -0.259 C  
HETATM   25  C   UNL     1     -11.082  14.550  68.140  1.00  0.00    -0.266 C  
HETATM   26  O   UNL     1     -11.033  15.628  68.711  1.00  0.00    -0.250 OA 
HETATM   27  O   UNL     1     -12.018  13.610  68.412  1.00  0.00    -0.355 OA 
ENDBRANCH  19  24
ENDBRANCH  18  19
ENDBRANCH  17  18
ENDBRANCH   5  17
ENDBRANCH   3   5
TORSDOF 11
ENDMDL
MODEL      113
REMARK 921   NORMALIZED FREE ENERGY PREDICTED BY IDOCK:   -4.83 KCAL/MOL
REMARK 922        TOTAL FREE ENERGY PREDICTED BY IDOCK:   -9.68 KCAL/MOL
REMARK 923 INTER-LIGAND FREE ENERGY PREDICTED BY IDOCK:   -8.24 KCAL/MOL
REMARK 924 INTRA-LIGAND FREE ENERGY PREDICTED BY IDOCK:   -1.44 KCAL/MOL
REMARK 927      BINDING AFFINITY PREDICTED BY RF-SCORE:    0.00 PKD
ROOT
HETATM    1  O   UNL     1     -10.453  13.055  63.877  1.00  0.00    -0.392 OA 
HETATM    2  C   UNL     1     -11.795  13.157  64.021  1.00  0.00    -0.453 C  
HETATM    3  C   UNL     1     -12.280  12.645  65.375  1.00  0.00    -0.459 C  
HETATM    4  O   UNL     1     -12.536  13.570  63.142  1.00  0.00    -0.759 OA 
ENDROOT
BRANCH   3   5
HETATM    5  N   UNL     1     -11.277  12.862  66.475  1.00  0.00    -0.291 NA 
BRANCH   5   6
HETATM    6  C   UNL     1     -11.678  14.070  67.271  1.00  0.00    -0.389 C  
BRANCH   6   7
HETATM    7  C   UNL     1     -11.986  13.780  68.771  1.00  0.00    -0.365 C  
BRANCH   7   8
HETATM    8  N   UNL     1     -11.708  14.897  69.740  1.00  0.00    -0.287 NA 
BRANCH   8   9
HETATM    9  C   UNL     1     -12.907  15.001  70.666  1.00  0.00    -0.363 C  
HETATM   10  O   UNL     1     -11.298  15.355  72.417  1.00  0.00    -0.438 OA 
HETATM   11  C   UNL     1     -12.528  14.862  72.139  1.00  0.00    -0.338 C  
HETATM   12  O   UNL     1     -13.260  14.382  72.990  1.00  0.00    -0.518 OA 
ENDBRANCH   8   9
BRANCH   8  13
HETATM   13  C   UNL     1     -11.646  16.186  68.956  1.00  0.00    -0.298 C  
HETATM   14  O   UNL     1      -9.275  16.069  69.291  1.00  0.00    -0.247 OA 
HETATM   15  O   UNL     1     -10.193  18.129  69.069  1.00  0.00    -0.381 OA 
HETATM   16  C   UNL     1     -10.318  16.916  69.128  1.00  0.00    -0.319 C  
ENDBRANCH   8  13
ENDBRANCH   7   8
ENDBRANCH   6   7
ENDBRANCH   5   6
BRANCH   5  17
HETATM   17  C   UNL     1     -11.296  11.672  67.384  1.00  0.00    -0.300 C  
BRANCH  17  18
HETATM   18  C   UNL     1     -10.257  10.550  67.100  1.00  0.00    -0.223 C  
BRANCH  18  19
HETATM   19  N   UNL     1      -9.661   9.901  68.327  1.00  0.00    -0.139 NA 
BRANCH  19  20
HETATM   20  C   UNL     1      -8.326   9.306  67.917  1.00  0.00    -0.116 C  
HETATM   21  O   UNL     1      -6.035  10.109  68.030  1.00  0.00    -0.042 OA 
HETATM   22  O   UNL     1      -7.427  10.568  69.756  1.00  0.00    -0.154 OA 
HETATM   23  C   UNL     1      -7.141  10.037  68.544  1.00  0.00    -0.071 C  
ENDBRANCH  19  20
BRANCH  19  24
HETATM   24  C   UNL     1     -10.552   8.744  68.722  1.00  0.00    -0.145 C  
HETATM   25  C   UNL     1     -10.551   8.480  70.224  1.00  0.00    -0.226 C  
HETATM   26  O   UNL     1     -10.746   7.384  70.725  1.00  0.00    -0.225 OA 
HETATM   27  O   UNL     1     -10.385   9.608  70.954  1.00  0.00    -0.300 OA 
ENDBRANCH  19  24
ENDBRANCH  18  19
ENDBRANCH  17  18
ENDBRANCH   5  17
ENDBRANCH   3   5
TORSDOF 11
ENDMDL
MODEL      114
REMARK 921   NORMALIZED FREE ENERGY PREDICTED BY IDOCK:   -4.83 KCAL/MOL
REMARK 922        TOTAL FREE ENERGY PREDICTED BY IDOCK:   -9.67 KCAL/MOL
REMARK 923 INTER-LIGAND FREE ENERGY PREDICTED BY IDOCK:   -8.37 KCAL/MOL
REMARK 924 INTRA-LIGAND FREE ENERGY PREDICTED BY IDOCK:   -1.30 KCAL/MOL
REMARK 927      BINDING AFFINITY PREDICTED BY RF-SCORE:    0.00 PKD
ROOT
HETATM    1  O   UNL     1      -7.088  14.282  68.082  1.00  0.00    -0.099 OA 
HETATM    2  C   UNL     1      -7.132  15.410  67.336  1.00  0.00    -0.196 C  
HETATM    3  C   UNL     1      -8.559  15.866  67.043  1.00  0.00    -0.216 C  
HETATM    4  O   UNL     1      -6.134  15.972  66.909  1.00  0.00    -0.318 OA 
ENDROOT
BRANCH   3   5
HETATM    5  N   UNL     1      -9.519  15.528  68.152  1.00  0.00    -0.197 NA 
BRANCH   5   6
HETATM    6  C   UNL     1      -9.431  16.585  69.215  1.00  0.00    -0.152 C  
BRANCH   6   7
HETATM    7  C   UNL     1     -10.172  17.911  68.867  1.00  0.00    -0.330 C  
BRANCH   7   8
HETATM    8  N   UNL     1      -9.546  18.767  67.800  1.00  0.00    -0.304 NA 
BRANCH   8   9
HETATM    9  C   UNL     1      -8.555  19.691  68.486  1.00  0.00    -0.296 C  
HETATM   10  O   UNL     1      -7.087  19.187  66.649  1.00  0.00    -0.202 OA 
HETATM   11  C   UNL     1      -7.131  19.523  67.960  1.00  0.00    -0.263 C  
HETATM   12  O   UNL     1      -6.128  19.695  68.636  1.00  0.00    -0.228 OA 
ENDBRANCH   8   9
BRANCH   8  13
HETATM   13  C   UNL     1     -10.628  19.643  67.213  1.00  0.00    -0.472 C  
HETATM   14  O   UNL     1     -10.674  18.069  65.406  1.00  0.00    -0.632 OA 
HETATM   15  O   UNL     1     -11.251  20.209  64.935  1.00  0.00    -0.093 OA 
HETATM   16  C   UNL     1     -10.869  19.368  65.732  1.00  0.00    -0.280 C  
ENDBRANCH   8  13
ENDBRANCH   7   8
ENDBRANCH   6   7
ENDBRANCH   5   6
BRANCH   5  17
HETATM   17  C   UNL     1     -10.911  15.532  67.599  1.00  0.00    -0.315 C  
BRANCH  17  18
HETATM   18  C   UNL     1     -11.788  14.280  67.887  1.00  0.00    -0.358 C  
BRANCH  18  19
HETATM   19  N   UNL     1     -11.871  13.281  66.757  1.00  0.00    -0.383 NA 
BRANCH  19  20
HETATM   20  C   UNL     1     -10.607  12.441  66.805  1.00  0.00    -0.226 C  
HETATM   21  O   UNL     1      -9.667  10.936  68.466  1.00  0.00    -0.168 OA 
HETATM   22  O   UNL     1     -11.908  10.925  68.145  1.00  0.00    -0.564 OA 
HETATM   23  C   UNL     1     -10.655  11.374  67.896  1.00  0.00    -0.189 C  
ENDBRANCH  19  20
BRANCH  19  24
HETATM   24  C   UNL     1     -11.836  14.047  65.453  1.00  0.00    -0.359 C  
HETATM   25  C   UNL     1     -12.342  13.229  64.269  1.00  0.00    -0.340 C  
HETATM   26  O   UNL     1     -11.971  13.392  63.118  1.00  0.00    -0.413 OA 
HETATM   27  O   UNL     1     -13.307  12.346  64.617  1.00  0.00    -0.778 OA 
ENDBRANCH  19  24
ENDBRANCH  18  19
ENDBRANCH  17  18
ENDBRANCH   5  17
ENDBRANCH   3   5
TORSDOF 11
ENDMDL
MODEL      115
REMARK 921   NORMALIZED FREE ENERGY PREDICTED BY IDOCK:   -4.83 KCAL/MOL
REMARK 922        TOTAL FREE ENERGY PREDICTED BY IDOCK:   -9.67 KCAL/MOL
REMARK 923 INTER-LIGAND FREE ENERGY PREDICTED BY IDOCK:   -8.00 KCAL/MOL
REMARK 924 INTRA-LIGAND FREE ENERGY PREDICTED BY IDOCK:   -1.67 KCAL/MOL
REMARK 927      BINDING AFFINITY PREDICTED BY RF-SCORE:    0.00 PKD
ROOT
HETATM    1  O   UNL     1     -12.348  11.089  70.512  1.00  0.00    -0.323 OA 
HETATM    2  C   UNL     1     -12.550  12.385  70.845  1.00  0.00    -0.246 C  
HETATM    3  C   UNL     1     -11.725  13.347  69.993  1.00  0.00    -0.227 C  
HETATM    4  O   UNL     1     -13.280  12.737  71.760  1.00  0.00    -0.429 OA 
ENDROOT
BRANCH   3   5
HETATM    5  N   UNL     1     -11.502  12.842  68.593  1.00  0.00    -0.285 NA 
BRANCH   5   6
HETATM    6  C   UNL     1     -12.004  13.868  67.618  1.00  0.00    -0.368 C  
BRANCH   6   7
HETATM    7  C   UNL     1     -11.249  15.230  67.672  1.00  0.00    -0.320 C  
BRANCH   7   8
HETATM    8  N   UNL     1     -10.824  15.812  66.351  1.00  0.00    -0.273 NA 
BRANCH   8   9
HETATM    9  C   UNL     1     -10.997  14.726  65.304  1.00  0.00    -0.374 C  
HETATM   10  O   UNL     1     -11.752  16.493  63.858  1.00  0.00    -1.148 OA 
HETATM   11  C   UNL     1     -11.870  15.173  64.132  1.00  0.00    -0.148 C  
HETATM   12  O   UNL     1     -12.584  14.421  63.487  1.00  0.00    -0.784 OA 
ENDBRANCH   8   9
BRANCH   8  13
HETATM   13  C   UNL     1      -9.345  16.111  66.431  1.00  0.00    -0.298 C  
HETATM   14  O   UNL     1     -10.006  18.394  66.745  1.00  0.00    -0.321 OA 
HETATM   15  O   UNL     1      -8.000  18.018  65.760  1.00  0.00    -0.532 OA 
HETATM   16  C   UNL     1      -9.034  17.593  66.248  1.00  0.00    -0.183 C  
ENDBRANCH   8  13
ENDBRANCH   7   8
ENDBRANCH   6   7
ENDBRANCH   5   6
BRANCH   5  17
HETATM   17  C   UNL     1     -10.031  12.666  68.375  1.00  0.00    -0.210 C  
BRANCH  17  18
HETATM   18  C   UNL     1      -9.468  11.221  68.496  1.00  0.00    -0.191 C  
BRANCH  18  19
HETATM   19  N   UNL     1      -9.019  10.596  67.197  1.00  0.00    -0.137 NA 
BRANCH  19  20
HETATM   20  C   UNL     1     -10.269  10.255  66.405  1.00  0.00    -0.225 C  
HETATM   21  O   UNL     1     -11.438  11.353  64.579  1.00  0.00    -0.202 OA 
HETATM   22  O   UNL     1      -9.174  11.375  64.581  1.00  0.00    -0.145 OA 
HETATM   23  C   UNL     1     -10.379  11.057  65.111  1.00  0.00    -0.283 C  
ENDBRANCH  19  20
BRANCH  19  24
HETATM   24  C   UNL     1      -8.337   9.285  67.521  1.00  0.00    -0.119 C  
HETATM   25  C   UNL     1      -7.236   8.926  66.528  1.00  0.00    -0.085 C  
HETATM   26  O   UNL     1      -6.904   7.782  66.261  1.00  0.00    -0.059 OA 
HETATM   27  O   UNL     1      -6.610  10.015  66.025  1.00  0.00    -0.083 OA 
ENDBRANCH  19  24
ENDBRANCH  18  19
ENDBRANCH  17  18
ENDBRANCH   5  17
ENDBRANCH   3   5
TORSDOF 11
ENDMDL
MODEL      116
REMARK 921   NORMALIZED FREE ENERGY PREDICTED BY IDOCK:   -4.82 KCAL/MOL
REMARK 922        TOTAL FREE ENERGY PREDICTED BY IDOCK:   -9.67 KCAL/MOL
REMARK 923 INTER-LIGAND FREE ENERGY PREDICTED BY IDOCK:   -8.50 KCAL/MOL
REMARK 924 INTRA-LIGAND FREE ENERGY PREDICTED BY IDOCK:   -1.16 KCAL/MOL
REMARK 927      BINDING AFFINITY PREDICTED BY RF-SCORE:    0.00 PKD
ROOT
HETATM    1  O   UNL     1     -12.534  10.883  68.700  1.00  0.00    -0.418 OA 
HETATM    2  C   UNL     1     -12.041  11.708  69.653  1.00  0.00    -0.280 C  
HETATM    3  C   UNL     1     -11.093  12.762  69.085  1.00  0.00    -0.189 C  
HETATM    4  O   UNL     1     -12.294  11.588  70.843  1.00  0.00    -0.377 OA 
ENDROOT
BRANCH   3   5
HETATM    5  N   UNL     1     -11.457  13.181  67.687  1.00  0.00    -0.304 NA 
BRANCH   5   6
HETATM    6  C   UNL     1     -11.805  14.642  67.690  1.00  0.00    -0.337 C  
BRANCH   6   7
HETATM    7  C   UNL     1     -10.760  15.551  68.404  1.00  0.00    -0.263 C  
BRANCH   7   8
HETATM    8  N   UNL     1     -10.317  16.777  67.653  1.00  0.00    -0.300 NA 
BRANCH   8   9
HETATM    9  C   UNL     1     -10.053  16.357  66.218  1.00  0.00    -0.331 C  
HETATM   10  O   UNL     1     -10.904  18.523  65.616  1.00  0.00    -0.422 OA 
HETATM   11  C   UNL     1     -10.775  17.241  65.203  1.00  0.00     0.064 C  
HETATM   12  O   UNL     1     -11.174  16.848  64.118  1.00  0.00    -1.176 OA 
ENDBRANCH   8   9
BRANCH   8  13
HETATM   13  C   UNL     1      -8.994  17.222  68.231  1.00  0.00    -0.262 C  
HETATM   14  O   UNL     1     -10.116  19.276  68.753  1.00  0.00    -0.418 OA 
HETATM   15  O   UNL     1      -7.885  19.378  68.368  1.00  0.00    -0.317 OA 
HETATM   16  C   UNL     1      -8.918  18.732  68.432  1.00  0.00    -0.335 C  
ENDBRANCH   8  13
ENDBRANCH   7   8
ENDBRANCH   6   7
ENDBRANCH   5   6
BRANCH   5  17
HETATM   17  C   UNL     1     -10.265  12.983  66.801  1.00  0.00    -0.246 C  
BRANCH  17  18
HETATM   18  C   UNL     1      -9.682  11.545  66.714  1.00  0.00    -0.199 C  
BRANCH  18  19
HETATM   19  N   UNL     1      -9.666  10.940  65.330  1.00  0.00    -0.229 NA 
BRANCH  19  20
HETATM   20  C   UNL     1     -11.016  11.230  64.697  1.00  0.00    -0.211 C  
HETATM   21  O   UNL     1     -11.803  12.934  63.153  1.00  0.00    -0.506 OA 
HETATM   22  O   UNL     1      -9.738  12.061  62.837  1.00  0.00    -0.334 OA 
HETATM   23  C   UNL     1     -10.912  12.175  63.503  1.00  0.00    -0.453 C  
ENDBRANCH  19  20
BRANCH  19  24
HETATM   24  C   UNL     1      -9.568   9.438  65.478  1.00  0.00    -0.258 C  
HETATM   25  C   UNL     1      -8.280   8.866  64.894  1.00  0.00    -0.160 C  
HETATM   26  O   UNL     1      -8.177   7.737  64.442  1.00  0.00    -0.124 OA 
HETATM   27  O   UNL     1      -7.234   9.720  64.998  1.00  0.00    -0.114 OA 
ENDBRANCH  19  24
ENDBRANCH  18  19
ENDBRANCH  17  18
ENDBRANCH   5  17
ENDBRANCH   3   5
TORSDOF 11
ENDMDL
MODEL      117
REMARK 921   NORMALIZED FREE ENERGY PREDICTED BY IDOCK:   -4.81 KCAL/MOL
REMARK 922        TOTAL FREE ENERGY PREDICTED BY IDOCK:   -9.65 KCAL/MOL
REMARK 923 INTER-LIGAND FREE ENERGY PREDICTED BY IDOCK:   -8.42 KCAL/MOL
REMARK 924 INTRA-LIGAND FREE ENERGY PREDICTED BY IDOCK:   -1.23 KCAL/MOL
REMARK 927      BINDING AFFINITY PREDICTED BY RF-SCORE:    0.00 PKD
ROOT
HETATM    1  O   UNL     1     -12.571  13.853  71.335  1.00  0.00    -0.344 OA 
HETATM    2  C   UNL     1     -12.938  15.053  70.829  1.00  0.00    -0.389 C  
HETATM    3  C   UNL     1     -11.879  15.650  69.905  1.00  0.00    -0.360 C  
HETATM    4  O   UNL     1     -13.984  15.614  71.120  1.00  0.00    -0.564 OA 
ENDROOT
BRANCH   3   5
HETATM    5  N   UNL     1     -11.098  14.602  69.158  1.00  0.00    -0.257 NA 
BRANCH   5   6
HETATM    6  C   UNL     1     -11.873  14.191  67.940  1.00  0.00    -0.370 C  
BRANCH   6   7
HETATM    7  C   UNL     1     -10.989  13.812  66.713  1.00  0.00    -0.304 C  
BRANCH   7   8
HETATM    8  N   UNL     1     -10.946  12.354  66.346  1.00  0.00    -0.265 NA 
BRANCH   8   9
HETATM    9  C   UNL     1     -11.910  12.150  65.191  1.00  0.00    -0.298 C  
HETATM   10  O   UNL     1     -10.122  12.945  63.793  1.00  0.00    -0.368 OA 
HETATM   11  C   UNL     1     -11.468  12.873  63.920  1.00  0.00    -0.446 C  
HETATM   12  O   UNL     1     -12.239  13.321  63.086  1.00  0.00    -0.628 OA 
ENDBRANCH   8   9
BRANCH   8  13
HETATM   13  C   UNL     1     -11.488  11.564  67.514  1.00  0.00    -0.282 C  
HETATM   14  O   UNL     1      -9.205  11.392  68.227  1.00  0.00    -0.170 OA 
HETATM   15  O   UNL     1     -10.608   9.713  68.817  1.00  0.00    -0.209 OA 
HETATM   16  C   UNL     1     -10.407  10.769  68.239  1.00  0.00    -0.173 C  
ENDBRANCH   8  13
ENDBRANCH   7   8
ENDBRANCH   6   7
ENDBRANCH   5   6
BRANCH   5  17
HETATM   17  C   UNL     1      -9.799  15.200  68.711  1.00  0.00    -0.223 C  
BRANCH  17  18
HETATM   18  C   UNL     1      -9.687  16.750  68.745  1.00  0.00    -0.261 C  
BRANCH  18  19
HETATM   19  N   UNL     1      -8.886  17.361  67.620  1.00  0.00    -0.224 NA 
BRANCH  19  20
HETATM   20  C   UNL     1      -9.846  17.621  66.473  1.00  0.00    -0.319 C  
HETATM   21  O   UNL     1     -10.997  19.609  65.678  1.00  0.00    -0.401 OA 
HETATM   22  O   UNL     1      -8.867  19.817  66.418  1.00  0.00    -0.350 OA 
HETATM   23  C   UNL     1      -9.990  19.107  66.155  1.00  0.00    -0.381 C  
ENDBRANCH  19  20
BRANCH  19  24
HETATM   24  C   UNL     1      -7.897  16.323  67.134  1.00  0.00    -0.191 C  
HETATM   25  C   UNL     1      -6.470  16.600  67.595  1.00  0.00    -0.151 C  
HETATM   26  O   UNL     1      -5.475  16.257  66.977  1.00  0.00    -0.321 OA 
HETATM   27  O   UNL     1      -6.419  17.205  68.805  1.00  0.00    -0.167 OA 
ENDBRANCH  19  24
ENDBRANCH  18  19
ENDBRANCH  17  18
ENDBRANCH   5  17
ENDBRANCH   3   5
TORSDOF 11
ENDMDL
MODEL      118
REMARK 921   NORMALIZED FREE ENERGY PREDICTED BY IDOCK:   -4.81 KCAL/MOL
REMARK 922        TOTAL FREE ENERGY PREDICTED BY IDOCK:   -9.65 KCAL/MOL
REMARK 923 INTER-LIGAND FREE ENERGY PREDICTED BY IDOCK:   -8.32 KCAL/MOL
REMARK 924 INTRA-LIGAND FREE ENERGY PREDICTED BY IDOCK:   -1.33 KCAL/MOL
REMARK 927      BINDING AFFINITY PREDICTED BY RF-SCORE:    0.00 PKD
ROOT
HETATM    1  O   UNL     1      -8.830   9.420  65.954  1.00  0.00    -0.144 OA 
HETATM    2  C   UNL     1      -9.906  10.138  65.558  1.00  0.00    -0.298 C  
HETATM    3  C   UNL     1     -10.778  10.584  66.729  1.00  0.00    -0.188 C  
HETATM    4  O   UNL     1     -10.170  10.363  64.386  1.00  0.00    -0.333 OA 
ENDROOT
BRANCH   3   5
HETATM    5  N   UNL     1      -9.986  10.838  67.984  1.00  0.00    -0.161 NA 
BRANCH   5   6
HETATM    6  C   UNL     1      -9.876  12.320  68.199  1.00  0.00    -0.212 C  
BRANCH   6   7
HETATM    7  C   UNL     1     -11.228  13.088  68.100  1.00  0.00    -0.272 C  
BRANCH   7   8
HETATM    8  N   UNL     1     -11.245  14.302  67.212  1.00  0.00    -0.306 NA 
BRANCH   8   9
HETATM    9  C   UNL     1     -11.604  15.493  68.082  1.00  0.00    -0.304 C  
HETATM   10  O   UNL     1     -10.107  16.743  66.676  1.00  0.00    -0.278 OA 
HETATM   11  C   UNL     1     -10.624  16.655  67.923  1.00  0.00    -0.342 C  
HETATM   12  O   UNL     1     -10.350  17.443  68.815  1.00  0.00    -0.337 OA 
ENDBRANCH   8   9
BRANCH   8  13
HETATM   13  C   UNL     1     -12.368  14.132  66.216  1.00  0.00    -0.422 C  
HETATM   14  O   UNL     1     -10.637  13.834  64.584  1.00  0.00    -0.406 OA 
HETATM   15  O   UNL     1     -12.603  14.703  63.867  1.00  0.00    -0.834 OA 
HETATM   16  C   UNL     1     -11.901  14.281  64.771  1.00  0.00    -0.429 C  
ENDBRANCH   8  13
ENDBRANCH   7   8
ENDBRANCH   6   7
ENDBRANCH   5   6
BRANCH   5  17
HETATM   17  C   UNL     1     -10.724  10.247  69.145  1.00  0.00    -0.228 C  
BRANCH  17  18
HETATM   18  C   UNL     1      -9.919   9.308  70.088  1.00  0.00    -0.215 C  
BRANCH  18  19
HETATM   19  N   UNL     1     -10.705   8.160  70.676  1.00  0.00    -0.220 NA 
BRANCH  19  20
HETATM   20  C   UNL     1     -11.278   8.638  71.999  1.00  0.00    -0.364 C  
HETATM   21  O   UNL     1     -13.514   9.254  72.723  1.00  0.00    -0.388 OA 
HETATM   22  O   UNL     1     -13.281   7.500  71.310  1.00  0.00    -0.325 OA 
HETATM   23  C   UNL     1     -12.799   8.525  72.053  1.00  0.00    -0.374 C  
ENDBRANCH  19  20
BRANCH  19  24
HETATM   24  C   UNL     1      -9.734   7.046  70.998  1.00  0.00    -0.173 C  
HETATM   25  C   UNL     1     -10.289   5.662  70.678  1.00  0.00    -0.252 C  
HETATM   26  O   UNL     1      -9.966   4.643  71.267  1.00  0.00    -0.186 OA 
HETATM   27  O   UNL     1     -11.129   5.668  69.616  1.00  0.00    -0.328 OA 
ENDBRANCH  19  24
ENDBRANCH  18  19
ENDBRANCH  17  18
ENDBRANCH   5  17
ENDBRANCH   3   5
TORSDOF 11
ENDMDL
MODEL      119
REMARK 921   NORMALIZED FREE ENERGY PREDICTED BY IDOCK:   -4.80 KCAL/MOL
REMARK 922        TOTAL FREE ENERGY PREDICTED BY IDOCK:   -9.63 KCAL/MOL
REMARK 923 INTER-LIGAND FREE ENERGY PREDICTED BY IDOCK:   -8.39 KCAL/MOL
REMARK 924 INTRA-LIGAND FREE ENERGY PREDICTED BY IDOCK:   -1.24 KCAL/MOL
REMARK 927      BINDING AFFINITY PREDICTED BY RF-SCORE:    0.00 PKD
ROOT
HETATM    1  O   UNL     1     -11.985  13.164  70.331  1.00  0.00    -0.332 OA 
HETATM    2  C   UNL     1     -12.354  11.886  70.577  1.00  0.00    -0.284 C  
HETATM    3  C   UNL     1     -11.851  10.914  69.513  1.00  0.00    -0.332 C  
HETATM    4  O   UNL     1     -13.052  11.558  71.525  1.00  0.00    -0.422 OA 
ENDROOT
BRANCH   3   5
HETATM    5  N   UNL     1     -10.534  11.331  68.917  1.00  0.00    -0.207 NA 
BRANCH   5   6
HETATM    6  C   UNL     1      -9.529  10.238  69.138  1.00  0.00    -0.215 C  
BRANCH   6   7
HETATM    7  C   UNL     1     -10.151   8.822  69.331  1.00  0.00    -0.203 C  
BRANCH   7   8
HETATM    8  N   UNL     1      -9.873   8.143  70.645  1.00  0.00    -0.181 NA 
BRANCH   8   9
HETATM    9  C   UNL     1      -8.441   7.638  70.599  1.00  0.00    -0.127 C  
HETATM   10  O   UNL     1      -8.236   8.556  72.811  1.00  0.00    -0.332 OA 
HETATM   11  C   UNL     1      -7.559   8.269  71.675  1.00  0.00    -0.096 C  
HETATM   12  O   UNL     1      -6.363   8.473  71.544  1.00  0.00    -0.046 OA 
ENDBRANCH   8   9
BRANCH   8  13
HETATM   13  C   UNL     1     -10.764   6.927  70.736  1.00  0.00    -0.233 C  
HETATM   14  O   UNL     1     -11.689   7.971  72.686  1.00  0.00    -0.388 OA 
HETATM   15  O   UNL     1     -11.720   5.707  72.606  1.00  0.00    -0.303 OA 
HETATM   16  C   UNL     1     -11.419   6.778  72.106  1.00  0.00    -0.282 C  
ENDBRANCH   8  13
ENDBRANCH   7   8
ENDBRANCH   6   7
ENDBRANCH   5   6
BRANCH   5  17
HETATM   17  C   UNL     1     -10.712  11.516  67.441  1.00  0.00    -0.232 C  
BRANCH  17  18
HETATM   18  C   UNL     1      -9.856  12.621  66.760  1.00  0.00    -0.235 C  
BRANCH  18  19
HETATM   19  N   UNL     1     -10.644  13.717  66.082  1.00  0.00    -0.287 NA 
BRANCH  19  20
HETATM   20  C   UNL     1     -11.017  13.213  64.699  1.00  0.00    -0.356 C  
HETATM   21  O   UNL     1     -13.010  12.162  63.788  1.00  0.00    -0.753 OA 
HETATM   22  O   UNL     1     -13.263  13.825  65.304  1.00  0.00    -0.755 OA 
HETATM   23  C   UNL     1     -12.519  12.986  64.544  1.00  0.00    -0.363 C  
ENDBRANCH  19  20
BRANCH  19  24
HETATM   24  C   UNL     1      -9.722  14.900  65.881  1.00  0.00    -0.333 C  
HETATM   25  C   UNL     1     -10.311  16.207  66.400  1.00  0.00    -0.315 C  
HETATM   26  O   UNL     1     -10.042  17.306  65.942  1.00  0.00    -0.478 OA 
HETATM   27  O   UNL     1     -11.112  16.030  67.477  1.00  0.00    -0.300 OA 
ENDBRANCH  19  24
ENDBRANCH  18  19
ENDBRANCH  17  18
ENDBRANCH   5  17
ENDBRANCH   3   5
TORSDOF 11
ENDMDL
MODEL      120
REMARK 921   NORMALIZED FREE ENERGY PREDICTED BY IDOCK:   -4.80 KCAL/MOL
REMARK 922        TOTAL FREE ENERGY PREDICTED BY IDOCK:   -9.63 KCAL/MOL
REMARK 923 INTER-LIGAND FREE ENERGY PREDICTED BY IDOCK:   -8.59 KCAL/MOL
REMARK 924 INTRA-LIGAND FREE ENERGY PREDICTED BY IDOCK:   -1.04 KCAL/MOL
REMARK 927      BINDING AFFINITY PREDICTED BY RF-SCORE:    0.00 PKD
ROOT
HETATM    1  O   UNL     1     -12.655  13.428  63.085  1.00  0.00    -0.710 OA 
HETATM    2  C   UNL     1     -11.629  12.701  63.587  1.00  0.00    -0.503 C  
HETATM    3  C   UNL     1     -10.761  13.499  64.556  1.00  0.00    -0.418 C  
HETATM    4  O   UNL     1     -11.402  11.545  63.260  1.00  0.00    -0.317 OA 
ENDROOT
BRANCH   3   5
HETATM    5  N   UNL     1     -11.541  14.533  65.323  1.00  0.00    -0.349 NA 
BRANCH   5   6
HETATM    6  C   UNL     1     -11.805  14.017  66.708  1.00  0.00    -0.424 C  
BRANCH   6   7
HETATM    7  C   UNL     1     -12.034  12.477  66.789  1.00  0.00    -0.257 C  
BRANCH   7   8
HETATM    8  N   UNL     1     -11.316  11.751  67.893  1.00  0.00    -0.268 NA 
BRANCH   8   9
HETATM    9  C   UNL     1     -11.660  12.456  69.194  1.00  0.00    -0.314 C  
HETATM   10  O   UNL     1     -11.159  10.356  70.254  1.00  0.00    -0.288 OA 
HETATM   11  C   UNL     1     -11.907  11.481  70.344  1.00  0.00    -0.320 C  
HETATM   12  O   UNL     1     -12.677  11.695  71.268  1.00  0.00    -0.393 OA 
ENDBRANCH   8   9
BRANCH   8  13
HETATM   13  C   UNL     1      -9.832  11.928  67.677  1.00  0.00    -0.187 C  
HETATM   14  O   UNL     1      -9.926   9.821  66.538  1.00  0.00    -0.209 OA 
HETATM   15  O   UNL     1      -7.975  10.368  67.552  1.00  0.00    -0.106 OA 
HETATM   16  C   UNL     1      -9.135  10.630  67.281  1.00  0.00    -0.143 C  
ENDBRANCH   8  13
ENDBRANCH   7   8
ENDBRANCH   6   7
ENDBRANCH   5   6
BRANCH   5  17
HETATM   17  C   UNL     1     -10.713  15.776  65.433  1.00  0.00    -0.404 C  
BRANCH  17  18
HETATM   18  C   UNL     1      -9.403  15.679  66.265  1.00  0.00    -0.323 C  
BRANCH  18  19
HETATM   19  N   UNL     1      -9.202  16.780  67.279  1.00  0.00    -0.226 NA 
BRANCH  19  20
HETATM   20  C   UNL     1     -10.564  17.103  67.867  1.00  0.00    -0.376 C  
HETATM   21  O   UNL     1     -11.997  15.975  69.474  1.00  0.00    -0.308 OA 
HETATM   22  O   UNL     1      -9.761  15.967  69.828  1.00  0.00    -0.257 OA 
HETATM   23  C   UNL     1     -10.870  16.284  69.119  1.00  0.00    -0.314 C  
ENDBRANCH  19  20
BRANCH  19  24
HETATM   24  C   UNL     1      -8.742  18.017  66.539  1.00  0.00    -0.260 C  
HETATM   25  C   UNL     1      -8.250  19.118  67.472  1.00  0.00    -0.281 C  
HETATM   26  O   UNL     1      -8.307  20.310  67.212  1.00  0.00    -0.329 OA 
HETATM   27  O   UNL     1      -7.669  18.633  68.595  1.00  0.00    -0.306 OA 
ENDBRANCH  19  24
ENDBRANCH  18  19
ENDBRANCH  17  18
ENDBRANCH   5  17
ENDBRANCH   3   5
TORSDOF 11
ENDMDL
MODEL      121
REMARK 921   NORMALIZED FREE ENERGY PREDICTED BY IDOCK:   -4.80 KCAL/MOL
REMARK 922        TOTAL FREE ENERGY PREDICTED BY IDOCK:   -9.62 KCAL/MOL
REMARK 923 INTER-LIGAND FREE ENERGY PREDICTED BY IDOCK:   -8.21 KCAL/MOL
REMARK 924 INTRA-LIGAND FREE ENERGY PREDICTED BY IDOCK:   -1.41 KCAL/MOL
REMARK 927      BINDING AFFINITY PREDICTED BY RF-SCORE:    0.00 PKD
ROOT
HETATM    1  O   UNL     1     -12.066  12.117  64.631  1.00  0.00    -0.366 OA 
HETATM    2  C   UNL     1     -12.514  13.038  65.517  1.00  0.00    -0.438 C  
HETATM    3  C   UNL     1     -11.899  12.867  66.904  1.00  0.00    -0.379 C  
HETATM    4  O   UNL     1     -13.355  13.882  65.241  1.00  0.00    -0.732 OA 
ENDROOT
BRANCH   3   5
HETATM    5  N   UNL     1     -10.495  12.328  66.857  1.00  0.00    -0.216 NA 
BRANCH   5   6
HETATM    6  C   UNL     1      -9.605  13.213  67.682  1.00  0.00    -0.210 C  
BRANCH   6   7
HETATM    7  C   UNL     1     -10.257  14.562  68.110  1.00  0.00    -0.230 C  
BRANCH   7   8
HETATM    8  N   UNL     1      -9.804  15.789  67.367  1.00  0.00    -0.231 NA 
BRANCH   8   9
HETATM    9  C   UNL     1      -9.421  16.830  68.404  1.00  0.00    -0.241 C  
HETATM   10  O   UNL     1      -8.118  17.837  66.652  1.00  0.00    -0.232 OA 
HETATM   11  C   UNL     1      -8.203  17.654  67.991  1.00  0.00    -0.242 C  
HETATM   12  O   UNL     1      -7.398  18.125  68.779  1.00  0.00    -0.274 OA 
ENDBRANCH   8   9
BRANCH   8  13
HETATM   13  C   UNL     1     -10.991  16.339  66.612  1.00  0.00    -0.016 C  
HETATM   14  O   UNL     1     -10.098  15.176  64.715  1.00  0.00    -0.229 OA 
HETATM   15  O   UNL     1     -11.312  17.046  64.311  1.00  0.00    -1.191 OA 
HETATM   16  C   UNL     1     -10.815  16.258  65.099  1.00  0.00    -0.318 C  
ENDBRANCH   8  13
ENDBRANCH   7   8
ENDBRANCH   6   7
ENDBRANCH   5   6
BRANCH   5  17
HETATM   17  C   UNL     1     -10.486  10.958  67.460  1.00  0.00    -0.215 C  
BRANCH  17  18
HETATM   18  C   UNL     1     -11.264  10.769  68.794  1.00  0.00    -0.272 C  
BRANCH  18  19
HETATM   19  N   UNL     1     -10.808   9.608  69.645  1.00  0.00    -0.238 NA 
BRANCH  19  20
HETATM   20  C   UNL     1     -11.442   9.777  71.014  1.00  0.00    -0.383 C  
HETATM   21  O   UNL     1     -13.328   8.717  72.121  1.00  0.00    -0.370 OA 
HETATM   22  O   UNL     1     -11.976   7.439  70.831  1.00  0.00    -0.307 OA 
HETATM   23  C   UNL     1     -12.362   8.615  71.380  1.00  0.00    -0.304 C  
ENDBRANCH  19  20
BRANCH  19  24
HETATM   24  C   UNL     1      -9.312   9.731  69.838  1.00  0.00    -0.231 C  
HETATM   25  C   UNL     1      -8.595   8.385  69.798  1.00  0.00    -0.132 C  
HETATM   26  O   UNL     1      -7.556   8.147  70.393  1.00  0.00    -0.072 OA 
HETATM   27  O   UNL     1      -9.193   7.498  68.969  1.00  0.00    -0.147 OA 
ENDBRANCH  19  24
ENDBRANCH  18  19
ENDBRANCH  17  18
ENDBRANCH   5  17
ENDBRANCH   3   5
TORSDOF 11
ENDMDL
MODEL      122
REMARK 921   NORMALIZED FREE ENERGY PREDICTED BY IDOCK:   -4.79 KCAL/MOL
REMARK 922        TOTAL FREE ENERGY PREDICTED BY IDOCK:   -9.62 KCAL/MOL
REMARK 923 INTER-LIGAND FREE ENERGY PREDICTED BY IDOCK:   -8.16 KCAL/MOL
REMARK 924 INTRA-LIGAND FREE ENERGY PREDICTED BY IDOCK:   -1.46 KCAL/MOL
REMARK 927      BINDING AFFINITY PREDICTED BY RF-SCORE:    0.00 PKD
ROOT
HETATM    1  O   UNL     1     -10.849  11.814  63.461  1.00  0.00    -0.386 OA 
HETATM    2  C   UNL     1     -12.038  12.345  63.833  1.00  0.00    -0.499 C  
HETATM    3  C   UNL     1     -11.901  13.351  64.972  1.00  0.00    -0.352 C  
HETATM    4  O   UNL     1     -13.105  12.015  63.337  1.00  0.00    -0.747 OA 
ENDROOT
BRANCH   3   5
HETATM    5  N   UNL     1     -10.596  14.101  64.936  1.00  0.00    -0.411 NA 
BRANCH   5   6
HETATM    6  C   UNL     1     -10.876  15.573  65.033  1.00  0.00    -0.450 C  
BRANCH   6   7
HETATM    7  C   UNL     1     -10.638  16.181  66.448  1.00  0.00    -0.269 C  
BRANCH   7   8
HETATM    8  N   UNL     1      -9.788  17.421  66.509  1.00  0.00    -0.291 NA 
BRANCH   8   9
HETATM    9  C   UNL     1      -8.480  17.039  67.180  1.00  0.00    -0.202 C  
HETATM   10  O   UNL     1      -7.429  18.404  65.503  1.00  0.00    -0.528 OA 
HETATM   11  C   UNL     1      -7.263  17.325  66.303  1.00  0.00    -0.300 C  
HETATM   12  O   UNL     1      -6.232  16.671  66.332  1.00  0.00    -0.266 OA 
ENDBRANCH   8   9
BRANCH   8  13
HETATM   13  C   UNL     1     -10.476  18.411  67.419  1.00  0.00    -0.415 C  
HETATM   14  O   UNL     1     -10.252  19.963  65.607  1.00  0.00    -0.423 OA 
HETATM   15  O   UNL     1     -10.282  20.814  67.707  1.00  0.00    -0.225 OA 
HETATM   16  C   UNL     1     -10.308  19.854  66.955  1.00  0.00    -0.468 C  
ENDBRANCH   8  13
ENDBRANCH   7   8
ENDBRANCH   6   7
ENDBRANCH   5   6
BRANCH   5  17
HETATM   17  C   UNL     1      -9.778  13.697  66.124  1.00  0.00    -0.255 C  
BRANCH  17  18
HETATM   18  C   UNL     1     -10.387  12.621  67.067  1.00  0.00    -0.232 C  
BRANCH  18  19
HETATM   19  N   UNL     1      -9.742  11.257  66.986  1.00  0.00    -0.185 NA 
BRANCH  19  20
HETATM   20  C   UNL     1      -9.661  10.713  68.401  1.00  0.00    -0.168 C  
HETATM   21  O   UNL     1     -11.165   9.375  69.762  1.00  0.00    -0.211 OA 
HETATM   22  O   UNL     1     -10.983   8.890  67.559  1.00  0.00    -0.134 OA 
HETATM   23  C   UNL     1     -10.685   9.612  68.664  1.00  0.00    -0.201 C  
ENDBRANCH  19  20
BRANCH  19  24
HETATM   24  C   UNL     1      -8.319  11.442  66.507  1.00  0.00    -0.164 C  
HETATM   25  C   UNL     1      -7.778  10.224  65.766  1.00  0.00    -0.143 C  
HETATM   26  O   UNL     1      -6.598   9.914  65.730  1.00  0.00    -0.083 OA 
HETATM   27  O   UNL     1      -8.739   9.557  65.084  1.00  0.00    -0.150 OA 
ENDBRANCH  19  24
ENDBRANCH  18  19
ENDBRANCH  17  18
ENDBRANCH   5  17
ENDBRANCH   3   5
TORSDOF 11
ENDMDL
MODEL      123
REMARK 921   NORMALIZED FREE ENERGY PREDICTED BY IDOCK:   -4.79 KCAL/MOL
REMARK 922        TOTAL FREE ENERGY PREDICTED BY IDOCK:   -9.61 KCAL/MOL
REMARK 923 INTER-LIGAND FREE ENERGY PREDICTED BY IDOCK:   -8.13 KCAL/MOL
REMARK 924 INTRA-LIGAND FREE ENERGY PREDICTED BY IDOCK:   -1.48 KCAL/MOL
REMARK 927      BINDING AFFINITY PREDICTED BY RF-SCORE:    0.00 PKD
ROOT
HETATM    1  O   UNL     1      -7.859  14.484  68.753  1.00  0.00    -0.137 OA 
HETATM    2  C   UNL     1      -7.075  13.702  67.975  1.00  0.00    -0.132 C  
HETATM    3  C   UNL     1      -7.499  12.236  67.999  1.00  0.00    -0.115 C  
HETATM    4  O   UNL     1      -6.107  14.123  67.359  1.00  0.00    -0.343 OA 
ENDROOT
BRANCH   3   5
HETATM    5  N   UNL     1      -8.982  12.059  68.180  1.00  0.00    -0.186 NA 
BRANCH   5   6
HETATM    6  C   UNL     1      -9.626  11.927  66.830  1.00  0.00    -0.200 C  
BRANCH   6   7
HETATM    7  C   UNL     1      -9.961  13.285  66.141  1.00  0.00    -0.293 C  
BRANCH   7   8
HETATM    8  N   UNL     1     -11.301  13.887  66.467  1.00  0.00    -0.321 NA 
BRANCH   8   9
HETATM    9  C   UNL     1     -11.827  14.531  65.196  1.00  0.00    -0.374 C  
HETATM   10  O   UNL     1     -13.090  12.506  64.906  1.00  0.00    -0.833 OA 
HETATM   11  C   UNL     1     -12.483  13.524  64.253  1.00  0.00    -0.252 C  
HETATM   12  O   UNL     1     -12.487  13.630  63.036  1.00  0.00    -0.719 OA 
ENDBRANCH   8   9
BRANCH   8  13
HETATM   13  C   UNL     1     -11.080  15.000  67.463  1.00  0.00    -0.317 C  
HETATM   14  O   UNL     1     -11.971  13.480  69.089  1.00  0.00    -0.322 OA 
HETATM   15  O   UNL     1     -12.267  15.695  69.464  1.00  0.00    -0.337 OA 
HETATM   16  C   UNL     1     -11.851  14.788  68.762  1.00  0.00    -0.296 C  
ENDBRANCH   8  13
ENDBRANCH   7   8
ENDBRANCH   6   7
ENDBRANCH   5   6
BRANCH   5  17
HETATM   17  C   UNL     1      -9.226  10.794  68.944  1.00  0.00    -0.173 C  
BRANCH  17  18
HETATM   18  C   UNL     1     -10.510   9.993  68.589  1.00  0.00    -0.204 C  
BRANCH  18  19
HETATM   19  N   UNL     1     -11.004   9.060  69.670  1.00  0.00    -0.186 NA 
BRANCH  19  20
HETATM   20  C   UNL     1     -11.110   9.870  70.950  1.00  0.00    -0.348 C  
HETATM   21  O   UNL     1     -12.968  10.929  72.103  1.00  0.00    -0.419 OA 
HETATM   22  O   UNL     1     -13.309   8.912  71.133  1.00  0.00    -0.216 OA 
HETATM   23  C   UNL     1     -12.548   9.986  71.450  1.00  0.00    -0.415 C  
ENDBRANCH  19  20
BRANCH  19  24
HETATM   24  C   UNL     1      -9.938   8.012  69.904  1.00  0.00    -0.189 C  
HETATM   25  C   UNL     1     -10.513   6.660  70.314  1.00  0.00    -0.209 C  
HETATM   26  O   UNL     1      -9.924   5.851  71.013  1.00  0.00    -0.180 OA 
HETATM   27  O   UNL     1     -11.723   6.416  69.759  1.00  0.00    -0.414 OA 
ENDBRANCH  19  24
ENDBRANCH  18  19
ENDBRANCH  17  18
ENDBRANCH   5  17
ENDBRANCH   3   5
TORSDOF 11
ENDMDL
MODEL      124
REMARK 921   NORMALIZED FREE ENERGY PREDICTED BY IDOCK:   -4.78 KCAL/MOL
REMARK 922        TOTAL FREE ENERGY PREDICTED BY IDOCK:   -9.60 KCAL/MOL
REMARK 923 INTER-LIGAND FREE ENERGY PREDICTED BY IDOCK:   -7.74 KCAL/MOL
REMARK 924 INTRA-LIGAND FREE ENERGY PREDICTED BY IDOCK:   -1.86 KCAL/MOL
REMARK 927      BINDING AFFINITY PREDICTED BY RF-SCORE:    0.00 PKD
ROOT
HETATM    1  O   UNL     1     -13.405  12.586  64.648  1.00  0.00    -0.804 OA 
HETATM    2  C   UNL     1     -12.152  12.118  64.439  1.00  0.00    -0.357 C  
HETATM    3  C   UNL     1     -11.232  12.349  65.635  1.00  0.00    -0.322 C  
HETATM    4  O   UNL     1     -11.792  11.610  63.388  1.00  0.00    -0.415 OA 
ENDROOT
BRANCH   3   5
HETATM    5  N   UNL     1     -11.961  12.302  66.951  1.00  0.00    -0.593 NA 
BRANCH   5   6
HETATM    6  C   UNL     1     -11.337  11.247  67.818  1.00  0.00    -0.285 C  
BRANCH   6   7
HETATM    7  C   UNL     1     -10.198  11.768  68.746  1.00  0.00    -0.160 C  
BRANCH   7   8
HETATM    8  N   UNL     1      -8.868  11.073  68.628  1.00  0.00    -0.162 NA 
BRANCH   8   9
HETATM    9  C   UNL     1      -8.137  11.696  67.452  1.00  0.00    -0.153 C  
HETATM   10  O   UNL     1      -6.204  11.687  68.881  1.00  0.00    -0.050 OA 
HETATM   11  C   UNL     1      -6.807  12.331  67.855  1.00  0.00    -0.093 C  
HETATM   12  O   UNL     1      -6.318  13.302  67.299  1.00  0.00    -0.284 OA 
ENDBRANCH   8   9
BRANCH   8  13
HETATM   13  C   UNL     1      -9.129   9.630  68.267  1.00  0.00    -0.123 C  
HETATM   14  O   UNL     1      -8.644   9.154  70.566  1.00  0.00    -0.178 OA 
HETATM   15  O   UNL     1      -8.196   7.529  69.051  1.00  0.00    -0.125 OA 
HETATM   16  C   UNL     1      -8.587   8.656  69.308  1.00  0.00    -0.131 C  
ENDBRANCH   8  13
ENDBRANCH   7   8
ENDBRANCH   6   7
ENDBRANCH   5   6
BRANCH   5  17
HETATM   17  C   UNL     1     -11.805  13.625  67.634  1.00  0.00    -0.369 C  
BRANCH  17  18
HETATM   18  C   UNL     1     -11.559  14.863  66.725  1.00  0.00    -0.269 C  
BRANCH  18  19
HETATM   19  N   UNL     1     -10.572  15.871  67.265  1.00  0.00    -0.312 NA 
BRANCH  19  20
HETATM   20  C   UNL     1     -10.163  16.764  66.108  1.00  0.00    -0.351 C  
HETATM   21  O   UNL     1     -10.663  19.070  65.523  1.00  0.00    -0.536 OA 
HETATM   22  O   UNL     1     -10.322  18.558  67.702  1.00  0.00    -0.369 OA 
HETATM   23  C   UNL     1     -10.424  18.242  66.389  1.00  0.00    -0.366 C  
ENDBRANCH  19  20
BRANCH  19  24
HETATM   24  C   UNL     1      -9.331  15.122  67.698  1.00  0.00    -0.189 C  
HETATM   25  C   UNL     1      -8.957  15.381  69.153  1.00  0.00    -0.245 C  
HETATM   26  O   UNL     1      -7.816  15.332  69.585  1.00  0.00    -0.220 OA 
HETATM   27  O   UNL     1     -10.037  15.600  69.940  1.00  0.00    -0.283 OA 
ENDBRANCH  19  24
ENDBRANCH  18  19
ENDBRANCH  17  18
ENDBRANCH   5  17
ENDBRANCH   3   5
TORSDOF 11
ENDMDL
MODEL      125
REMARK 921   NORMALIZED FREE ENERGY PREDICTED BY IDOCK:   -4.78 KCAL/MOL
REMARK 922        TOTAL FREE ENERGY PREDICTED BY IDOCK:   -9.60 KCAL/MOL
REMARK 923 INTER-LIGAND FREE ENERGY PREDICTED BY IDOCK:   -8.87 KCAL/MOL
REMARK 924 INTRA-LIGAND FREE ENERGY PREDICTED BY IDOCK:   -0.73 KCAL/MOL
REMARK 927      BINDING AFFINITY PREDICTED BY RF-SCORE:    0.00 PKD
ROOT
HETATM    1  O   UNL     1     -10.776  19.296  66.195  1.00  0.00    -0.432 OA 
HETATM    2  C   UNL     1     -10.625  19.121  67.528  1.00  0.00    -0.471 C  
HETATM    3  C   UNL     1     -10.664  17.650  67.936  1.00  0.00    -0.337 C  
HETATM    4  O   UNL     1     -10.516  20.046  68.319  1.00  0.00    -0.406 OA 
ENDROOT
BRANCH   3   5
HETATM    5  N   UNL     1     -10.107  16.736  66.878  1.00  0.00    -0.278 NA 
BRANCH   5   6
HETATM    6  C   UNL     1      -8.680  16.410  67.216  1.00  0.00    -0.181 C  
BRANCH   6   7
HETATM    7  C   UNL     1      -7.632  17.022  66.239  1.00  0.00    -0.305 C  
BRANCH   7   8
HETATM    8  N   UNL     1      -6.810  18.165  66.770  1.00  0.00    -0.186 NA 
BRANCH   8   9
HETATM    9  C   UNL     1      -7.094  18.272  68.258  1.00  0.00    -0.248 C  
HETATM   10  O   UNL     1      -5.394  19.972  68.278  1.00  0.00    -0.196 OA 
HETATM   11  C   UNL     1      -5.991  19.008  69.017  1.00  0.00    -0.223 C  
HETATM   12  O   UNL     1      -5.690  18.778  70.177  1.00  0.00    -0.241 OA 
ENDBRANCH   8   9
BRANCH   8  13
HETATM   13  C   UNL     1      -7.318  19.437  66.134  1.00  0.00    -0.275 C  
HETATM   14  O   UNL     1      -5.885  18.879  64.294  1.00  0.00    -0.347 OA 
HETATM   15  O   UNL     1      -6.300  21.076  64.660  1.00  0.00    -0.267 OA 
HETATM   16  C   UNL     1      -6.442  19.907  64.977  1.00  0.00    -0.284 C  
ENDBRANCH   8  13
ENDBRANCH   7   8
ENDBRANCH   6   7
ENDBRANCH   5   6
BRANCH   5  17
HETATM   17  C   UNL     1     -10.894  15.462  66.881  1.00  0.00    -0.313 C  
BRANCH  17  18
HETATM   18  C   UNL     1     -10.286  14.255  66.113  1.00  0.00    -0.307 C  
BRANCH  18  19
HETATM   19  N   UNL     1     -11.097  12.982  66.171  1.00  0.00    -0.283 NA 
BRANCH  19  20
HETATM   20  C   UNL     1     -12.305  13.177  65.272  1.00  0.00    -0.481 C  
HETATM   21  O   UNL     1     -12.563  13.578  62.889  1.00  0.00    -0.607 OA 
HETATM   22  O   UNL     1     -10.954  12.140  63.574  1.00  0.00    -0.411 OA 
HETATM   23  C   UNL     1     -11.966  13.013  63.793  1.00  0.00    -0.518 C  
ENDBRANCH  19  20
BRANCH  19  24
HETATM   24  C   UNL     1     -11.623  12.828  67.581  1.00  0.00    -0.358 C  
HETATM   25  C   UNL     1     -11.711  11.372  68.028  1.00  0.00    -0.254 C  
HETATM   26  O   UNL     1     -12.517  10.955  68.844  1.00  0.00    -0.431 OA 
HETATM   27  O   UNL     1     -10.746  10.597  67.477  1.00  0.00    -0.232 OA 
ENDBRANCH  19  24
ENDBRANCH  18  19
ENDBRANCH  17  18
ENDBRANCH   5  17
ENDBRANCH   3   5
TORSDOF 11
ENDMDL
MODEL      126
REMARK 921   NORMALIZED FREE ENERGY PREDICTED BY IDOCK:   -4.78 KCAL/MOL
REMARK 922        TOTAL FREE ENERGY PREDICTED BY IDOCK:   -9.59 KCAL/MOL
REMARK 923 INTER-LIGAND FREE ENERGY PREDICTED BY IDOCK:   -8.28 KCAL/MOL
REMARK 924 INTRA-LIGAND FREE ENERGY PREDICTED BY IDOCK:   -1.31 KCAL/MOL
REMARK 927      BINDING AFFINITY PREDICTED BY RF-SCORE:    0.00 PKD
ROOT
HETATM    1  O   UNL     1     -10.198  16.763  65.288  1.00  0.00    -0.607 OA 
HETATM    2  C   UNL     1     -11.132  16.027  64.643  1.00  0.00    -0.332 C  
HETATM    3  C   UNL     1     -11.166  14.575  65.116  1.00  0.00    -0.367 C  
HETATM    4  O   UNL     1     -11.838  16.470  63.749  1.00  0.00    -1.011 OA 
ENDROOT
BRANCH   3   5
HETATM    5  N   UNL     1     -10.802  14.426  66.568  1.00  0.00    -0.305 NA 
BRANCH   5   6
HETATM    6  C   UNL     1     -12.012  13.969  67.330  1.00  0.00    -0.404 C  
BRANCH   6   7
HETATM    7  C   UNL     1     -11.715  13.493  68.784  1.00  0.00    -0.337 C  
BRANCH   7   8
HETATM    8  N   UNL     1     -11.897  14.515  69.873  1.00  0.00    -0.298 NA 
BRANCH   8   9
HETATM    9  C   UNL     1     -10.533  15.116  70.160  1.00  0.00    -0.167 C  
HETATM   10  O   UNL     1     -11.247  16.948  68.776  1.00  0.00    -0.228 OA 
HETATM   11  C   UNL     1     -10.170  16.243  69.194  1.00  0.00    -0.266 C  
HETATM   12  O   UNL     1      -9.029  16.505  68.849  1.00  0.00    -0.240 OA 
ENDBRANCH   8   9
BRANCH   8  13
HETATM   13  C   UNL     1     -12.329  13.788  71.125  1.00  0.00    -0.345 C  
HETATM   14  O   UNL     1     -14.030  15.468  71.301  1.00  0.00    -0.543 OA 
HETATM   15  O   UNL     1     -13.291  14.531  73.227  1.00  0.00    -0.611 OA 
HETATM   16  C   UNL     1     -13.238  14.632  72.012  1.00  0.00    -0.351 C  
ENDBRANCH   8  13
ENDBRANCH   7   8
ENDBRANCH   6   7
ENDBRANCH   5   6
BRANCH   5  17
HETATM   17  C   UNL     1      -9.743  13.374  66.692  1.00  0.00    -0.275 C  
BRANCH  17  18
HETATM   18  C   UNL     1      -9.866  12.136  65.760  1.00  0.00    -0.245 C  
BRANCH  18  19
HETATM   19  N   UNL     1      -8.970  10.973  66.116  1.00  0.00    -0.186 NA 
BRANCH  19  20
HETATM   20  C   UNL     1      -9.393   9.799  65.251  1.00  0.00    -0.255 C  
HETATM   21  O   UNL     1      -8.772   9.062  63.020  1.00  0.00    -0.199 OA 
HETATM   22  O   UNL     1      -7.160   9.910  64.364  1.00  0.00    -0.125 OA 
HETATM   23  C   UNL     1      -8.437   9.557  64.085  1.00  0.00    -0.186 C  
ENDBRANCH  19  20
BRANCH  19  24
HETATM   24  C   UNL     1      -9.258  10.584  67.550  1.00  0.00    -0.142 C  
HETATM   25  C   UNL     1      -7.992  10.347  68.366  1.00  0.00    -0.110 C  
HETATM   26  O   UNL     1      -7.924   9.583  69.316  1.00  0.00    -0.084 OA 
HETATM   27  O   UNL     1      -6.961  11.132  67.974  1.00  0.00    -0.066 OA 
ENDBRANCH  19  24
ENDBRANCH  18  19
ENDBRANCH  17  18
ENDBRANCH   5  17
ENDBRANCH   3   5
TORSDOF 11
ENDMDL
MODEL      127
REMARK 921   NORMALIZED FREE ENERGY PREDICTED BY IDOCK:   -4.78 KCAL/MOL
REMARK 922        TOTAL FREE ENERGY PREDICTED BY IDOCK:   -9.59 KCAL/MOL
REMARK 923 INTER-LIGAND FREE ENERGY PREDICTED BY IDOCK:   -8.06 KCAL/MOL
REMARK 924 INTRA-LIGAND FREE ENERGY PREDICTED BY IDOCK:   -1.53 KCAL/MOL
REMARK 927      BINDING AFFINITY PREDICTED BY RF-SCORE:    0.00 PKD
ROOT
HETATM    1  O   UNL     1      -7.141  12.404  66.968  1.00  0.00    -0.116 OA 
HETATM    2  C   UNL     1      -7.665  12.544  68.209  1.00  0.00    -0.141 C  
HETATM    3  C   UNL     1      -7.750  14.003  68.650  1.00  0.00    -0.135 C  
HETATM    4  O   UNL     1      -7.988  11.597  68.912  1.00  0.00    -0.117 OA 
ENDROOT
BRANCH   3   5
HETATM    5  N   UNL     1      -7.990  14.947  67.503  1.00  0.00    -0.163 NA 
BRANCH   5   6
HETATM    6  C   UNL     1      -9.402  15.451  67.573  1.00  0.00    -0.203 C  
BRANCH   6   7
HETATM    7  C   UNL     1     -10.264  15.127  66.315  1.00  0.00    -0.288 C  
BRANCH   7   8
HETATM    8  N   UNL     1     -10.855  13.745  66.248  1.00  0.00    -0.282 NA 
BRANCH   8   9
HETATM    9  C   UNL     1     -12.154  13.847  65.467  1.00  0.00    -0.407 C  
HETATM   10  O   UNL     1     -11.072  12.453  63.834  1.00  0.00    -0.347 OA 
HETATM   11  C   UNL     1     -11.998  13.425  64.007  1.00  0.00    -0.464 C  
HETATM   12  O   UNL     1     -12.654  13.890  63.088  1.00  0.00    -0.775 OA 
ENDBRANCH   8   9
BRANCH   8  13
HETATM   13  C   UNL     1     -11.219  13.327  67.653  1.00  0.00    -0.280 C  
HETATM   14  O   UNL     1     -10.544  11.127  66.983  1.00  0.00    -0.227 OA 
HETATM   15  O   UNL     1     -12.132  11.282  68.592  1.00  0.00    -0.543 OA 
HETATM   16  C   UNL     1     -11.379  11.817  67.795  1.00  0.00    -0.289 C  
ENDBRANCH   8  13
ENDBRANCH   7   8
ENDBRANCH   6   7
ENDBRANCH   5   6
BRANCH   5  17
HETATM   17  C   UNL     1      -7.064  16.116  67.642  1.00  0.00    -0.147 C  
BRANCH  17  18
HETATM   18  C   UNL     1      -7.438  17.189  68.704  1.00  0.00    -0.245 C  
BRANCH  18  19
HETATM   19  N   UNL     1      -7.508  18.606  68.188  1.00  0.00    -0.261 NA 
BRANCH  19  20
HETATM   20  C   UNL     1      -7.460  19.527  69.394  1.00  0.00    -0.162 C  
HETATM   21  O   UNL     1      -5.731  20.948  70.340  1.00  0.00    -0.546 OA 
HETATM   22  O   UNL     1      -5.914  20.825  68.087  1.00  0.00    -0.273 OA 
HETATM   23  C   UNL     1      -6.277  20.491  69.348  1.00  0.00    -0.251 C  
ENDBRANCH  19  20
BRANCH  19  24
HETATM   24  C   UNL     1      -8.863  18.802  67.543  1.00  0.00    -0.274 C  
HETATM   25  C   UNL     1      -8.789  19.564  66.224  1.00  0.00    -0.361 C  
HETATM   26  O   UNL     1      -9.691  20.261  65.787  1.00  0.00    -0.323 OA 
HETATM   27  O   UNL     1      -7.641  19.328  65.546  1.00  0.00    -0.445 OA 
ENDBRANCH  19  24
ENDBRANCH  18  19
ENDBRANCH  17  18
ENDBRANCH   5  17
ENDBRANCH   3   5
TORSDOF 11
ENDMDL
MODEL      128
REMARK 921   NORMALIZED FREE ENERGY PREDICTED BY IDOCK:   -4.78 KCAL/MOL
REMARK 922        TOTAL FREE ENERGY PREDICTED BY IDOCK:   -9.59 KCAL/MOL
REMARK 923 INTER-LIGAND FREE ENERGY PREDICTED BY IDOCK:   -8.44 KCAL/MOL
REMARK 924 INTRA-LIGAND FREE ENERGY PREDICTED BY IDOCK:   -1.16 KCAL/MOL
REMARK 927      BINDING AFFINITY PREDICTED BY RF-SCORE:    0.00 PKD
ROOT
HETATM    1  O   UNL     1     -13.276  11.033  72.074  1.00  0.00    -0.499 OA 
HETATM    2  C   UNL     1     -13.072  12.287  71.608  1.00  0.00    -0.306 C  
HETATM    3  C   UNL     1     -12.058  12.333  70.468  1.00  0.00    -0.282 C  
HETATM    4  O   UNL     1     -13.610  13.276  72.084  1.00  0.00    -0.499 OA 
ENDROOT
BRANCH   3   5
HETATM    5  N   UNL     1     -12.078  11.092  69.618  1.00  0.00    -0.338 NA 
BRANCH   5   6
HETATM    6  C   UNL     1     -11.978  11.487  68.173  1.00  0.00    -0.135 C  
BRANCH   6   7
HETATM    7  C   UNL     1     -10.850  12.518  67.865  1.00  0.00    -0.222 C  
BRANCH   7   8
HETATM    8  N   UNL     1     -11.087  13.439  66.699  1.00  0.00    -0.291 NA 
BRANCH   8   9
HETATM    9  C   UNL     1     -11.697  14.716  67.250  1.00  0.00    -0.385 C  
HETATM   10  O   UNL     1      -9.759  15.817  66.348  1.00  0.00    -0.246 OA 
HETATM   11  C   UNL     1     -10.690  15.863  67.328  1.00  0.00    -0.306 C  
HETATM   12  O   UNL     1     -10.728  16.748  68.169  1.00  0.00    -0.336 OA 
ENDBRANCH   8   9
BRANCH   8  13
HETATM   13  C   UNL     1     -12.129  12.803  65.810  1.00  0.00    -0.448 C  
HETATM   14  O   UNL     1     -10.483  12.956  64.073  1.00  0.00    -0.415 OA 
HETATM   15  O   UNL     1     -12.661  13.032  63.451  1.00  0.00    -0.722 OA 
HETATM   16  C   UNL     1     -11.813  12.962  64.326  1.00  0.00    -0.395 C  
ENDBRANCH   8  13
ENDBRANCH   7   8
ENDBRANCH   6   7
ENDBRANCH   5   6
BRANCH   5  17
HETATM   17  C   UNL     1     -10.885  10.255  69.962  1.00  0.00    -0.307 C  
BRANCH  17  18
HETATM   18  C   UNL     1     -10.731   8.902  69.211  1.00  0.00    -0.162 C  
BRANCH  18  19
HETATM   19  N   UNL     1     -10.473   7.703  70.094  1.00  0.00    -0.222 NA 
BRANCH  19  20
HETATM   20  C   UNL     1     -11.045   6.490  69.382  1.00  0.00    -0.348 C  
HETATM   21  O   UNL     1     -10.379   5.250  67.401  1.00  0.00    -0.200 OA 
HETATM   22  O   UNL     1      -8.763   6.015  68.790  1.00  0.00    -0.111 OA 
HETATM   23  C   UNL     1     -10.053   5.862  68.407  1.00  0.00    -0.167 C  
ENDBRANCH  19  20
BRANCH  19  24
HETATM   24  C   UNL     1     -11.272   7.880  71.366  1.00  0.00    -0.247 C  
HETATM   25  C   UNL     1     -10.428   7.718  72.626  1.00  0.00    -0.302 C  
HETATM   26  O   UNL     1     -10.865   7.322  73.695  1.00  0.00    -0.356 OA 
HETATM   27  O   UNL     1      -9.150   8.131  72.456  1.00  0.00    -0.187 OA 
ENDBRANCH  19  24
ENDBRANCH  18  19
ENDBRANCH  17  18
ENDBRANCH   5  17
ENDBRANCH   3   5
TORSDOF 11
ENDMDL
MODEL      129
REMARK 921   NORMALIZED FREE ENERGY PREDICTED BY IDOCK:   -4.77 KCAL/MOL
REMARK 922        TOTAL FREE ENERGY PREDICTED BY IDOCK:   -9.58 KCAL/MOL
REMARK 923 INTER-LIGAND FREE ENERGY PREDICTED BY IDOCK:   -8.34 KCAL/MOL
REMARK 924 INTRA-LIGAND FREE ENERGY PREDICTED BY IDOCK:   -1.24 KCAL/MOL
REMARK 927      BINDING AFFINITY PREDICTED BY RF-SCORE:    0.00 PKD
ROOT
HETATM    1  O   UNL     1     -13.574   9.689  71.016  1.00  0.00    -0.309 OA 
HETATM    2  C   UNL     1     -12.894  10.837  71.247  1.00  0.00    -0.438 C  
HETATM    3  C   UNL     1     -11.540  10.870  70.543  1.00  0.00    -0.300 C  
HETATM    4  O   UNL     1     -13.305  11.725  71.979  1.00  0.00    -0.487 OA 
ENDROOT
BRANCH   3   5
HETATM    5  N   UNL     1     -11.541  10.116  69.240  1.00  0.00    -0.118 NA 
BRANCH   5   6
HETATM    6  C   UNL     1     -11.087  11.036  68.144  1.00  0.00    -0.270 C  
BRANCH   6   7
HETATM    7  C   UNL     1     -11.781  12.432  68.146  1.00  0.00    -0.353 C  
BRANCH   7   8
HETATM    8  N   UNL     1     -11.608  13.267  66.907  1.00  0.00    -0.345 NA 
BRANCH   8   9
HETATM    9  C   UNL     1     -11.709  12.332  65.714  1.00  0.00    -0.385 C  
HETATM   10  O   UNL     1     -12.833  14.149  64.612  1.00  0.00    -0.663 OA 
HETATM   11  C   UNL     1     -12.733  12.801  64.683  1.00  0.00    -0.362 C  
HETATM   12  O   UNL     1     -13.381  12.048  63.973  1.00  0.00    -0.703 OA 
ENDBRANCH   8   9
BRANCH   8  13
HETATM   13  C   UNL     1     -10.202  13.820  66.913  1.00  0.00    -0.261 C  
HETATM   14  O   UNL     1     -11.220  15.918  67.467  1.00  0.00    -0.279 OA 
HETATM   15  O   UNL     1      -9.266  15.981  66.320  1.00  0.00    -0.275 OA 
HETATM   16  C   UNL     1     -10.168  15.343  66.838  1.00  0.00    -0.273 C  
ENDBRANCH   8  13
ENDBRANCH   7   8
ENDBRANCH   6   7
ENDBRANCH   5   6
BRANCH   5  17
HETATM   17  C   UNL     1     -10.565   8.984  69.339  1.00  0.00    -0.221 C  
BRANCH  17  18
HETATM   18  C   UNL     1     -10.368   8.344  70.743  1.00  0.00    -0.195 C  
BRANCH  18  19
HETATM   19  N   UNL     1     -10.534   6.844  70.793  1.00  0.00    -0.214 NA 
BRANCH  19  20
HETATM   20  C   UNL     1     -11.191   6.420  69.492  1.00  0.00    -0.412 C  
HETATM   21  O   UNL     1     -10.377   5.276  67.508  1.00  0.00    -0.192 OA 
HETATM   22  O   UNL     1      -9.625   4.595  69.532  1.00  0.00    -0.153 OA 
HETATM   23  C   UNL     1     -10.360   5.395  68.724  1.00  0.00    -0.170 C  
ENDBRANCH  19  20
BRANCH  19  24
HETATM   24  C   UNL     1     -11.513   6.520  71.901  1.00  0.00    -0.301 C  
HETATM   25  C   UNL     1     -11.057   5.358  72.777  1.00  0.00    -0.294 C  
HETATM   26  O   UNL     1     -11.818   4.607  73.365  1.00  0.00    -0.225 OA 
HETATM   27  O   UNL     1      -9.710   5.289  72.896  1.00  0.00    -0.143 OA 
ENDBRANCH  19  24
ENDBRANCH  18  19
ENDBRANCH  17  18
ENDBRANCH   5  17
ENDBRANCH   3   5
TORSDOF 11
ENDMDL
MODEL      130
REMARK 921   NORMALIZED FREE ENERGY PREDICTED BY IDOCK:   -4.77 KCAL/MOL
REMARK 922        TOTAL FREE ENERGY PREDICTED BY IDOCK:   -9.57 KCAL/MOL
REMARK 923 INTER-LIGAND FREE ENERGY PREDICTED BY IDOCK:   -8.54 KCAL/MOL
REMARK 924 INTRA-LIGAND FREE ENERGY PREDICTED BY IDOCK:   -1.03 KCAL/MOL
REMARK 927      BINDING AFFINITY PREDICTED BY RF-SCORE:    0.00 PKD
ROOT
HETATM    1  O   UNL     1      -8.872  10.920  66.789  1.00  0.00    -0.140 OA 
HETATM    2  C   UNL     1     -10.100  10.896  66.220  1.00  0.00    -0.233 C  
HETATM    3  C   UNL     1     -11.213  11.234  67.209  1.00  0.00    -0.296 C  
HETATM    4  O   UNL     1     -10.293  10.589  65.053  1.00  0.00    -0.316 OA 
ENDROOT
BRANCH   3   5
HETATM    5  N   UNL     1     -10.775  12.207  68.270  1.00  0.00    -0.214 NA 
BRANCH   5   6
HETATM    6  C   UNL     1     -11.233  13.585  67.890  1.00  0.00    -0.274 C  
BRANCH   6   7
HETATM    7  C   UNL     1     -10.078  14.606  67.660  1.00  0.00    -0.228 C  
BRANCH   7   8
HETATM    8  N   UNL     1     -10.243  15.553  66.502  1.00  0.00    -0.273 NA 
BRANCH   8   9
HETATM    9  C   UNL     1     -10.717  14.734  65.314  1.00  0.00    -0.390 C  
HETATM   10  O   UNL     1     -11.444  16.831  64.389  1.00  0.00    -1.024 OA 
HETATM   11  C   UNL     1     -11.692  15.501  64.422  1.00  0.00    -0.242 C  
HETATM   12  O   UNL     1     -12.589  14.975  63.782  1.00  0.00    -0.776 OA 
ENDBRANCH   8   9
BRANCH   8  13
HETATM   13  C   UNL     1      -8.877  16.092  66.147  1.00  0.00    -0.332 C  
HETATM   14  O   UNL     1      -9.394  17.890  67.645  1.00  0.00    -0.254 OA 
HETATM   15  O   UNL     1      -7.988  18.341  65.926  1.00  0.00    -0.499 OA 
HETATM   16  C   UNL     1      -8.707  17.559  66.527  1.00  0.00    -0.262 C  
ENDBRANCH   8  13
ENDBRANCH   7   8
ENDBRANCH   6   7
ENDBRANCH   5   6
BRANCH   5  17
HETATM   17  C   UNL     1     -11.431  11.833  69.564  1.00  0.00    -0.295 C  
BRANCH  17  18
HETATM   18  C   UNL     1     -12.183  10.472  69.606  1.00  0.00    -0.137 C  
BRANCH  18  19
HETATM   19  N   UNL     1     -11.438   9.347  70.286  1.00  0.00    -0.221 NA 
BRANCH  19  20
HETATM   20  C   UNL     1     -12.289   8.887  71.455  1.00  0.00    -0.324 C  
HETATM   21  O   UNL     1     -13.931   7.116  71.728  1.00  0.00    -0.370 OA 
HETATM   22  O   UNL     1     -12.093   6.700  70.474  1.00  0.00    -0.390 OA 
HETATM   23  C   UNL     1     -12.879   7.495  71.238  1.00  0.00    -0.290 C  
ENDBRANCH  19  20
BRANCH  19  24
HETATM   24  C   UNL     1     -10.164   9.918  70.871  1.00  0.00     0.031 C  
HETATM   25  C   UNL     1      -9.143   8.844  71.231  1.00  0.00    -0.253 C  
HETATM   26  O   UNL     1      -8.316   8.959  72.121  1.00  0.00    -0.381 OA 
HETATM   27  O   UNL     1      -9.198   7.771  70.406  1.00  0.00    -0.155 OA 
ENDBRANCH  19  24
ENDBRANCH  18  19
ENDBRANCH  17  18
ENDBRANCH   5  17
ENDBRANCH   3   5
TORSDOF 11
ENDMDL
MODEL      131
REMARK 921   NORMALIZED FREE ENERGY PREDICTED BY IDOCK:   -4.76 KCAL/MOL
REMARK 922        TOTAL FREE ENERGY PREDICTED BY IDOCK:   -9.56 KCAL/MOL
REMARK 923 INTER-LIGAND FREE ENERGY PREDICTED BY IDOCK:   -8.03 KCAL/MOL
REMARK 924 INTRA-LIGAND FREE ENERGY PREDICTED BY IDOCK:   -1.54 KCAL/MOL
REMARK 927      BINDING AFFINITY PREDICTED BY RF-SCORE:    0.00 PKD
ROOT
HETATM    1  O   UNL     1     -12.529  13.785  63.636  1.00  0.00    -0.718 OA 
HETATM    2  C   UNL     1     -11.447  13.036  63.949  1.00  0.00    -0.435 C  
HETATM    3  C   UNL     1     -10.638  13.625  65.102  1.00  0.00    -0.361 C  
HETATM    4  O   UNL     1     -11.131  12.024  63.340  1.00  0.00    -0.410 OA 
ENDROOT
BRANCH   3   5
HETATM    5  N   UNL     1     -11.492  14.362  66.098  1.00  0.00    -0.351 NA 
BRANCH   5   6
HETATM    6  C   UNL     1     -11.862  13.427  67.212  1.00  0.00    -0.376 C  
BRANCH   6   7
HETATM    7  C   UNL     1     -10.683  13.065  68.166  1.00  0.00    -0.242 C  
BRANCH   7   8
HETATM    8  N   UNL     1     -10.709  11.686  68.768  1.00  0.00    -0.212 NA 
BRANCH   8   9
HETATM    9  C   UNL     1     -11.134  10.724  67.672  1.00  0.00    -0.319 C  
HETATM   10  O   UNL     1      -8.884   9.884  67.786  1.00  0.00    -0.128 OA 
HETATM   11  C   UNL     1      -9.945  10.072  66.968  1.00  0.00    -0.205 C  
HETATM   12  O   UNL     1      -9.951   9.728  65.796  1.00  0.00    -0.284 OA 
ENDBRANCH   8   9
BRANCH   8  13
HETATM   13  C   UNL     1     -11.793  11.660  69.819  1.00  0.00    -0.357 C  
HETATM   14  O   UNL     1     -10.526   9.890  70.825  1.00  0.00    -0.290 OA 
HETATM   15  O   UNL     1     -12.768   9.879  71.152  1.00  0.00    -0.327 OA 
HETATM   16  C   UNL     1     -11.776  10.380  70.650  1.00  0.00    -0.351 C  
ENDBRANCH   8  13
ENDBRANCH   7   8
ENDBRANCH   6   7
ENDBRANCH   5   6
BRANCH   5  17
HETATM   17  C   UNL     1     -10.692  15.490  66.674  1.00  0.00    -0.306 C  
BRANCH  17  18
HETATM   18  C   UNL     1      -9.375  15.868  65.940  1.00  0.00    -0.318 C  
BRANCH  18  19
HETATM   19  N   UNL     1      -8.285  16.429  66.823  1.00  0.00    -0.222 NA 
BRANCH  19  20
HETATM   20  C   UNL     1      -7.889  15.335  67.799  1.00  0.00    -0.147 C  
HETATM   21  O   UNL     1      -6.061  13.735  67.859  1.00  0.00    -0.129 OA 
HETATM   22  O   UNL     1      -5.634  15.836  67.131  1.00  0.00    -0.337 OA 
HETATM   23  C   UNL     1      -6.452  14.862  67.596  1.00  0.00    -0.145 C  
ENDBRANCH  19  20
BRANCH  19  24
HETATM   24  C   UNL     1      -8.882  17.551  67.644  1.00  0.00    -0.228 C  
HETATM   25  C   UNL     1      -8.071  18.840  67.567  1.00  0.00    -0.256 C  
HETATM   26  O   UNL     1      -8.026  19.673  68.459  1.00  0.00    -0.338 OA 
HETATM   27  O   UNL     1      -7.460  19.003  66.370  1.00  0.00    -0.236 OA 
ENDBRANCH  19  24
ENDBRANCH  18  19
ENDBRANCH  17  18
ENDBRANCH   5  17
ENDBRANCH   3   5
TORSDOF 11
ENDMDL
MODEL      132
REMARK 921   NORMALIZED FREE ENERGY PREDICTED BY IDOCK:   -4.75 KCAL/MOL
REMARK 922        TOTAL FREE ENERGY PREDICTED BY IDOCK:   -9.55 KCAL/MOL
REMARK 923 INTER-LIGAND FREE ENERGY PREDICTED BY IDOCK:   -8.09 KCAL/MOL
REMARK 924 INTRA-LIGAND FREE ENERGY PREDICTED BY IDOCK:   -1.46 KCAL/MOL
REMARK 927      BINDING AFFINITY PREDICTED BY RF-SCORE:    0.00 PKD
ROOT
HETATM    1  O   UNL     1     -13.281  11.439  72.169  1.00  0.00    -0.490 OA 
HETATM    2  C   UNL     1     -13.238  10.117  71.883  1.00  0.00    -0.452 C  
HETATM    3  C   UNL     1     -12.519   9.823  70.569  1.00  0.00    -0.058 C  
HETATM    4  O   UNL     1     -13.759   9.261  72.583  1.00  0.00    -0.450 OA 
ENDROOT
BRANCH   3   5
HETATM    5  N   UNL     1     -11.418  10.805  70.273  1.00  0.00    -0.313 NA 
BRANCH   5   6
HETATM    6  C   UNL     1     -10.234  10.061  69.725  1.00  0.00    -0.250 C  
BRANCH   6   7
HETATM    7  C   UNL     1     -10.119   8.585  70.213  1.00  0.00    -0.186 C  
BRANCH   7   8
HETATM    8  N   UNL     1      -9.801   7.556  69.163  1.00  0.00    -0.167 NA 
BRANCH   8   9
HETATM    9  C   UNL     1     -10.490   7.991  67.881  1.00  0.00    -0.197 C  
HETATM   10  O   UNL     1      -8.528   7.168  66.760  1.00  0.00    -0.115 OA 
HETATM   11  C   UNL     1      -9.529   8.077  66.696  1.00  0.00    -0.212 C  
HETATM   12  O   UNL     1      -9.656   8.862  65.770  1.00  0.00    -0.243 OA 
ENDBRANCH   8   9
BRANCH   8  13
HETATM   13  C   UNL     1     -10.438   6.253  69.582  1.00  0.00    -0.238 C  
HETATM   14  O   UNL     1      -8.196   5.429  69.788  1.00  0.00    -0.096 OA 
HETATM   15  O   UNL     1      -9.813   3.926  69.276  1.00  0.00    -0.145 OA 
HETATM   16  C   UNL     1      -9.472   5.075  69.507  1.00  0.00    -0.143 C  
ENDBRANCH   8  13
ENDBRANCH   7   8
ENDBRANCH   6   7
ENDBRANCH   5   6
BRANCH   5  17
HETATM   17  C   UNL     1     -11.898  11.763  69.227  1.00  0.00    -0.326 C  
BRANCH  17  18
HETATM   18  C   UNL     1     -11.407  11.523  67.771  1.00  0.00    -0.296 C  
BRANCH  18  19
HETATM   19  N   UNL     1     -11.550  12.704  66.841  1.00  0.00    -0.353 NA 
BRANCH  19  20
HETATM   20  C   UNL     1     -11.454  12.174  65.422  1.00  0.00    -0.336 C  
HETATM   21  O   UNL     1     -13.051  11.985  63.600  1.00  0.00    -0.756 OA 
HETATM   22  O   UNL     1     -13.116  13.834  64.906  1.00  0.00    -0.716 OA 
HETATM   23  C   UNL     1     -12.622  12.625  64.549  1.00  0.00    -0.412 C  
ENDBRANCH  19  20
BRANCH  19  24
HETATM   24  C   UNL     1     -10.356  13.610  67.051  1.00  0.00    -0.260 C  
HETATM   25  C   UNL     1     -10.749  15.042  67.396  1.00  0.00    -0.289 C  
HETATM   26  O   UNL     1     -10.070  16.020  67.127  1.00  0.00    -0.258 OA 
HETATM   27  O   UNL     1     -11.901  15.112  68.103  1.00  0.00    -0.333 OA 
ENDBRANCH  19  24
ENDBRANCH  18  19
ENDBRANCH  17  18
ENDBRANCH   5  17
ENDBRANCH   3   5
TORSDOF 11
ENDMDL
MODEL      133
REMARK 921   NORMALIZED FREE ENERGY PREDICTED BY IDOCK:   -4.75 KCAL/MOL
REMARK 922        TOTAL FREE ENERGY PREDICTED BY IDOCK:   -9.55 KCAL/MOL
REMARK 923 INTER-LIGAND FREE ENERGY PREDICTED BY IDOCK:   -8.31 KCAL/MOL
REMARK 924 INTRA-LIGAND FREE ENERGY PREDICTED BY IDOCK:   -1.24 KCAL/MOL
REMARK 927      BINDING AFFINITY PREDICTED BY RF-SCORE:    0.00 PKD
ROOT
HETATM    1  O   UNL     1      -7.582  11.311  66.576  1.00  0.00    -0.145 OA 
HETATM    2  C   UNL     1      -8.436  10.559  65.843  1.00  0.00    -0.162 C  
HETATM    3  C   UNL     1      -9.431   9.788  66.708  1.00  0.00    -0.163 C  
HETATM    4  O   UNL     1      -8.381  10.475  64.625  1.00  0.00    -0.168 OA 
ENDROOT
BRANCH   3   5
HETATM    5  N   UNL     1      -9.794  10.519  67.972  1.00  0.00    -0.146 NA 
BRANCH   5   6
HETATM    6  C   UNL     1     -11.245  10.901  67.916  1.00  0.00    -0.321 C  
BRANCH   6   7
HETATM    7  C   UNL     1     -11.551  12.341  68.428  1.00  0.00    -0.326 C  
BRANCH   7   8
HETATM    8  N   UNL     1     -11.727  13.401  67.376  1.00  0.00    -0.352 NA 
BRANCH   8   9
HETATM    9  C   UNL     1     -11.606  12.720  66.024  1.00  0.00    -0.383 C  
HETATM   10  O   UNL     1     -13.282  14.280  65.290  1.00  0.00    -0.704 OA 
HETATM   11  C   UNL     1     -12.778  13.039  65.097  1.00  0.00    -0.397 C  
HETATM   12  O   UNL     1     -13.207  12.271  64.250  1.00  0.00    -0.785 OA 
ENDBRANCH   8   9
BRANCH   8  13
HETATM   13  C   UNL     1     -10.568  14.363  67.488  1.00  0.00    -0.265 C  
HETATM   14  O   UNL     1     -12.052  15.720  68.794  1.00  0.00    -0.314 OA 
HETATM   15  O   UNL     1     -10.428  16.784  67.625  1.00  0.00    -0.311 OA 
HETATM   16  C   UNL     1     -10.999  15.754  67.943  1.00  0.00    -0.324 C  
ENDBRANCH   8  13
ENDBRANCH   7   8
ENDBRANCH   6   7
ENDBRANCH   5   6
BRANCH   5  17
HETATM   17  C   UNL     1      -9.594   9.595  69.134  1.00  0.00    -0.174 C  
BRANCH  17  18
HETATM   18  C   UNL     1     -10.833   8.785  69.612  1.00  0.00    -0.169 C  
BRANCH  18  19
HETATM   19  N   UNL     1     -10.772   8.304  71.043  1.00  0.00    -0.214 NA 
BRANCH  19  20
HETATM   20  C   UNL     1     -11.948   8.923  71.776  1.00  0.00    -0.359 C  
HETATM   21  O   UNL     1     -14.334   8.460  71.796  1.00  0.00    -0.435 OA 
HETATM   22  O   UNL     1     -12.895   6.714  71.707  1.00  0.00    -0.335 OA 
HETATM   23  C   UNL     1     -13.189   8.035  71.748  1.00  0.00    -0.341 C  
ENDBRANCH  19  20
BRANCH  19  24
HETATM   24  C   UNL     1      -9.518   8.869  71.673  1.00  0.00    -0.281 C  
HETATM   25  C   UNL     1      -9.029   8.049  72.862  1.00  0.00    -0.239 C  
HETATM   26  O   UNL     1      -8.403   8.514  73.801  1.00  0.00    -0.362 OA 
HETATM   27  O   UNL     1      -9.297   6.728  72.733  1.00  0.00    -0.136 OA 
ENDBRANCH  19  24
ENDBRANCH  18  19
ENDBRANCH  17  18
ENDBRANCH   5  17
ENDBRANCH   3   5
TORSDOF 11
ENDMDL
MODEL      134
REMARK 921   NORMALIZED FREE ENERGY PREDICTED BY IDOCK:   -4.75 KCAL/MOL
REMARK 922        TOTAL FREE ENERGY PREDICTED BY IDOCK:   -9.54 KCAL/MOL
REMARK 923 INTER-LIGAND FREE ENERGY PREDICTED BY IDOCK:   -8.14 KCAL/MOL
REMARK 924 INTRA-LIGAND FREE ENERGY PREDICTED BY IDOCK:   -1.40 KCAL/MOL
REMARK 927      BINDING AFFINITY PREDICTED BY RF-SCORE:    0.00 PKD
ROOT
HETATM    1  O   UNL     1     -13.059  11.855  71.960  1.00  0.00    -0.457 OA 
HETATM    2  C   UNL     1     -13.091  10.571  71.534  1.00  0.00    -0.430 C  
HETATM    3  C   UNL     1     -12.519  10.402  70.129  1.00  0.00    -0.176 C  
HETATM    4  O   UNL     1     -13.570   9.657  72.191  1.00  0.00    -0.426 OA 
ENDROOT
BRANCH   3   5
HETATM    5  N   UNL     1     -11.420  11.383  69.825  1.00  0.00    -0.298 NA 
BRANCH   5   6
HETATM    6  C   UNL     1     -10.193  10.627  69.404  1.00  0.00    -0.192 C  
BRANCH   6   7
HETATM    7  C   UNL     1      -9.645   9.640  70.479  1.00  0.00    -0.199 C  
BRANCH   7   8
HETATM    8  N   UNL     1      -9.616   8.185  70.098  1.00  0.00    -0.167 NA 
BRANCH   8   9
HETATM    9  C   UNL     1     -10.427   7.430  71.137  1.00  0.00    -0.209 C  
HETATM   10  O   UNL     1     -11.526   6.397  69.264  1.00  0.00    -0.381 OA 
HETATM   11  C   UNL     1     -11.684   6.789  70.550  1.00  0.00    -0.375 C  
HETATM   12  O   UNL     1     -12.720   6.621  71.174  1.00  0.00    -0.273 OA 
ENDBRANCH   8   9
BRANCH   8  13
HETATM   13  C   UNL     1      -8.190   7.702  70.221  1.00  0.00    -0.123 C  
HETATM   14  O   UNL     1      -8.387   7.089  67.912  1.00  0.00    -0.117 OA 
HETATM   15  O   UNL     1      -6.961   5.878  69.191  1.00  0.00    -0.060 OA 
HETATM   16  C   UNL     1      -7.783   6.773  69.082  1.00  0.00    -0.106 C  
ENDBRANCH   8  13
ENDBRANCH   7   8
ENDBRANCH   6   7
ENDBRANCH   5   6
BRANCH   5  17
HETATM   17  C   UNL     1     -11.852  12.251  68.683  1.00  0.00    -0.305 C  
BRANCH  17  18
HETATM   18  C   UNL     1     -10.779  12.594  67.611  1.00  0.00    -0.218 C  
BRANCH  18  19
HETATM   19  N   UNL     1     -11.098  13.787  66.742  1.00  0.00    -0.304 NA 
BRANCH  19  20
HETATM   20  C   UNL     1     -11.587  14.894  67.659  1.00  0.00    -0.339 C  
HETATM   21  O   UNL     1     -10.540  16.886  68.576  1.00  0.00    -0.327 OA 
HETATM   22  O   UNL     1     -10.062  16.300  66.443  1.00  0.00    -0.274 OA 
HETATM   23  C   UNL     1     -10.677  16.120  67.635  1.00  0.00    -0.318 C  
ENDBRANCH  19  20
BRANCH  19  24
HETATM   24  C   UNL     1     -12.260  13.416  65.848  1.00  0.00    -0.450 C  
HETATM   25  C   UNL     1     -11.919  13.501  64.364  1.00  0.00    -0.422 C  
HETATM   26  O   UNL     1     -12.733  13.745  63.488  1.00  0.00    -0.774 OA 
HETATM   27  O   UNL     1     -10.624  13.202  64.106  1.00  0.00    -0.414 OA 
ENDBRANCH  19  24
ENDBRANCH  18  19
ENDBRANCH  17  18
ENDBRANCH   5  17
ENDBRANCH   3   5
TORSDOF 11
ENDMDL
MODEL      135
REMARK 921   NORMALIZED FREE ENERGY PREDICTED BY IDOCK:   -4.74 KCAL/MOL
REMARK 922        TOTAL FREE ENERGY PREDICTED BY IDOCK:   -9.54 KCAL/MOL
REMARK 923 INTER-LIGAND FREE ENERGY PREDICTED BY IDOCK:   -8.11 KCAL/MOL
REMARK 924 INTRA-LIGAND FREE ENERGY PREDICTED BY IDOCK:   -1.42 KCAL/MOL
REMARK 927      BINDING AFFINITY PREDICTED BY RF-SCORE:    0.00 PKD
ROOT
HETATM    1  O   UNL     1     -13.170   9.830  70.731  1.00  0.00    -0.260 OA 
HETATM    2  C   UNL     1     -12.783  11.060  71.142  1.00  0.00    -0.419 C  
HETATM    3  C   UNL     1     -11.736  11.685  70.223  1.00  0.00    -0.266 C  
HETATM    4  O   UNL     1     -13.196  11.587  72.165  1.00  0.00    -0.505 OA 
ENDROOT
BRANCH   3   5
HETATM    5  N   UNL     1     -11.898  11.269  68.786  1.00  0.00    -0.430 NA 
BRANCH   5   6
HETATM    6  C   UNL     1     -12.011  12.498  67.932  1.00  0.00    -0.223 C  
BRANCH   6   7
HETATM    7  C   UNL     1     -10.784  12.753  67.005  1.00  0.00    -0.253 C  
BRANCH   7   8
HETATM    8  N   UNL     1     -11.086  13.240  65.614  1.00  0.00    -0.281 NA 
BRANCH   8   9
HETATM    9  C   UNL     1     -10.082  12.588  64.680  1.00  0.00    -0.233 C  
HETATM   10  O   UNL     1     -11.976  12.083  63.287  1.00  0.00    -0.447 OA 
HETATM   11  C   UNL     1     -10.742  11.666  63.656  1.00  0.00    -0.435 C  
HETATM   12  O   UNL     1     -10.211  10.669  63.192  1.00  0.00    -0.250 OA 
ENDBRANCH   8   9
BRANCH   8  13
HETATM   13  C   UNL     1     -10.821  14.726  65.575  1.00  0.00    -0.351 C  
HETATM   14  O   UNL     1     -12.989  14.906  64.569  1.00  0.00    -0.356 OA 
HETATM   15  O   UNL     1     -11.457  16.485  64.026  1.00  0.00    -1.137 OA 
HETATM   16  C   UNL     1     -11.758  15.467  64.626  1.00  0.00    -0.267 C  
ENDBRANCH   8  13
ENDBRANCH   7   8
ENDBRANCH   6   7
ENDBRANCH   5   6
BRANCH   5  17
HETATM   17  C   UNL     1     -10.675  10.513  68.365  1.00  0.00    -0.224 C  
BRANCH  17  18
HETATM   18  C   UNL     1     -10.900   9.182  67.593  1.00  0.00    -0.089 C  
BRANCH  18  19
HETATM   19  N   UNL     1     -10.261   7.963  68.215  1.00  0.00    -0.199 NA 
BRANCH  19  20
HETATM   20  C   UNL     1     -11.082   6.759  67.790  1.00  0.00    -0.201 C  
HETATM   21  O   UNL     1     -10.811   5.087  66.047  1.00  0.00    -0.283 OA 
HETATM   22  O   UNL     1      -8.970   5.798  67.156  1.00  0.00    -0.114 OA 
HETATM   23  C   UNL     1     -10.298   5.804  66.892  1.00  0.00    -0.251 C  
ENDBRANCH  19  20
BRANCH  19  24
HETATM   24  C   UNL     1     -10.400   8.078  69.717  1.00  0.00    -0.219 C  
HETATM   25  C   UNL     1      -9.212   7.489  70.471  1.00  0.00    -0.157 C  
HETATM   26  O   UNL     1      -9.283   7.012  71.592  1.00  0.00    -0.143 OA 
HETATM   27  O   UNL     1      -8.047   7.619  69.794  1.00  0.00    -0.120 OA 
ENDBRANCH  19  24
ENDBRANCH  18  19
ENDBRANCH  17  18
ENDBRANCH   5  17
ENDBRANCH   3   5
TORSDOF 11
ENDMDL
MODEL      136
REMARK 921   NORMALIZED FREE ENERGY PREDICTED BY IDOCK:   -4.74 KCAL/MOL
REMARK 922        TOTAL FREE ENERGY PREDICTED BY IDOCK:   -9.53 KCAL/MOL
REMARK 923 INTER-LIGAND FREE ENERGY PREDICTED BY IDOCK:   -7.96 KCAL/MOL
REMARK 924 INTRA-LIGAND FREE ENERGY PREDICTED BY IDOCK:   -1.57 KCAL/MOL
REMARK 927      BINDING AFFINITY PREDICTED BY RF-SCORE:    0.00 PKD
ROOT
HETATM    1  O   UNL     1     -10.359  10.176  65.064  1.00  0.00    -0.246 OA 
HETATM    2  C   UNL     1      -9.285  10.850  65.537  1.00  0.00    -0.209 C  
HETATM    3  C   UNL     1      -9.670  11.963  66.508  1.00  0.00    -0.210 C  
HETATM    4  O   UNL     1      -8.138  10.618  65.184  1.00  0.00    -0.146 OA 
ENDROOT
BRANCH   3   5
HETATM    5  N   UNL     1     -10.904  11.639  67.307  1.00  0.00    -0.241 NA 
BRANCH   5   6
HETATM    6  C   UNL     1     -10.492  11.127  68.657  1.00  0.00    -0.197 C  
BRANCH   6   7
HETATM    7  C   UNL     1     -10.511   9.574  68.789  1.00  0.00    -0.219 C  
BRANCH   7   8
HETATM    8  N   UNL     1     -11.163   9.016  70.024  1.00  0.00    -0.183 NA 
BRANCH   8   9
HETATM    9  C   UNL     1     -11.338  10.165  71.001  1.00  0.00    -0.307 C  
HETATM   10  O   UNL     1     -13.494   9.208  71.465  1.00  0.00    -0.360 OA 
HETATM   11  C   UNL     1     -12.792  10.365  71.423  1.00  0.00    -0.452 C  
HETATM   12  O   UNL     1     -13.276  11.446  71.718  1.00  0.00    -0.458 OA 
ENDBRANCH   8   9
BRANCH   8  13
HETATM   13  C   UNL     1     -10.198   8.043  70.659  1.00  0.00    -0.196 C  
HETATM   14  O   UNL     1     -11.715   6.336  69.929  1.00  0.00    -0.408 OA 
HETATM   15  O   UNL     1     -10.491   5.913  71.788  1.00  0.00    -0.212 OA 
HETATM   16  C   UNL     1     -10.813   6.665  70.883  1.00  0.00    -0.252 C  
ENDBRANCH   8  13
ENDBRANCH   7   8
ENDBRANCH   6   7
ENDBRANCH   5   6
BRANCH   5  17
HETATM   17  C   UNL     1     -11.694  12.897  67.501  1.00  0.00    -0.367 C  
BRANCH  17  18
HETATM   18  C   UNL     1     -12.036  13.296  68.964  1.00  0.00    -0.293 C  
BRANCH  18  19
HETATM   19  N   UNL     1     -11.618  14.692  69.363  1.00  0.00    -0.287 NA 
BRANCH  19  20
HETATM   20  C   UNL     1     -10.233  14.929  68.787  1.00  0.00    -0.243 C  
HETATM   21  O   UNL     1      -9.407  16.249  66.921  1.00  0.00    -0.211 OA 
HETATM   22  O   UNL     1     -11.074  17.102  68.192  1.00  0.00    -0.315 OA 
HETATM   23  C   UNL     1     -10.187  16.137  67.855  1.00  0.00    -0.261 C  
ENDBRANCH  19  20
BRANCH  19  24
HETATM   24  C   UNL     1     -11.474  14.723  70.869  1.00  0.00    -0.219 C  
HETATM   25  C   UNL     1     -12.452  15.683  71.539  1.00  0.00    -0.437 C  
HETATM   26  O   UNL     1     -12.232  16.254  72.595  1.00  0.00    -0.495 OA 
HETATM   27  O   UNL     1     -13.628  15.779  70.877  1.00  0.00    -0.538 OA 
ENDBRANCH  19  24
ENDBRANCH  18  19
ENDBRANCH  17  18
ENDBRANCH   5  17
ENDBRANCH   3   5
TORSDOF 11
ENDMDL
MODEL      137
REMARK 921   NORMALIZED FREE ENERGY PREDICTED BY IDOCK:   -4.74 KCAL/MOL
REMARK 922        TOTAL FREE ENERGY PREDICTED BY IDOCK:   -9.53 KCAL/MOL
REMARK 923 INTER-LIGAND FREE ENERGY PREDICTED BY IDOCK:   -8.57 KCAL/MOL
REMARK 924 INTRA-LIGAND FREE ENERGY PREDICTED BY IDOCK:   -0.96 KCAL/MOL
REMARK 927      BINDING AFFINITY PREDICTED BY RF-SCORE:    0.00 PKD
ROOT
HETATM    1  O   UNL     1     -11.145   9.681  71.475  1.00  0.00    -0.370 OA 
HETATM    2  C   UNL     1     -12.445   9.677  71.101  1.00  0.00    -0.332 C  
HETATM    3  C   UNL     1     -12.879  10.996  70.466  1.00  0.00    -0.174 C  
HETATM    4  O   UNL     1     -13.197   8.733  71.296  1.00  0.00    -0.274 OA 
ENDROOT
BRANCH   3   5
HETATM    5  N   UNL     1     -11.768  11.673  69.710  1.00  0.00    -0.331 NA 
BRANCH   5   6
HETATM    6  C   UNL     1     -11.649  11.047  68.351  1.00  0.00    -0.302 C  
BRANCH   6   7
HETATM    7  C   UNL     1     -10.694  11.801  67.377  1.00  0.00    -0.236 C  
BRANCH   7   8
HETATM    8  N   UNL     1     -11.091  11.811  65.925  1.00  0.00    -0.315 NA 
BRANCH   8   9
HETATM    9  C   UNL     1      -9.820  11.981  65.112  1.00  0.00    -0.200 C  
HETATM   10  O   UNL     1      -9.866   9.589  64.874  1.00  0.00    -0.152 OA 
HETATM   11  C   UNL     1      -9.055  10.671  64.933  1.00  0.00    -0.204 C  
HETATM   12  O   UNL     1      -7.841  10.598  64.828  1.00  0.00    -0.071 OA 
ENDBRANCH   8   9
BRANCH   8  13
HETATM   13  C   UNL     1     -11.935  13.040  65.683  1.00  0.00    -0.429 C  
HETATM   14  O   UNL     1     -12.824  11.842  63.807  1.00  0.00    -0.495 OA 
HETATM   15  O   UNL     1     -12.778  14.103  63.669  1.00  0.00    -0.790 OA 
HETATM   16  C   UNL     1     -12.533  13.076  64.281  1.00  0.00    -0.315 C  
ENDBRANCH   8  13
ENDBRANCH   7   8
ENDBRANCH   6   7
ENDBRANCH   5   6
BRANCH   5  17
HETATM   17  C   UNL     1     -12.118  13.119  69.534  1.00  0.00    -0.238 C  
BRANCH  17  18
HETATM   18  C   UNL     1     -11.023  14.160  69.901  1.00  0.00     0.050 C  
BRANCH  18  19
HETATM   19  N   UNL     1     -11.521  15.571  70.105  1.00  0.00    -0.296 NA 
BRANCH  19  20
HETATM   20  C   UNL     1     -12.865  15.478  70.805  1.00  0.00    -0.458 C  
HETATM   21  O   UNL     1     -13.520  15.273  73.137  1.00  0.00    -0.474 OA 
HETATM   22  O   UNL     1     -11.769  16.612  72.621  1.00  0.00    -0.486 OA 
HETATM   23  C   UNL     1     -12.763  15.749  72.304  1.00  0.00    -0.446 C  
ENDBRANCH  19  20
BRANCH  19  24
HETATM   24  C   UNL     1     -11.781  16.176  68.742  1.00  0.00    -0.231 C  
HETATM   25  C   UNL     1     -10.661  17.102  68.279  1.00  0.00    -0.375 C  
HETATM   26  O   UNL     1     -10.825  18.049  67.528  1.00  0.00    -0.379 OA 
HETATM   27  O   UNL     1      -9.444  16.718  68.732  1.00  0.00    -0.245 OA 
ENDBRANCH  19  24
ENDBRANCH  18  19
ENDBRANCH  17  18
ENDBRANCH   5  17
ENDBRANCH   3   5
TORSDOF 11
ENDMDL
MODEL      138
REMARK 921   NORMALIZED FREE ENERGY PREDICTED BY IDOCK:   -4.74 KCAL/MOL
REMARK 922        TOTAL FREE ENERGY PREDICTED BY IDOCK:   -9.53 KCAL/MOL
REMARK 923 INTER-LIGAND FREE ENERGY PREDICTED BY IDOCK:   -7.96 KCAL/MOL
REMARK 924 INTRA-LIGAND FREE ENERGY PREDICTED BY IDOCK:   -1.56 KCAL/MOL
REMARK 927      BINDING AFFINITY PREDICTED BY RF-SCORE:    0.00 PKD
ROOT
HETATM    1  O   UNL     1     -10.604  12.748  63.846  1.00  0.00    -0.414 OA 
HETATM    2  C   UNL     1     -11.916  13.058  63.964  1.00  0.00    -0.456 C  
HETATM    3  C   UNL     1     -12.412  12.980  65.405  1.00  0.00    -0.476 C  
HETATM    4  O   UNL     1     -12.631  13.325  63.009  1.00  0.00    -0.599 OA 
ENDROOT
BRANCH   3   5
HETATM    5  N   UNL     1     -11.349  13.339  66.408  1.00  0.00    -0.303 NA 
BRANCH   5   6
HETATM    6  C   UNL     1     -11.305  14.832  66.561  1.00  0.00    -0.344 C  
BRANCH   6   7
HETATM    7  C   UNL     1     -10.030  15.368  67.280  1.00  0.00    -0.226 C  
BRANCH   7   8
HETATM    8  N   UNL     1     -10.253  16.370  68.379  1.00  0.00    -0.247 NA 
BRANCH   8   9
HETATM    9  C   UNL     1      -9.168  17.425  68.255  1.00  0.00    -0.271 C  
HETATM   10  O   UNL     1     -10.863  18.790  67.232  1.00  0.00    -0.443 OA 
HETATM   11  C   UNL     1      -9.534  18.534  67.269  1.00  0.00    -0.288 C  
HETATM   12  O   UNL     1      -8.719  19.148  66.599  1.00  0.00    -0.295 OA 
ENDBRANCH   8   9
BRANCH   8  13
HETATM   13  C   UNL     1     -10.033  15.668  69.698  1.00  0.00    -0.289 C  
HETATM   14  O   UNL     1     -12.423  15.518  69.813  1.00  0.00    -0.303 OA 
HETATM   15  O   UNL     1     -11.292  15.606  71.774  1.00  0.00    -0.397 OA 
HETATM   16  C   UNL     1     -11.295  15.616  70.554  1.00  0.00    -0.367 C  
ENDBRANCH   8  13
ENDBRANCH   7   8
ENDBRANCH   6   7
ENDBRANCH   5   6
BRANCH   5  17
HETATM   17  C   UNL     1     -11.716  12.740  67.731  1.00  0.00    -0.359 C  
BRANCH  17  18
HETATM   18  C   UNL     1     -10.548  12.230  68.623  1.00  0.00    -0.224 C  
BRANCH  18  19
HETATM   19  N   UNL     1      -9.730  11.108  68.030  1.00  0.00    -0.171 NA 
BRANCH  19  20
HETATM   20  C   UNL     1      -9.616  10.026  69.088  1.00  0.00    -0.210 C  
HETATM   21  O   UNL     1     -10.853   7.978  69.521  1.00  0.00    -0.218 OA 
HETATM   22  O   UNL     1     -10.421   8.545  67.372  1.00  0.00    -0.262 OA 
HETATM   23  C   UNL     1     -10.371   8.754  68.709  1.00  0.00    -0.213 C  
ENDBRANCH  19  20
BRANCH  19  24
HETATM   24  C   UNL     1      -8.331  11.629  67.786  1.00  0.00    -0.143 C  
HETATM   25  C   UNL     1      -7.688  11.043  66.534  1.00  0.00    -0.154 C  
HETATM   26  O   UNL     1      -6.485  10.892  66.390  1.00  0.00    -0.111 OA 
HETATM   27  O   UNL     1      -8.589  10.774  65.560  1.00  0.00    -0.182 OA 
ENDBRANCH  19  24
ENDBRANCH  18  19
ENDBRANCH  17  18
ENDBRANCH   5  17
ENDBRANCH   3   5
TORSDOF 11
ENDMDL
MODEL      139
REMARK 921   NORMALIZED FREE ENERGY PREDICTED BY IDOCK:   -4.73 KCAL/MOL
REMARK 922        TOTAL FREE ENERGY PREDICTED BY IDOCK:   -9.51 KCAL/MOL
REMARK 923 INTER-LIGAND FREE ENERGY PREDICTED BY IDOCK:   -8.08 KCAL/MOL
REMARK 924 INTRA-LIGAND FREE ENERGY PREDICTED BY IDOCK:   -1.43 KCAL/MOL
REMARK 927      BINDING AFFINITY PREDICTED BY RF-SCORE:    0.00 PKD
ROOT
HETATM    1  O   UNL     1      -7.382   8.635  69.315  1.00  0.00    -0.071 OA 
HETATM    2  C   UNL     1      -7.494   9.870  69.857  1.00  0.00    -0.154 C  
HETATM    3  C   UNL     1      -8.360  10.804  69.017  1.00  0.00    -0.136 C  
HETATM    4  O   UNL     1      -6.923  10.207  70.884  1.00  0.00    -0.341 OA 
ENDROOT
BRANCH   3   5
HETATM    5  N   UNL     1      -9.459  10.081  68.286  1.00  0.00    -0.139 NA 
BRANCH   5   6
HETATM    6  C   UNL     1     -10.645   9.945  69.197  1.00  0.00    -0.220 C  
BRANCH   6   7
HETATM    7  C   UNL     1     -10.929   8.487  69.669  1.00  0.00    -0.086 C  
BRANCH   7   8
HETATM    8  N   UNL     1     -11.448   8.327  71.072  1.00  0.00    -0.273 NA 
BRANCH   8   9
HETATM    9  C   UNL     1     -11.525   9.714  71.685  1.00  0.00    -0.305 C  
HETATM   10  O   UNL     1     -13.740   9.089  72.379  1.00  0.00    -0.453 OA 
HETATM   11  C   UNL     1     -12.956  10.132  72.020  1.00  0.00    -0.409 C  
HETATM   12  O   UNL     1     -13.354  11.286  71.995  1.00  0.00    -0.462 OA 
ENDBRANCH   8   9
BRANCH   8  13
HETATM   13  C   UNL     1     -10.418   7.555  71.862  1.00  0.00    -0.202 C  
HETATM   14  O   UNL     1     -12.174   5.972  72.264  1.00  0.00    -0.281 OA 
HETATM   15  O   UNL     1     -10.554   6.151  73.839  1.00  0.00    -0.272 OA 
HETATM   16  C   UNL     1     -11.043   6.510  72.780  1.00  0.00    -0.245 C  
ENDBRANCH   8  13
ENDBRANCH   7   8
ENDBRANCH   6   7
ENDBRANCH   5   6
BRANCH   5  17
HETATM   17  C   UNL     1      -9.868  10.901  67.101  1.00  0.00    -0.184 C  
BRANCH  17  18
HETATM   18  C   UNL     1     -11.293  11.522  67.130  1.00  0.00    -0.284 C  
BRANCH  18  19
HETATM   19  N   UNL     1     -11.427  12.857  66.436  1.00  0.00    -0.323 NA 
BRANCH  19  20
HETATM   20  C   UNL     1     -12.067  13.816  67.423  1.00  0.00    -0.343 C  
HETATM   21  O   UNL     1     -11.218  15.682  68.727  1.00  0.00    -0.289 OA 
HETATM   22  O   UNL     1     -10.457  15.407  66.612  1.00  0.00    -0.281 OA 
HETATM   23  C   UNL     1     -11.208  15.051  67.681  1.00  0.00    -0.326 C  
ENDBRANCH  19  20
BRANCH  19  24
HETATM   24  C   UNL     1     -12.403  12.692  65.292  1.00  0.00    -0.466 C  
HETATM   25  C   UNL     1     -11.864  13.226  63.969  1.00  0.00    -0.455 C  
HETATM   26  O   UNL     1     -12.566  13.664  63.072  1.00  0.00    -0.729 OA 
HETATM   27  O   UNL     1     -10.521  13.093  63.859  1.00  0.00    -0.351 OA 
ENDBRANCH  19  24
ENDBRANCH  18  19
ENDBRANCH  17  18
ENDBRANCH   5  17
ENDBRANCH   3   5
TORSDOF 11
ENDMDL
MODEL      140
REMARK 921   NORMALIZED FREE ENERGY PREDICTED BY IDOCK:   -4.72 KCAL/MOL
REMARK 922        TOTAL FREE ENERGY PREDICTED BY IDOCK:   -9.50 KCAL/MOL
REMARK 923 INTER-LIGAND FREE ENERGY PREDICTED BY IDOCK:   -7.87 KCAL/MOL
REMARK 924 INTRA-LIGAND FREE ENERGY PREDICTED BY IDOCK:   -1.64 KCAL/MOL
REMARK 927      BINDING AFFINITY PREDICTED BY RF-SCORE:    0.00 PKD
ROOT
HETATM    1  O   UNL     1     -11.028   7.520  66.836  1.00  0.00    -0.292 OA 
HETATM    2  C   UNL     1      -9.680   7.648  66.824  1.00  0.00    -0.222 C  
HETATM    3  C   UNL     1      -9.228   9.082  66.558  1.00  0.00    -0.179 C  
HETATM    4  O   UNL     1      -8.915   6.705  66.965  1.00  0.00    -0.114 OA 
ENDROOT
BRANCH   3   5
HETATM    5  N   UNL     1     -10.185  10.107  67.102  1.00  0.00    -0.212 NA 
BRANCH   5   6
HETATM    6  C   UNL     1      -9.683  10.586  68.434  1.00  0.00    -0.159 C  
BRANCH   6   7
HETATM    7  C   UNL     1     -10.691  10.396  69.608  1.00  0.00    -0.265 C  
BRANCH   7   8
HETATM    8  N   UNL     1     -10.384   9.289  70.580  1.00  0.00    -0.233 NA 
BRANCH   8   9
HETATM    9  C   UNL     1      -9.027   8.722  70.204  1.00  0.00    -0.166 C  
HETATM   10  O   UNL     1      -8.573   8.725  72.566  1.00  0.00    -0.403 OA 
HETATM   11  C   UNL     1      -8.010   8.828  71.339  1.00  0.00    -0.133 C  
HETATM   12  O   UNL     1      -6.808   8.966  71.169  1.00  0.00    -0.070 OA 
ENDBRANCH   8   9
BRANCH   8  13
HETATM   13  C   UNL     1     -11.396   8.189  70.363  1.00  0.00    -0.181 C  
HETATM   14  O   UNL     1     -11.844   8.381  72.710  1.00  0.00    -0.371 OA 
HETATM   15  O   UNL     1     -12.175   6.355  71.751  1.00  0.00    -0.342 OA 
HETATM   16  C   UNL     1     -11.827   7.521  71.665  1.00  0.00    -0.291 C  
ENDBRANCH   8  13
ENDBRANCH   7   8
ENDBRANCH   6   7
ENDBRANCH   5   6
BRANCH   5  17
HETATM   17  C   UNL     1     -10.223  11.274  66.165  1.00  0.00    -0.245 C  
BRANCH  17  18
HETATM   18  C   UNL     1     -11.493  12.171  66.205  1.00  0.00    -0.374 C  
BRANCH  18  19
HETATM   19  N   UNL     1     -11.231  13.658  66.178  1.00  0.00    -0.300 NA 
BRANCH  19  20
HETATM   20  C   UNL     1     -11.982  14.269  67.347  1.00  0.00    -0.391 C  
HETATM   21  O   UNL     1     -11.672  14.185  69.756  1.00  0.00    -0.276 OA 
HETATM   22  O   UNL     1      -9.839  14.321  68.435  1.00  0.00    -0.221 OA 
HETATM   23  C   UNL     1     -11.174  14.239  68.642  1.00  0.00    -0.264 C  
ENDBRANCH  19  20
BRANCH  19  24
HETATM   24  C   UNL     1     -11.854  14.218  64.918  1.00  0.00    -0.410 C  
HETATM   25  C   UNL     1     -11.364  15.624  64.588  1.00  0.00    -0.349 C  
HETATM   26  O   UNL     1     -12.024  16.453  63.981  1.00  0.00    -0.979 OA 
HETATM   27  O   UNL     1     -10.084  15.837  64.973  1.00  0.00    -0.425 OA 
ENDBRANCH  19  24
ENDBRANCH  18  19
ENDBRANCH  17  18
ENDBRANCH   5  17
ENDBRANCH   3   5
TORSDOF 11
ENDMDL
MODEL      141
REMARK 921   NORMALIZED FREE ENERGY PREDICTED BY IDOCK:   -4.72 KCAL/MOL
REMARK 922        TOTAL FREE ENERGY PREDICTED BY IDOCK:   -9.50 KCAL/MOL
REMARK 923 INTER-LIGAND FREE ENERGY PREDICTED BY IDOCK:   -8.28 KCAL/MOL
REMARK 924 INTRA-LIGAND FREE ENERGY PREDICTED BY IDOCK:   -1.22 KCAL/MOL
REMARK 927      BINDING AFFINITY PREDICTED BY RF-SCORE:    0.00 PKD
ROOT
HETATM    1  O   UNL     1      -8.710  10.605  65.524  1.00  0.00    -0.179 OA 
HETATM    2  C   UNL     1      -7.803  10.360  66.498  1.00  0.00    -0.124 C  
HETATM    3  C   UNL     1      -8.087  11.144  67.777  1.00  0.00    -0.117 C  
HETATM    4  O   UNL     1      -6.838   9.624  66.348  1.00  0.00    -0.081 OA 
ENDROOT
BRANCH   3   5
HETATM    5  N   UNL     1      -9.556  11.375  68.006  1.00  0.00    -0.177 NA 
BRANCH   5   6
HETATM    6  C   UNL     1      -9.974  10.659  69.258  1.00  0.00    -0.193 C  
BRANCH   6   7
HETATM    7  C   UNL     1     -10.498   9.209  69.025  1.00  0.00    -0.221 C  
BRANCH   7   8
HETATM    8  N   UNL     1     -11.256   8.581  70.163  1.00  0.00    -0.193 NA 
BRANCH   8   9
HETATM    9  C   UNL     1     -11.460   9.656  71.217  1.00  0.00    -0.392 C  
HETATM   10  O   UNL     1     -13.586   8.607  71.617  1.00  0.00    -0.361 OA 
HETATM   11  C   UNL     1     -12.918   9.784  71.653  1.00  0.00    -0.419 C  
HETATM   12  O   UNL     1     -13.431  10.828  72.023  1.00  0.00    -0.373 OA 
ENDBRANCH   8   9
BRANCH   8  13
HETATM   13  C   UNL     1     -10.373   7.523  70.780  1.00  0.00    -0.203 C  
HETATM   14  O   UNL     1     -11.586   5.969  69.416  1.00  0.00    -0.275 OA 
HETATM   15  O   UNL     1     -10.738   5.196  71.370  1.00  0.00    -0.185 OA 
HETATM   16  C   UNL     1     -10.922   6.113  70.587  1.00  0.00    -0.311 C  
ENDBRANCH   8  13
ENDBRANCH   7   8
ENDBRANCH   6   7
ENDBRANCH   5   6
BRANCH   5  17
HETATM   17  C   UNL     1      -9.787  12.842  68.203  1.00  0.00    -0.226 C  
BRANCH  17  18
HETATM   18  C   UNL     1      -9.238  13.796  67.105  1.00  0.00    -0.243 C  
BRANCH  18  19
HETATM   19  N   UNL     1     -10.286  14.428  66.221  1.00  0.00    -0.287 NA 
BRANCH  19  20
HETATM   20  C   UNL     1     -10.588  15.802  66.792  1.00  0.00    -0.309 C  
HETATM   21  O   UNL     1     -10.117  18.063  66.035  1.00  0.00    -0.494 OA 
HETATM   22  O   UNL     1     -10.701  16.509  64.496  1.00  0.00    -0.721 OA 
HETATM   23  C   UNL     1     -10.426  16.914  65.758  1.00  0.00    -0.268 C  
ENDBRANCH  19  20
BRANCH  19  24
HETATM   24  C   UNL     1     -11.556  13.615  66.348  1.00  0.00    -0.350 C  
HETATM   25  C   UNL     1     -11.973  12.955  65.038  1.00  0.00    -0.405 C  
HETATM   26  O   UNL     1     -13.128  12.696  64.741  1.00  0.00    -0.852 OA 
HETATM   27  O   UNL     1     -10.915  12.614  64.264  1.00  0.00    -0.319 OA 
ENDBRANCH  19  24
ENDBRANCH  18  19
ENDBRANCH  17  18
ENDBRANCH   5  17
ENDBRANCH   3   5
TORSDOF 11
ENDMDL
MODEL      142
REMARK 921   NORMALIZED FREE ENERGY PREDICTED BY IDOCK:   -4.72 KCAL/MOL
REMARK 922        TOTAL FREE ENERGY PREDICTED BY IDOCK:   -9.49 KCAL/MOL
REMARK 923 INTER-LIGAND FREE ENERGY PREDICTED BY IDOCK:   -7.75 KCAL/MOL
REMARK 924 INTRA-LIGAND FREE ENERGY PREDICTED BY IDOCK:   -1.74 KCAL/MOL
REMARK 927      BINDING AFFINITY PREDICTED BY RF-SCORE:    0.00 PKD
ROOT
HETATM    1  O   UNL     1     -13.548  13.874  71.483  1.00  0.00    -0.334 OA 
HETATM    2  C   UNL     1     -12.440  14.584  71.802  1.00  0.00    -0.348 C  
HETATM    3  C   UNL     1     -11.512  14.793  70.608  1.00  0.00    -0.234 C  
HETATM    4  O   UNL     1     -12.195  14.973  72.934  1.00  0.00    -0.350 OA 
ENDROOT
BRANCH   3   5
HETATM    5  N   UNL     1     -12.253  14.893  69.302  1.00  0.00    -0.232 NA 
BRANCH   5   6
HETATM    6  C   UNL     1     -11.632  15.976  68.469  1.00  0.00    -0.316 C  
BRANCH   6   7
HETATM    7  C   UNL     1     -10.276  16.513  69.019  1.00  0.00    -0.285 C  
BRANCH   7   8
HETATM    8  N   UNL     1      -9.503  17.432  68.113  1.00  0.00    -0.279 NA 
BRANCH   8   9
HETATM    9  C   UNL     1      -8.028  17.132  68.317  1.00  0.00    -0.236 C  
HETATM   10  O   UNL     1      -7.827  17.410  65.937  1.00  0.00    -0.514 OA 
HETATM   11  C   UNL     1      -7.315  16.771  67.016  1.00  0.00    -0.203 C  
HETATM   12  O   UNL     1      -6.365  16.007  66.947  1.00  0.00    -0.306 OA 
ENDBRANCH   8   9
BRANCH   8  13
HETATM   13  C   UNL     1      -9.732  18.849  68.584  1.00  0.00    -0.400 C  
HETATM   14  O   UNL     1     -10.737  19.211  66.438  1.00  0.00    -0.415 OA 
HETATM   15  O   UNL     1      -9.762  20.992  67.444  1.00  0.00    -0.416 OA 
HETATM   16  C   UNL     1     -10.047  19.806  67.440  1.00  0.00    -0.422 C  
ENDBRANCH   8  13
ENDBRANCH   7   8
ENDBRANCH   6   7
ENDBRANCH   5   6
BRANCH   5  17
HETATM   17  C   UNL     1     -12.111  13.595  68.568  1.00  0.00    -0.286 C  
BRANCH  17  18
HETATM   18  C   UNL     1     -10.811  12.780  68.822  1.00  0.00    -0.234 C  
BRANCH  18  19
HETATM   19  N   UNL     1      -9.971  12.511  67.596  1.00  0.00    -0.198 NA 
BRANCH  19  20
HETATM   20  C   UNL     1      -8.719  13.363  67.713  1.00  0.00    -0.197 C  
HETATM   21  O   UNL     1      -6.764  13.265  69.152  1.00  0.00    -0.104 OA 
HETATM   22  O   UNL     1      -7.640  11.323  68.388  1.00  0.00    -0.105 OA 
HETATM   23  C   UNL     1      -7.613  12.671  68.506  1.00  0.00    -0.121 C  
ENDBRANCH  19  20
BRANCH  19  24
HETATM   24  C   UNL     1     -10.732  13.017  66.390  1.00  0.00    -0.282 C  
HETATM   25  C   UNL     1     -10.397  12.253  65.113  1.00  0.00    -0.286 C  
HETATM   26  O   UNL     1     -10.456  12.735  63.993  1.00  0.00    -0.406 OA 
HETATM   27  O   UNL     1     -10.098  10.953  65.344  1.00  0.00    -0.248 OA 
ENDBRANCH  19  24
ENDBRANCH  18  19
ENDBRANCH  17  18
ENDBRANCH   5  17
ENDBRANCH   3   5
TORSDOF 11
ENDMDL
MODEL      143
REMARK 921   NORMALIZED FREE ENERGY PREDICTED BY IDOCK:   -4.71 KCAL/MOL
REMARK 922        TOTAL FREE ENERGY PREDICTED BY IDOCK:   -9.48 KCAL/MOL
REMARK 923 INTER-LIGAND FREE ENERGY PREDICTED BY IDOCK:   -8.99 KCAL/MOL
REMARK 924 INTRA-LIGAND FREE ENERGY PREDICTED BY IDOCK:   -0.49 KCAL/MOL
REMARK 927      BINDING AFFINITY PREDICTED BY RF-SCORE:    0.00 PKD
ROOT
HETATM    1  O   UNL     1      -7.664   9.830  66.418  1.00  0.00    -0.100 OA 
HETATM    2  C   UNL     1      -8.874   9.530  65.892  1.00  0.00    -0.164 C  
HETATM    3  C   UNL     1     -10.021   9.798  66.864  1.00  0.00    -0.211 C  
HETATM    4  O   UNL     1      -9.023   9.054  64.776  1.00  0.00    -0.188 OA 
ENDROOT
BRANCH   3   5
HETATM    5  N   UNL     1      -9.745  10.953  67.788  1.00  0.00    -0.166 NA 
BRANCH   5   6
HETATM    6  C   UNL     1     -10.576  12.129  67.362  1.00  0.00    -0.226 C  
BRANCH   6   7
HETATM    7  C   UNL     1      -9.869  13.086  66.355  1.00  0.00    -0.270 C  
BRANCH   7   8
HETATM    8  N   UNL     1     -10.724  13.645  65.251  1.00  0.00    -0.320 NA 
BRANCH   8   9
HETATM    9  C   UNL     1     -11.036  15.088  65.608  1.00  0.00    -0.354 C  
HETATM   10  O   UNL     1     -12.350  15.114  63.595  1.00  0.00    -0.533 OA 
HETATM   11  C   UNL     1     -11.606  15.876  64.431  1.00  0.00    -0.234 C  
HETATM   12  O   UNL     1     -11.437  17.074  64.265  1.00  0.00    -1.124 OA 
ENDBRANCH   8   9
BRANCH   8  13
HETATM   13  C   UNL     1     -12.037  12.898  65.257  1.00  0.00    -0.453 C  
HETATM   14  O   UNL     1     -11.110  11.611  63.460  1.00  0.00    -0.405 OA 
HETATM   15  O   UNL     1     -13.362  11.857  63.509  1.00  0.00    -0.605 OA 
HETATM   16  C   UNL     1     -12.262  12.093  63.982  1.00  0.00    -0.446 C  
ENDBRANCH   8  13
ENDBRANCH   7   8
ENDBRANCH   6   7
ENDBRANCH   5   6
BRANCH   5  17
HETATM   17  C   UNL     1     -10.153  10.566  69.176  1.00  0.00    -0.224 C  
BRANCH  17  18
HETATM   18  C   UNL     1     -10.122   9.051  69.524  1.00  0.00    -0.197 C  
BRANCH  18  19
HETATM   19  N   UNL     1     -11.167   8.598  70.516  1.00  0.00    -0.253 NA 
BRANCH  19  20
HETATM   20  C   UNL     1     -11.432   9.763  71.453  1.00  0.00    -0.365 C  
HETATM   21  O   UNL     1     -13.333  11.240  71.783  1.00  0.00    -0.391 OA 
HETATM   22  O   UNL     1     -13.726   9.050  71.364  1.00  0.00    -0.356 OA 
HETATM   23  C   UNL     1     -12.914  10.118  71.541  1.00  0.00    -0.444 C  
ENDBRANCH  19  20
BRANCH  19  24
HETATM   24  C   UNL     1     -10.565   7.492  71.355  1.00  0.00    -0.210 C  
HETATM   25  C   UNL     1     -11.174   6.125  71.061  1.00  0.00    -0.296 C  
HETATM   26  O   UNL     1     -11.249   5.221  71.877  1.00  0.00    -0.127 OA 
HETATM   27  O   UNL     1     -11.558   5.989  69.769  1.00  0.00    -0.325 OA 
ENDBRANCH  19  24
ENDBRANCH  18  19
ENDBRANCH  17  18
ENDBRANCH   5  17
ENDBRANCH   3   5
TORSDOF 11
ENDMDL
MODEL      144
REMARK 921   NORMALIZED FREE ENERGY PREDICTED BY IDOCK:   -4.71 KCAL/MOL
REMARK 922        TOTAL FREE ENERGY PREDICTED BY IDOCK:   -9.48 KCAL/MOL
REMARK 923 INTER-LIGAND FREE ENERGY PREDICTED BY IDOCK:   -8.23 KCAL/MOL
REMARK 924 INTRA-LIGAND FREE ENERGY PREDICTED BY IDOCK:   -1.24 KCAL/MOL
REMARK 927      BINDING AFFINITY PREDICTED BY RF-SCORE:    0.00 PKD
ROOT
HETATM    1  O   UNL     1     -10.636   9.181  69.076  1.00  0.00    -0.222 OA 
HETATM    2  C   UNL     1      -9.646  10.103  69.108  1.00  0.00    -0.212 C  
HETATM    3  C   UNL     1     -10.089  11.460  68.566  1.00  0.00    -0.206 C  
HETATM    4  O   UNL     1      -8.511   9.857  69.487  1.00  0.00    -0.146 OA 
ENDROOT
BRANCH   3   5
HETATM    5  N   UNL     1     -11.543  11.748  68.828  1.00  0.00    -0.281 NA 
BRANCH   5   6
HETATM    6  C   UNL     1     -11.678  12.390  70.179  1.00  0.00    -0.185 C  
BRANCH   6   7
HETATM    7  C   UNL     1     -12.740  13.529  70.246  1.00  0.00    -0.052 C  
BRANCH   7   8
HETATM    8  N   UNL     1     -12.275  14.845  70.808  1.00  0.00    -0.300 NA 
BRANCH   8   9
HETATM    9  C   UNL     1     -13.362  15.346  71.742  1.00  0.00    -0.476 C  
HETATM   10  O   UNL     1     -11.612  16.597  72.816  1.00  0.00    -0.340 OA 
HETATM   11  C   UNL     1     -12.800  15.979  73.014  1.00  0.00    -0.488 C  
HETATM   12  O   UNL     1     -13.368  15.959  74.095  1.00  0.00    -0.297 OA 
ENDBRANCH   8   9
BRANCH   8  13
HETATM   13  C   UNL     1     -12.187  15.831  69.667  1.00  0.00    -0.187 C  
HETATM   14  O   UNL     1      -9.825  15.431  69.738  1.00  0.00    -0.268 OA 
HETATM   15  O   UNL     1     -10.514  17.464  69.011  1.00  0.00    -0.346 OA 
HETATM   16  C   UNL     1     -10.771  16.355  69.450  1.00  0.00    -0.324 C  
ENDBRANCH   8  13
ENDBRANCH   7   8
ENDBRANCH   6   7
ENDBRANCH   5   6
BRANCH   5  17
HETATM   17  C   UNL     1     -12.035  12.714  67.795  1.00  0.00    -0.243 C  
BRANCH  17  18
HETATM   18  C   UNL     1     -10.963  13.568  67.060  1.00  0.00    -0.288 C  
BRANCH  18  19
HETATM   19  N   UNL     1     -11.118  13.640  65.560  1.00  0.00    -0.293 NA 
BRANCH  19  20
HETATM   20  C   UNL     1     -11.431  15.084  65.209  1.00  0.00    -0.308 C  
HETATM   21  O   UNL     1     -10.471  17.211  65.887  1.00  0.00    -0.386 OA 
HETATM   22  O   UNL     1      -9.078  15.461  65.536  1.00  0.00    -0.066 OA 
HETATM   23  C   UNL     1     -10.302  16.038  65.593  1.00  0.00    -0.392 C  
ENDBRANCH  19  20
BRANCH  19  24
HETATM   24  C   UNL     1     -12.333  12.825  65.176  1.00  0.00    -0.496 C  
HETATM   25  C   UNL     1     -12.198  12.166  63.807  1.00  0.00    -0.531 C  
HETATM   26  O   UNL     1     -13.142  11.905  63.079  1.00  0.00    -0.500 OA 
HETATM   27  O   UNL     1     -10.921  11.828  63.512  1.00  0.00    -0.396 OA 
ENDBRANCH  19  24
ENDBRANCH  18  19
ENDBRANCH  17  18
ENDBRANCH   5  17
ENDBRANCH   3   5
TORSDOF 11
ENDMDL
MODEL      145
REMARK 921   NORMALIZED FREE ENERGY PREDICTED BY IDOCK:   -4.70 KCAL/MOL
REMARK 922        TOTAL FREE ENERGY PREDICTED BY IDOCK:   -9.47 KCAL/MOL
REMARK 923 INTER-LIGAND FREE ENERGY PREDICTED BY IDOCK:   -8.37 KCAL/MOL
REMARK 924 INTRA-LIGAND FREE ENERGY PREDICTED BY IDOCK:   -1.10 KCAL/MOL
REMARK 927      BINDING AFFINITY PREDICTED BY RF-SCORE:    0.00 PKD
ROOT
HETATM    1  O   UNL     1     -10.808  11.676  69.890  1.00  0.00     0.030 OA 
HETATM    2  C   UNL     1     -11.780  11.892  68.974  1.00  0.00    -0.331 C  
HETATM    3  C   UNL     1     -11.936  13.368  68.617  1.00  0.00    -0.327 C  
HETATM    4  O   UNL     1     -12.485  11.001  68.521  1.00  0.00    -0.440 OA 
ENDROOT
BRANCH   3   5
HETATM    5  N   UNL     1     -10.638  14.125  68.689  1.00  0.00    -0.244 NA 
BRANCH   5   6
HETATM    6  C   UNL     1      -9.751  13.683  67.562  1.00  0.00    -0.227 C  
BRANCH   6   7
HETATM    7  C   UNL     1     -10.476  13.544  66.189  1.00  0.00    -0.296 C  
BRANCH   7   8
HETATM    8  N   UNL     1     -10.572  12.154  65.621  1.00  0.00    -0.253 NA 
BRANCH   8   9
HETATM    9  C   UNL     1      -9.169  11.572  65.613  1.00  0.00    -0.170 C  
HETATM   10  O   UNL     1     -10.226   9.484  66.164  1.00  0.00    -0.273 OA 
HETATM   11  C   UNL     1      -9.092  10.210  66.301  1.00  0.00    -0.154 C  
HETATM   12  O   UNL     1      -8.107   9.799  66.894  1.00  0.00    -0.112 OA 
ENDBRANCH   8   9
BRANCH   8  13
HETATM   13  C   UNL     1     -11.007  12.270  64.180  1.00  0.00    -0.363 C  
HETATM   14  O   UNL     1     -13.215  12.587  65.057  1.00  0.00    -0.700 OA 
HETATM   15  O   UNL     1     -13.038  11.646  63.004  1.00  0.00    -0.436 OA 
HETATM   16  C   UNL     1     -12.513  12.106  64.004  1.00  0.00    -0.440 C  
ENDBRANCH   8  13
ENDBRANCH   7   8
ENDBRANCH   6   7
ENDBRANCH   5   6
BRANCH   5  17
HETATM   17  C   UNL     1     -10.924  15.586  68.518  1.00  0.00    -0.288 C  
BRANCH  17  18
HETATM   18  C   UNL     1      -9.766  16.574  68.837  1.00  0.00    -0.257 C  
BRANCH  18  19
HETATM   19  N   UNL     1      -9.276  17.389  67.663  1.00  0.00    -0.232 NA 
BRANCH  19  20
HETATM   20  C   UNL     1      -7.885  17.888  68.011  1.00  0.00    -0.251 C  
HETATM   21  O   UNL     1      -5.661  17.319  67.214  1.00  0.00    -0.121 OA 
HETATM   22  O   UNL     1      -7.357  17.401  65.716  1.00  0.00    -0.417 OA 
HETATM   23  C   UNL     1      -6.844  17.495  66.966  1.00  0.00    -0.176 C  
ENDBRANCH  19  20
BRANCH  19  24
HETATM   24  C   UNL     1     -10.160  18.610  67.542  1.00  0.00    -0.360 C  
HETATM   25  C   UNL     1     -10.500  18.957  66.096  1.00  0.00    -0.457 C  
HETATM   26  O   UNL     1     -10.738  20.088  65.703  1.00  0.00    -0.439 OA 
HETATM   27  O   UNL     1     -10.586  17.864  65.302  1.00  0.00    -0.637 OA 
ENDBRANCH  19  24
ENDBRANCH  18  19
ENDBRANCH  17  18
ENDBRANCH   5  17
ENDBRANCH   3   5
TORSDOF 11
ENDMDL
MODEL      146
REMARK 921   NORMALIZED FREE ENERGY PREDICTED BY IDOCK:   -4.70 KCAL/MOL
REMARK 922        TOTAL FREE ENERGY PREDICTED BY IDOCK:   -9.46 KCAL/MOL
REMARK 923 INTER-LIGAND FREE ENERGY PREDICTED BY IDOCK:   -8.24 KCAL/MOL
REMARK 924 INTRA-LIGAND FREE ENERGY PREDICTED BY IDOCK:   -1.22 KCAL/MOL
REMARK 927      BINDING AFFINITY PREDICTED BY RF-SCORE:    0.00 PKD
ROOT
HETATM    1  O   UNL     1     -13.342  11.361  71.921  1.00  0.00    -0.435 OA 
HETATM    2  C   UNL     1     -13.206  12.706  71.847  1.00  0.00    -0.403 C  
HETATM    3  C   UNL     1     -12.199  13.138  70.784  1.00  0.00    -0.290 C  
HETATM    4  O   UNL     1     -13.795  13.482  72.586  1.00  0.00    -0.724 OA 
ENDROOT
BRANCH   3   5
HETATM    5  N   UNL     1     -12.156  12.201  69.607  1.00  0.00    -0.256 NA 
BRANCH   5   6
HETATM    6  C   UNL     1     -12.107  13.009  68.342  1.00  0.00    -0.155 C  
BRANCH   6   7
HETATM    7  C   UNL     1     -10.674  13.446  67.912  1.00  0.00    -0.247 C  
BRANCH   7   8
HETATM    8  N   UNL     1     -10.544  14.822  67.319  1.00  0.00    -0.269 NA 
BRANCH   8   9
HETATM    9  C   UNL     1     -11.389  15.759  68.164  1.00  0.00    -0.337 C  
HETATM   10  O   UNL     1      -9.330  16.323  69.273  1.00  0.00    -0.251 OA 
HETATM   11  C   UNL     1     -10.670  16.216  69.433  1.00  0.00    -0.307 C  
HETATM   12  O   UNL     1     -11.238  16.484  70.480  1.00  0.00    -0.330 OA 
ENDBRANCH   8   9
BRANCH   8  13
HETATM   13  C   UNL     1     -11.165  14.795  65.942  1.00  0.00    -0.340 C  
HETATM   14  O   UNL     1      -9.471  16.381  65.341  1.00  0.00    -0.410 OA 
HETATM   15  O   UNL     1     -11.432  16.474  64.208  1.00  0.00    -1.000 OA 
HETATM   16  C   UNL     1     -10.737  15.977  65.079  1.00  0.00    -0.378 C  
ENDBRANCH   8  13
ENDBRANCH   7   8
ENDBRANCH   6   7
ENDBRANCH   5   6
BRANCH   5  17
HETATM   17  C   UNL     1     -10.904  11.382  69.691  1.00  0.00    -0.047 C  
BRANCH  17  18
HETATM   18  C   UNL     1     -11.049   9.849  69.476  1.00  0.00    -0.217 C  
BRANCH  18  19
HETATM   19  N   UNL     1      -9.785   9.137  69.058  1.00  0.00    -0.163 NA 
BRANCH  19  20
HETATM   20  C   UNL     1      -8.654   9.694  69.905  1.00  0.00    -0.203 C  
HETATM   21  O   UNL     1      -7.642   9.000  72.002  1.00  0.00    -0.343 OA 
HETATM   22  O   UNL     1      -8.256   7.403  70.519  1.00  0.00    -0.122 OA 
HETATM   23  C   UNL     1      -8.141   8.688  70.932  1.00  0.00    -0.136 C  
ENDBRANCH  19  20
BRANCH  19  24
HETATM   24  C   UNL     1      -9.485   9.518  67.625  1.00  0.00    -0.131 C  
HETATM   25  C   UNL     1      -9.679   8.363  66.649  1.00  0.00    -0.251 C  
HETATM   26  O   UNL     1      -9.065   8.242  65.602  1.00  0.00    -0.156 OA 
HETATM   27  O   UNL     1     -10.665   7.516  67.030  1.00  0.00    -0.346 OA 
ENDBRANCH  19  24
ENDBRANCH  18  19
ENDBRANCH  17  18
ENDBRANCH   5  17
ENDBRANCH   3   5
TORSDOF 11
ENDMDL
MODEL      147
REMARK 921   NORMALIZED FREE ENERGY PREDICTED BY IDOCK:   -4.69 KCAL/MOL
REMARK 922        TOTAL FREE ENERGY PREDICTED BY IDOCK:   -9.45 KCAL/MOL
REMARK 923 INTER-LIGAND FREE ENERGY PREDICTED BY IDOCK:   -8.19 KCAL/MOL
REMARK 924 INTRA-LIGAND FREE ENERGY PREDICTED BY IDOCK:   -1.26 KCAL/MOL
REMARK 927      BINDING AFFINITY PREDICTED BY RF-SCORE:    0.00 PKD
ROOT
HETATM    1  O   UNL     1     -12.270  10.969  68.167  1.00  0.00    -0.578 OA 
HETATM    2  C   UNL     1     -11.542  11.159  69.292  1.00  0.00    -0.318 C  
HETATM    3  C   UNL     1     -10.049  11.305  69.008  1.00  0.00    -0.128 C  
HETATM    4  O   UNL     1     -12.028  11.165  70.413  1.00  0.00    -0.325 OA 
ENDROOT
BRANCH   3   5
HETATM    5  N   UNL     1      -9.768  11.954  67.680  1.00  0.00    -0.181 NA 
BRANCH   5   6
HETATM    6  C   UNL     1      -9.530  13.421  67.895  1.00  0.00    -0.216 C  
BRANCH   6   7
HETATM    7  C   UNL     1      -9.242  14.224  66.590  1.00  0.00    -0.255 C  
BRANCH   7   8
HETATM    8  N   UNL     1     -10.438  14.798  65.880  1.00  0.00    -0.296 NA 
BRANCH   8   9
HETATM    9  C   UNL     1     -10.679  16.184  66.453  1.00  0.00    -0.211 C  
HETATM   10  O   UNL     1     -11.403  16.776  64.238  1.00  0.00    -1.170 OA 
HETATM   11  C   UNL     1     -10.832  17.250  65.370  1.00  0.00    -0.021 C  
HETATM   12  O   UNL     1     -10.500  18.417  65.509  1.00  0.00    -0.610 OA 
ENDBRANCH   8   9
BRANCH   8  13
HETATM   13  C   UNL     1     -11.639  13.958  66.242  1.00  0.00    -0.365 C  
HETATM   14  O   UNL     1     -11.038  12.605  64.357  1.00  0.00    -0.308 OA 
HETATM   15  O   UNL     1     -13.231  12.684  64.923  1.00  0.00    -0.819 OA 
HETATM   16  C   UNL     1     -12.079  13.039  65.107  1.00  0.00    -0.433 C  
ENDBRANCH   8  13
ENDBRANCH   7   8
ENDBRANCH   6   7
ENDBRANCH   5   6
BRANCH   5  17
HETATM   17  C   UNL     1      -8.521  11.354  67.106  1.00  0.00    -0.153 C  
BRANCH  17  18
HETATM   18  C   UNL     1      -8.236   9.863  67.445  1.00  0.00    -0.118 C  
BRANCH  18  19
HETATM   19  N   UNL     1      -8.748   8.865  66.434  1.00  0.00    -0.124 NA 
BRANCH  19  20
HETATM   20  C   UNL     1      -9.016   9.626  65.147  1.00  0.00    -0.207 C  
HETATM   21  O   UNL     1      -7.884   9.720  62.999  1.00  0.00    -0.123 OA 
HETATM   22  O   UNL     1      -8.029   7.723  64.056  1.00  0.00    -0.132 OA 
HETATM   23  C   UNL     1      -8.243   9.057  63.959  1.00  0.00    -0.167 C  
ENDBRANCH  19  20
BRANCH  19  24
HETATM   24  C   UNL     1     -10.084   8.350  66.922  1.00  0.00    -0.294 C  
HETATM   25  C   UNL     1     -10.102   6.838  67.121  1.00  0.00    -0.190 C  
HETATM   26  O   UNL     1     -11.102   6.147  67.013  1.00  0.00    -0.335 OA 
HETATM   27  O   UNL     1      -8.900   6.347  67.507  1.00  0.00    -0.113 OA 
ENDBRANCH  19  24
ENDBRANCH  18  19
ENDBRANCH  17  18
ENDBRANCH   5  17
ENDBRANCH   3   5
TORSDOF 11
ENDMDL
MODEL      148
REMARK 921   NORMALIZED FREE ENERGY PREDICTED BY IDOCK:   -4.69 KCAL/MOL
REMARK 922        TOTAL FREE ENERGY PREDICTED BY IDOCK:   -9.45 KCAL/MOL
REMARK 923 INTER-LIGAND FREE ENERGY PREDICTED BY IDOCK:   -8.07 KCAL/MOL
REMARK 924 INTRA-LIGAND FREE ENERGY PREDICTED BY IDOCK:   -1.38 KCAL/MOL
REMARK 927      BINDING AFFINITY PREDICTED BY RF-SCORE:    0.00 PKD
ROOT
HETATM    1  O   UNL     1     -13.062  11.841  72.011  1.00  0.00    -0.467 OA 
HETATM    2  C   UNL     1     -13.143  10.529  71.692  1.00  0.00    -0.446 C  
HETATM    3  C   UNL     1     -12.607  10.229  70.294  1.00  0.00    -0.144 C  
HETATM    4  O   UNL     1     -13.634   9.687  72.430  1.00  0.00    -0.433 OA 
ENDROOT
BRANCH   3   5
HETATM    5  N   UNL     1     -11.485  11.146  69.890  1.00  0.00    -0.296 NA 
BRANCH   5   6
HETATM    6  C   UNL     1     -10.311  10.319  69.452  1.00  0.00    -0.235 C  
BRANCH   6   7
HETATM    7  C   UNL     1      -9.706   9.417  70.569  1.00  0.00    -0.271 C  
BRANCH   7   8
HETATM    8  N   UNL     1      -9.777   7.931  70.341  1.00  0.00    -0.178 NA 
BRANCH   8   9
HETATM    9  C   UNL     1     -10.479   7.323  71.542  1.00  0.00    -0.202 C  
HETATM   10  O   UNL     1     -11.849   6.176  69.933  1.00  0.00    -0.236 OA 
HETATM   11  C   UNL     1     -11.826   6.697  71.182  1.00  0.00    -0.360 C  
HETATM   12  O   UNL     1     -12.779   6.643  71.943  1.00  0.00    -0.345 OA 
ENDBRANCH   8   9
BRANCH   8  13
HETATM   13  C   UNL     1      -8.365   7.395  70.341  1.00  0.00    -0.129 C  
HETATM   14  O   UNL     1      -8.866   6.576  68.144  1.00  0.00    -0.117 OA 
HETATM   15  O   UNL     1      -7.338   5.425  69.359  1.00  0.00    -0.063 OA 
HETATM   16  C   UNL     1      -8.134   6.344  69.259  1.00  0.00    -0.111 C  
ENDBRANCH   8  13
ENDBRANCH   7   8
ENDBRANCH   6   7
ENDBRANCH   5   6
BRANCH   5  17
HETATM   17  C   UNL     1     -11.937  11.976  68.728  1.00  0.00    -0.244 C  
BRANCH  17  18
HETATM   18  C   UNL     1     -10.926  12.167  67.562  1.00  0.00    -0.257 C  
BRANCH  18  19
HETATM   19  N   UNL     1     -11.190  13.358  66.671  1.00  0.00    -0.302 NA 
BRANCH  19  20
HETATM   20  C   UNL     1     -11.238  12.848  65.242  1.00  0.00    -0.288 C  
HETATM   21  O   UNL     1     -13.057  12.323  63.718  1.00  0.00    -0.780 OA 
HETATM   22  O   UNL     1     -13.267  14.128  65.068  1.00  0.00    -0.691 OA 
HETATM   23  C   UNL     1     -12.608  13.044  64.596  1.00  0.00    -0.362 C  
ENDBRANCH  19  20
BRANCH  19  24
HETATM   24  C   UNL     1      -9.998  14.284  66.765  1.00  0.00    -0.265 C  
HETATM   25  C   UNL     1     -10.357  15.663  67.306  1.00  0.00    -0.277 C  
HETATM   26  O   UNL     1      -9.755  16.687  67.023  1.00  0.00    -0.238 OA 
HETATM   27  O   UNL     1     -11.374  15.626  68.199  1.00  0.00    -0.336 OA 
ENDBRANCH  19  24
ENDBRANCH  18  19
ENDBRANCH  17  18
ENDBRANCH   5  17
ENDBRANCH   3   5
TORSDOF 11
ENDMDL
MODEL      149
REMARK 921   NORMALIZED FREE ENERGY PREDICTED BY IDOCK:   -4.69 KCAL/MOL
REMARK 922        TOTAL FREE ENERGY PREDICTED BY IDOCK:   -9.44 KCAL/MOL
REMARK 923 INTER-LIGAND FREE ENERGY PREDICTED BY IDOCK:   -7.94 KCAL/MOL
REMARK 924 INTRA-LIGAND FREE ENERGY PREDICTED BY IDOCK:   -1.51 KCAL/MOL
REMARK 927      BINDING AFFINITY PREDICTED BY RF-SCORE:    0.00 PKD
ROOT
HETATM    1  O   UNL     1     -13.377  11.709  72.199  1.00  0.00    -0.491 OA 
HETATM    2  C   UNL     1     -13.359  10.403  71.844  1.00  0.00    -0.364 C  
HETATM    3  C   UNL     1     -12.755  10.178  70.460  1.00  0.00    -0.197 C  
HETATM    4  O   UNL     1     -13.820   9.511  72.541  1.00  0.00    -0.409 OA 
ENDROOT
BRANCH   3   5
HETATM    5  N   UNL     1     -11.682  11.178  70.122  1.00  0.00    -0.331 NA 
BRANCH   5   6
HETATM    6  C   UNL     1     -10.451  10.442  69.677  1.00  0.00    -0.243 C  
BRANCH   6   7
HETATM    7  C   UNL     1     -10.658   8.912  69.465  1.00  0.00    -0.228 C  
BRANCH   7   8
HETATM    8  N   UNL     1     -10.128   8.009  70.545  1.00  0.00    -0.191 NA 
BRANCH   8   9
HETATM    9  C   UNL     1      -8.946   7.254  69.963  1.00  0.00    -0.142 C  
HETATM   10  O   UNL     1      -7.897   7.612  72.097  1.00  0.00    -0.095 OA 
HETATM   11  C   UNL     1      -7.666   7.450  70.774  1.00  0.00    -0.088 C  
HETATM   12  O   UNL     1      -6.544   7.437  70.292  1.00  0.00    -0.045 OA 
ENDBRANCH   8   9
BRANCH   8  13
HETATM   13  C   UNL     1     -11.193   6.984  70.857  1.00  0.00    -0.282 C  
HETATM   14  O   UNL     1     -11.044   7.776  73.114  1.00  0.00    -0.409 OA 
HETATM   15  O   UNL     1     -11.660   5.617  72.808  1.00  0.00    -0.297 OA 
HETATM   16  C   UNL     1     -11.310   6.691  72.349  1.00  0.00    -0.272 C  
ENDBRANCH   8  13
ENDBRANCH   7   8
ENDBRANCH   6   7
ENDBRANCH   5   6
BRANCH   5  17
HETATM   17  C   UNL     1     -12.159  12.028  68.985  1.00  0.00    -0.166 C  
BRANCH  17  18
HETATM   18  C   UNL     1     -11.111  12.959  68.312  1.00  0.00    -0.264 C  
BRANCH  18  19
HETATM   19  N   UNL     1     -11.011  12.834  66.810  1.00  0.00    -0.264 NA 
BRANCH  19  20
HETATM   20  C   UNL     1      -9.536  12.863  66.453  1.00  0.00    -0.226 C  
HETATM   21  O   UNL     1      -7.734  11.247  66.673  1.00  0.00    -0.150 OA 
HETATM   22  O   UNL     1      -9.787  10.501  66.078  1.00  0.00    -0.201 OA 
HETATM   23  C   UNL     1      -8.911  11.471  66.433  1.00  0.00    -0.193 C  
ENDBRANCH  19  20
BRANCH  19  24
HETATM   24  C   UNL     1     -11.633  14.070  66.196  1.00  0.00    -0.367 C  
HETATM   25  C   UNL     1     -12.409  13.772  64.918  1.00  0.00    -0.405 C  
HETATM   26  O   UNL     1     -12.559  14.572  64.008  1.00  0.00    -0.797 OA 
HETATM   27  O   UNL     1     -12.982  12.546  64.927  1.00  0.00    -0.821 OA 
ENDBRANCH  19  24
ENDBRANCH  18  19
ENDBRANCH  17  18
ENDBRANCH   5  17
ENDBRANCH   3   5
TORSDOF 11
ENDMDL
MODEL      150
REMARK 921   NORMALIZED FREE ENERGY PREDICTED BY IDOCK:   -4.69 KCAL/MOL
REMARK 922        TOTAL FREE ENERGY PREDICTED BY IDOCK:   -9.44 KCAL/MOL
REMARK 923 INTER-LIGAND FREE ENERGY PREDICTED BY IDOCK:   -8.05 KCAL/MOL
REMARK 924 INTRA-LIGAND FREE ENERGY PREDICTED BY IDOCK:   -1.39 KCAL/MOL
REMARK 927      BINDING AFFINITY PREDICTED BY RF-SCORE:    0.00 PKD
ROOT
HETATM    1  O   UNL     1     -13.984  13.919  71.617  1.00  0.00    -0.345 OA 
HETATM    2  C   UNL     1     -13.293  15.027  71.970  1.00  0.00    -0.379 C  
HETATM    3  C   UNL     1     -12.033  15.227  71.131  1.00  0.00    -0.345 C  
HETATM    4  O   UNL     1     -13.622  15.759  72.892  1.00  0.00    -0.546 OA 
ENDROOT
BRANCH   3   5
HETATM    5  N   UNL     1     -12.183  14.717  69.723  1.00  0.00    -0.310 NA 
BRANCH   5   6
HETATM    6  C   UNL     1     -11.908  15.840  68.765  1.00  0.00    -0.309 C  
BRANCH   6   7
HETATM    7  C   UNL     1     -10.724  16.765  69.181  1.00  0.00    -0.329 C  
BRANCH   7   8
HETATM    8  N   UNL     1      -9.981  17.444  68.062  1.00  0.00    -0.287 NA 
BRANCH   8   9
HETATM    9  C   UNL     1      -9.870  16.446  66.923  1.00  0.00    -0.261 C  
HETATM   10  O   UNL     1     -10.413  18.297  65.488  1.00  0.00    -0.616 OA 
HETATM   11  C   UNL     1     -10.507  16.954  65.631  1.00  0.00    -0.238 C  
HETATM   12  O   UNL     1     -11.026  16.231  64.795  1.00  0.00    -0.631 OA 
ENDBRANCH   8   9
BRANCH   8  13
HETATM   13  C   UNL     1      -8.575  17.721  68.541  1.00  0.00    -0.291 C  
HETATM   14  O   UNL     1      -9.267  20.012  68.683  1.00  0.00    -0.194 OA 
HETATM   15  O   UNL     1      -7.074  19.611  68.273  1.00  0.00    -0.281 OA 
HETATM   16  C   UNL     1      -8.207  19.199  68.461  1.00  0.00    -0.364 C  
ENDBRANCH   8  13
ENDBRANCH   7   8
ENDBRANCH   6   7
ENDBRANCH   5   6
BRANCH   5  17
HETATM   17  C   UNL     1     -11.168  13.641  69.491  1.00  0.00    -0.146 C  
BRANCH  17  18
HETATM   18  C   UNL     1     -11.388  12.716  68.261  1.00  0.00    -0.295 C  
BRANCH  18  19
HETATM   19  N   UNL     1     -10.225  11.816  67.917  1.00  0.00    -0.187 NA 
BRANCH  19  20
HETATM   20  C   UNL     1      -9.244  12.640  67.102  1.00  0.00    -0.214 C  
HETATM   21  O   UNL     1      -7.199  13.830  67.658  1.00  0.00    -0.149 OA 
HETATM   22  O   UNL     1      -7.591  11.834  68.652  1.00  0.00    -0.121 OA 
HETATM   23  C   UNL     1      -7.918  12.857  67.826  1.00  0.00    -0.162 C  
ENDBRANCH  19  20
BRANCH  19  24
HETATM   24  C   UNL     1     -10.735  10.720  67.007  1.00  0.00    -0.265 C  
HETATM   25  C   UNL     1     -10.612   9.331  67.623  1.00  0.00    -0.261 C  
HETATM   26  O   UNL     1     -10.469   8.306  66.975  1.00  0.00    -0.310 OA 
HETATM   27  O   UNL     1     -10.752   9.341  68.970  1.00  0.00    -0.218 OA 
ENDBRANCH  19  24
ENDBRANCH  18  19
ENDBRANCH  17  18
ENDBRANCH   5  17
ENDBRANCH   3   5
TORSDOF 11
ENDMDL
MODEL      151
REMARK 921   NORMALIZED FREE ENERGY PREDICTED BY IDOCK:   -4.68 KCAL/MOL
REMARK 922        TOTAL FREE ENERGY PREDICTED BY IDOCK:   -9.44 KCAL/MOL
REMARK 923 INTER-LIGAND FREE ENERGY PREDICTED BY IDOCK:   -8.02 KCAL/MOL
REMARK 924 INTRA-LIGAND FREE ENERGY PREDICTED BY IDOCK:   -1.41 KCAL/MOL
REMARK 927      BINDING AFFINITY PREDICTED BY RF-SCORE:    0.00 PKD
ROOT
HETATM    1  O   UNL     1     -12.419  13.734  71.280  1.00  0.00    -0.349 OA 
HETATM    2  C   UNL     1     -12.663  12.413  71.111  1.00  0.00    -0.240 C  
HETATM    3  C   UNL     1     -12.238  11.908  69.735  1.00  0.00    -0.174 C  
HETATM    4  O   UNL     1     -13.207  11.717  71.956  1.00  0.00    -0.506 OA 
ENDROOT
BRANCH   3   5
HETATM    5  N   UNL     1     -11.043  12.639  69.187  1.00  0.00    -0.228 NA 
BRANCH   5   6
HETATM    6  C   UNL     1     -10.013  11.637  68.753  1.00  0.00    -0.135 C  
BRANCH   6   7
HETATM    7  C   UNL     1     -10.353  10.162  69.128  1.00  0.00    -0.219 C  
BRANCH   7   8
HETATM    8  N   UNL     1      -9.441   9.103  68.570  1.00  0.00    -0.145 NA 
BRANCH   8   9
HETATM    9  C   UNL     1     -10.224   7.802  68.542  1.00  0.00    -0.204 C  
HETATM   10  O   UNL     1      -9.330   7.520  66.328  1.00  0.00    -0.172 OA 
HETATM   11  C   UNL     1     -10.383   7.241  67.131  1.00  0.00    -0.297 C  
HETATM   12  O   UNL     1     -11.345   6.585  66.761  1.00  0.00    -0.272 OA 
ENDBRANCH   8   9
BRANCH   8  13
HETATM   13  C   UNL     1      -8.303   8.910  69.545  1.00  0.00    -0.119 C  
HETATM   14  O   UNL     1      -6.864   9.279  67.664  1.00  0.00    -0.074 OA 
HETATM   15  O   UNL     1      -6.078   7.961  69.331  1.00  0.00    -0.033 OA 
HETATM   16  C   UNL     1      -6.973   8.637  68.851  1.00  0.00    -0.062 C  
ENDBRANCH   8  13
ENDBRANCH   7   8
ENDBRANCH   6   7
ENDBRANCH   5   6
BRANCH   5  17
HETATM   17  C   UNL     1     -11.470  13.426  67.986  1.00  0.00    -0.304 C  
BRANCH  17  18
HETATM   18  C   UNL     1     -11.899  12.617  66.729  1.00  0.00    -0.370 C  
BRANCH  18  19
HETATM   19  N   UNL     1     -11.680  13.318  65.409  1.00  0.00    -0.329 NA 
BRANCH  19  20
HETATM   20  C   UNL     1     -10.387  12.780  64.823  1.00  0.00    -0.322 C  
HETATM   21  O   UNL     1      -9.831  10.773  63.571  1.00  0.00    -0.298 OA 
HETATM   22  O   UNL     1     -11.795  11.811  63.131  1.00  0.00    -0.320 OA 
HETATM   23  C   UNL     1     -10.625  11.673  63.799  1.00  0.00    -0.416 C  
ENDBRANCH  19  20
BRANCH  19  24
HETATM   24  C   UNL     1     -11.453  14.787  65.693  1.00  0.00    -0.327 C  
HETATM   25  C   UNL     1     -11.754  15.677  64.492  1.00  0.00    -0.220 C  
HETATM   26  O   UNL     1     -11.210  16.750  64.283  1.00  0.00    -1.163 OA 
HETATM   27  O   UNL     1     -12.749  15.189  63.714  1.00  0.00    -0.722 OA 
ENDBRANCH  19  24
ENDBRANCH  18  19
ENDBRANCH  17  18
ENDBRANCH   5  17
ENDBRANCH   3   5
TORSDOF 11
ENDMDL
MODEL      152
REMARK 921   NORMALIZED FREE ENERGY PREDICTED BY IDOCK:   -4.67 KCAL/MOL
REMARK 922        TOTAL FREE ENERGY PREDICTED BY IDOCK:   -9.41 KCAL/MOL
REMARK 923 INTER-LIGAND FREE ENERGY PREDICTED BY IDOCK:   -7.80 KCAL/MOL
REMARK 924 INTRA-LIGAND FREE ENERGY PREDICTED BY IDOCK:   -1.61 KCAL/MOL
REMARK 927      BINDING AFFINITY PREDICTED BY RF-SCORE:    0.00 PKD
ROOT
HETATM    1  O   UNL     1     -13.292  11.593  72.132  1.00  0.00    -0.491 OA 
HETATM    2  C   UNL     1     -13.256  10.254  71.941  1.00  0.00    -0.445 C  
HETATM    3  C   UNL     1     -12.720   9.871  70.564  1.00  0.00    -0.064 C  
HETATM    4  O   UNL     1     -13.654   9.446  72.768  1.00  0.00    -0.355 OA 
ENDROOT
BRANCH   3   5
HETATM    5  N   UNL     1     -11.695  10.842  70.045  1.00  0.00    -0.313 NA 
BRANCH   5   6
HETATM    6  C   UNL     1     -10.359  10.160  69.989  1.00  0.00    -0.250 C  
BRANCH   6   7
HETATM    7  C   UNL     1     -10.157   9.243  68.745  1.00  0.00    -0.195 C  
BRANCH   7   8
HETATM    8  N   UNL     1      -9.646   7.854  69.015  1.00  0.00    -0.154 NA 
BRANCH   8   9
HETATM    9  C   UNL     1      -9.904   7.555  70.481  1.00  0.00    -0.183 C  
HETATM   10  O   UNL     1     -11.103   5.626  69.692  1.00  0.00    -0.328 OA 
HETATM   11  C   UNL     1     -11.027   6.540  70.687  1.00  0.00    -0.287 C  
HETATM   12  O   UNL     1     -11.769   6.531  71.657  1.00  0.00    -0.296 OA 
ENDBRANCH   8   9
BRANCH   8  13
HETATM   13  C   UNL     1      -8.147   7.865  68.826  1.00  0.00    -0.126 C  
HETATM   14  O   UNL     1      -8.487   5.945  67.432  1.00  0.00    -0.105 OA 
HETATM   15  O   UNL     1      -6.501   6.108  68.511  1.00  0.00    -0.048 OA 
HETATM   16  C   UNL     1      -7.614   6.548  68.272  1.00  0.00    -0.104 C  
ENDBRANCH   8  13
ENDBRANCH   7   8
ENDBRANCH   6   7
ENDBRANCH   5   6
BRANCH   5  17
HETATM   17  C   UNL     1     -12.077  11.246  68.654  1.00  0.00    -0.141 C  
BRANCH  17  18
HETATM   18  C   UNL     1     -11.506  12.593  68.129  1.00  0.00    -0.313 C  
BRANCH  18  19
HETATM   19  N   UNL     1     -11.317  12.671  66.632  1.00  0.00    -0.308 NA 
BRANCH  19  20
HETATM   20  C   UNL     1      -9.822  12.692  66.368  1.00  0.00    -0.259 C  
HETATM   21  O   UNL     1      -8.161  10.948  66.041  1.00  0.00    -0.159 OA 
HETATM   22  O   UNL     1     -10.216  10.665  65.135  1.00  0.00    -0.296 OA 
HETATM   23  C   UNL     1      -9.299  11.352  65.857  1.00  0.00    -0.228 C  
ENDBRANCH  19  20
BRANCH  19  24
HETATM   24  C   UNL     1     -11.862  14.001  66.161  1.00  0.00    -0.407 C  
HETATM   25  C   UNL     1     -12.581  13.908  64.820  1.00  0.00    -0.295 C  
HETATM   26  O   UNL     1     -12.656  14.826  64.019  1.00  0.00    -0.822 OA 
HETATM   27  O   UNL     1     -13.198  12.716  64.639  1.00  0.00    -0.828 OA 
ENDBRANCH  19  24
ENDBRANCH  18  19
ENDBRANCH  17  18
ENDBRANCH   5  17
ENDBRANCH   3   5
TORSDOF 11
ENDMDL
MODEL      153
REMARK 921   NORMALIZED FREE ENERGY PREDICTED BY IDOCK:   -4.66 KCAL/MOL
REMARK 922        TOTAL FREE ENERGY PREDICTED BY IDOCK:   -9.41 KCAL/MOL
REMARK 923 INTER-LIGAND FREE ENERGY PREDICTED BY IDOCK:   -7.90 KCAL/MOL
REMARK 924 INTRA-LIGAND FREE ENERGY PREDICTED BY IDOCK:   -1.50 KCAL/MOL
REMARK 927      BINDING AFFINITY PREDICTED BY RF-SCORE:    0.00 PKD
ROOT
HETATM    1  O   UNL     1     -10.731   9.138  66.993  1.00  0.00    -0.234 OA 
HETATM    2  C   UNL     1      -9.633   9.649  67.596  1.00  0.00    -0.142 C  
HETATM    3  C   UNL     1      -9.929  10.934  68.366  1.00  0.00    -0.178 C  
HETATM    4  O   UNL     1      -8.519   9.156  67.494  1.00  0.00    -0.115 OA 
ENDROOT
BRANCH   3   5
HETATM    5  N   UNL     1     -11.319  10.963  68.940  1.00  0.00    -0.264 NA 
BRANCH   5   6
HETATM    6  C   UNL     1     -11.244  10.702  70.417  1.00  0.00    -0.252 C  
BRANCH   6   7
HETATM    7  C   UNL     1     -11.962   9.397  70.877  1.00  0.00    -0.280 C  
BRANCH   7   8
HETATM    8  N   UNL     1     -11.076   8.225  71.203  1.00  0.00    -0.243 NA 
BRANCH   8   9
HETATM    9  C   UNL     1     -11.646   7.015  70.484  1.00  0.00    -0.319 C  
HETATM   10  O   UNL     1      -9.445   6.759  69.550  1.00  0.00    -0.149 OA 
HETATM   11  C   UNL     1     -10.764   6.548  69.328  1.00  0.00    -0.280 C  
HETATM   12  O   UNL     1     -11.191   6.014  68.316  1.00  0.00    -0.273 OA 
ENDBRANCH   8   9
BRANCH   8  13
HETATM   13  C   UNL     1     -11.195   7.953  72.684  1.00  0.00    -0.398 C  
HETATM   14  O   UNL     1      -8.860   8.487  72.789  1.00  0.00    -0.315 OA 
HETATM   15  O   UNL     1      -9.664   7.033  74.330  1.00  0.00    -0.275 OA 
HETATM   16  C   UNL     1      -9.841   7.744  73.355  1.00  0.00    -0.283 C  
ENDBRANCH   8  13
ENDBRANCH   7   8
ENDBRANCH   6   7
ENDBRANCH   5   6
BRANCH   5  17
HETATM   17  C   UNL     1     -11.896  12.330  68.733  1.00  0.00    -0.306 C  
BRANCH  17  18
HETATM   18  C   UNL     1     -10.895  13.520  68.698  1.00  0.00    -0.259 C  
BRANCH  18  19
HETATM   19  N   UNL     1     -11.034  14.441  67.509  1.00  0.00    -0.286 NA 
BRANCH  19  20
HETATM   20  C   UNL     1     -11.404  15.813  68.044  1.00  0.00    -0.310 C  
HETATM   21  O   UNL     1     -10.185  17.905  68.256  1.00  0.00    -0.347 OA 
HETATM   22  O   UNL     1      -9.855  16.646  66.404  1.00  0.00    -0.261 OA 
HETATM   23  C   UNL     1     -10.419  16.896  67.609  1.00  0.00    -0.332 C  
ENDBRANCH  19  20
BRANCH  19  24
HETATM   24  C   UNL     1     -12.208  13.963  66.683  1.00  0.00    -0.424 C  
HETATM   25  C   UNL     1     -11.945  14.030  65.182  1.00  0.00    -0.387 C  
HETATM   26  O   UNL     1     -12.817  14.191  64.343  1.00  0.00    -0.626 OA 
HETATM   27  O   UNL     1     -10.646  13.816  64.868  1.00  0.00    -0.365 OA 
ENDBRANCH  19  24
ENDBRANCH  18  19
ENDBRANCH  17  18
ENDBRANCH   5  17
ENDBRANCH   3   5
TORSDOF 11
ENDMDL
MODEL      154
REMARK 921   NORMALIZED FREE ENERGY PREDICTED BY IDOCK:   -4.65 KCAL/MOL
REMARK 922        TOTAL FREE ENERGY PREDICTED BY IDOCK:   -9.38 KCAL/MOL
REMARK 923 INTER-LIGAND FREE ENERGY PREDICTED BY IDOCK:   -7.96 KCAL/MOL
REMARK 924 INTRA-LIGAND FREE ENERGY PREDICTED BY IDOCK:   -1.42 KCAL/MOL
REMARK 927      BINDING AFFINITY PREDICTED BY RF-SCORE:    0.00 PKD
ROOT
HETATM    1  O   UNL     1     -10.704  11.091  63.791  1.00  0.00    -0.362 OA 
HETATM    2  C   UNL     1      -9.671  10.222  63.889  1.00  0.00    -0.261 C  
HETATM    3  C   UNL     1      -9.234   9.987  65.333  1.00  0.00    -0.210 C  
HETATM    4  O   UNL     1      -9.122   9.720  62.919  1.00  0.00    -0.250 OA 
ENDROOT
BRANCH   3   5
HETATM    5  N   UNL     1     -10.375  10.083  66.310  1.00  0.00    -0.200 NA 
BRANCH   5   6
HETATM    6  C   UNL     1     -10.410   8.834  67.142  1.00  0.00    -0.293 C  
BRANCH   6   7
HETATM    7  C   UNL     1      -9.539   8.895  68.433  1.00  0.00    -0.146 C  
BRANCH   7   8
HETATM    8  N   UNL     1     -10.071   8.163  69.635  1.00  0.00    -0.194 NA 
BRANCH   8   9
HETATM    9  C   UNL     1     -10.719   6.884  69.134  1.00  0.00    -0.234 C  
HETATM   10  O   UNL     1      -9.337   5.764  70.751  1.00  0.00    -0.159 OA 
HETATM   11  C   UNL     1      -9.950   5.632  69.552  1.00  0.00    -0.198 C  
HETATM   12  O   UNL     1      -9.908   4.605  68.893  1.00  0.00    -0.170 OA 
ENDBRANCH   8   9
BRANCH   8  13
HETATM   13  C   UNL     1     -11.171   9.004  70.241  1.00  0.00    -0.205 C  
HETATM   14  O   UNL     1     -10.112   8.553  72.344  1.00  0.00    -0.305 OA 
HETATM   15  O   UNL     1     -12.349   8.915  72.362  1.00  0.00    -0.367 OA 
HETATM   16  C   UNL     1     -11.301   8.805  71.747  1.00  0.00    -0.339 C  
ENDBRANCH   8  13
ENDBRANCH   7   8
ENDBRANCH   6   7
ENDBRANCH   5   6
BRANCH   5  17
HETATM   17  C   UNL     1     -10.131  11.248  67.219  1.00  0.00    -0.186 C  
BRANCH  17  18
HETATM   18  C   UNL     1     -11.369  12.094  67.628  1.00  0.00    -0.314 C  
BRANCH  18  19
HETATM   19  N   UNL     1     -11.466  13.451  66.970  1.00  0.00    -0.321 NA 
BRANCH  19  20
HETATM   20  C   UNL     1     -12.263  14.347  67.901  1.00  0.00    -0.143 C  
HETATM   21  O   UNL     1     -11.637  16.035  69.533  1.00  0.00    -0.330 OA 
HETATM   22  O   UNL     1     -10.467  15.917  67.598  1.00  0.00    -0.275 OA 
HETATM   23  C   UNL     1     -11.434  15.504  68.451  1.00  0.00    -0.363 C  
ENDBRANCH  19  20
BRANCH  19  24
HETATM   24  C   UNL     1     -12.283  13.298  65.705  1.00  0.00    -0.456 C  
HETATM   25  C   UNL     1     -11.862  14.268  64.606  1.00  0.00    -0.448 C  
HETATM   26  O   UNL     1     -12.616  14.693  63.745  1.00  0.00    -0.820 OA 
HETATM   27  O   UNL     1     -10.539  14.554  64.638  1.00  0.00    -0.405 OA 
ENDBRANCH  19  24
ENDBRANCH  18  19
ENDBRANCH  17  18
ENDBRANCH   5  17
ENDBRANCH   3   5
TORSDOF 11
ENDMDL
MODEL      155
REMARK 921   NORMALIZED FREE ENERGY PREDICTED BY IDOCK:   -4.65 KCAL/MOL
REMARK 922        TOTAL FREE ENERGY PREDICTED BY IDOCK:   -9.38 KCAL/MOL
REMARK 923 INTER-LIGAND FREE ENERGY PREDICTED BY IDOCK:   -8.25 KCAL/MOL
REMARK 924 INTRA-LIGAND FREE ENERGY PREDICTED BY IDOCK:   -1.12 KCAL/MOL
REMARK 927      BINDING AFFINITY PREDICTED BY RF-SCORE:    0.00 PKD
ROOT
HETATM    1  O   UNL     1      -8.093  11.287  68.863  1.00  0.00    -0.140 OA 
HETATM    2  C   UNL     1      -8.204  11.593  67.550  1.00  0.00    -0.148 C  
HETATM    3  C   UNL     1      -9.647  11.538  67.054  1.00  0.00    -0.185 C  
HETATM    4  O   UNL     1      -7.245  11.841  66.834  1.00  0.00    -0.144 OA 
ENDROOT
BRANCH   3   5
HETATM    5  N   UNL     1     -10.644  11.918  68.114  1.00  0.00    -0.201 NA 
BRANCH   5   6
HETATM    6  C   UNL     1     -11.555  12.980  67.570  1.00  0.00    -0.356 C  
BRANCH   6   7
HETATM    7  C   UNL     1     -10.985  14.428  67.666  1.00  0.00    -0.286 C  
BRANCH   7   8
HETATM    8  N   UNL     1     -11.009  15.242  66.401  1.00  0.00    -0.318 NA 
BRANCH   8   9
HETATM    9  C   UNL     1     -11.034  14.266  65.237  1.00  0.00    -0.343 C  
HETATM   10  O   UNL     1     -12.191  16.001  64.041  1.00  0.00    -0.792 OA 
HETATM   11  C   UNL     1     -12.041  14.661  64.159  1.00  0.00    -0.320 C  
HETATM   12  O   UNL     1     -12.635  13.860  63.453  1.00  0.00    -0.853 OA 
ENDBRANCH   8   9
BRANCH   8  13
HETATM   13  C   UNL     1      -9.705  15.998  66.311  1.00  0.00    -0.306 C  
HETATM   14  O   UNL     1     -10.879  17.794  67.382  1.00  0.00    -0.318 OA 
HETATM   15  O   UNL     1      -9.167  18.346  66.004  1.00  0.00    -0.505 OA 
HETATM   16  C   UNL     1      -9.880  17.500  66.516  1.00  0.00    -0.310 C  
ENDBRANCH   8  13
ENDBRANCH   7   8
ENDBRANCH   6   7
ENDBRANCH   5   6
BRANCH   5  17
HETATM   17  C   UNL     1     -11.471  10.715  68.450  1.00  0.00    -0.259 C  
BRANCH  17  18
HETATM   18  C   UNL     1     -11.365  10.169  69.902  1.00  0.00    -0.275 C  
BRANCH  18  19
HETATM   19  N   UNL     1     -11.013   8.704  70.013  1.00  0.00    -0.234 NA 
BRANCH  19  20
HETATM   20  C   UNL     1     -10.203   8.532  71.286  1.00  0.00    -0.223 C  
HETATM   21  O   UNL     1     -10.743   7.712  73.509  1.00  0.00    -0.348 OA 
HETATM   22  O   UNL     1     -11.662   6.671  71.721  1.00  0.00    -0.286 OA 
HETATM   23  C   UNL     1     -10.892   7.623  72.300  1.00  0.00    -0.267 C  
ENDBRANCH  19  20
BRANCH  19  24
HETATM   24  C   UNL     1     -10.096   8.356  68.862  1.00  0.00    -0.199 C  
HETATM   25  C   UNL     1     -10.125   6.873  68.506  1.00  0.00    -0.161 C  
HETATM   26  O   UNL     1      -9.185   6.270  68.014  1.00  0.00    -0.119 OA 
HETATM   27  O   UNL     1     -11.335   6.306  68.725  1.00  0.00    -0.356 OA 
ENDBRANCH  19  24
ENDBRANCH  18  19
ENDBRANCH  17  18
ENDBRANCH   5  17
ENDBRANCH   3   5
TORSDOF 11
ENDMDL
MODEL      156
REMARK 921   NORMALIZED FREE ENERGY PREDICTED BY IDOCK:   -4.64 KCAL/MOL
REMARK 922        TOTAL FREE ENERGY PREDICTED BY IDOCK:   -9.36 KCAL/MOL
REMARK 923 INTER-LIGAND FREE ENERGY PREDICTED BY IDOCK:   -8.22 KCAL/MOL
REMARK 924 INTRA-LIGAND FREE ENERGY PREDICTED BY IDOCK:   -1.14 KCAL/MOL
REMARK 927      BINDING AFFINITY PREDICTED BY RF-SCORE:    0.00 PKD
ROOT
HETATM    1  O   UNL     1      -8.638  10.236  65.354  1.00  0.00    -0.146 OA 
HETATM    2  C   UNL     1      -9.938  10.607  65.302  1.00  0.00    -0.294 C  
HETATM    3  C   UNL     1     -10.601  10.621  66.677  1.00  0.00    -0.214 C  
HETATM    4  O   UNL     1     -10.524  10.859  64.258  1.00  0.00    -0.362 OA 
ENDROOT
BRANCH   3   5
HETATM    5  N   UNL     1      -9.646  10.981  67.782  1.00  0.00    -0.167 NA 
BRANCH   5   6
HETATM    6  C   UNL     1      -9.547  12.477  67.874  1.00  0.00    -0.206 C  
BRANCH   6   7
HETATM    7  C   UNL     1     -10.915  13.219  67.784  1.00  0.00    -0.258 C  
BRANCH   7   8
HETATM    8  N   UNL     1     -10.874  14.641  67.294  1.00  0.00    -0.298 NA 
BRANCH   8   9
HETATM    9  C   UNL     1     -11.911  15.420  68.084  1.00  0.00    -0.160 C  
HETATM   10  O   UNL     1     -10.179  15.707  69.728  1.00  0.00    -0.273 OA 
HETATM   11  C   UNL     1     -11.517  15.606  69.549  1.00  0.00    -0.344 C  
HETATM   12  O   UNL     1     -12.319  15.683  70.467  1.00  0.00    -0.397 OA 
ENDBRANCH   8   9
BRANCH   8  13
HETATM   13  C   UNL     1     -11.325  14.648  65.853  1.00  0.00    -0.338 C  
HETATM   14  O   UNL     1      -9.694  16.376  65.537  1.00  0.00    -0.505 OA 
HETATM   15  O   UNL     1     -11.509  16.399  64.181  1.00  0.00    -0.951 OA 
HETATM   16  C   UNL     1     -10.887  15.903  65.105  1.00  0.00    -0.421 C  
ENDBRANCH   8  13
ENDBRANCH   7   8
ENDBRANCH   6   7
ENDBRANCH   5   6
BRANCH   5  17
HETATM   17  C   UNL     1     -10.194  10.465  69.077  1.00  0.00    -0.217 C  
BRANCH  17  18
HETATM   18  C   UNL     1      -9.640   9.103  69.583  1.00  0.00    -0.176 C  
BRANCH  18  19
HETATM   19  N   UNL     1     -10.594   8.298  70.434  1.00  0.00    -0.219 NA 
BRANCH  19  20
HETATM   20  C   UNL     1     -11.149   7.187  69.561  1.00  0.00    -0.141 C  
HETATM   21  O   UNL     1     -10.534   4.859  69.233  1.00  0.00    -0.145 OA 
HETATM   22  O   UNL     1     -10.432   5.719  71.325  1.00  0.00    -0.217 OA 
HETATM   23  C   UNL     1     -10.665   5.806  69.994  1.00  0.00    -0.330 C  
ENDBRANCH  19  20
BRANCH  19  24
HETATM   24  C   UNL     1     -11.761   9.191  70.798  1.00  0.00    -0.256 C  
HETATM   25  C   UNL     1     -12.497   8.726  72.050  1.00  0.00    -0.386 C  
HETATM   26  O   UNL     1     -13.682   8.928  72.261  1.00  0.00    -0.424 OA 
HETATM   27  O   UNL     1     -11.677   8.127  72.947  1.00  0.00    -0.373 OA 
ENDBRANCH  19  24
ENDBRANCH  18  19
ENDBRANCH  17  18
ENDBRANCH   5  17
ENDBRANCH   3   5
TORSDOF 11
ENDMDL
MODEL      157
REMARK 921   NORMALIZED FREE ENERGY PREDICTED BY IDOCK:   -4.64 KCAL/MOL
REMARK 922        TOTAL FREE ENERGY PREDICTED BY IDOCK:   -9.36 KCAL/MOL
REMARK 923 INTER-LIGAND FREE ENERGY PREDICTED BY IDOCK:   -8.13 KCAL/MOL
REMARK 924 INTRA-LIGAND FREE ENERGY PREDICTED BY IDOCK:   -1.22 KCAL/MOL
REMARK 927      BINDING AFFINITY PREDICTED BY RF-SCORE:    0.00 PKD
ROOT
HETATM    1  O   UNL     1     -13.134  13.836  65.444  1.00  0.00    -0.727 OA 
HETATM    2  C   UNL     1     -12.370  14.363  64.458  1.00  0.00    -0.418 C  
HETATM    3  C   UNL     1     -11.257  15.260  64.993  1.00  0.00    -0.403 C  
HETATM    4  O   UNL     1     -12.584  14.174  63.270  1.00  0.00    -0.766 OA 
ENDROOT
BRANCH   3   5
HETATM    5  N   UNL     1     -10.744  14.815  66.336  1.00  0.00    -0.306 NA 
BRANCH   5   6
HETATM    6  C   UNL     1      -9.820  13.648  66.144  1.00  0.00    -0.293 C  
BRANCH   6   7
HETATM    7  C   UNL     1     -10.069  12.462  67.124  1.00  0.00    -0.213 C  
BRANCH   7   8
HETATM    8  N   UNL     1     -10.045  11.082  66.525  1.00  0.00    -0.218 NA 
BRANCH   8   9
HETATM    9  C   UNL     1     -10.656  11.182  65.138  1.00  0.00    -0.253 C  
HETATM   10  O   UNL     1      -9.022   9.539  64.497  1.00  0.00    -0.214 OA 
HETATM   11  C   UNL     1      -9.758  10.585  64.055  1.00  0.00    -0.323 C  
HETATM   12  O   UNL     1      -9.721  10.985  62.902  1.00  0.00    -0.319 OA 
ENDBRANCH   8   9
BRANCH   8  13
HETATM   13  C   UNL     1     -10.960  10.204  67.345  1.00  0.00    -0.229 C  
HETATM   14  O   UNL     1      -9.008   8.884  67.784  1.00  0.00    -0.134 OA 
HETATM   15  O   UNL     1     -11.008   7.818  67.793  1.00  0.00    -0.088 OA 
HETATM   16  C   UNL     1     -10.354   8.836  67.642  1.00  0.00    -0.254 C  
ENDBRANCH   8  13
ENDBRANCH   7   8
ENDBRANCH   6   7
ENDBRANCH   5   6
BRANCH   5  17
HETATM   17  C   UNL     1      -9.963  15.938  66.948  1.00  0.00    -0.249 C  
BRANCH  17  18
HETATM   18  C   UNL     1      -8.711  16.432  66.169  1.00  0.00    -0.312 C  
BRANCH  18  19
HETATM   19  N   UNL     1      -7.876  17.467  66.886  1.00  0.00    -0.211 NA 
BRANCH  19  20
HETATM   20  C   UNL     1      -6.682  17.774  66.000  1.00  0.00    -0.281 C  
HETATM   21  O   UNL     1      -6.266  19.443  64.283  1.00  0.00    -0.411 OA 
HETATM   22  O   UNL     1      -7.437  20.054  66.121  1.00  0.00    -0.285 OA 
HETATM   23  C   UNL     1      -6.772  19.156  65.357  1.00  0.00    -0.244 C  
ENDBRANCH  19  20
BRANCH  19  24
HETATM   24  C   UNL     1      -7.331  16.834  68.148  1.00  0.00    -0.173 C  
HETATM   25  C   UNL     1      -6.749  17.854  69.121  1.00  0.00    -0.239 C  
HETATM   26  O   UNL     1      -5.849  17.610  69.909  1.00  0.00    -0.242 OA 
HETATM   27  O   UNL     1      -7.387  19.047  69.072  1.00  0.00    -0.329 OA 
ENDBRANCH  19  24
ENDBRANCH  18  19
ENDBRANCH  17  18
ENDBRANCH   5  17
ENDBRANCH   3   5
TORSDOF 11
ENDMDL
MODEL      158
REMARK 921   NORMALIZED FREE ENERGY PREDICTED BY IDOCK:   -4.63 KCAL/MOL
REMARK 922        TOTAL FREE ENERGY PREDICTED BY IDOCK:   -9.35 KCAL/MOL
REMARK 923 INTER-LIGAND FREE ENERGY PREDICTED BY IDOCK:   -8.09 KCAL/MOL
REMARK 924 INTRA-LIGAND FREE ENERGY PREDICTED BY IDOCK:   -1.26 KCAL/MOL
REMARK 927      BINDING AFFINITY PREDICTED BY RF-SCORE:    0.00 PKD
ROOT
HETATM    1  O   UNL     1     -13.025   9.975  71.658  1.00  0.00    -0.379 OA 
HETATM    2  C   UNL     1     -12.892  11.301  71.420  1.00  0.00    -0.410 C  
HETATM    3  C   UNL     1     -11.816  11.607  70.380  1.00  0.00    -0.293 C  
HETATM    4  O   UNL     1     -13.534  12.157  72.010  1.00  0.00    -0.456 OA 
ENDROOT
BRANCH   3   5
HETATM    5  N   UNL     1     -11.686  10.527  69.340  1.00  0.00    -0.249 NA 
BRANCH   5   6
HETATM    6  C   UNL     1     -11.890  11.131  67.981  1.00  0.00    -0.126 C  
BRANCH   6   7
HETATM    7  C   UNL     1     -11.790  12.686  67.946  1.00  0.00    -0.332 C  
BRANCH   7   8
HETATM    8  N   UNL     1     -11.419  13.302  66.625  1.00  0.00    -0.332 NA 
BRANCH   8   9
HETATM    9  C   UNL     1     -11.685  14.794  66.733  1.00  0.00    -0.298 C  
HETATM   10  O   UNL     1      -9.306  15.052  66.499  1.00  0.00    -0.246 OA 
HETATM   11  C   UNL     1     -10.421  15.596  67.039  1.00  0.00    -0.303 C  
HETATM   12  O   UNL     1     -10.411  16.636  67.680  1.00  0.00    -0.304 OA 
ENDBRANCH   8   9
BRANCH   8  13
HETATM   13  C   UNL     1     -12.366  12.763  65.579  1.00  0.00    -0.434 C  
HETATM   14  O   UNL     1     -10.546  13.042  64.044  1.00  0.00    -0.412 OA 
HETATM   15  O   UNL     1     -12.646  13.206  63.208  1.00  0.00    -0.700 OA 
HETATM   16  C   UNL     1     -11.895  13.047  64.156  1.00  0.00    -0.416 C  
ENDBRANCH   8  13
ENDBRANCH   7   8
ENDBRANCH   6   7
ENDBRANCH   5   6
BRANCH   5  17
HETATM   17  C   UNL     1     -10.299   9.965  69.403  1.00  0.00    -0.222 C  
BRANCH  17  18
HETATM   18  C   UNL     1      -9.826   9.403  70.774  1.00  0.00    -0.279 C  
BRANCH  18  19
HETATM   19  N   UNL     1     -10.067   7.927  70.981  1.00  0.00    -0.192 NA 
BRANCH  19  20
HETATM   20  C   UNL     1      -9.195   7.487  72.143  1.00  0.00    -0.136 C  
HETATM   21  O   UNL     1      -9.635   7.079  74.498  1.00  0.00    -0.226 OA 
HETATM   22  O   UNL     1     -11.191   6.442  72.983  1.00  0.00    -0.229 OA 
HETATM   23  C   UNL     1     -10.012   7.005  73.339  1.00  0.00    -0.259 C  
ENDBRANCH  19  20
BRANCH  19  24
HETATM   24  C   UNL     1      -9.562   7.196  69.756  1.00  0.00    -0.155 C  
HETATM   25  C   UNL     1     -10.499   6.082  69.300  1.00  0.00    -0.264 C  
HETATM   26  O   UNL     1     -10.130   5.077  68.713  1.00  0.00    -0.170 OA 
HETATM   27  O   UNL     1     -11.801   6.358  69.550  1.00  0.00    -0.274 OA 
ENDBRANCH  19  24
ENDBRANCH  18  19
ENDBRANCH  17  18
ENDBRANCH   5  17
ENDBRANCH   3   5
TORSDOF 11
ENDMDL
MODEL      159
REMARK 921   NORMALIZED FREE ENERGY PREDICTED BY IDOCK:   -4.63 KCAL/MOL
REMARK 922        TOTAL FREE ENERGY PREDICTED BY IDOCK:   -9.35 KCAL/MOL
REMARK 923 INTER-LIGAND FREE ENERGY PREDICTED BY IDOCK:   -7.69 KCAL/MOL
REMARK 924 INTRA-LIGAND FREE ENERGY PREDICTED BY IDOCK:   -1.66 KCAL/MOL
REMARK 927      BINDING AFFINITY PREDICTED BY RF-SCORE:    0.00 PKD
ROOT
HETATM    1  O   UNL     1      -5.819  12.278  66.818  1.00  0.00    -0.283 OA 
HETATM    2  C   UNL     1      -6.221  12.141  68.103  1.00  0.00    -0.055 C  
HETATM    3  C   UNL     1      -7.645  11.601  68.219  1.00  0.00    -0.120 C  
HETATM    4  O   UNL     1      -5.532  12.459  69.060  1.00  0.00    -0.062 OA 
ENDROOT
BRANCH   3   5
HETATM    5  N   UNL     1      -8.008  10.665  67.098  1.00  0.00    -0.119 NA 
BRANCH   5   6
HETATM    6  C   UNL     1      -8.175   9.280  67.653  1.00  0.00    -0.115 C  
BRANCH   6   7
HETATM    7  C   UNL     1      -8.499   9.232  69.177  1.00  0.00    -0.133 C  
BRANCH   7   8
HETATM    8  N   UNL     1      -9.868   8.736  69.554  1.00  0.00    -0.176 NA 
BRANCH   8   9
HETATM    9  C   UNL     1     -10.460   8.067  68.326  1.00  0.00    -0.161 C  
HETATM   10  O   UNL     1     -11.380   6.464  69.864  1.00  0.00    -0.380 OA 
HETATM   11  C   UNL     1     -10.926   6.639  68.600  1.00  0.00    -0.251 C  
HETATM   12  O   UNL     1     -10.919   5.746  67.767  1.00  0.00    -0.236 OA 
ENDBRANCH   8   9
BRANCH   8  13
HETATM   13  C   UNL     1     -10.730   9.939  69.856  1.00  0.00    -0.280 C  
HETATM   14  O   UNL     1     -10.943   9.011  72.056  1.00  0.00    -0.358 OA 
HETATM   15  O   UNL     1     -12.658  10.280  71.293  1.00  0.00    -0.345 OA 
HETATM   16  C   UNL     1     -11.568   9.761  71.118  1.00  0.00    -0.392 C  
ENDBRANCH   8  13
ENDBRANCH   7   8
ENDBRANCH   6   7
ENDBRANCH   5   6
BRANCH   5  17
HETATM   17  C   UNL     1      -9.317  11.100  66.514  1.00  0.00    -0.180 C  
BRANCH  17  18
HETATM   18  C   UNL     1      -9.454  12.600  66.127  1.00  0.00    -0.175 C  
BRANCH  18  19
HETATM   19  N   UNL     1     -10.831  13.024  65.675  1.00  0.00    -0.271 NA 
BRANCH  19  20
HETATM   20  C   UNL     1     -11.790  12.721  66.812  1.00  0.00    -0.382 C  
HETATM   21  O   UNL     1     -12.128  13.693  69.014  1.00  0.00    -0.344 OA 
HETATM   22  O   UNL     1     -11.654  15.075  67.285  1.00  0.00    -0.343 OA 
HETATM   23  C   UNL     1     -11.866  13.855  67.832  1.00  0.00    -0.378 C  
ENDBRANCH  19  20
BRANCH  19  24
HETATM   24  C   UNL     1     -11.235  12.139  64.516  1.00  0.00    -0.331 C  
HETATM   25  C   UNL     1     -12.411  12.698  63.723  1.00  0.00    -0.478 C  
HETATM   26  O   UNL     1     -13.214  12.010  63.114  1.00  0.00    -0.540 OA 
HETATM   27  O   UNL     1     -12.431  14.052  63.701  1.00  0.00    -0.803 OA 
ENDBRANCH  19  24
ENDBRANCH  18  19
ENDBRANCH  17  18
ENDBRANCH   5  17
ENDBRANCH   3   5
TORSDOF 11
ENDMDL
MODEL      160
REMARK 921   NORMALIZED FREE ENERGY PREDICTED BY IDOCK:   -4.63 KCAL/MOL
REMARK 922        TOTAL FREE ENERGY PREDICTED BY IDOCK:   -9.35 KCAL/MOL
REMARK 923 INTER-LIGAND FREE ENERGY PREDICTED BY IDOCK:   -7.69 KCAL/MOL
REMARK 924 INTRA-LIGAND FREE ENERGY PREDICTED BY IDOCK:   -1.67 KCAL/MOL
REMARK 927      BINDING AFFINITY PREDICTED BY RF-SCORE:    0.00 PKD
ROOT
HETATM    1  O   UNL     1      -9.101   9.569  70.474  1.00  0.00    -0.247 OA 
HETATM    2  C   UNL     1     -10.282   8.910  70.450  1.00  0.00    -0.200 C  
HETATM    3  C   UNL     1     -11.479   9.852  70.342  1.00  0.00    -0.301 C  
HETATM    4  O   UNL     1     -10.376   7.695  70.551  1.00  0.00    -0.207 OA 
ENDROOT
BRANCH   3   5
HETATM    5  N   UNL     1     -11.172  11.098  69.556  1.00  0.00    -0.262 NA 
BRANCH   5   6
HETATM    6  C   UNL     1     -11.505  10.859  68.112  1.00  0.00    -0.295 C  
BRANCH   6   7
HETATM    7  C   UNL     1     -10.286  10.451  67.230  1.00  0.00    -0.228 C  
BRANCH   7   8
HETATM    8  N   UNL     1      -9.700  11.528  66.358  1.00  0.00    -0.201 NA 
BRANCH   8   9
HETATM    9  C   UNL     1      -8.859  10.842  65.297  1.00  0.00    -0.187 C  
HETATM   10  O   UNL     1     -10.259  11.980  63.708  1.00  0.00    -0.357 OA 
HETATM   11  C   UNL     1      -9.515  10.869  63.917  1.00  0.00    -0.261 C  
HETATM   12  O   UNL     1      -9.368   9.998  63.074  1.00  0.00    -0.287 OA 
ENDBRANCH   8   9
BRANCH   8  13
HETATM   13  C   UNL     1      -8.755  12.347  67.205  1.00  0.00    -0.191 C  
HETATM   14  O   UNL     1     -10.031  14.243  66.480  1.00  0.00    -0.264 OA 
HETATM   15  O   UNL     1      -7.850  14.590  66.985  1.00  0.00    -0.151 OA 
HETATM   16  C   UNL     1      -8.800  13.834  66.868  1.00  0.00    -0.188 C  
ENDBRANCH   8  13
ENDBRANCH   7   8
ENDBRANCH   6   7
ENDBRANCH   5   6
BRANCH   5  17
HETATM   17  C   UNL     1     -12.038  12.210  70.062  1.00  0.00    -0.277 C  
BRANCH  17  18
HETATM   18  C   UNL     1     -12.090  13.508  69.208  1.00  0.00    -0.288 C  
BRANCH  18  19
HETATM   19  N   UNL     1     -11.822  14.787  69.967  1.00  0.00    -0.292 NA 
BRANCH  19  20
HETATM   20  C   UNL     1     -13.049  15.074  70.812  1.00  0.00    -0.369 C  
HETATM   21  O   UNL     1     -13.644  14.574  73.115  1.00  0.00    -0.591 OA 
HETATM   22  O   UNL     1     -11.508  15.168  72.656  1.00  0.00    -0.403 OA 
HETATM   23  C   UNL     1     -12.787  14.894  72.305  1.00  0.00    -0.333 C  
ENDBRANCH  19  20
BRANCH  19  24
HETATM   24  C   UNL     1     -11.711  15.912  68.961  1.00  0.00    -0.370 C  
HETATM   25  C   UNL     1     -10.473  16.776  69.169  1.00  0.00    -0.343 C  
HETATM   26  O   UNL     1     -10.405  17.957  68.867  1.00  0.00    -0.367 OA 
HETATM   27  O   UNL     1      -9.422  16.077  69.659  1.00  0.00    -0.226 OA 
ENDBRANCH  19  24
ENDBRANCH  18  19
ENDBRANCH  17  18
ENDBRANCH   5  17
ENDBRANCH   3   5
TORSDOF 11
ENDMDL
MODEL      161
REMARK 921   NORMALIZED FREE ENERGY PREDICTED BY IDOCK:   -4.63 KCAL/MOL
REMARK 922        TOTAL FREE ENERGY PREDICTED BY IDOCK:   -9.35 KCAL/MOL
REMARK 923 INTER-LIGAND FREE ENERGY PREDICTED BY IDOCK:   -8.04 KCAL/MOL
REMARK 924 INTRA-LIGAND FREE ENERGY PREDICTED BY IDOCK:   -1.31 KCAL/MOL
REMARK 927      BINDING AFFINITY PREDICTED BY RF-SCORE:    0.00 PKD
ROOT
HETATM    1  O   UNL     1     -13.622  15.527  71.745  1.00  0.00    -0.461 OA 
HETATM    2  C   UNL     1     -12.339  15.930  71.897  1.00  0.00    -0.471 C  
HETATM    3  C   UNL     1     -11.402  15.309  70.864  1.00  0.00    -0.342 C  
HETATM    4  O   UNL     1     -11.970  16.674  72.794  1.00  0.00    -0.504 OA 
ENDROOT
BRANCH   3   5
HETATM    5  N   UNL     1     -12.076  15.057  69.542  1.00  0.00    -0.296 NA 
BRANCH   5   6
HETATM    6  C   UNL     1     -11.378  15.854  68.478  1.00  0.00    -0.374 C  
BRANCH   6   7
HETATM    7  C   UNL     1     -10.256  16.795  69.012  1.00  0.00    -0.310 C  
BRANCH   7   8
HETATM    8  N   UNL     1      -8.956  16.782  68.254  1.00  0.00    -0.221 NA 
BRANCH   8   9
HETATM    9  C   UNL     1      -7.863  16.410  69.240  1.00  0.00    -0.153 C  
HETATM   10  O   UNL     1      -6.990  15.029  67.476  1.00  0.00    -0.174 OA 
HETATM   11  C   UNL     1      -7.090  15.161  68.820  1.00  0.00    -0.117 C  
HETATM   12  O   UNL     1      -6.588  14.372  69.605  1.00  0.00    -0.133 OA 
ENDBRANCH   8   9
BRANCH   8  13
HETATM   13  C   UNL     1      -8.672  18.193  67.796  1.00  0.00    -0.255 C  
HETATM   14  O   UNL     1      -9.316  17.426  65.618  1.00  0.00    -0.496 OA 
HETATM   15  O   UNL     1      -7.819  19.124  65.721  1.00  0.00    -0.450 OA 
HETATM   16  C   UNL     1      -8.526  18.302  66.281  1.00  0.00    -0.191 C  
ENDBRANCH   8  13
ENDBRANCH   7   8
ENDBRANCH   6   7
ENDBRANCH   5   6
BRANCH   5  17
HETATM   17  C   UNL     1     -11.942  13.603  69.205  1.00  0.00    -0.351 C  
BRANCH  17  18
HETATM   18  C   UNL     1     -12.154  12.588  70.363  1.00  0.00    -0.297 C  
BRANCH  18  19
HETATM   19  N   UNL     1     -11.477  11.251  70.177  1.00  0.00    -0.282 NA 
BRANCH  19  20
HETATM   20  C   UNL     1     -11.639  10.863  68.718  1.00  0.00    -0.309 C  
HETATM   21  O   UNL     1     -10.265  11.195  66.741  1.00  0.00    -0.216 OA 
HETATM   22  O   UNL     1      -9.239  10.713  68.701  1.00  0.00    -0.164 OA 
HETATM   23  C   UNL     1     -10.330  10.959  67.938  1.00  0.00    -0.187 C  
ENDBRANCH  19  20
BRANCH  19  24
HETATM   24  C   UNL     1     -12.239  10.225  70.988  1.00  0.00    -0.384 C  
HETATM   25  C   UNL     1     -11.416   8.977  71.291  1.00  0.00    -0.320 C  
HETATM   26  O   UNL     1     -11.896   7.867  71.458  1.00  0.00    -0.272 OA 
HETATM   27  O   UNL     1     -10.096   9.241  71.429  1.00  0.00    -0.314 OA 
ENDBRANCH  19  24
ENDBRANCH  18  19
ENDBRANCH  17  18
ENDBRANCH   5  17
ENDBRANCH   3   5
TORSDOF 11
ENDMDL
MODEL      162
REMARK 921   NORMALIZED FREE ENERGY PREDICTED BY IDOCK:   -4.63 KCAL/MOL
REMARK 922        TOTAL FREE ENERGY PREDICTED BY IDOCK:   -9.34 KCAL/MOL
REMARK 923 INTER-LIGAND FREE ENERGY PREDICTED BY IDOCK:   -8.19 KCAL/MOL
REMARK 924 INTRA-LIGAND FREE ENERGY PREDICTED BY IDOCK:   -1.16 KCAL/MOL
REMARK 927      BINDING AFFINITY PREDICTED BY RF-SCORE:    0.00 PKD
ROOT
HETATM    1  O   UNL     1     -13.120  10.454  70.304  1.00  0.00    -0.216 OA 
HETATM    2  C   UNL     1     -12.314  11.530  70.457  1.00  0.00    -0.342 C  
HETATM    3  C   UNL     1     -11.226  11.607  69.388  1.00  0.00    -0.246 C  
HETATM    4  O   UNL     1     -12.421  12.325  71.379  1.00  0.00    -0.249 OA 
ENDROOT
BRANCH   3   5
HETATM    5  N   UNL     1     -11.667  11.041  68.065  1.00  0.00    -0.582 NA 
BRANCH   5   6
HETATM    6  C   UNL     1     -11.430  12.065  66.993  1.00  0.00    -0.338 C  
BRANCH   6   7
HETATM    7  C   UNL     1     -11.771  13.527  67.412  1.00  0.00    -0.380 C  
BRANCH   7   8
HETATM    8  N   UNL     1     -10.848  14.601  66.904  1.00  0.00    -0.299 NA 
BRANCH   8   9
HETATM    9  C   UNL     1     -11.009  14.659  65.395  1.00  0.00    -0.353 C  
HETATM   10  O   UNL     1     -10.225  16.924  65.578  1.00  0.00    -0.580 OA 
HETATM   11  C   UNL     1     -11.008  16.088  64.857  1.00  0.00    -0.384 C  
HETATM   12  O   UNL     1     -11.625  16.445  63.865  1.00  0.00    -1.100 OA 
ENDBRANCH   8   9
BRANCH   8  13
HETATM   13  C   UNL     1      -9.429  14.161  67.177  1.00  0.00    -0.236 C  
HETATM   14  O   UNL     1      -9.764  15.052  69.377  1.00  0.00    -0.209 OA 
HETATM   15  O   UNL     1      -7.649  15.061  68.563  1.00  0.00    -0.109 OA 
HETATM   16  C   UNL     1      -8.836  14.819  68.419  1.00  0.00    -0.181 C  
ENDBRANCH   8  13
ENDBRANCH   7   8
ENDBRANCH   6   7
ENDBRANCH   5   6
BRANCH   5  17
HETATM   17  C   UNL     1     -10.835   9.835  67.757  1.00  0.00    -0.246 C  
BRANCH  17  18
HETATM   18  C   UNL     1      -9.987   9.247  68.920  1.00  0.00    -0.181 C  
BRANCH  18  19
HETATM   19  N   UNL     1     -10.275   7.803  69.259  1.00  0.00    -0.207 NA 
BRANCH  19  20
HETATM   20  C   UNL     1     -10.181   7.668  70.768  1.00  0.00    -0.201 C  
HETATM   21  O   UNL     1     -11.749   8.070  72.580  1.00  0.00    -0.388 OA 
HETATM   22  O   UNL     1     -12.526   7.147  70.665  1.00  0.00    -0.250 OA 
HETATM   23  C   UNL     1     -11.550   7.672  71.443  1.00  0.00    -0.274 C  
ENDBRANCH  19  20
BRANCH  19  24
HETATM   24  C   UNL     1      -9.166   6.957  68.675  1.00  0.00    -0.130 C  
HETATM   25  C   UNL     1      -9.673   5.910  67.689  1.00  0.00    -0.115 C  
HETATM   26  O   UNL     1      -9.120   4.842  67.481  1.00  0.00    -0.111 OA 
HETATM   27  O   UNL     1     -10.769   6.320  67.007  1.00  0.00    -0.281 OA 
ENDBRANCH  19  24
ENDBRANCH  18  19
ENDBRANCH  17  18
ENDBRANCH   5  17
ENDBRANCH   3   5
TORSDOF 11
ENDMDL
MODEL      163
REMARK 921   NORMALIZED FREE ENERGY PREDICTED BY IDOCK:   -4.61 KCAL/MOL
REMARK 922        TOTAL FREE ENERGY PREDICTED BY IDOCK:   -9.32 KCAL/MOL
REMARK 923 INTER-LIGAND FREE ENERGY PREDICTED BY IDOCK:   -7.95 KCAL/MOL
REMARK 924 INTRA-LIGAND FREE ENERGY PREDICTED BY IDOCK:   -1.37 KCAL/MOL
REMARK 927      BINDING AFFINITY PREDICTED BY RF-SCORE:    0.00 PKD
ROOT
HETATM    1  O   UNL     1      -9.231   9.803  64.698  1.00  0.00    -0.236 OA 
HETATM    2  C   UNL     1     -10.059  10.820  64.364  1.00  0.00    -0.353 C  
HETATM    3  C   UNL     1     -10.926  11.280  65.534  1.00  0.00    -0.131 C  
HETATM    4  O   UNL     1     -10.133  11.285  63.236  1.00  0.00    -0.343 OA 
ENDROOT
BRANCH   3   5
HETATM    5  N   UNL     1     -10.239  11.129  66.864  1.00  0.00    -0.214 NA 
BRANCH   5   6
HETATM    6  C   UNL     1      -9.992  12.492  67.445  1.00  0.00    -0.207 C  
BRANCH   6   7
HETATM    7  C   UNL     1      -9.770  13.612  66.384  1.00  0.00    -0.292 C  
BRANCH   7   8
HETATM    8  N   UNL     1     -10.710  14.786  66.445  1.00  0.00    -0.306 NA 
BRANCH   8   9
HETATM    9  C   UNL     1     -11.053  15.163  65.014  1.00  0.00    -0.419 C  
HETATM   10  O   UNL     1     -13.200  14.175  65.460  1.00  0.00    -0.688 OA 
HETATM   11  C   UNL     1     -12.288  14.430  64.493  1.00  0.00    -0.418 C  
HETATM   12  O   UNL     1     -12.458  14.124  63.323  1.00  0.00    -0.758 OA 
ENDBRANCH   8   9
BRANCH   8  13
HETATM   13  C   UNL     1      -9.956  15.953  67.037  1.00  0.00    -0.247 C  
HETATM   14  O   UNL     1     -11.670  15.981  68.712  1.00  0.00    -0.385 OA 
HETATM   15  O   UNL     1     -10.658  17.949  68.227  1.00  0.00    -0.368 OA 
HETATM   16  C   UNL     1     -10.795  16.754  68.028  1.00  0.00    -0.341 C  
ENDBRANCH   8  13
ENDBRANCH   7   8
ENDBRANCH   6   7
ENDBRANCH   5   6
BRANCH   5  17
HETATM   17  C   UNL     1     -11.147  10.380  67.791  1.00  0.00    -0.299 C  
BRANCH  17  18
HETATM   18  C   UNL     1     -10.728   8.931  68.170  1.00  0.00    -0.092 C  
BRANCH  18  19
HETATM   19  N   UNL     1     -10.165   8.768  69.562  1.00  0.00    -0.203 NA 
BRANCH  19  20
HETATM   20  C   UNL     1     -10.907   9.738  70.464  1.00  0.00    -0.323 C  
HETATM   21  O   UNL     1     -12.949   9.571  71.772  1.00  0.00    -0.352 OA 
HETATM   22  O   UNL     1     -11.570   7.777  71.688  1.00  0.00    -0.253 OA 
HETATM   23  C   UNL     1     -11.929   9.041  71.359  1.00  0.00    -0.332 C  
ENDBRANCH  19  20
BRANCH  19  24
HETATM   24  C   UNL     1      -8.720   9.215  69.536  1.00  0.00    -0.140 C  
HETATM   25  C   UNL     1      -7.755   8.133  70.009  1.00  0.00    -0.086 C  
HETATM   26  O   UNL     1      -6.681   8.362  70.543  1.00  0.00    -0.036 OA 
HETATM   27  O   UNL     1      -8.179   6.884  69.705  1.00  0.00    -0.127 OA 
ENDBRANCH  19  24
ENDBRANCH  18  19
ENDBRANCH  17  18
ENDBRANCH   5  17
ENDBRANCH   3   5
TORSDOF 11
ENDMDL
MODEL      164
REMARK 921   NORMALIZED FREE ENERGY PREDICTED BY IDOCK:   -4.61 KCAL/MOL
REMARK 922        TOTAL FREE ENERGY PREDICTED BY IDOCK:   -9.32 KCAL/MOL
REMARK 923 INTER-LIGAND FREE ENERGY PREDICTED BY IDOCK:   -8.01 KCAL/MOL
REMARK 924 INTRA-LIGAND FREE ENERGY PREDICTED BY IDOCK:   -1.31 KCAL/MOL
REMARK 927      BINDING AFFINITY PREDICTED BY RF-SCORE:    0.00 PKD
ROOT
HETATM    1  O   UNL     1     -13.316  12.861  65.064  1.00  0.00    -0.682 OA 
HETATM    2  C   UNL     1     -12.456  12.283  64.194  1.00  0.00    -0.434 C  
HETATM    3  C   UNL     1     -11.004  12.366  64.658  1.00  0.00    -0.305 C  
HETATM    4  O   UNL     1     -12.806  11.792  63.130  1.00  0.00    -0.571 OA 
ENDROOT
BRANCH   3   5
HETATM    5  N   UNL     1     -10.868  12.328  66.157  1.00  0.00    -0.269 NA 
BRANCH   5   6
HETATM    6  C   UNL     1     -10.346  10.981  66.566  1.00  0.00    -0.245 C  
BRANCH   6   7
HETATM    7  C   UNL     1     -11.139  10.310  67.728  1.00  0.00    -0.269 C  
BRANCH   7   8
HETATM    8  N   UNL     1     -10.594   9.005  68.242  1.00  0.00    -0.196 NA 
BRANCH   8   9
HETATM    9  C   UNL     1      -9.126   9.223  68.562  1.00  0.00    -0.132 C  
HETATM   10  O   UNL     1      -9.688   8.495  70.784  1.00  0.00    -0.170 OA 
HETATM   11  C   UNL     1      -8.854   9.281  70.065  1.00  0.00    -0.197 C  
HETATM   12  O   UNL     1      -7.962   9.943  70.572  1.00  0.00    -0.246 OA 
ENDBRANCH   8   9
BRANCH   8  13
HETATM   13  C   UNL     1     -10.653   8.002  67.114  1.00  0.00    -0.297 C  
HETATM   14  O   UNL     1     -11.458   6.460  68.765  1.00  0.00    -0.283 OA 
HETATM   15  O   UNL     1     -10.310   5.600  67.011  1.00  0.00    -0.199 OA 
HETATM   16  C   UNL     1     -10.757   6.563  67.611  1.00  0.00    -0.307 C  
ENDBRANCH   8  13
ENDBRANCH   7   8
ENDBRANCH   6   7
ENDBRANCH   5   6
BRANCH   5  17
HETATM   17  C   UNL     1      -9.873  13.366  66.575  1.00  0.00    -0.286 C  
BRANCH  17  18
HETATM   18  C   UNL     1     -10.395  14.522  67.474  1.00  0.00    -0.244 C  
BRANCH  18  19
HETATM   19  N   UNL     1      -9.659  15.833  67.328  1.00  0.00    -0.216 NA 
BRANCH  19  20
HETATM   20  C   UNL     1      -8.472  15.791  68.274  1.00  0.00    -0.164 C  
HETATM   21  O   UNL     1      -6.089  15.444  67.946  1.00  0.00    -0.128 OA 
HETATM   22  O   UNL     1      -7.221  16.674  66.420  1.00  0.00    -0.240 OA 
HETATM   23  C   UNL     1      -7.137  15.926  67.545  1.00  0.00    -0.179 C  
ENDBRANCH  19  20
BRANCH  19  24
HETATM   24  C   UNL     1     -10.569  16.937  67.819  1.00  0.00    -0.340 C  
HETATM   25  C   UNL     1     -10.506  18.190  66.952  1.00  0.00    -0.357 C  
HETATM   26  O   UNL     1     -10.714  19.319  67.366  1.00  0.00    -0.463 OA 
HETATM   27  O   UNL     1     -10.267  17.912  65.648  1.00  0.00    -0.589 OA 
ENDBRANCH  19  24
ENDBRANCH  18  19
ENDBRANCH  17  18
ENDBRANCH   5  17
ENDBRANCH   3   5
TORSDOF 11
ENDMDL
MODEL      165
REMARK 921   NORMALIZED FREE ENERGY PREDICTED BY IDOCK:   -4.61 KCAL/MOL
REMARK 922        TOTAL FREE ENERGY PREDICTED BY IDOCK:   -9.31 KCAL/MOL
REMARK 923 INTER-LIGAND FREE ENERGY PREDICTED BY IDOCK:   -7.87 KCAL/MOL
REMARK 924 INTRA-LIGAND FREE ENERGY PREDICTED BY IDOCK:   -1.44 KCAL/MOL
REMARK 927      BINDING AFFINITY PREDICTED BY RF-SCORE:    0.00 PKD
ROOT
HETATM    1  O   UNL     1     -11.018   7.545  66.932  1.00  0.00    -0.292 OA 
HETATM    2  C   UNL     1      -9.681   7.754  66.964  1.00  0.00    -0.197 C  
HETATM    3  C   UNL     1      -9.306   9.204  66.670  1.00  0.00    -0.177 C  
HETATM    4  O   UNL     1      -8.866   6.864  67.162  1.00  0.00    -0.118 OA 
ENDROOT
BRANCH   3   5
HETATM    5  N   UNL     1     -10.343  10.184  67.148  1.00  0.00    -0.224 NA 
BRANCH   5   6
HETATM    6  C   UNL     1     -10.010  10.602  68.551  1.00  0.00    -0.167 C  
BRANCH   6   7
HETATM    7  C   UNL     1     -11.066  10.179  69.616  1.00  0.00    -0.263 C  
BRANCH   7   8
HETATM    8  N   UNL     1     -10.605   9.205  70.665  1.00  0.00    -0.226 NA 
BRANCH   8   9
HETATM    9  C   UNL     1      -9.149   8.884  70.374  1.00  0.00    -0.190 C  
HETATM   10  O   UNL     1      -8.928   8.578  72.749  1.00  0.00    -0.292 OA 
HETATM   11  C   UNL     1      -8.272   8.944  71.623  1.00  0.00    -0.040 C  
HETATM   12  O   UNL     1      -7.093   9.262  71.614  1.00  0.00    -0.310 OA 
ENDBRANCH   8   9
BRANCH   8  13
HETATM   13  C   UNL     1     -11.382   7.923  70.482  1.00  0.00    -0.234 C  
HETATM   14  O   UNL     1     -12.484   8.507  72.530  1.00  0.00    -0.383 OA 
HETATM   15  O   UNL     1     -12.300   6.302  72.040  1.00  0.00    -0.328 OA 
HETATM   16  C   UNL     1     -12.079   7.468  71.761  1.00  0.00    -0.308 C  
ENDBRANCH   8  13
ENDBRANCH   7   8
ENDBRANCH   6   7
ENDBRANCH   5   6
BRANCH   5  17
HETATM   17  C   UNL     1     -10.297  11.398  66.271  1.00  0.00    -0.243 C  
BRANCH  17  18
HETATM   18  C   UNL     1     -10.666  12.757  66.929  1.00  0.00    -0.253 C  
BRANCH  18  19
HETATM   19  N   UNL     1     -10.769  13.925  65.976  1.00  0.00    -0.284 NA 
BRANCH  19  20
HETATM   20  C   UNL     1     -10.836  13.354  64.571  1.00  0.00    -0.406 C  
HETATM   21  O   UNL     1     -12.658  12.982  63.006  1.00  0.00    -0.554 OA 
HETATM   22  O   UNL     1     -12.682  14.865  64.263  1.00  0.00    -0.678 OA 
HETATM   23  C   UNL     1     -12.150  13.685  63.867  1.00  0.00    -0.411 C  
ENDBRANCH  19  20
BRANCH  19  24
HETATM   24  C   UNL     1      -9.482  14.715  66.065  1.00  0.00    -0.238 C  
HETATM   25  C   UNL     1      -9.714  16.214  66.218  1.00  0.00    -0.307 C  
HETATM   26  O   UNL     1      -8.938  17.070  65.823  1.00  0.00    -0.526 OA 
HETATM   27  O   UNL     1     -10.843  16.502  66.908  1.00  0.00    -0.225 OA 
ENDBRANCH  19  24
ENDBRANCH  18  19
ENDBRANCH  17  18
ENDBRANCH   5  17
ENDBRANCH   3   5
TORSDOF 11
ENDMDL
MODEL      166
REMARK 921   NORMALIZED FREE ENERGY PREDICTED BY IDOCK:   -4.59 KCAL/MOL
REMARK 922        TOTAL FREE ENERGY PREDICTED BY IDOCK:   -9.28 KCAL/MOL
REMARK 923 INTER-LIGAND FREE ENERGY PREDICTED BY IDOCK:   -8.88 KCAL/MOL
REMARK 924 INTRA-LIGAND FREE ENERGY PREDICTED BY IDOCK:   -0.40 KCAL/MOL
REMARK 927      BINDING AFFINITY PREDICTED BY RF-SCORE:    0.00 PKD
ROOT
HETATM    1  O   UNL     1      -9.980  20.314  66.539  1.00  0.00    -0.438 OA 
HETATM    2  C   UNL     1     -10.358  19.567  67.603  1.00  0.00    -0.451 C  
HETATM    3  C   UNL     1     -10.633  18.112  67.232  1.00  0.00    -0.367 C  
HETATM    4  O   UNL     1     -10.506  20.025  68.727  1.00  0.00    -0.377 OA 
ENDROOT
BRANCH   3   5
HETATM    5  N   UNL     1      -9.768  17.625  66.101  1.00  0.00    -0.485 NA 
BRANCH   5   6
HETATM    6  C   UNL     1      -8.521  17.010  66.669  1.00  0.00    -0.248 C  
BRANCH   6   7
HETATM    7  C   UNL     1      -7.201  17.500  66.001  1.00  0.00    -0.263 C  
BRANCH   7   8
HETATM    8  N   UNL     1      -6.572  18.734  66.587  1.00  0.00    -0.188 NA 
BRANCH   8   9
HETATM    9  C   UNL     1      -7.147  18.915  67.981  1.00  0.00    -0.238 C  
HETATM   10  O   UNL     1      -5.157  20.182  68.443  1.00  0.00    -0.184 OA 
HETATM   11  C   UNL     1      -6.104  19.386  68.993  1.00  0.00    -0.246 C  
HETATM   12  O   UNL     1      -6.127  19.101  70.180  1.00  0.00    -0.249 OA 
ENDBRANCH   8   9
BRANCH   8  13
HETATM   13  C   UNL     1      -7.025  19.919  65.768  1.00  0.00    -0.296 C  
HETATM   14  O   UNL     1      -5.741  18.955  63.989  1.00  0.00    -0.322 OA 
HETATM   15  O   UNL     1      -5.979  21.208  63.996  1.00  0.00    -0.278 OA 
HETATM   16  C   UNL     1      -6.185  20.122  64.511  1.00  0.00    -0.277 C  
ENDBRANCH   8  13
ENDBRANCH   7   8
ENDBRANCH   6   7
ENDBRANCH   5   6
BRANCH   5  17
HETATM   17  C   UNL     1     -10.514  16.567  65.348  1.00  0.00    -0.269 C  
BRANCH  17  18
HETATM   18  C   UNL     1     -10.109  15.090  65.618  1.00  0.00    -0.362 C  
BRANCH  18  19
HETATM   19  N   UNL     1     -11.128  14.272  66.374  1.00  0.00    -0.319 NA 
BRANCH  19  20
HETATM   20  C   UNL     1     -10.499  13.884  67.700  1.00  0.00    -0.245 C  
HETATM   21  O   UNL     1     -10.083  15.092  69.767  1.00  0.00    -0.227 OA 
HETATM   22  O   UNL     1     -12.018  15.483  68.658  1.00  0.00    -0.335 OA 
HETATM   23  C   UNL     1     -10.815  14.880  68.812  1.00  0.00    -0.252 C  
ENDBRANCH  19  20
BRANCH  19  24
HETATM   24  C   UNL     1     -11.358  12.988  65.608  1.00  0.00    -0.301 C  
HETATM   25  C   UNL     1     -12.610  13.032  64.737  1.00  0.00    -0.397 C  
HETATM   26  O   UNL     1     -13.271  12.049  64.442  1.00  0.00    -0.669 OA 
HETATM   27  O   UNL     1     -12.872  14.271  64.259  1.00  0.00    -0.598 OA 
ENDBRANCH  19  24
ENDBRANCH  18  19
ENDBRANCH  17  18
ENDBRANCH   5  17
ENDBRANCH   3   5
TORSDOF 11
ENDMDL
MODEL      167
REMARK 921   NORMALIZED FREE ENERGY PREDICTED BY IDOCK:   -4.59 KCAL/MOL
REMARK 922        TOTAL FREE ENERGY PREDICTED BY IDOCK:   -9.28 KCAL/MOL
REMARK 923 INTER-LIGAND FREE ENERGY PREDICTED BY IDOCK:   -7.66 KCAL/MOL
REMARK 924 INTRA-LIGAND FREE ENERGY PREDICTED BY IDOCK:   -1.61 KCAL/MOL
REMARK 927      BINDING AFFINITY PREDICTED BY RF-SCORE:    0.00 PKD
ROOT
HETATM    1  O   UNL     1      -9.472   9.401  65.047  1.00  0.00    -0.247 OA 
HETATM    2  C   UNL     1      -9.987  10.522  64.491  1.00  0.00    -0.345 C  
HETATM    3  C   UNL     1     -10.753  11.378  65.497  1.00  0.00    -0.253 C  
HETATM    4  O   UNL     1      -9.887  10.791  63.303  1.00  0.00    -0.313 OA 
ENDROOT
BRANCH   3   5
HETATM    5  N   UNL     1     -10.189  11.287  66.890  1.00  0.00    -0.212 NA 
BRANCH   5   6
HETATM    6  C   UNL     1      -9.916  12.673  67.398  1.00  0.00    -0.204 C  
BRANCH   6   7
HETATM    7  C   UNL     1      -9.754  13.748  66.281  1.00  0.00    -0.284 C  
BRANCH   7   8
HETATM    8  N   UNL     1     -10.707  14.911  66.328  1.00  0.00    -0.312 NA 
BRANCH   8   9
HETATM    9  C   UNL     1     -11.118  15.216  64.898  1.00  0.00    -0.414 C  
HETATM   10  O   UNL     1     -13.167  14.077  65.434  1.00  0.00    -0.761 OA 
HETATM   11  C   UNL     1     -12.305  14.372  64.434  1.00  0.00    -0.403 C  
HETATM   12  O   UNL     1     -12.480  14.018  63.278  1.00  0.00    -0.795 OA 
ENDBRANCH   8   9
BRANCH   8  13
HETATM   13  C   UNL     1      -9.946  16.114  66.831  1.00  0.00    -0.254 C  
HETATM   14  O   UNL     1     -11.532  16.144  68.628  1.00  0.00    -0.373 OA 
HETATM   15  O   UNL     1     -10.616  18.124  68.018  1.00  0.00    -0.390 OA 
HETATM   16  C   UNL     1     -10.732  16.920  67.860  1.00  0.00    -0.344 C  
ENDBRANCH   8  13
ENDBRANCH   7   8
ENDBRANCH   6   7
ENDBRANCH   5   6
BRANCH   5  17
HETATM   17  C   UNL     1     -11.211  10.651  67.781  1.00  0.00    -0.313 C  
BRANCH  17  18
HETATM   18  C   UNL     1     -10.744   9.442  68.640  1.00  0.00    -0.160 C  
BRANCH  18  19
HETATM   19  N   UNL     1      -9.251   9.213  68.668  1.00  0.00    -0.136 NA 
BRANCH  19  20
HETATM   20  C   UNL     1      -9.028   7.717  68.799  1.00  0.00    -0.133 C  
HETATM   21  O   UNL     1      -8.372   5.984  67.226  1.00  0.00    -0.106 OA 
HETATM   22  O   UNL     1      -7.385   8.015  67.068  1.00  0.00    -0.087 OA 
HETATM   23  C   UNL     1      -8.255   7.135  67.619  1.00  0.00    -0.114 C  
ENDBRANCH  19  20
BRANCH  19  24
HETATM   24  C   UNL     1      -8.706   9.847  69.928  1.00  0.00    -0.201 C  
HETATM   25  C   UNL     1      -7.311  10.436  69.742  1.00  0.00    -0.154 C  
HETATM   26  O   UNL     1      -6.486  10.534  70.636  1.00  0.00    -0.285 OA 
HETATM   27  O   UNL     1      -7.106  10.911  68.491  1.00  0.00    -0.068 OA 
ENDBRANCH  19  24
ENDBRANCH  18  19
ENDBRANCH  17  18
ENDBRANCH   5  17
ENDBRANCH   3   5
TORSDOF 11
ENDMDL
MODEL      168
REMARK 921   NORMALIZED FREE ENERGY PREDICTED BY IDOCK:   -4.58 KCAL/MOL
REMARK 922        TOTAL FREE ENERGY PREDICTED BY IDOCK:   -9.27 KCAL/MOL
REMARK 923 INTER-LIGAND FREE ENERGY PREDICTED BY IDOCK:   -8.04 KCAL/MOL
REMARK 924 INTRA-LIGAND FREE ENERGY PREDICTED BY IDOCK:   -1.23 KCAL/MOL
REMARK 927      BINDING AFFINITY PREDICTED BY RF-SCORE:    0.00 PKD
ROOT
HETATM    1  O   UNL     1      -8.443  10.001  65.534  1.00  0.00    -0.136 OA 
HETATM    2  C   UNL     1      -9.628  10.360  64.987  1.00  0.00    -0.280 C  
HETATM    3  C   UNL     1     -10.744  10.470  66.024  1.00  0.00    -0.016 C  
HETATM    4  O   UNL     1      -9.790  10.529  63.788  1.00  0.00    -0.305 OA 
ENDROOT
BRANCH   3   5
HETATM    5  N   UNL     1     -10.246  10.918  67.372  1.00  0.00    -0.194 NA 
BRANCH   5   6
HETATM    6  C   UNL     1     -10.500  12.390  67.522  1.00  0.00    -0.215 C  
BRANCH   6   7
HETATM    7  C   UNL     1      -9.760  13.280  66.479  1.00  0.00    -0.273 C  
BRANCH   7   8
HETATM    8  N   UNL     1     -10.585  14.340  65.800  1.00  0.00    -0.297 NA 
BRANCH   8   9
HETATM    9  C   UNL     1     -10.936  13.822  64.417  1.00  0.00    -0.343 C  
HETATM   10  O   UNL     1     -13.223  13.935  65.152  1.00  0.00    -0.768 OA 
HETATM   11  C   UNL     1     -12.363  13.283  64.335  1.00  0.00    -0.348 C  
HETATM   12  O   UNL     1     -12.709  12.376  63.594  1.00  0.00    -0.710 OA 
ENDBRANCH   8   9
BRANCH   8  13
HETATM   13  C   UNL     1      -9.708  15.555  65.605  1.00  0.00    -0.320 C  
HETATM   14  O   UNL     1     -10.918  16.504  67.444  1.00  0.00    -0.248 OA 
HETATM   15  O   UNL     1     -10.082  17.936  65.899  1.00  0.00    -0.533 OA 
HETATM   16  C   UNL     1     -10.259  16.797  66.298  1.00  0.00    -0.332 C  
ENDBRANCH   8  13
ENDBRANCH   7   8
ENDBRANCH   6   7
ENDBRANCH   5   6
BRANCH   5  17
HETATM   17  C   UNL     1     -11.019  10.195  68.432  1.00  0.00    -0.244 C  
BRANCH  17  18
HETATM   18  C   UNL     1     -10.685  10.545  69.910  1.00  0.00    -0.247 C  
BRANCH  18  19
HETATM   19  N   UNL     1     -10.501   9.358  70.825  1.00  0.00    -0.280 NA 
BRANCH  19  20
HETATM   20  C   UNL     1      -9.377   8.516  70.249  1.00  0.00    -0.162 C  
HETATM   21  O   UNL     1      -6.971   8.485  70.593  1.00  0.00    -0.037 OA 
HETATM   22  O   UNL     1      -8.313   8.842  72.381  1.00  0.00    -0.387 OA 
HETATM   23  C   UNL     1      -8.090   8.621  71.064  1.00  0.00    -0.140 C  
ENDBRANCH  19  20
BRANCH  19  24
HETATM   24  C   UNL     1     -11.756   8.516  70.756  1.00  0.00    -0.205 C  
HETATM   25  C   UNL     1     -11.851   7.496  71.885  1.00  0.00    -0.296 C  
HETATM   26  O   UNL     1     -12.437   6.429  71.794  1.00  0.00    -0.316 OA 
HETATM   27  O   UNL     1     -11.279   7.931  73.033  1.00  0.00    -0.411 OA 
ENDBRANCH  19  24
ENDBRANCH  18  19
ENDBRANCH  17  18
ENDBRANCH   5  17
ENDBRANCH   3   5
TORSDOF 11
ENDMDL
MODEL      169
REMARK 921   NORMALIZED FREE ENERGY PREDICTED BY IDOCK:   -4.56 KCAL/MOL
REMARK 922        TOTAL FREE ENERGY PREDICTED BY IDOCK:   -9.24 KCAL/MOL
REMARK 923 INTER-LIGAND FREE ENERGY PREDICTED BY IDOCK:   -7.94 KCAL/MOL
REMARK 924 INTRA-LIGAND FREE ENERGY PREDICTED BY IDOCK:   -1.30 KCAL/MOL
REMARK 927      BINDING AFFINITY PREDICTED BY RF-SCORE:    0.00 PKD
ROOT
HETATM    1  O   UNL     1     -13.076  13.913  65.406  1.00  0.00    -0.752 OA 
HETATM    2  C   UNL     1     -12.212  14.087  64.380  1.00  0.00    -0.426 C  
HETATM    3  C   UNL     1     -10.787  14.369  64.851  1.00  0.00    -0.416 C  
HETATM    4  O   UNL     1     -12.551  14.067  63.205  1.00  0.00    -0.801 OA 
ENDROOT
BRANCH   3   5
HETATM    5  N   UNL     1     -10.456  13.683  66.149  1.00  0.00    -0.292 NA 
BRANCH   5   6
HETATM    6  C   UNL     1     -10.314  12.209  65.900  1.00  0.00    -0.255 C  
BRANCH   6   7
HETATM    7  C   UNL     1     -10.710  11.311  67.111  1.00  0.00    -0.253 C  
BRANCH   7   8
HETATM    8  N   UNL     1      -9.868  10.084  67.336  1.00  0.00    -0.177 NA 
BRANCH   8   9
HETATM    9  C   UNL     1      -8.614  10.235  66.493  1.00  0.00    -0.132 C  
HETATM   10  O   UNL     1      -7.455  10.481  68.585  1.00  0.00    -0.085 OA 
HETATM   11  C   UNL     1      -7.446  10.830  67.277  1.00  0.00    -0.101 C  
HETATM   12  O   UNL     1      -6.575  11.527  66.781  1.00  0.00    -0.134 OA 
ENDBRANCH   8   9
BRANCH   8  13
HETATM   13  C   UNL     1     -10.624   8.896  66.789  1.00  0.00    -0.142 C  
HETATM   14  O   UNL     1      -9.481   7.621  68.466  1.00  0.00    -0.146 OA 
HETATM   15  O   UNL     1     -10.077   6.541  66.565  1.00  0.00    -0.158 OA 
HETATM   16  C   UNL     1     -10.026   7.564  67.228  1.00  0.00    -0.210 C  
ENDBRANCH   8  13
ENDBRANCH   7   8
ENDBRANCH   6   7
ENDBRANCH   5   6
BRANCH   5  17
HETATM   17  C   UNL     1      -9.144  14.205  66.647  1.00  0.00    -0.216 C  
BRANCH  17  18
HETATM   18  C   UNL     1      -9.140  14.885  68.046  1.00  0.00    -0.180 C  
BRANCH  18  19
HETATM   19  N   UNL     1     -10.112  16.029  68.207  1.00  0.00    -0.226 NA 
BRANCH  19  20
HETATM   20  C   UNL     1      -9.329  17.315  68.012  1.00  0.00    -0.264 C  
HETATM   21  O   UNL     1      -8.591  18.537  66.046  1.00  0.00    -0.497 OA 
HETATM   22  O   UNL     1     -10.637  17.571  66.011  1.00  0.00    -0.331 OA 
HETATM   23  C   UNL     1      -9.452  17.866  66.594  1.00  0.00    -0.298 C  
ENDBRANCH  19  20
BRANCH  19  24
HETATM   24  C   UNL     1     -10.601  16.029  69.639  1.00  0.00    -0.311 C  
HETATM   25  C   UNL     1     -11.955  15.347  69.804  1.00  0.00    -0.358 C  
HETATM   26  O   UNL     1     -12.763  15.633  70.674  1.00  0.00    -0.454 OA 
HETATM   27  O   UNL     1     -12.141  14.332  68.927  1.00  0.00    -0.330 OA 
ENDBRANCH  19  24
ENDBRANCH  18  19
ENDBRANCH  17  18
ENDBRANCH   5  17
ENDBRANCH   3   5
TORSDOF 11
ENDMDL
MODEL      170
REMARK 921   NORMALIZED FREE ENERGY PREDICTED BY IDOCK:   -4.56 KCAL/MOL
REMARK 922        TOTAL FREE ENERGY PREDICTED BY IDOCK:   -9.24 KCAL/MOL
REMARK 923 INTER-LIGAND FREE ENERGY PREDICTED BY IDOCK:   -7.87 KCAL/MOL
REMARK 924 INTRA-LIGAND FREE ENERGY PREDICTED BY IDOCK:   -1.36 KCAL/MOL
REMARK 927      BINDING AFFINITY PREDICTED BY RF-SCORE:    0.00 PKD
ROOT
HETATM    1  O   UNL     1      -7.718  11.600  68.765  1.00  0.00    -0.134 OA 
HETATM    2  C   UNL     1      -8.071  11.330  67.487  1.00  0.00    -0.124 C  
HETATM    3  C   UNL     1      -9.475  10.739  67.377  1.00  0.00    -0.154 C  
HETATM    4  O   UNL     1      -7.325  11.500  66.534  1.00  0.00    -0.108 OA 
ENDROOT
BRANCH   3   5
HETATM    5  N   UNL     1     -10.409  11.253  68.438  1.00  0.00    -0.185 NA 
BRANCH   5   6
HETATM    6  C   UNL     1     -11.483  12.076  67.787  1.00  0.00    -0.325 C  
BRANCH   6   7
HETATM    7  C   UNL     1     -11.163  13.599  67.702  1.00  0.00    -0.279 C  
BRANCH   7   8
HETATM    8  N   UNL     1     -11.071  14.187  66.320  1.00  0.00    -0.314 NA 
BRANCH   8   9
HETATM    9  C   UNL     1     -11.239  13.046  65.332  1.00  0.00    -0.289 C  
HETATM   10  O   UNL     1     -12.498  14.613  64.012  1.00  0.00    -0.796 OA 
HETATM   11  C   UNL     1     -12.355  13.302  64.320  1.00  0.00    -0.340 C  
HETATM   12  O   UNL     1     -13.035  12.422  63.816  1.00  0.00    -0.751 OA 
ENDBRANCH   8   9
BRANCH   8  13
HETATM   13  C   UNL     1      -9.671  14.724  66.136  1.00  0.00    -0.312 C  
HETATM   14  O   UNL     1     -10.526  16.767  67.054  1.00  0.00    -0.313 OA 
HETATM   15  O   UNL     1      -8.795  16.924  65.599  1.00  0.00    -0.472 OA 
HETATM   16  C   UNL     1      -9.611  16.246  66.202  1.00  0.00    -0.331 C  
ENDBRANCH   8  13
ENDBRANCH   7   8
ENDBRANCH   6   7
ENDBRANCH   5   6
BRANCH   5  17
HETATM   17  C   UNL     1     -11.057  10.084  69.114  1.00  0.00    -0.190 C  
BRANCH  17  18
HETATM   18  C   UNL     1     -11.114  10.111  70.668  1.00  0.00    -0.322 C  
BRANCH  18  19
HETATM   19  N   UNL     1     -10.495   8.916  71.354  1.00  0.00    -0.277 NA 
BRANCH  19  20
HETATM   20  C   UNL     1      -9.308   8.480  70.514  1.00  0.00    -0.170 C  
HETATM   21  O   UNL     1      -6.927   8.957  70.616  1.00  0.00    -0.048 OA 
HETATM   22  O   UNL     1      -8.053   8.662  72.558  1.00  0.00    -0.347 OA 
HETATM   23  C   UNL     1      -7.973   8.739  71.208  1.00  0.00    -0.139 C  
ENDBRANCH  19  20
BRANCH  19  24
HETATM   24  C   UNL     1     -11.497   7.783  71.314  1.00  0.00    -0.269 C  
HETATM   25  C   UNL     1     -11.333   6.804  72.471  1.00  0.00    -0.254 C  
HETATM   26  O   UNL     1     -11.631   5.621  72.412  1.00  0.00    -0.284 OA 
HETATM   27  O   UNL     1     -10.891   7.400  73.603  1.00  0.00    -0.346 OA 
ENDBRANCH  19  24
ENDBRANCH  18  19
ENDBRANCH  17  18
ENDBRANCH   5  17
ENDBRANCH   3   5
TORSDOF 11
ENDMDL
MODEL      171
REMARK 921   NORMALIZED FREE ENERGY PREDICTED BY IDOCK:   -4.56 KCAL/MOL
REMARK 922        TOTAL FREE ENERGY PREDICTED BY IDOCK:   -9.23 KCAL/MOL
REMARK 923 INTER-LIGAND FREE ENERGY PREDICTED BY IDOCK:   -7.93 KCAL/MOL
REMARK 924 INTRA-LIGAND FREE ENERGY PREDICTED BY IDOCK:   -1.30 KCAL/MOL
REMARK 927      BINDING AFFINITY PREDICTED BY RF-SCORE:    0.00 PKD
ROOT
HETATM    1  O   UNL     1      -8.850  19.542  65.844  1.00  0.00    -0.412 OA 
HETATM    2  C   UNL     1      -7.869  18.620  65.714  1.00  0.00     0.084 C  
HETATM    3  C   UNL     1      -8.291  17.238  66.208  1.00  0.00    -0.254 C  
HETATM    4  O   UNL     1      -6.753  18.881  65.288  1.00  0.00    -0.436 OA 
ENDROOT
BRANCH   3   5
HETATM    5  N   UNL     1      -9.758  16.970  66.008  1.00  0.00    -0.483 NA 
BRANCH   5   6
HETATM    6  C   UNL     1      -9.938  15.547  65.563  1.00  0.00    -0.341 C  
BRANCH   6   7
HETATM    7  C   UNL     1     -11.382  14.992  65.752  1.00  0.00    -0.279 C  
BRANCH   7   8
HETATM    8  N   UNL     1     -11.507  13.505  65.947  1.00  0.00    -0.313 NA 
BRANCH   8   9
HETATM    9  C   UNL     1     -12.700  13.041  65.129  1.00  0.00    -0.397 C  
HETATM   10  O   UNL     1     -11.147  11.568  64.033  1.00  0.00    -0.365 OA 
HETATM   11  C   UNL     1     -12.290  12.276  63.872  1.00  0.00    -0.509 C  
HETATM   12  O   UNL     1     -12.933  12.274  62.834  1.00  0.00    -0.344 OA 
ENDBRANCH   8   9
BRANCH   8  13
HETATM   13  C   UNL     1     -11.844  13.254  67.397  1.00  0.00    -0.366 C  
HETATM   14  O   UNL     1     -10.473  11.298  67.193  1.00  0.00    -0.204 OA 
HETATM   15  O   UNL     1     -12.164  11.229  68.700  1.00  0.00    -0.562 OA 
HETATM   16  C   UNL     1     -11.545  11.823  67.832  1.00  0.00    -0.307 C  
ENDBRANCH   8  13
ENDBRANCH   7   8
ENDBRANCH   6   7
ENDBRANCH   5   6
BRANCH   5  17
HETATM   17  C   UNL     1     -10.462  17.146  67.319  1.00  0.00    -0.313 C  
BRANCH  17  18
HETATM   18  C   UNL     1      -9.584  17.104  68.602  1.00  0.00    -0.281 C  
BRANCH  18  19
HETATM   19  N   UNL     1      -9.947  16.024  69.594  1.00  0.00    -0.255 NA 
BRANCH  19  20
HETATM   20  C   UNL     1      -9.316  14.733  69.104  1.00  0.00    -0.101 C  
HETATM   21  O   UNL     1      -7.054  14.120  68.462  1.00  0.00    -0.089 OA 
HETATM   22  O   UNL     1      -7.337  15.511  70.225  1.00  0.00     0.145 OA 
HETATM   23  C   UNL     1      -7.793  14.751  69.202  1.00  0.00    -0.141 C  
ENDBRANCH  19  20
BRANCH  19  24
HETATM   24  C   UNL     1     -11.446  15.826  69.539  1.00  0.00    -0.353 C  
HETATM   25  C   UNL     1     -11.980  15.009  70.711  1.00  0.00    -0.318 C  
HETATM   26  O   UNL     1     -12.979  14.310  70.657  1.00  0.00    -0.338 OA 
HETATM   27  O   UNL     1     -11.269  15.197  71.848  1.00  0.00    -0.397 OA 
ENDBRANCH  19  24
ENDBRANCH  18  19
ENDBRANCH  17  18
ENDBRANCH   5  17
ENDBRANCH   3   5
TORSDOF 11
ENDMDL
MODEL      172
REMARK 921   NORMALIZED FREE ENERGY PREDICTED BY IDOCK:   -4.54 KCAL/MOL
REMARK 922        TOTAL FREE ENERGY PREDICTED BY IDOCK:   -9.21 KCAL/MOL
REMARK 923 INTER-LIGAND FREE ENERGY PREDICTED BY IDOCK:   -7.75 KCAL/MOL
REMARK 924 INTRA-LIGAND FREE ENERGY PREDICTED BY IDOCK:   -1.46 KCAL/MOL
REMARK 927      BINDING AFFINITY PREDICTED BY RF-SCORE:    0.00 PKD
ROOT
HETATM    1  O   UNL     1     -10.664   9.052  67.184  1.00  0.00    -0.259 OA 
HETATM    2  C   UNL     1      -9.587   9.239  67.982  1.00  0.00    -0.142 C  
HETATM    3  C   UNL     1      -9.816  10.320  69.036  1.00  0.00    -0.207 C  
HETATM    4  O   UNL     1      -8.533   8.637  67.840  1.00  0.00    -0.127 OA 
ENDROOT
BRANCH   3   5
HETATM    5  N   UNL     1     -11.249  10.398  69.490  1.00  0.00    -0.253 NA 
BRANCH   5   6
HETATM    6  C   UNL     1     -11.309  10.127  70.965  1.00  0.00    -0.307 C  
BRANCH   6   7
HETATM    7  C   UNL     1     -12.129   8.859  71.353  1.00  0.00    -0.322 C  
BRANCH   7   8
HETATM    8  N   UNL     1     -11.350   7.582  71.515  1.00  0.00    -0.250 NA 
BRANCH   8   9
HETATM    9  C   UNL     1     -11.891   6.592  70.498  1.00  0.00    -0.370 C  
HETATM   10  O   UNL     1      -9.590   6.217  69.908  1.00  0.00    -0.154 OA 
HETATM   11  C   UNL     1     -10.859   6.216  69.437  1.00  0.00    -0.353 C  
HETATM   12  O   UNL     1     -11.140   5.918  68.286  1.00  0.00    -0.258 OA 
ENDBRANCH   8   9
BRANCH   8  13
HETATM   13  C   UNL     1     -11.660   7.020  72.882  1.00  0.00    -0.035 C  
HETATM   14  O   UNL     1      -9.318   7.276  73.323  1.00  0.00    -0.151 OA 
HETATM   15  O   UNL     1     -10.408   5.624  74.425  1.00  0.00    -0.270 OA 
HETATM   16  C   UNL     1     -10.414   6.538  73.617  1.00  0.00    -0.311 C  
ENDBRANCH   8  13
ENDBRANCH   7   8
ENDBRANCH   6   7
ENDBRANCH   5   6
BRANCH   5  17
HETATM   17  C   UNL     1     -11.755  11.787  69.245  1.00  0.00    -0.335 C  
BRANCH  17  18
HETATM   18  C   UNL     1     -12.318  12.558  70.472  1.00  0.00    -0.262 C  
BRANCH  18  19
HETATM   19  N   UNL     1     -12.128  14.056  70.431  1.00  0.00    -0.335 NA 
BRANCH  19  20
HETATM   20  C   UNL     1     -13.380  14.685  71.015  1.00  0.00    -0.355 C  
HETATM   21  O   UNL     1     -13.836  15.892  73.075  1.00  0.00    -0.592 OA 
HETATM   22  O   UNL     1     -11.874  16.272  72.012  1.00  0.00    -0.505 OA 
HETATM   23  C   UNL     1     -13.072  15.657  72.151  1.00  0.00    -0.458 C  
ENDBRANCH  19  20
BRANCH  19  24
HETATM   24  C   UNL     1     -12.063  14.479  68.980  1.00  0.00    -0.251 C  
HETATM   25  C   UNL     1     -11.051  15.593  68.730  1.00  0.00    -0.307 C  
HETATM   26  O   UNL     1     -11.151  16.418  67.837  1.00  0.00    -0.326 OA 
HETATM   27  O   UNL     1      -9.984  15.526  69.561  1.00  0.00    -0.249 OA 
ENDBRANCH  19  24
ENDBRANCH  18  19
ENDBRANCH  17  18
ENDBRANCH   5  17
ENDBRANCH   3   5
TORSDOF 11
ENDMDL
MODEL      173
REMARK 921   NORMALIZED FREE ENERGY PREDICTED BY IDOCK:   -4.54 KCAL/MOL
REMARK 922        TOTAL FREE ENERGY PREDICTED BY IDOCK:   -9.20 KCAL/MOL
REMARK 923 INTER-LIGAND FREE ENERGY PREDICTED BY IDOCK:   -7.71 KCAL/MOL
REMARK 924 INTRA-LIGAND FREE ENERGY PREDICTED BY IDOCK:   -1.50 KCAL/MOL
REMARK 927      BINDING AFFINITY PREDICTED BY RF-SCORE:    0.00 PKD
ROOT
HETATM    1  O   UNL     1     -12.892  12.357  64.319  1.00  0.00    -0.692 OA 
HETATM    2  C   UNL     1     -11.590  12.010  64.447  1.00  0.00    -0.336 C  
HETATM    3  C   UNL     1     -11.007  12.407  65.801  1.00  0.00    -0.298 C  
HETATM    4  O   UNL     1     -10.945  11.478  63.555  1.00  0.00    -0.399 OA 
ENDROOT
BRANCH   3   5
HETATM    5  N   UNL     1     -12.023  12.364  66.910  1.00  0.00    -0.575 NA 
BRANCH   5   6
HETATM    6  C   UNL     1     -11.532  11.442  67.987  1.00  0.00    -0.307 C  
BRANCH   6   7
HETATM    7  C   UNL     1     -10.809  10.165  67.461  1.00  0.00    -0.290 C  
BRANCH   7   8
HETATM    8  N   UNL     1      -9.857   9.494  68.415  1.00  0.00    -0.154 NA 
BRANCH   8   9
HETATM    9  C   UNL     1     -10.692   8.863  69.515  1.00  0.00    -0.199 C  
HETATM   10  O   UNL     1      -9.404   6.874  69.103  1.00  0.00    -0.141 OA 
HETATM   11  C   UNL     1     -10.607   7.337  69.517  1.00  0.00    -0.234 C  
HETATM   12  O   UNL     1     -11.514   6.603  69.876  1.00  0.00    -0.358 OA 
ENDBRANCH   8   9
BRANCH   8  13
HETATM   13  C   UNL     1      -9.017  10.568  69.063  1.00  0.00    -0.176 C  
HETATM   14  O   UNL     1      -7.134   9.218  68.446  1.00  0.00    -0.071 OA 
HETATM   15  O   UNL     1      -6.920  10.520  70.288  1.00  0.00    -0.211 OA 
HETATM   16  C   UNL     1      -7.595  10.103  69.361  1.00  0.00    -0.133 C  
ENDBRANCH   8  13
ENDBRANCH   7   8
ENDBRANCH   6   7
ENDBRANCH   5   6
BRANCH   5  17
HETATM   17  C   UNL     1     -12.157  13.738  67.491  1.00  0.00    -0.331 C  
BRANCH  17  18
HETATM   18  C   UNL     1     -11.697  14.928  66.602  1.00  0.00    -0.217 C  
BRANCH  18  19
HETATM   19  N   UNL     1     -10.815  15.942  67.292  1.00  0.00    -0.309 NA 
BRANCH  19  20
HETATM   20  C   UNL     1     -10.265  16.864  66.219  1.00  0.00    -0.329 C  
HETATM   21  O   UNL     1     -10.910  19.067  65.421  1.00  0.00    -0.541 OA 
HETATM   22  O   UNL     1     -11.030  18.645  67.642  1.00  0.00    -0.365 OA 
HETATM   23  C   UNL     1     -10.776  18.296  66.359  1.00  0.00    -0.161 C  
ENDBRANCH  19  20
BRANCH  19  24
HETATM   24  C   UNL     1      -9.632  15.206  67.883  1.00  0.00    -0.203 C  
HETATM   25  C   UNL     1      -9.261  15.699  69.277  1.00  0.00    -0.269 C  
HETATM   26  O   UNL     1      -8.131  15.657  69.738  1.00  0.00    -0.159 OA 
HETATM   27  O   UNL     1     -10.333  16.125  69.985  1.00  0.00    -0.253 OA 
ENDBRANCH  19  24
ENDBRANCH  18  19
ENDBRANCH  17  18
ENDBRANCH   5  17
ENDBRANCH   3   5
TORSDOF 11
ENDMDL
MODEL      174
REMARK 921   NORMALIZED FREE ENERGY PREDICTED BY IDOCK:   -4.52 KCAL/MOL
REMARK 922        TOTAL FREE ENERGY PREDICTED BY IDOCK:   -9.17 KCAL/MOL
REMARK 923 INTER-LIGAND FREE ENERGY PREDICTED BY IDOCK:   -7.93 KCAL/MOL
REMARK 924 INTRA-LIGAND FREE ENERGY PREDICTED BY IDOCK:   -1.24 KCAL/MOL
REMARK 927      BINDING AFFINITY PREDICTED BY RF-SCORE:    0.00 PKD
ROOT
HETATM    1  O   UNL     1     -13.234  14.083  65.534  1.00  0.00    -0.710 OA 
HETATM    2  C   UNL     1     -12.427  14.316  64.473  1.00  0.00    -0.333 C  
HETATM    3  C   UNL     1     -11.321  15.321  64.783  1.00  0.00    -0.391 C  
HETATM    4  O   UNL     1     -12.600  13.808  63.374  1.00  0.00    -0.842 OA 
ENDROOT
BRANCH   3   5
HETATM    5  N   UNL     1     -10.864  15.262  66.216  1.00  0.00    -0.314 NA 
BRANCH   5   6
HETATM    6  C   UNL     1      -9.908  14.115  66.376  1.00  0.00    -0.296 C  
BRANCH   6   7
HETATM    7  C   UNL     1     -10.405  12.993  67.338  1.00  0.00    -0.234 C  
BRANCH   7   8
HETATM    8  N   UNL     1      -9.818  11.624  67.128  1.00  0.00    -0.188 NA 
BRANCH   8   9
HETATM    9  C   UNL     1      -8.334  11.717  67.437  1.00  0.00    -0.159 C  
HETATM   10  O   UNL     1      -8.752  10.006  69.074  1.00  0.00    -0.137 OA 
HETATM   11  C   UNL     1      -7.969  11.068  68.771  1.00  0.00    -0.144 C  
HETATM   12  O   UNL     1      -7.052  11.444  69.485  1.00  0.00    -0.102 OA 
ENDBRANCH   8   9
BRANCH   8  13
HETATM   13  C   UNL     1      -9.940  11.287  65.660  1.00  0.00    -0.247 C  
HETATM   14  O   UNL     1     -10.055   9.002  66.377  1.00  0.00    -0.294 OA 
HETATM   15  O   UNL     1      -9.189   9.405  64.322  1.00  0.00    -0.186 OA 
HETATM   16  C   UNL     1      -9.662   9.816  65.369  1.00  0.00    -0.313 C  
ENDBRANCH   8  13
ENDBRANCH   7   8
ENDBRANCH   6   7
ENDBRANCH   5   6
BRANCH   5  17
HETATM   17  C   UNL     1     -10.137  16.530  66.541  1.00  0.00    -0.299 C  
BRANCH  17  18
HETATM   18  C   UNL     1      -8.625  16.588  66.182  1.00  0.00    -0.299 C  
BRANCH  18  19
HETATM   19  N   UNL     1      -7.912  17.850  66.605  1.00  0.00    -0.237 NA 
BRANCH  19  20
HETATM   20  C   UNL     1      -6.578  17.878  65.881  1.00  0.00    -0.269 C  
HETATM   21  O   UNL     1      -5.728  19.158  63.998  1.00  0.00    -0.290 OA 
HETATM   22  O   UNL     1      -7.063  20.202  65.498  1.00  0.00    -0.307 OA 
HETATM   23  C   UNL     1      -6.410  19.121  65.011  1.00  0.00    -0.258 C  
ENDBRANCH  19  20
BRANCH  19  24
HETATM   24  C   UNL     1      -7.603  17.739  68.082  1.00  0.00    -0.250 C  
HETATM   25  C   UNL     1      -7.707  19.073  68.813  1.00  0.00    -0.347 C  
HETATM   26  O   UNL     1      -7.063  19.358  69.810  1.00  0.00    -0.184 OA 
HETATM   27  O   UNL     1      -8.649  19.889  68.283  1.00  0.00    -0.302 OA 
ENDBRANCH  19  24
ENDBRANCH  18  19
ENDBRANCH  17  18
ENDBRANCH   5  17
ENDBRANCH   3   5
TORSDOF 11
ENDMDL
MODEL      175
REMARK 921   NORMALIZED FREE ENERGY PREDICTED BY IDOCK:   -4.50 KCAL/MOL
REMARK 922        TOTAL FREE ENERGY PREDICTED BY IDOCK:   -9.14 KCAL/MOL
REMARK 923 INTER-LIGAND FREE ENERGY PREDICTED BY IDOCK:   -7.83 KCAL/MOL
REMARK 924 INTRA-LIGAND FREE ENERGY PREDICTED BY IDOCK:   -1.31 KCAL/MOL
REMARK 927      BINDING AFFINITY PREDICTED BY RF-SCORE:    0.00 PKD
ROOT
HETATM    1  O   UNL     1     -11.092   9.890  71.222  1.00  0.00    -0.351 OA 
HETATM    2  C   UNL     1     -12.232  10.455  70.758  1.00  0.00    -0.359 C  
HETATM    3  C   UNL     1     -11.967  11.574  69.754  1.00  0.00    -0.346 C  
HETATM    4  O   UNL     1     -13.346  10.131  71.142  1.00  0.00    -0.376 OA 
ENDROOT
BRANCH   3   5
HETATM    5  N   UNL     1     -10.726  11.342  68.935  1.00  0.00    -0.204 NA 
BRANCH   5   6
HETATM    6  C   UNL     1     -11.023  10.322  67.875  1.00  0.00    -0.292 C  
BRANCH   6   7
HETATM    7  C   UNL     1      -9.801   9.943  66.985  1.00  0.00    -0.191 C  
BRANCH   7   8
HETATM    8  N   UNL     1      -9.104   8.652  67.321  1.00  0.00    -0.131 NA 
BRANCH   8   9
HETATM    9  C   UNL     1      -9.831   8.042  68.507  1.00  0.00    -0.174 C  
HETATM   10  O   UNL     1      -9.511   5.937  67.390  1.00  0.00    -0.111 OA 
HETATM   11  C   UNL     1     -10.322   6.623  68.229  1.00  0.00    -0.190 C  
HETATM   12  O   UNL     1     -11.326   6.138  68.727  1.00  0.00    -0.344 OA 
ENDBRANCH   8   9
BRANCH   8  13
HETATM   13  C   UNL     1      -7.707   8.988  67.788  1.00  0.00    -0.097 C  
HETATM   14  O   UNL     1      -6.974   8.002  65.729  1.00  0.00    -0.058 OA 
HETATM   15  O   UNL     1      -5.554   7.904  67.493  1.00  0.00    -0.035 OA 
HETATM   16  C   UNL     1      -6.631   8.227  67.020  1.00  0.00    -0.058 C  
ENDBRANCH   8  13
ENDBRANCH   7   8
ENDBRANCH   6   7
ENDBRANCH   5   6
BRANCH   5  17
HETATM   17  C   UNL     1     -10.348  12.626  68.262  1.00  0.00    -0.241 C  
BRANCH  17  18
HETATM   18  C   UNL     1     -11.500  13.452  67.622  1.00  0.00    -0.319 C  
BRANCH  18  19
HETATM   19  N   UNL     1     -11.188  14.049  66.270  1.00  0.00    -0.315 NA 
BRANCH  19  20
HETATM   20  C   UNL     1     -11.267  12.925  65.253  1.00  0.00    -0.288 C  
HETATM   21  O   UNL     1     -12.936  12.277  63.609  1.00  0.00    -0.777 OA 
HETATM   22  O   UNL     1     -12.538  14.482  63.932  1.00  0.00    -0.827 OA 
HETATM   23  C   UNL     1     -12.339  13.168  64.194  1.00  0.00    -0.348 C  
ENDBRANCH  19  20
BRANCH  19  24
HETATM   24  C   UNL     1      -9.751  14.520  66.289  1.00  0.00    -0.309 C  
HETATM   25  C   UNL     1      -9.623  16.040  66.281  1.00  0.00    -0.307 C  
HETATM   26  O   UNL     1      -8.675  16.644  65.806  1.00  0.00    -0.482 OA 
HETATM   27  O   UNL     1     -10.642  16.654  66.928  1.00  0.00    -0.302 OA 
ENDBRANCH  19  24
ENDBRANCH  18  19
ENDBRANCH  17  18
ENDBRANCH   5  17
ENDBRANCH   3   5
TORSDOF 11
ENDMDL
MODEL      176
REMARK 921   NORMALIZED FREE ENERGY PREDICTED BY IDOCK:   -4.50 KCAL/MOL
REMARK 922        TOTAL FREE ENERGY PREDICTED BY IDOCK:   -9.14 KCAL/MOL
REMARK 923 INTER-LIGAND FREE ENERGY PREDICTED BY IDOCK:   -7.85 KCAL/MOL
REMARK 924 INTRA-LIGAND FREE ENERGY PREDICTED BY IDOCK:   -1.29 KCAL/MOL
REMARK 927      BINDING AFFINITY PREDICTED BY RF-SCORE:    0.00 PKD
ROOT
HETATM    1  O   UNL     1     -13.494  15.433  71.475  1.00  0.00    -0.453 OA 
HETATM    2  C   UNL     1     -12.256  15.905  71.752  1.00  0.00    -0.481 C  
HETATM    3  C   UNL     1     -11.225  15.509  70.698  1.00  0.00    -0.347 C  
HETATM    4  O   UNL     1     -11.990  16.540  72.762  1.00  0.00    -0.533 OA 
ENDROOT
BRANCH   3   5
HETATM    5  N   UNL     1     -11.815  15.396  69.318  1.00  0.00    -0.342 NA 
BRANCH   5   6
HETATM    6  C   UNL     1     -11.004  16.232  68.371  1.00  0.00    -0.351 C  
BRANCH   6   7
HETATM    7  C   UNL     1     -10.044  17.245  69.066  1.00  0.00    -0.302 C  
BRANCH   7   8
HETATM    8  N   UNL     1      -8.583  17.119  68.731  1.00  0.00    -0.261 NA 
BRANCH   8   9
HETATM    9  C   UNL     1      -8.187  18.367  67.962  1.00  0.00    -0.271 C  
HETATM   10  O   UNL     1      -6.068  18.167  69.080  1.00  0.00    -0.216 OA 
HETATM   11  C   UNL     1      -6.944  19.044  68.537  1.00  0.00    -0.274 C  
HETATM   12  O   UNL     1      -6.739  20.247  68.492  1.00  0.00    -0.298 OA 
ENDBRANCH   8   9
BRANCH   8  13
HETATM   13  C   UNL     1      -8.422  15.951  67.786  1.00  0.00    -0.158 C  
HETATM   14  O   UNL     1      -7.161  14.927  69.549  1.00  0.00    -0.162 OA 
HETATM   15  O   UNL     1      -6.638  14.344  67.422  1.00  0.00    -0.287 OA 
HETATM   16  C   UNL     1      -7.301  15.005  68.204  1.00  0.00    -0.115 C  
ENDBRANCH   8  13
ENDBRANCH   7   8
ENDBRANCH   6   7
ENDBRANCH   5   6
BRANCH   5  17
HETATM   17  C   UNL     1     -11.732  13.968  68.876  1.00  0.00    -0.340 C  
BRANCH  17  18
HETATM   18  C   UNL     1     -11.969  12.879  69.960  1.00  0.00    -0.309 C  
BRANCH  18  19
HETATM   19  N   UNL     1     -11.479  11.496  69.600  1.00  0.00    -0.294 NA 
BRANCH  19  20
HETATM   20  C   UNL     1     -11.739  11.299  68.117  1.00  0.00    -0.253 C  
HETATM   21  O   UNL     1     -10.345  11.504  66.137  1.00  0.00    -0.229 OA 
HETATM   22  O   UNL     1      -9.435  10.617  68.010  1.00  0.00    -0.153 OA 
HETATM   23  C   UNL     1     -10.450  11.174  67.308  1.00  0.00    -0.226 C  
ENDBRANCH  19  20
BRANCH  19  24
HETATM   24  C   UNL     1     -12.340  10.490  70.332  1.00  0.00    -0.324 C  
HETATM   25  C   UNL     1     -11.547   9.295  70.851  1.00  0.00    -0.301 C  
HETATM   26  O   UNL     1     -12.016   8.179  71.004  1.00  0.00    -0.295 OA 
HETATM   27  O   UNL     1     -10.279   9.619  71.197  1.00  0.00    -0.272 OA 
ENDBRANCH  19  24
ENDBRANCH  18  19
ENDBRANCH  17  18
ENDBRANCH   5  17
ENDBRANCH   3   5
TORSDOF 11
ENDMDL
MODEL      177
REMARK 921   NORMALIZED FREE ENERGY PREDICTED BY IDOCK:   -4.50 KCAL/MOL
REMARK 922        TOTAL FREE ENERGY PREDICTED BY IDOCK:   -9.14 KCAL/MOL
REMARK 923 INTER-LIGAND FREE ENERGY PREDICTED BY IDOCK:   -7.77 KCAL/MOL
REMARK 924 INTRA-LIGAND FREE ENERGY PREDICTED BY IDOCK:   -1.36 KCAL/MOL
REMARK 927      BINDING AFFINITY PREDICTED BY RF-SCORE:    0.00 PKD
ROOT
HETATM    1  O   UNL     1     -13.220  12.413  64.683  1.00  0.00    -0.822 OA 
HETATM    2  C   UNL     1     -11.918  12.435  64.313  1.00  0.00    -0.410 C  
HETATM    3  C   UNL     1     -10.967  12.399  65.506  1.00  0.00    -0.293 C  
HETATM    4  O   UNL     1     -11.551  12.522  63.150  1.00  0.00    -0.419 OA 
ENDROOT
BRANCH   3   5
HETATM    5  N   UNL     1     -11.518  11.618  66.669  1.00  0.00    -0.467 NA 
BRANCH   5   6
HETATM    6  C   UNL     1     -10.594  10.475  66.972  1.00  0.00    -0.253 C  
BRANCH   6   7
HETATM    7  C   UNL     1     -10.489  10.117  68.485  1.00  0.00    -0.195 C  
BRANCH   7   8
HETATM    8  N   UNL     1     -10.261   8.666  68.815  1.00  0.00    -0.203 NA 
BRANCH   8   9
HETATM    9  C   UNL     1      -9.535   8.616  70.148  1.00  0.00    -0.164 C  
HETATM   10  O   UNL     1     -11.312   7.158  70.856  1.00  0.00    -0.265 OA 
HETATM   11  C   UNL     1     -10.414   8.079  71.277  1.00  0.00    -0.200 C  
HETATM   12  O   UNL     1     -10.308   8.419  72.445  1.00  0.00    -0.305 OA 
ENDBRANCH   8   9
BRANCH   8  13
HETATM   13  C   UNL     1      -9.319   8.098  67.781  1.00  0.00    -0.134 C  
HETATM   14  O   UNL     1     -11.197   6.807  67.038  1.00  0.00    -0.393 OA 
HETATM   15  O   UNL     1      -9.136   5.921  66.721  1.00  0.00    -0.122 OA 
HETATM   16  C   UNL     1      -9.848   6.817  67.143  1.00  0.00    -0.161 C  
ENDBRANCH   8  13
ENDBRANCH   7   8
ENDBRANCH   6   7
ENDBRANCH   5   6
BRANCH   5  17
HETATM   17  C   UNL     1     -11.568  12.515  67.868  1.00  0.00    -0.347 C  
BRANCH  17  18
HETATM   18  C   UNL     1     -10.645  13.766  67.852  1.00  0.00    -0.252 C  
BRANCH  18  19
HETATM   19  N   UNL     1     -10.851  14.731  68.996  1.00  0.00    -0.237 NA 
BRANCH  19  20
HETATM   20  C   UNL     1      -9.478  15.204  69.438  1.00  0.00    -0.183 C  
HETATM   21  O   UNL     1      -8.058  17.060  68.771  1.00  0.00    -0.252 OA 
HETATM   22  O   UNL     1     -10.291  17.405  68.912  1.00  0.00    -0.335 OA 
HETATM   23  C   UNL     1      -9.181  16.634  68.995  1.00  0.00    -0.223 C  
ENDBRANCH  19  20
BRANCH  19  24
HETATM   24  C   UNL     1     -11.442  13.960  70.156  1.00  0.00    -0.099 C  
HETATM   25  C   UNL     1     -12.188  14.851  71.144  1.00  0.00    -0.320 C  
HETATM   26  O   UNL     1     -12.304  14.604  72.333  1.00  0.00    -0.329 OA 
HETATM   27  O   UNL     1     -12.775  15.916  70.548  1.00  0.00    -0.387 OA 
ENDBRANCH  19  24
ENDBRANCH  18  19
ENDBRANCH  17  18
ENDBRANCH   5  17
ENDBRANCH   3   5
TORSDOF 11
ENDMDL
MODEL      178
REMARK 921   NORMALIZED FREE ENERGY PREDICTED BY IDOCK:   -4.50 KCAL/MOL
REMARK 922        TOTAL FREE ENERGY PREDICTED BY IDOCK:   -9.13 KCAL/MOL
REMARK 923 INTER-LIGAND FREE ENERGY PREDICTED BY IDOCK:   -7.43 KCAL/MOL
REMARK 924 INTRA-LIGAND FREE ENERGY PREDICTED BY IDOCK:   -1.70 KCAL/MOL
REMARK 927      BINDING AFFINITY PREDICTED BY RF-SCORE:    0.00 PKD
ROOT
HETATM    1  O   UNL     1     -11.176   9.896  71.233  1.00  0.00    -0.361 OA 
HETATM    2  C   UNL     1     -12.192  10.637  70.733  1.00  0.00    -0.375 C  
HETATM    3  C   UNL     1     -11.716  11.692  69.737  1.00  0.00    -0.352 C  
HETATM    4  O   UNL     1     -13.356  10.502  71.080  1.00  0.00    -0.317 OA 
ENDROOT
BRANCH   3   5
HETATM    5  N   UNL     1     -10.504  11.256  68.959  1.00  0.00    -0.212 NA 
BRANCH   5   6
HETATM    6  C   UNL     1     -10.921  10.236  67.938  1.00  0.00    -0.292 C  
BRANCH   6   7
HETATM    7  C   UNL     1     -10.255   8.838  68.117  1.00  0.00    -0.205 C  
BRANCH   7   8
HETATM    8  N   UNL     1      -8.817   8.833  68.558  1.00  0.00    -0.138 NA 
BRANCH   8   9
HETATM    9  C   UNL     1      -7.991   8.309  67.396  1.00  0.00    -0.106 C  
HETATM   10  O   UNL     1      -6.851  10.424  67.487  1.00  0.00    -0.074 OA 
HETATM   11  C   UNL     1      -7.230   9.416  66.668  1.00  0.00    -0.086 C  
HETATM   12  O   UNL     1      -6.965   9.392  65.476  1.00  0.00    -0.083 OA 
ENDBRANCH   8   9
BRANCH   8  13
HETATM   13  C   UNL     1      -8.680   7.832  69.681  1.00  0.00    -0.135 C  
HETATM   14  O   UNL     1      -7.754   9.646  70.946  1.00  0.00    -0.314 OA 
HETATM   15  O   UNL     1      -7.057   7.553  71.465  1.00  0.00    -0.060 OA 
HETATM   16  C   UNL     1      -7.728   8.303  70.776  1.00  0.00    -0.079 C  
ENDBRANCH   8  13
ENDBRANCH   7   8
ENDBRANCH   6   7
ENDBRANCH   5   6
BRANCH   5  17
HETATM   17  C   UNL     1      -9.943  12.443  68.238  1.00  0.00    -0.224 C  
BRANCH  17  18
HETATM   18  C   UNL     1      -9.776  12.317  66.697  1.00  0.00    -0.222 C  
BRANCH  18  19
HETATM   19  N   UNL     1     -10.608  13.277  65.880  1.00  0.00    -0.278 NA 
BRANCH  19  20
HETATM   20  C   UNL     1     -10.957  14.449  66.781  1.00  0.00    -0.314 C  
HETATM   21  O   UNL     1     -10.247  16.772  66.846  1.00  0.00    -0.279 OA 
HETATM   22  O   UNL     1     -10.579  15.801  64.828  1.00  0.00    -0.504 OA 
HETATM   23  C   UNL     1     -10.544  15.791  66.182  1.00  0.00    -0.313 C  
ENDBRANCH  19  20
BRANCH  19  24
HETATM   24  C   UNL     1     -11.910  12.589  65.535  1.00  0.00    -0.439 C  
HETATM   25  C   UNL     1     -12.080  12.355  64.038  1.00  0.00    -0.475 C  
HETATM   26  O   UNL     1     -13.161  12.301  63.473  1.00  0.00    -0.766 OA 
HETATM   27  O   UNL     1     -10.903  12.136  63.405  1.00  0.00    -0.431 OA 
ENDBRANCH  19  24
ENDBRANCH  18  19
ENDBRANCH  17  18
ENDBRANCH   5  17
ENDBRANCH   3   5
TORSDOF 11
ENDMDL
MODEL      179
REMARK 921   NORMALIZED FREE ENERGY PREDICTED BY IDOCK:   -4.49 KCAL/MOL
REMARK 922        TOTAL FREE ENERGY PREDICTED BY IDOCK:   -9.13 KCAL/MOL
REMARK 923 INTER-LIGAND FREE ENERGY PREDICTED BY IDOCK:   -7.54 KCAL/MOL
REMARK 924 INTRA-LIGAND FREE ENERGY PREDICTED BY IDOCK:   -1.59 KCAL/MOL
REMARK 927      BINDING AFFINITY PREDICTED BY RF-SCORE:    0.00 PKD
ROOT
HETATM    1  O   UNL     1     -11.275   6.422  66.979  1.00  0.00    -0.373 OA 
HETATM    2  C   UNL     1      -9.969   6.522  66.638  1.00  0.00    -0.143 C  
HETATM    3  C   UNL     1      -9.442   7.950  66.745  1.00  0.00    -0.201 C  
HETATM    4  O   UNL     1      -9.303   5.575  66.244  1.00  0.00    -0.149 OA 
ENDROOT
BRANCH   3   5
HETATM    5  N   UNL     1     -10.110   8.739  67.838  1.00  0.00    -0.195 NA 
BRANCH   5   6
HETATM    6  C   UNL     1      -9.055   9.319  68.736  1.00  0.00    -0.136 C  
BRANCH   6   7
HETATM    7  C   UNL     1      -8.804   8.506  70.042  1.00  0.00    -0.141 C  
BRANCH   7   8
HETATM    8  N   UNL     1     -10.022   7.959  70.735  1.00  0.00    -0.184 NA 
BRANCH   8   9
HETATM    9  C   UNL     1     -10.529   9.039  71.675  1.00  0.00    -0.355 C  
HETATM   10  O   UNL     1     -12.725   8.209  71.155  1.00  0.00    -0.243 OA 
HETATM   11  C   UNL     1     -12.023   9.311  71.509  1.00  0.00    -0.368 C  
HETATM   12  O   UNL     1     -12.544  10.399  71.698  1.00  0.00    -0.395 OA 
ENDBRANCH   8   9
BRANCH   8  13
HETATM   13  C   UNL     1      -9.585   6.798  71.595  1.00  0.00    -0.162 C  
HETATM   14  O   UNL     1     -10.682   5.414  69.974  1.00  0.00    -0.308 OA 
HETATM   15  O   UNL     1     -10.579   4.641  72.102  1.00  0.00    -0.185 OA 
HETATM   16  C   UNL     1     -10.345   5.513  71.282  1.00  0.00    -0.233 C  
ENDBRANCH   8  13
ENDBRANCH   7   8
ENDBRANCH   6   7
ENDBRANCH   5   6
BRANCH   5  17
HETATM   17  C   UNL     1     -10.873   9.869  67.218  1.00  0.00    -0.199 C  
BRANCH  17  18
HETATM   18  C   UNL     1     -11.299  11.033  68.157  1.00  0.00    -0.307 C  
BRANCH  18  19
HETATM   19  N   UNL     1     -11.324  12.400  67.516  1.00  0.00    -0.294 NA 
BRANCH  19  20
HETATM   20  C   UNL     1     -11.326  12.191  66.012  1.00  0.00    -0.358 C  
HETATM   21  O   UNL     1     -13.004  12.521  64.284  1.00  0.00    -0.748 OA 
HETATM   22  O   UNL     1     -12.868  14.035  65.962  1.00  0.00    -0.438 OA 
HETATM   23  C   UNL     1     -12.488  12.903  65.324  1.00  0.00    -0.493 C  
ENDBRANCH  19  20
BRANCH  19  24
HETATM   24  C   UNL     1     -10.026  13.099  67.857  1.00  0.00    -0.233 C  
HETATM   25  C   UNL     1     -10.239  14.458  68.515  1.00  0.00    -0.243 C  
HETATM   26  O   UNL     1      -9.454  15.389  68.428  1.00  0.00    -0.193 OA 
HETATM   27  O   UNL     1     -11.359  14.503  69.274  1.00  0.00    -0.257 OA 
ENDBRANCH  19  24
ENDBRANCH  18  19
ENDBRANCH  17  18
ENDBRANCH   5  17
ENDBRANCH   3   5
TORSDOF 11
ENDMDL
MODEL      180
REMARK 921   NORMALIZED FREE ENERGY PREDICTED BY IDOCK:   -4.49 KCAL/MOL
REMARK 922        TOTAL FREE ENERGY PREDICTED BY IDOCK:   -9.12 KCAL/MOL
REMARK 923 INTER-LIGAND FREE ENERGY PREDICTED BY IDOCK:   -7.44 KCAL/MOL
REMARK 924 INTRA-LIGAND FREE ENERGY PREDICTED BY IDOCK:   -1.68 KCAL/MOL
REMARK 927      BINDING AFFINITY PREDICTED BY RF-SCORE:    0.00 PKD
ROOT
HETATM    1  O   UNL     1     -13.187  10.676  70.075  1.00  0.00    -0.023 OA 
HETATM    2  C   UNL     1     -12.241  11.621  70.282  1.00  0.00    -0.318 C  
HETATM    3  C   UNL     1     -11.075  11.511  69.303  1.00  0.00    -0.246 C  
HETATM    4  O   UNL     1     -12.299  12.442  71.186  1.00  0.00    -0.306 OA 
ENDROOT
BRANCH   3   5
HETATM    5  N   UNL     1     -11.493  10.992  67.954  1.00  0.00    -0.477 NA 
BRANCH   5   6
HETATM    6  C   UNL     1     -11.080  11.979  66.901  1.00  0.00    -0.302 C  
BRANCH   6   7
HETATM    7  C   UNL     1     -11.789  13.363  67.002  1.00  0.00    -0.394 C  
BRANCH   7   8
HETATM    8  N   UNL     1     -10.934  14.522  67.437  1.00  0.00    -0.295 NA 
BRANCH   8   9
HETATM    9  C   UNL     1     -11.641  15.192  68.603  1.00  0.00    -0.338 C  
HETATM   10  O   UNL     1      -9.438  15.564  69.491  1.00  0.00    -0.258 OA 
HETATM   11  C   UNL     1     -10.735  15.363  69.821  1.00  0.00    -0.291 C  
HETATM   12  O   UNL     1     -11.133  15.348  70.975  1.00  0.00    -0.344 OA 
ENDBRANCH   8   9
BRANCH   8  13
HETATM   13  C   UNL     1     -10.903  15.525  66.308  1.00  0.00    -0.283 C  
HETATM   14  O   UNL     1      -8.541  15.121  66.251  1.00  0.00    -0.203 OA 
HETATM   15  O   UNL     1      -9.262  17.165  65.590  1.00  0.00    -0.509 OA 
HETATM   16  C   UNL     1      -9.499  16.050  66.025  1.00  0.00    -0.349 C  
ENDBRANCH   8  13
ENDBRANCH   7   8
ENDBRANCH   6   7
ENDBRANCH   5   6
BRANCH   5  17
HETATM   17  C   UNL     1     -10.780   9.700  67.695  1.00  0.00    -0.262 C  
BRANCH  17  18
HETATM   18  C   UNL     1      -9.837   9.178  68.815  1.00  0.00    -0.167 C  
BRANCH  18  19
HETATM   19  N   UNL     1     -10.297   7.916  69.506  1.00  0.00    -0.213 NA 
BRANCH  19  20
HETATM   20  C   UNL     1     -10.406   8.228  70.988  1.00  0.00    -0.191 C  
HETATM   21  O   UNL     1     -12.283   8.416  72.520  1.00  0.00    -0.386 OA 
HETATM   22  O   UNL     1     -12.335   6.793  70.942  1.00  0.00    -0.381 OA 
HETATM   23  C   UNL     1     -11.767   7.852  71.567  1.00  0.00    -0.283 C  
ENDBRANCH  19  20
BRANCH  19  24
HETATM   24  C   UNL     1      -9.206   6.879  69.358  1.00  0.00    -0.147 C  
HETATM   25  C   UNL     1      -9.665   5.637  68.602  1.00  0.00    -0.137 C  
HETATM   26  O   UNL     1      -9.200   4.521  68.773  1.00  0.00    -0.113 OA 
HETATM   27  O   UNL     1     -10.598   5.912  67.659  1.00  0.00    -0.220 OA 
ENDBRANCH  19  24
ENDBRANCH  18  19
ENDBRANCH  17  18
ENDBRANCH   5  17
ENDBRANCH   3   5
TORSDOF 11
ENDMDL
MODEL      181
REMARK 921   NORMALIZED FREE ENERGY PREDICTED BY IDOCK:   -4.48 KCAL/MOL
REMARK 922        TOTAL FREE ENERGY PREDICTED BY IDOCK:   -9.11 KCAL/MOL
REMARK 923 INTER-LIGAND FREE ENERGY PREDICTED BY IDOCK:   -7.50 KCAL/MOL
REMARK 924 INTRA-LIGAND FREE ENERGY PREDICTED BY IDOCK:   -1.61 KCAL/MOL
REMARK 927      BINDING AFFINITY PREDICTED BY RF-SCORE:    0.00 PKD
ROOT
HETATM    1  O   UNL     1      -9.574   9.601  64.577  1.00  0.00    -0.224 OA 
HETATM    2  C   UNL     1      -8.280   9.276  64.800  1.00  0.00    -0.149 C  
HETATM    3  C   UNL     1      -7.658  10.080  65.939  1.00  0.00    -0.114 C  
HETATM    4  O   UNL     1      -7.667   8.459  64.128  1.00  0.00    -0.121 OA 
ENDROOT
BRANCH   3   5
HETATM    5  N   UNL     1      -8.653  10.440  67.010  1.00  0.00    -0.130 NA 
BRANCH   5   6
HETATM    6  C   UNL     1      -8.171   9.900  68.325  1.00  0.00    -0.109 C  
BRANCH   6   7
HETATM    7  C   UNL     1      -9.180  10.072  69.500  1.00  0.00    -0.221 C  
BRANCH   7   8
HETATM    8  N   UNL     1      -9.584   8.817  70.225  1.00  0.00    -0.170 NA 
BRANCH   8   9
HETATM    9  C   UNL     1     -10.555   9.220  71.320  1.00  0.00    -0.347 C  
HETATM   10  O   UNL     1     -11.754   7.217  70.747  1.00  0.00    -0.306 OA 
HETATM   11  C   UNL     1     -11.885   8.473  71.233  1.00  0.00    -0.291 C  
HETATM   12  O   UNL     1     -12.956   8.941  71.586  1.00  0.00    -0.326 OA 
ENDBRANCH   8   9
BRANCH   8  13
HETATM   13  C   UNL     1      -8.357   8.261  70.909  1.00  0.00    -0.130 C  
HETATM   14  O   UNL     1      -8.539   6.438  69.363  1.00  0.00    -0.128 OA 
HETATM   15  O   UNL     1      -7.599   6.002  71.378  1.00  0.00    -0.094 OA 
HETATM   16  C   UNL     1      -8.134   6.783  70.608  1.00  0.00    -0.119 C  
ENDBRANCH   8  13
ENDBRANCH   7   8
ENDBRANCH   6   7
ENDBRANCH   5   6
BRANCH   5  17
HETATM   17  C   UNL     1      -8.729  11.932  67.113  1.00  0.00    -0.176 C  
BRANCH  17  18
HETATM   18  C   UNL     1      -9.735  12.653  66.171  1.00  0.00    -0.251 C  
BRANCH  18  19
HETATM   19  N   UNL     1     -11.084  12.952  66.781  1.00  0.00    -0.273 NA 
BRANCH  19  20
HETATM   20  C   UNL     1     -11.619  14.200  66.102  1.00  0.00    -0.370 C  
HETATM   21  O   UNL     1     -12.554  14.632  63.901  1.00  0.00    -0.834 OA 
HETATM   22  O   UNL     1     -13.090  12.694  64.941  1.00  0.00    -0.850 OA 
HETATM   23  C   UNL     1     -12.446  13.882  64.859  1.00  0.00    -0.391 C  
ENDBRANCH  19  20
BRANCH  19  24
HETATM   24  C   UNL     1     -10.871  13.304  68.237  1.00  0.00    -0.256 C  
HETATM   25  C   UNL     1     -11.904  12.666  69.160  1.00  0.00    -0.297 C  
HETATM   26  O   UNL     1     -12.263  13.150  70.221  1.00  0.00    -0.338 OA 
HETATM   27  O   UNL     1     -12.330  11.460  68.714  1.00  0.00    -0.480 OA 
ENDBRANCH  19  24
ENDBRANCH  18  19
ENDBRANCH  17  18
ENDBRANCH   5  17
ENDBRANCH   3   5
TORSDOF 11
ENDMDL
MODEL      182
REMARK 921   NORMALIZED FREE ENERGY PREDICTED BY IDOCK:   -4.48 KCAL/MOL
REMARK 922        TOTAL FREE ENERGY PREDICTED BY IDOCK:   -9.11 KCAL/MOL
REMARK 923 INTER-LIGAND FREE ENERGY PREDICTED BY IDOCK:   -7.70 KCAL/MOL
REMARK 924 INTRA-LIGAND FREE ENERGY PREDICTED BY IDOCK:   -1.40 KCAL/MOL
REMARK 927      BINDING AFFINITY PREDICTED BY RF-SCORE:    0.00 PKD
ROOT
HETATM    1  O   UNL     1      -6.963  10.118  67.891  1.00  0.00    -0.081 OA 
HETATM    2  C   UNL     1      -7.447  10.745  68.988  1.00  0.00    -0.118 C  
HETATM    3  C   UNL     1      -8.900  11.182  68.823  1.00  0.00    -0.125 C  
HETATM    4  O   UNL     1      -6.774  10.973  69.983  1.00  0.00    -0.153 OA 
ENDROOT
BRANCH   3   5
HETATM    5  N   UNL     1      -9.693  10.255  67.942  1.00  0.00    -0.145 NA 
BRANCH   5   6
HETATM    6  C   UNL     1     -10.602   9.424  68.799  1.00  0.00    -0.208 C  
BRANCH   6   7
HETATM    7  C   UNL     1      -9.921   8.175  69.437  1.00  0.00    -0.188 C  
BRANCH   7   8
HETATM    8  N   UNL     1     -10.210   7.927  70.893  1.00  0.00    -0.198 NA 
BRANCH   8   9
HETATM    9  C   UNL     1     -11.647   8.347  71.146  1.00  0.00    -0.279 C  
HETATM   10  O   UNL     1     -11.953   6.129  72.021  1.00  0.00    -0.324 OA 
HETATM   11  C   UNL     1     -12.573   7.158  71.399  1.00  0.00    -0.394 C  
HETATM   12  O   UNL     1     -13.756   7.138  71.099  1.00  0.00    -0.296 OA 
ENDBRANCH   8   9
BRANCH   8  13
HETATM   13  C   UNL     1      -9.333   8.851  71.704  1.00  0.00    -0.258 C  
HETATM   14  O   UNL     1      -8.325   6.852  72.562  1.00  0.00    -0.110 OA 
HETATM   15  O   UNL     1      -8.328   8.675  73.908  1.00  0.00    -0.349 OA 
HETATM   16  C   UNL     1      -8.632   8.137  72.856  1.00  0.00    -0.205 C  
ENDBRANCH   8  13
ENDBRANCH   7   8
ENDBRANCH   6   7
ENDBRANCH   5   6
BRANCH   5  17
HETATM   17  C   UNL     1     -10.537  11.077  67.017  1.00  0.00    -0.256 C  
BRANCH  17  18
HETATM   18  C   UNL     1      -9.905  12.383  66.457  1.00  0.00    -0.235 C  
BRANCH  18  19
HETATM   19  N   UNL     1     -10.842  13.564  66.371  1.00  0.00    -0.289 NA 
BRANCH  19  20
HETATM   20  C   UNL     1     -10.837  14.038  64.928  1.00  0.00    -0.410 C  
HETATM   21  O   UNL     1     -12.323  13.659  63.043  1.00  0.00    -0.672 OA 
HETATM   22  O   UNL     1     -13.233  13.932  65.098  1.00  0.00    -0.768 OA 
HETATM   23  C   UNL     1     -12.187  13.842  64.243  1.00  0.00    -0.400 C  
ENDBRANCH  19  20
BRANCH  19  24
HETATM   24  C   UNL     1     -10.255  14.686  67.200  1.00  0.00    -0.256 C  
HETATM   25  C   UNL     1     -11.253  15.276  68.191  1.00  0.00    -0.324 C  
HETATM   26  O   UNL     1     -11.223  16.431  68.585  1.00  0.00    -0.352 OA 
HETATM   27  O   UNL     1     -12.138  14.361  68.651  1.00  0.00    -0.311 OA 
ENDBRANCH  19  24
ENDBRANCH  18  19
ENDBRANCH  17  18
ENDBRANCH   5  17
ENDBRANCH   3   5
TORSDOF 11
ENDMDL
MODEL      183
REMARK 921   NORMALIZED FREE ENERGY PREDICTED BY IDOCK:   -4.48 KCAL/MOL
REMARK 922        TOTAL FREE ENERGY PREDICTED BY IDOCK:   -9.10 KCAL/MOL
REMARK 923 INTER-LIGAND FREE ENERGY PREDICTED BY IDOCK:   -7.69 KCAL/MOL
REMARK 924 INTRA-LIGAND FREE ENERGY PREDICTED BY IDOCK:   -1.41 KCAL/MOL
REMARK 927      BINDING AFFINITY PREDICTED BY RF-SCORE:    0.00 PKD
ROOT
HETATM    1  O   UNL     1     -13.386  13.945  65.475  1.00  0.00    -0.662 OA 
HETATM    2  C   UNL     1     -12.378  14.055  64.578  1.00  0.00    -0.378 C  
HETATM    3  C   UNL     1     -11.001  13.919  65.221  1.00  0.00    -0.331 C  
HETATM    4  O   UNL     1     -12.558  14.284  63.390  1.00  0.00    -0.777 OA 
ENDROOT
BRANCH   3   5
HETATM    5  N   UNL     1     -11.000  12.995  66.409  1.00  0.00    -0.278 NA 
BRANCH   5   6
HETATM    6  C   UNL     1     -10.444  11.664  65.992  1.00  0.00    -0.251 C  
BRANCH   6   7
HETATM    7  C   UNL     1     -10.779  10.493  66.965  1.00  0.00    -0.250 C  
BRANCH   7   8
HETATM    8  N   UNL     1      -9.697   9.469  67.177  1.00  0.00    -0.163 NA 
BRANCH   8   9
HETATM    9  C   UNL     1     -10.286   8.362  68.033  1.00  0.00    -0.215 C  
HETATM   10  O   UNL     1      -9.392   6.857  66.384  1.00  0.00    -0.169 OA 
HETATM   11  C   UNL     1     -10.384   7.031  67.289  1.00  0.00    -0.261 C  
HETATM   12  O   UNL     1     -11.246   6.193  67.499  1.00  0.00    -0.292 OA 
ENDBRANCH   8   9
BRANCH   8  13
HETATM   13  C   UNL     1      -8.600  10.115  67.989  1.00  0.00    -0.118 C  
HETATM   14  O   UNL     1      -7.138   9.459  66.206  1.00  0.00    -0.086 OA 
HETATM   15  O   UNL     1      -6.240   9.619  68.280  1.00  0.00    -0.054 OA 
HETATM   16  C   UNL     1      -7.206   9.690  67.538  1.00  0.00    -0.090 C  
ENDBRANCH   8  13
ENDBRANCH   7   8
ENDBRANCH   6   7
ENDBRANCH   5   6
BRANCH   5  17
HETATM   17  C   UNL     1     -10.105  13.570  67.463  1.00  0.00    -0.234 C  
BRANCH  17  18
HETATM   18  C   UNL     1     -10.723  13.781  68.874  1.00  0.00    -0.227 C  
BRANCH  18  19
HETATM   19  N   UNL     1     -10.616  15.186  69.419  1.00  0.00    -0.245 NA 
BRANCH  19  20
HETATM   20  C   UNL     1     -12.029  15.673  69.686  1.00  0.00    -0.349 C  
HETATM   21  O   UNL     1     -13.580  15.361  71.530  1.00  0.00    -0.464 OA 
HETATM   22  O   UNL     1     -11.384  15.643  72.002  1.00  0.00    -0.398 OA 
HETATM   23  C   UNL     1     -12.431  15.527  71.151  1.00  0.00    -0.432 C  
ENDBRANCH  19  20
BRANCH  19  24
HETATM   24  C   UNL     1     -10.049  16.067  68.327  1.00  0.00    -0.229 C  
HETATM   25  C   UNL     1      -8.730  16.725  68.719  1.00  0.00    -0.258 C  
HETATM   26  O   UNL     1      -8.347  17.799  68.283  1.00  0.00    -0.259 OA 
HETATM   27  O   UNL     1      -7.988  15.956  69.550  1.00  0.00    -0.224 OA 
ENDBRANCH  19  24
ENDBRANCH  18  19
ENDBRANCH  17  18
ENDBRANCH   5  17
ENDBRANCH   3   5
TORSDOF 11
ENDMDL
MODEL      184
REMARK 921   NORMALIZED FREE ENERGY PREDICTED BY IDOCK:   -4.47 KCAL/MOL
REMARK 922        TOTAL FREE ENERGY PREDICTED BY IDOCK:   -9.08 KCAL/MOL
REMARK 923 INTER-LIGAND FREE ENERGY PREDICTED BY IDOCK:   -7.66 KCAL/MOL
REMARK 924 INTRA-LIGAND FREE ENERGY PREDICTED BY IDOCK:   -1.42 KCAL/MOL
REMARK 927      BINDING AFFINITY PREDICTED BY RF-SCORE:    0.00 PKD
ROOT
HETATM    1  O   UNL     1      -5.883  14.636  69.030  1.00  0.00    -0.087 OA 
HETATM    2  C   UNL     1      -6.346  13.955  67.956  1.00  0.00    -0.142 C  
HETATM    3  C   UNL     1      -7.858  14.081  67.788  1.00  0.00    -0.171 C  
HETATM    4  O   UNL     1      -5.632  13.277  67.232  1.00  0.00    -0.356 OA 
ENDROOT
BRANCH   3   5
HETATM    5  N   UNL     1      -8.390  15.406  68.263  1.00  0.00    -0.147 NA 
BRANCH   5   6
HETATM    6  C   UNL     1      -8.221  16.421  67.169  1.00  0.00    -0.180 C  
BRANCH   6   7
HETATM    7  C   UNL     1      -7.403  17.682  67.582  1.00  0.00    -0.194 C  
BRANCH   7   8
HETATM    8  N   UNL     1      -7.622  18.920  66.756  1.00  0.00    -0.224 NA 
BRANCH   8   9
HETATM    9  C   UNL     1      -9.053  18.880  66.251  1.00  0.00    -0.261 C  
HETATM   10  O   UNL     1      -9.405  20.814  67.635  1.00  0.00    -0.298 OA 
HETATM   11  C   UNL     1     -10.002  19.722  67.103  1.00  0.00    -0.409 C  
HETATM   12  O   UNL     1     -11.182  19.461  67.271  1.00  0.00    -0.362 OA 
ENDBRANCH   8   9
BRANCH   8  13
HETATM   13  C   UNL     1      -6.726  18.832  65.543  1.00  0.00    -0.250 C  
HETATM   14  O   UNL     1      -6.343  21.175  65.876  1.00  0.00    -0.244 OA 
HETATM   15  O   UNL     1      -6.195  20.389  63.756  1.00  0.00    -0.248 OA 
HETATM   16  C   UNL     1      -6.414  20.198  64.941  1.00  0.00    -0.286 C  
ENDBRANCH   8  13
ENDBRANCH   7   8
ENDBRANCH   6   7
ENDBRANCH   5   6
BRANCH   5  17
HETATM   17  C   UNL     1      -9.853  15.262  68.549  1.00  0.00    -0.210 C  
BRANCH  17  18
HETATM   18  C   UNL     1     -10.800  15.115  67.324  1.00  0.00    -0.316 C  
BRANCH  18  19
HETATM   19  N   UNL     1     -11.370  13.732  67.114  1.00  0.00    -0.311 NA 
BRANCH  19  20
HETATM   20  C   UNL     1     -12.502  13.859  66.111  1.00  0.00    -0.436 C  
HETATM   21  O   UNL     1     -12.890  12.916  63.905  1.00  0.00    -0.672 OA 
HETATM   22  O   UNL     1     -11.928  11.610  65.483  1.00  0.00    -0.234 OA 
HETATM   23  C   UNL     1     -12.458  12.773  65.039  1.00  0.00    -0.506 C  
ENDBRANCH  19  20
BRANCH  19  24
HETATM   24  C   UNL     1     -11.991  13.280  68.418  1.00  0.00    -0.301 C  
HETATM   25  C   UNL     1     -11.553  11.879  68.831  1.00  0.00    -0.311 C  
HETATM   26  O   UNL     1     -12.235  11.120  69.501  1.00  0.00    -0.323 OA 
HETATM   27  O   UNL     1     -10.290  11.589  68.439  1.00  0.00    -0.188 OA 
ENDBRANCH  19  24
ENDBRANCH  18  19
ENDBRANCH  17  18
ENDBRANCH   5  17
ENDBRANCH   3   5
TORSDOF 11
ENDMDL
MODEL      185
REMARK 921   NORMALIZED FREE ENERGY PREDICTED BY IDOCK:   -4.46 KCAL/MOL
REMARK 922        TOTAL FREE ENERGY PREDICTED BY IDOCK:   -9.07 KCAL/MOL
REMARK 923 INTER-LIGAND FREE ENERGY PREDICTED BY IDOCK:   -7.88 KCAL/MOL
REMARK 924 INTRA-LIGAND FREE ENERGY PREDICTED BY IDOCK:   -1.19 KCAL/MOL
REMARK 927      BINDING AFFINITY PREDICTED BY RF-SCORE:    0.00 PKD
ROOT
HETATM    1  O   UNL     1     -12.226  13.013  70.637  1.00  0.00    -0.364 OA 
HETATM    2  C   UNL     1     -12.597  11.746  70.934  1.00  0.00    -0.289 C  
HETATM    3  C   UNL     1     -12.173  10.743  69.863  1.00  0.00    -0.313 C  
HETATM    4  O   UNL     1     -13.242  11.451  71.929  1.00  0.00    -0.484 OA 
ENDROOT
BRANCH   3   5
HETATM    5  N   UNL     1     -10.888  11.127  69.181  1.00  0.00    -0.227 NA 
BRANCH   5   6
HETATM    6  C   UNL     1      -9.846  10.090  69.484  1.00  0.00    -0.229 C  
BRANCH   6   7
HETATM    7  C   UNL     1     -10.012   9.396  70.869  1.00  0.00    -0.283 C  
BRANCH   7   8
HETATM    8  N   UNL     1     -10.261   7.912  70.849  1.00  0.00    -0.198 NA 
BRANCH   8   9
HETATM    9  C   UNL     1      -9.590   7.325  72.078  1.00  0.00    -0.150 C  
HETATM   10  O   UNL     1     -11.774   6.501  72.655  1.00  0.00    -0.207 OA 
HETATM   11  C   UNL     1     -10.591   6.923  73.160  1.00  0.00    -0.302 C  
HETATM   12  O   UNL     1     -10.351   6.951  74.357  1.00  0.00    -0.296 OA 
ENDBRANCH   8   9
BRANCH   8  13
HETATM   13  C   UNL     1      -9.549   7.339  69.645  1.00  0.00    -0.155 C  
HETATM   14  O   UNL     1     -11.609   6.201  69.191  1.00  0.00    -0.287 OA 
HETATM   15  O   UNL     1      -9.697   5.209  68.488  1.00  0.00    -0.133 OA 
HETATM   16  C   UNL     1     -10.264   6.125  69.061  1.00  0.00    -0.191 C  
ENDBRANCH   8  13
ENDBRANCH   7   8
ENDBRANCH   6   7
ENDBRANCH   5   6
BRANCH   5  17
HETATM   17  C   UNL     1     -11.118  11.145  67.701  1.00  0.00    -0.287 C  
BRANCH  17  18
HETATM   18  C   UNL     1     -11.772  12.424  67.104  1.00  0.00    -0.345 C  
BRANCH  18  19
HETATM   19  N   UNL     1     -10.880  13.236  66.194  1.00  0.00    -0.279 NA 
BRANCH  19  20
HETATM   20  C   UNL     1     -10.872  12.547  64.841  1.00  0.00    -0.293 C  
HETATM   21  O   UNL     1     -12.579  12.165  63.154  1.00  0.00    -0.564 OA 
HETATM   22  O   UNL     1     -12.563  14.149  64.242  1.00  0.00    -0.676 OA 
HETATM   23  C   UNL     1     -12.092  12.904  63.995  1.00  0.00    -0.455 C  
ENDBRANCH  19  20
BRANCH  19  24
HETATM   24  C   UNL     1      -9.468  13.157  66.732  1.00  0.00    -0.252 C  
HETATM   25  C   UNL     1      -8.881  14.525  67.062  1.00  0.00    -0.237 C  
HETATM   26  O   UNL     1      -7.689  14.784  67.019  1.00  0.00    -0.168 OA 
HETATM   27  O   UNL     1      -9.816  15.409  67.482  1.00  0.00    -0.216 OA 
ENDBRANCH  19  24
ENDBRANCH  18  19
ENDBRANCH  17  18
ENDBRANCH   5  17
ENDBRANCH   3   5
TORSDOF 11
ENDMDL
MODEL      186
REMARK 921   NORMALIZED FREE ENERGY PREDICTED BY IDOCK:   -4.45 KCAL/MOL
REMARK 922        TOTAL FREE ENERGY PREDICTED BY IDOCK:   -9.06 KCAL/MOL
REMARK 923 INTER-LIGAND FREE ENERGY PREDICTED BY IDOCK:   -7.69 KCAL/MOL
REMARK 924 INTRA-LIGAND FREE ENERGY PREDICTED BY IDOCK:   -1.37 KCAL/MOL
REMARK 927      BINDING AFFINITY PREDICTED BY RF-SCORE:    0.00 PKD
ROOT
HETATM    1  O   UNL     1     -10.907  12.258  63.284  1.00  0.00    -0.435 OA 
HETATM    2  C   UNL     1     -11.921  12.989  63.802  1.00  0.00    -0.518 C  
HETATM    3  C   UNL     1     -12.162  12.695  65.281  1.00  0.00    -0.475 C  
HETATM    4  O   UNL     1     -12.596  13.765  63.141  1.00  0.00    -0.793 OA 
ENDROOT
BRANCH   3   5
HETATM    5  N   UNL     1     -10.902  12.327  66.016  1.00  0.00    -0.265 NA 
BRANCH   5   6
HETATM    6  C   UNL     1     -10.632  13.360  67.071  1.00  0.00    -0.264 C  
BRANCH   6   7
HETATM    7  C   UNL     1     -11.908  14.065  67.622  1.00  0.00    -0.395 C  
BRANCH   7   8
HETATM    8  N   UNL     1     -11.780  14.723  68.969  1.00  0.00    -0.299 NA 
BRANCH   8   9
HETATM    9  C   UNL     1     -10.297  14.909  69.241  1.00  0.00    -0.234 C  
HETATM   10  O   UNL     1     -10.786  17.263  69.288  1.00  0.00    -0.260 OA 
HETATM   11  C   UNL     1      -9.832  16.345  69.006  1.00  0.00    -0.266 C  
HETATM   12  O   UNL     1      -8.710  16.646  68.629  1.00  0.00    -0.230 OA 
ENDBRANCH   8   9
BRANCH   8  13
HETATM   13  C   UNL     1     -12.299  13.757  70.008  1.00  0.00    -0.300 C  
HETATM   14  O   UNL     1     -13.447  15.647  70.934  1.00  0.00    -0.569 OA 
HETATM   15  O   UNL     1     -12.851  13.991  72.361  1.00  0.00    -0.351 OA 
HETATM   16  C   UNL     1     -12.866  14.462  71.236  1.00  0.00    -0.342 C  
ENDBRANCH   8  13
ENDBRANCH   7   8
ENDBRANCH   6   7
ENDBRANCH   5   6
BRANCH   5  17
HETATM   17  C   UNL     1     -11.108  11.006  66.691  1.00  0.00    -0.133 C  
BRANCH  17  18
HETATM   18  C   UNL     1     -10.038   9.907  66.435  1.00  0.00    -0.240 C  
BRANCH  18  19
HETATM   19  N   UNL     1      -9.430   9.300  67.677  1.00  0.00    -0.131 NA 
BRANCH  19  20
HETATM   20  C   UNL     1      -8.362   8.322  67.223  1.00  0.00    -0.124 C  
HETATM   21  O   UNL     1      -6.066   8.588  66.470  1.00  0.00    -0.054 OA 
HETATM   22  O   UNL     1      -6.806   9.896  68.163  1.00  0.00    -0.064 OA 
HETATM   23  C   UNL     1      -6.965   8.939  67.219  1.00  0.00    -0.078 C  
ENDBRANCH  19  20
BRANCH  19  24
HETATM   24  C   UNL     1     -10.500   8.487  68.371  1.00  0.00    -0.171 C  
HETATM   25  C   UNL     1     -10.457   8.620  69.889  1.00  0.00    -0.218 C  
HETATM   26  O   UNL     1     -10.827   7.751  70.662  1.00  0.00    -0.229 OA 
HETATM   27  O   UNL     1     -10.033   9.840  70.296  1.00  0.00    -0.248 OA 
ENDBRANCH  19  24
ENDBRANCH  18  19
ENDBRANCH  17  18
ENDBRANCH   5  17
ENDBRANCH   3   5
TORSDOF 11
ENDMDL
MODEL      187
REMARK 921   NORMALIZED FREE ENERGY PREDICTED BY IDOCK:   -4.45 KCAL/MOL
REMARK 922        TOTAL FREE ENERGY PREDICTED BY IDOCK:   -9.06 KCAL/MOL
REMARK 923 INTER-LIGAND FREE ENERGY PREDICTED BY IDOCK:   -7.33 KCAL/MOL
REMARK 924 INTRA-LIGAND FREE ENERGY PREDICTED BY IDOCK:   -1.73 KCAL/MOL
REMARK 927      BINDING AFFINITY PREDICTED BY RF-SCORE:    0.00 PKD
ROOT
HETATM    1  O   UNL     1      -6.358  14.683  67.353  1.00  0.00    -0.323 OA 
HETATM    2  C   UNL     1      -6.726  14.254  68.583  1.00  0.00    -0.092 C  
HETATM    3  C   UNL     1      -7.761  13.134  68.530  1.00  0.00    -0.117 C  
HETATM    4  O   UNL     1      -6.306  14.747  69.620  1.00  0.00    -0.119 OA 
ENDROOT
BRANCH   3   5
HETATM    5  N   UNL     1      -7.604  12.251  67.322  1.00  0.00    -0.156 NA 
BRANCH   5   6
HETATM    6  C   UNL     1      -7.322  10.847  67.775  1.00  0.00    -0.093 C  
BRANCH   6   7
HETATM    7  C   UNL     1      -7.929  10.486  69.165  1.00  0.00    -0.145 C  
BRANCH   7   8
HETATM    8  N   UNL     1      -9.120   9.567  69.156  1.00  0.00    -0.145 NA 
BRANCH   8   9
HETATM    9  C   UNL     1      -9.021   8.688  70.391  1.00  0.00    -0.158 C  
HETATM   10  O   UNL     1     -11.420   8.825  70.461  1.00  0.00    -0.262 OA 
HETATM   11  C   UNL     1     -10.306   8.685  71.216  1.00  0.00    -0.239 C  
HETATM   12  O   UNL     1     -10.338   8.546  72.429  1.00  0.00    -0.320 OA 
ENDBRANCH   8   9
BRANCH   8  13
HETATM   13  C   UNL     1      -8.994   8.656  67.958  1.00  0.00    -0.141 C  
HETATM   14  O   UNL     1     -11.097   9.573  67.263  1.00  0.00    -0.115 OA 
HETATM   15  O   UNL     1     -10.618   7.458  66.606  1.00  0.00    -0.257 OA 
HETATM   16  C   UNL     1     -10.316   8.469  67.219  1.00  0.00    -0.302 C  
ENDBRANCH   8  13
ENDBRANCH   7   8
ENDBRANCH   6   7
ENDBRANCH   5   6
BRANCH   5  17
HETATM   17  C   UNL     1      -8.893  12.249  66.558  1.00  0.00    -0.128 C  
BRANCH  17  18
HETATM   18  C   UNL     1     -10.078  13.047  67.172  1.00  0.00    -0.244 C  
BRANCH  18  19
HETATM   19  N   UNL     1     -10.689  14.089  66.266  1.00  0.00    -0.286 NA 
BRANCH  19  20
HETATM   20  C   UNL     1     -11.016  13.404  64.951  1.00  0.00    -0.342 C  
HETATM   21  O   UNL     1     -12.977  12.230  64.124  1.00  0.00    -0.721 OA 
HETATM   22  O   UNL     1     -13.282  14.077  65.398  1.00  0.00    -0.761 OA 
HETATM   23  C   UNL     1     -12.512  13.150  64.780  1.00  0.00    -0.402 C  
ENDBRANCH  19  20
BRANCH  19  24
HETATM   24  C   UNL     1      -9.629  15.126  65.966  1.00  0.00    -0.330 C  
HETATM   25  C   UNL     1     -10.025  16.528  66.415  1.00  0.00    -0.303 C  
HETATM   26  O   UNL     1      -9.633  17.553  65.882  1.00  0.00    -0.514 OA 
HETATM   27  O   UNL     1     -10.804  16.522  67.523  1.00  0.00    -0.313 OA 
ENDBRANCH  19  24
ENDBRANCH  18  19
ENDBRANCH  17  18
ENDBRANCH   5  17
ENDBRANCH   3   5
TORSDOF 11
ENDMDL
MODEL      188
REMARK 921   NORMALIZED FREE ENERGY PREDICTED BY IDOCK:   -4.45 KCAL/MOL
REMARK 922        TOTAL FREE ENERGY PREDICTED BY IDOCK:   -9.05 KCAL/MOL
REMARK 923 INTER-LIGAND FREE ENERGY PREDICTED BY IDOCK:   -7.52 KCAL/MOL
REMARK 924 INTRA-LIGAND FREE ENERGY PREDICTED BY IDOCK:   -1.52 KCAL/MOL
REMARK 927      BINDING AFFINITY PREDICTED BY RF-SCORE:    0.00 PKD
ROOT
HETATM    1  O   UNL     1      -7.985  10.743  66.312  1.00  0.00    -0.150 OA 
HETATM    2  C   UNL     1      -8.836  10.390  65.320  1.00  0.00    -0.186 C  
HETATM    3  C   UNL     1     -10.283  10.288  65.795  1.00  0.00    -0.219 C  
HETATM    4  O   UNL     1      -8.471  10.136  64.181  1.00  0.00    -0.161 OA 
ENDROOT
BRANCH   3   5
HETATM    5  N   UNL     1     -10.604  11.257  66.901  1.00  0.00    -0.245 NA 
BRANCH   5   6
HETATM    6  C   UNL     1     -11.502  12.333  66.362  1.00  0.00    -0.378 C  
BRANCH   6   7
HETATM    7  C   UNL     1     -11.561  13.621  67.238  1.00  0.00    -0.356 C  
BRANCH   7   8
HETATM    8  N   UNL     1     -10.740  14.789  66.766  1.00  0.00    -0.302 NA 
BRANCH   8   9
HETATM    9  C   UNL     1     -10.783  14.787  65.248  1.00  0.00    -0.390 C  
HETATM   10  O   UNL     1     -10.521  17.171  65.416  1.00  0.00    -0.633 OA 
HETATM   11  C   UNL     1     -11.044  16.174  64.664  1.00  0.00    -0.296 C  
HETATM   12  O   UNL     1     -11.638  16.374  63.616  1.00  0.00    -0.926 OA 
ENDBRANCH   8   9
BRANCH   8  13
HETATM   13  C   UNL     1      -9.304  14.539  67.164  1.00  0.00    -0.218 C  
HETATM   14  O   UNL     1      -9.687  16.159  68.889  1.00  0.00    -0.219 OA 
HETATM   15  O   UNL     1      -7.571  15.957  68.103  1.00  0.00    -0.127 OA 
HETATM   16  C   UNL     1      -8.746  15.630  68.071  1.00  0.00    -0.167 C  
ENDBRANCH   8  13
ENDBRANCH   7   8
ENDBRANCH   6   7
ENDBRANCH   5   6
BRANCH   5  17
HETATM   17  C   UNL     1     -11.340  10.526  67.981  1.00  0.00    -0.246 C  
BRANCH  17  18
HETATM   18  C   UNL     1     -10.776  10.647  69.425  1.00  0.00    -0.244 C  
BRANCH  18  19
HETATM   19  N   UNL     1     -10.200   9.374  69.998  1.00  0.00    -0.212 NA 
BRANCH  19  20
HETATM   20  C   UNL     1     -10.249   8.324  68.901  1.00  0.00    -0.210 C  
HETATM   21  O   UNL     1      -8.617   7.516  67.292  1.00  0.00    -0.117 OA 
HETATM   22  O   UNL     1      -7.917   7.996  69.391  1.00  0.00    -0.111 OA 
HETATM   23  C   UNL     1      -8.858   7.914  68.421  1.00  0.00    -0.130 C  
ENDBRANCH  19  20
BRANCH  19  24
HETATM   24  C   UNL     1     -11.122   8.897  71.098  1.00  0.00    -0.285 C  
HETATM   25  C   UNL     1     -10.378   8.236  72.253  1.00  0.00    -0.316 C  
HETATM   26  O   UNL     1     -10.856   7.369  72.967  1.00  0.00    -0.313 OA 
HETATM   27  O   UNL     1      -9.148   8.765  72.455  1.00  0.00    -0.367 OA 
ENDBRANCH  19  24
ENDBRANCH  18  19
ENDBRANCH  17  18
ENDBRANCH   5  17
ENDBRANCH   3   5
TORSDOF 11
ENDMDL
MODEL      189
REMARK 921   NORMALIZED FREE ENERGY PREDICTED BY IDOCK:   -4.45 KCAL/MOL
REMARK 922        TOTAL FREE ENERGY PREDICTED BY IDOCK:   -9.05 KCAL/MOL
REMARK 923 INTER-LIGAND FREE ENERGY PREDICTED BY IDOCK:   -7.35 KCAL/MOL
REMARK 924 INTRA-LIGAND FREE ENERGY PREDICTED BY IDOCK:   -1.69 KCAL/MOL
REMARK 927      BINDING AFFINITY PREDICTED BY RF-SCORE:    0.00 PKD
ROOT
HETATM    1  O   UNL     1     -11.524   8.712  70.313  1.00  0.00    -0.205 OA 
HETATM    2  C   UNL     1     -10.343   9.336  70.535  1.00  0.00    -0.254 C  
HETATM    3  C   UNL     1      -9.681   9.816  69.246  1.00  0.00    -0.196 C  
HETATM    4  O   UNL     1      -9.845   9.457  71.645  1.00  0.00    -0.219 OA 
ENDROOT
BRANCH   3   5
HETATM    5  N   UNL     1     -10.677  10.208  68.189  1.00  0.00    -0.226 NA 
BRANCH   5   6
HETATM    6  C   UNL     1     -10.286  11.541  67.619  1.00  0.00    -0.184 C  
BRANCH   6   7
HETATM    7  C   UNL     1     -11.486  12.416  67.145  1.00  0.00    -0.357 C  
BRANCH   7   8
HETATM    8  N   UNL     1     -11.371  13.020  65.772  1.00  0.00    -0.294 NA 
BRANCH   8   9
HETATM    9  C   UNL     1     -10.103  12.471  65.142  1.00  0.00    -0.246 C  
HETATM   10  O   UNL     1     -11.524  11.752  63.340  1.00  0.00    -0.402 OA 
HETATM   11  C   UNL     1     -10.387  11.474  64.020  1.00  0.00    -0.355 C  
HETATM   12  O   UNL     1      -9.658  10.536  63.740  1.00  0.00    -0.264 OA 
ENDBRANCH   8   9
BRANCH   8  13
HETATM   13  C   UNL     1     -11.171  14.508  65.936  1.00  0.00    -0.331 C  
HETATM   14  O   UNL     1     -12.624  14.732  64.042  1.00  0.00    -0.822 OA 
HETATM   15  O   UNL     1     -11.072  16.353  64.359  1.00  0.00    -0.825 OA 
HETATM   16  C   UNL     1     -11.582  15.298  64.697  1.00  0.00    -0.333 C  
ENDBRANCH   8  13
ENDBRANCH   7   8
ENDBRANCH   6   7
ENDBRANCH   5   6
BRANCH   5  17
HETATM   17  C   UNL     1     -10.633   9.194  67.087  1.00  0.00    -0.216 C  
BRANCH  17  18
HETATM   18  C   UNL     1      -9.326   8.363  66.946  1.00  0.00    -0.174 C  
BRANCH  18  19
HETATM   19  N   UNL     1      -9.506   6.866  67.024  1.00  0.00    -0.145 NA 
BRANCH  19  20
HETATM   20  C   UNL     1      -8.596   6.360  68.129  1.00  0.00    -0.117 C  
HETATM   21  O   UNL     1      -8.857   6.140  70.536  1.00  0.00    -0.143 OA 
HETATM   22  O   UNL     1     -10.629   5.666  69.209  1.00  0.00    -0.267 OA 
HETATM   23  C   UNL     1      -9.353   6.064  69.422  1.00  0.00    -0.131 C  
ENDBRANCH  19  20
BRANCH  19  24
HETATM   24  C   UNL     1      -8.997   6.266  65.732  1.00  0.00    -0.068 C  
HETATM   25  C   UNL     1      -9.477   4.835  65.511  1.00  0.00    -0.163 C  
HETATM   26  O   UNL     1      -8.857   3.998  64.875  1.00  0.00    -0.121 OA 
HETATM   27  O   UNL     1     -10.705   4.609  66.033  1.00  0.00    -0.295 OA 
ENDBRANCH  19  24
ENDBRANCH  18  19
ENDBRANCH  17  18
ENDBRANCH   5  17
ENDBRANCH   3   5
TORSDOF 11
ENDMDL
MODEL      190
REMARK 921   NORMALIZED FREE ENERGY PREDICTED BY IDOCK:   -4.44 KCAL/MOL
REMARK 922        TOTAL FREE ENERGY PREDICTED BY IDOCK:   -9.03 KCAL/MOL
REMARK 923 INTER-LIGAND FREE ENERGY PREDICTED BY IDOCK:   -7.35 KCAL/MOL
REMARK 924 INTRA-LIGAND FREE ENERGY PREDICTED BY IDOCK:   -1.69 KCAL/MOL
REMARK 927      BINDING AFFINITY PREDICTED BY RF-SCORE:    0.00 PKD
ROOT
HETATM    1  O   UNL     1     -10.719   9.527  70.962  1.00  0.00    -0.300 OA 
HETATM    2  C   UNL     1     -11.714  10.418  70.746  1.00  0.00    -0.368 C  
HETATM    3  C   UNL     1     -11.300  11.544  69.802  1.00  0.00    -0.226 C  
HETATM    4  O   UNL     1     -12.808  10.347  71.287  1.00  0.00    -0.365 OA 
ENDROOT
BRANCH   3   5
HETATM    5  N   UNL     1     -10.301  11.102  68.768  1.00  0.00    -0.199 NA 
BRANCH   5   6
HETATM    6  C   UNL     1     -11.030  10.437  67.637  1.00  0.00    -0.312 C  
BRANCH   6   7
HETATM    7  C   UNL     1     -10.498   9.018  67.273  1.00  0.00    -0.273 C  
BRANCH   7   8
HETATM    8  N   UNL     1      -9.029   8.914  66.964  1.00  0.00    -0.125 NA 
BRANCH   8   9
HETATM    9  C   UNL     1      -8.897   8.162  65.651  1.00  0.00    -0.120 C  
HETATM   10  O   UNL     1      -7.536  10.012  64.937  1.00  0.00    -0.131 OA 
HETATM   11  C   UNL     1      -8.387   9.047  64.515  1.00  0.00    -0.175 C  
HETATM   12  O   UNL     1      -8.688   8.893  63.342  1.00  0.00    -0.152 OA 
ENDBRANCH   8   9
BRANCH   8  13
HETATM   13  C   UNL     1      -8.391   8.053  68.029  1.00  0.00    -0.126 C  
HETATM   14  O   UNL     1      -6.756   9.797  68.208  1.00  0.00    -0.060 OA 
HETATM   15  O   UNL     1      -6.088   7.691  68.710  1.00  0.00    -0.030 OA 
HETATM   16  C   UNL     1      -6.954   8.464  68.335  1.00  0.00    -0.069 C  
ENDBRANCH   8  13
ENDBRANCH   7   8
ENDBRANCH   6   7
ENDBRANCH   5   6
BRANCH   5  17
HETATM   17  C   UNL     1      -9.599  12.311  68.231  1.00  0.00    -0.212 C  
BRANCH  17  18
HETATM   18  C   UNL     1      -9.780  12.617  66.717  1.00  0.00    -0.240 C  
BRANCH  18  19
HETATM   19  N   UNL     1     -10.630  13.825  66.403  1.00  0.00    -0.281 NA 
BRANCH  19  20
HETATM   20  C   UNL     1     -10.692  13.951  64.891  1.00  0.00    -0.410 C  
HETATM   21  O   UNL     1     -12.294  13.211  63.221  1.00  0.00    -0.712 OA 
HETATM   22  O   UNL     1     -13.077  13.992  65.196  1.00  0.00    -0.776 OA 
HETATM   23  C   UNL     1     -12.084  13.661  64.337  1.00  0.00    -0.427 C  
ENDBRANCH  19  20
BRANCH  19  24
HETATM   24  C   UNL     1      -9.904  15.051  66.913  1.00  0.00    -0.238 C  
HETATM   25  C   UNL     1     -10.789  15.952  67.769  1.00  0.00    -0.324 C  
HETATM   26  O   UNL     1     -10.640  17.160  67.869  1.00  0.00    -0.357 OA 
HETATM   27  O   UNL     1     -11.718  15.261  68.470  1.00  0.00    -0.340 OA 
ENDBRANCH  19  24
ENDBRANCH  18  19
ENDBRANCH  17  18
ENDBRANCH   5  17
ENDBRANCH   3   5
TORSDOF 11
ENDMDL
MODEL      191
REMARK 921   NORMALIZED FREE ENERGY PREDICTED BY IDOCK:   -4.44 KCAL/MOL
REMARK 922        TOTAL FREE ENERGY PREDICTED BY IDOCK:   -9.03 KCAL/MOL
REMARK 923 INTER-LIGAND FREE ENERGY PREDICTED BY IDOCK:   -7.95 KCAL/MOL
REMARK 924 INTRA-LIGAND FREE ENERGY PREDICTED BY IDOCK:   -1.08 KCAL/MOL
REMARK 927      BINDING AFFINITY PREDICTED BY RF-SCORE:    0.00 PKD
ROOT
HETATM    1  O   UNL     1     -11.210  10.172  71.183  1.00  0.00    -0.325 OA 
HETATM    2  C   UNL     1     -12.514  10.534  71.188  1.00  0.00    -0.412 C  
HETATM    3  C   UNL     1     -12.732  11.957  70.681  1.00  0.00    -0.091 C  
HETATM    4  O   UNL     1     -13.410   9.810  71.599  1.00  0.00    -0.380 OA 
ENDROOT
BRANCH   3   5
HETATM    5  N   UNL     1     -11.730  12.364  69.635  1.00  0.00    -0.313 NA 
BRANCH   5   6
HETATM    6  C   UNL     1     -11.980  11.572  68.385  1.00  0.00    -0.198 C  
BRANCH   6   7
HETATM    7  C   UNL     1     -10.795  11.578  67.371  1.00  0.00    -0.246 C  
BRANCH   7   8
HETATM    8  N   UNL     1     -11.154  11.787  65.925  1.00  0.00    -0.315 NA 
BRANCH   8   9
HETATM    9  C   UNL     1      -9.853  11.891  65.149  1.00  0.00    -0.218 C  
HETATM   10  O   UNL     1      -9.870   9.487  65.148  1.00  0.00    -0.248 OA 
HETATM   11  C   UNL     1      -9.071  10.579  65.131  1.00  0.00    -0.197 C  
HETATM   12  O   UNL     1      -7.853  10.510  65.081  1.00  0.00    -0.142 OA 
ENDBRANCH   8   9
BRANCH   8  13
HETATM   13  C   UNL     1     -11.844  13.125  65.807  1.00  0.00    -0.397 C  
HETATM   14  O   UNL     1     -12.930  12.195  63.882  1.00  0.00    -0.726 OA 
HETATM   15  O   UNL     1     -12.605  14.437  63.910  1.00  0.00    -0.814 OA 
HETATM   16  C   UNL     1     -12.473  13.344  64.434  1.00  0.00    -0.277 C  
ENDBRANCH   8  13
ENDBRANCH   7   8
ENDBRANCH   6   7
ENDBRANCH   5   6
BRANCH   5  17
HETATM   17  C   UNL     1     -11.926  13.815  69.321  1.00  0.00    -0.352 C  
BRANCH  17  18
HETATM   18  C   UNL     1     -11.055  14.833  70.111  1.00  0.00    -0.170 C  
BRANCH  18  19
HETATM   19  N   UNL     1     -10.009  15.553  69.293  1.00  0.00    -0.246 NA 
BRANCH  19  20
HETATM   20  C   UNL     1     -10.741  16.356  68.233  1.00  0.00    -0.337 C  
HETATM   21  O   UNL     1     -11.053  18.738  67.864  1.00  0.00    -0.193 OA 
HETATM   22  O   UNL     1      -9.039  18.014  68.604  1.00  0.00    -0.298 OA 
HETATM   23  C   UNL     1     -10.323  17.825  68.220  1.00  0.00    -0.385 C  
ENDBRANCH  19  20
BRANCH  19  24
HETATM   24  C   UNL     1      -9.189  14.511  68.563  1.00  0.00    -0.195 C  
HETATM   25  C   UNL     1      -7.691  14.791  68.615  1.00  0.00    -0.130 C  
HETATM   26  O   UNL     1      -6.901  14.444  67.751  1.00  0.00    -0.150 OA 
HETATM   27  O   UNL     1      -7.312  15.403  69.761  1.00  0.00    -0.197 OA 
ENDBRANCH  19  24
ENDBRANCH  18  19
ENDBRANCH  17  18
ENDBRANCH   5  17
ENDBRANCH   3   5
TORSDOF 11
ENDMDL
MODEL      192
REMARK 921   NORMALIZED FREE ENERGY PREDICTED BY IDOCK:   -4.44 KCAL/MOL
REMARK 922        TOTAL FREE ENERGY PREDICTED BY IDOCK:   -9.03 KCAL/MOL
REMARK 923 INTER-LIGAND FREE ENERGY PREDICTED BY IDOCK:   -7.57 KCAL/MOL
REMARK 924 INTRA-LIGAND FREE ENERGY PREDICTED BY IDOCK:   -1.46 KCAL/MOL
REMARK 927      BINDING AFFINITY PREDICTED BY RF-SCORE:    0.00 PKD
ROOT
HETATM    1  O   UNL     1     -12.137  12.641  70.790  1.00  0.00    -0.329 OA 
HETATM    2  C   UNL     1     -12.515  11.346  70.899  1.00  0.00    -0.379 C  
HETATM    3  C   UNL     1     -11.792  10.438  69.907  1.00  0.00    -0.238 C  
HETATM    4  O   UNL     1     -13.375  10.960  71.677  1.00  0.00    -0.363 OA 
ENDROOT
BRANCH   3   5
HETATM    5  N   UNL     1     -10.396  10.905  69.598  1.00  0.00    -0.115 NA 
BRANCH   5   6
HETATM    6  C   UNL     1      -9.431   9.797  69.905  1.00  0.00    -0.231 C  
BRANCH   6   7
HETATM    7  C   UNL     1      -9.732   9.028  71.227  1.00  0.00    -0.301 C  
BRANCH   7   8
HETATM    8  N   UNL     1      -9.876   7.535  71.115  1.00  0.00    -0.174 NA 
BRANCH   8   9
HETATM    9  C   UNL     1      -9.983   7.201  69.637  1.00  0.00    -0.174 C  
HETATM   10  O   UNL     1      -8.488   5.382  70.124  1.00  0.00    -0.114 OA 
HETATM   11  C   UNL     1      -8.881   6.254  69.166  1.00  0.00    -0.128 C  
HETATM   12  O   UNL     1      -8.414   6.257  68.038  1.00  0.00    -0.117 OA 
ENDBRANCH   8   9
BRANCH   8  13
HETATM   13  C   UNL     1     -11.191   7.147  71.749  1.00  0.00    -0.246 C  
HETATM   14  O   UNL     1      -9.862   6.018  73.394  1.00  0.00    -0.155 OA 
HETATM   15  O   UNL     1     -11.927   5.184  72.975  1.00  0.00    -0.231 OA 
HETATM   16  C   UNL     1     -11.049   6.000  72.744  1.00  0.00    -0.269 C  
ENDBRANCH   8  13
ENDBRANCH   7   8
ENDBRANCH   6   7
ENDBRANCH   5   6
BRANCH   5  17
HETATM   17  C   UNL     1     -10.306  11.217  68.136  1.00  0.00    -0.187 C  
BRANCH  17  18
HETATM   18  C   UNL     1     -11.628  11.604  67.415  1.00  0.00    -0.254 C  
BRANCH  18  19
HETATM   19  N   UNL     1     -11.545  12.828  66.534  1.00  0.00    -0.356 NA 
BRANCH  19  20
HETATM   20  C   UNL     1     -12.159  13.981  67.308  1.00  0.00    -0.370 C  
HETATM   21  O   UNL     1     -11.295  15.510  68.988  1.00  0.00    -0.281 OA 
HETATM   22  O   UNL     1      -9.945  14.919  67.269  1.00  0.00    -0.229 OA 
HETATM   23  C   UNL     1     -11.106  14.872  67.964  1.00  0.00    -0.295 C  
ENDBRANCH  19  20
BRANCH  19  24
HETATM   24  C   UNL     1     -12.427  12.595  65.327  1.00  0.00    -0.416 C  
HETATM   25  C   UNL     1     -11.874  13.230  64.055  1.00  0.00    -0.455 C  
HETATM   26  O   UNL     1     -12.566  13.619  63.128  1.00  0.00    -0.792 OA 
HETATM   27  O   UNL     1     -10.520  13.252  64.027  1.00  0.00    -0.374 OA 
ENDBRANCH  19  24
ENDBRANCH  18  19
ENDBRANCH  17  18
ENDBRANCH   5  17
ENDBRANCH   3   5
TORSDOF 11
ENDMDL
MODEL      193
REMARK 921   NORMALIZED FREE ENERGY PREDICTED BY IDOCK:   -4.43 KCAL/MOL
REMARK 922        TOTAL FREE ENERGY PREDICTED BY IDOCK:   -9.02 KCAL/MOL
REMARK 923 INTER-LIGAND FREE ENERGY PREDICTED BY IDOCK:   -7.63 KCAL/MOL
REMARK 924 INTRA-LIGAND FREE ENERGY PREDICTED BY IDOCK:   -1.40 KCAL/MOL
REMARK 927      BINDING AFFINITY PREDICTED BY RF-SCORE:    0.00 PKD
ROOT
HETATM    1  O   UNL     1     -10.652   5.250  66.211  1.00  0.00    -0.283 OA 
HETATM    2  C   UNL     1      -9.380   5.711  66.221  1.00  0.00    -0.157 C  
HETATM    3  C   UNL     1      -9.295   7.194  66.572  1.00  0.00    -0.164 C  
HETATM    4  O   UNL     1      -8.413   5.021  65.935  1.00  0.00    -0.116 OA 
ENDROOT
BRANCH   3   5
HETATM    5  N   UNL     1     -10.379   7.633  67.520  1.00  0.00    -0.233 NA 
BRANCH   5   6
HETATM    6  C   UNL     1      -9.950   7.328  68.926  1.00  0.00    -0.166 C  
BRANCH   6   7
HETATM    7  C   UNL     1     -11.114   7.306  69.963  1.00  0.00    -0.240 C  
BRANCH   7   8
HETATM    8  N   UNL     1     -10.834   7.945  71.296  1.00  0.00    -0.232 NA 
BRANCH   8   9
HETATM    9  C   UNL     1     -11.212   9.411  71.182  1.00  0.00    -0.357 C  
HETATM   10  O   UNL     1     -12.992   8.887  72.710  1.00  0.00    -0.359 OA 
HETATM   11  C   UNL     1     -12.623   9.698  71.691  1.00  0.00    -0.402 C  
HETATM   12  O   UNL     1     -13.342  10.580  71.249  1.00  0.00    -0.328 OA 
ENDBRANCH   8   9
BRANCH   8  13
HETATM   13  C   UNL     1      -9.343   7.893  71.532  1.00  0.00    -0.143 C  
HETATM   14  O   UNL     1      -9.898   7.627  73.849  1.00  0.00    -0.250 OA 
HETATM   15  O   UNL     1      -7.926   8.630  73.361  1.00  0.00    -0.405 OA 
HETATM   16  C   UNL     1      -8.970   8.117  72.994  1.00  0.00    -0.266 C  
ENDBRANCH   8  13
ENDBRANCH   7   8
ENDBRANCH   6   7
ENDBRANCH   5   6
BRANCH   5  17
HETATM   17  C   UNL     1     -10.558   9.114  67.393  1.00  0.00    -0.244 C  
BRANCH  17  18
HETATM   18  C   UNL     1     -10.311   9.737  65.989  1.00  0.00    -0.114 C  
BRANCH  18  19
HETATM   19  N   UNL     1     -10.606  11.214  65.881  1.00  0.00    -0.255 NA 
BRANCH  19  20
HETATM   20  C   UNL     1     -10.855  11.516  64.414  1.00  0.00    -0.342 C  
HETATM   21  O   UNL     1     -12.871  11.827  63.093  1.00  0.00    -0.571 OA 
HETATM   22  O   UNL     1     -12.815  12.671  65.193  1.00  0.00    -0.721 OA 
HETATM   23  C   UNL     1     -12.279  11.996  64.148  1.00  0.00    -0.359 C  
ENDBRANCH  19  20
BRANCH  19  24
HETATM   24  C   UNL     1      -9.357  11.970  66.276  1.00  0.00    -0.223 C  
HETATM   25  C   UNL     1      -9.657  13.254  67.042  1.00  0.00    -0.243 C  
HETATM   26  O   UNL     1      -8.938  14.240  67.031  1.00  0.00    -0.216 OA 
HETATM   27  O   UNL     1     -10.773  13.161  67.803  1.00  0.00    -0.233 OA 
ENDBRANCH  19  24
ENDBRANCH  18  19
ENDBRANCH  17  18
ENDBRANCH   5  17
ENDBRANCH   3   5
TORSDOF 11
ENDMDL
MODEL      194
REMARK 921   NORMALIZED FREE ENERGY PREDICTED BY IDOCK:   -4.42 KCAL/MOL
REMARK 922        TOTAL FREE ENERGY PREDICTED BY IDOCK:   -9.01 KCAL/MOL
REMARK 923 INTER-LIGAND FREE ENERGY PREDICTED BY IDOCK:   -7.86 KCAL/MOL
REMARK 924 INTRA-LIGAND FREE ENERGY PREDICTED BY IDOCK:   -1.15 KCAL/MOL
REMARK 927      BINDING AFFINITY PREDICTED BY RF-SCORE:    0.00 PKD
ROOT
HETATM    1  O   UNL     1     -11.678  13.277  63.628  1.00  0.00    -0.440 OA 
HETATM    2  C   UNL     1     -12.228  14.230  64.416  1.00  0.00    -0.447 C  
HETATM    3  C   UNL     1     -12.317  13.804  65.879  1.00  0.00    -0.476 C  
HETATM    4  O   UNL     1     -12.647  15.296  63.988  1.00  0.00    -0.750 OA 
ENDROOT
BRANCH   3   5
HETATM    5  N   UNL     1     -11.196  12.888  66.290  1.00  0.00    -0.291 NA 
BRANCH   5   6
HETATM    6  C   UNL     1     -10.058  13.714  66.816  1.00  0.00    -0.269 C  
BRANCH   6   7
HETATM    7  C   UNL     1     -10.484  15.086  67.419  1.00  0.00    -0.257 C  
BRANCH   7   8
HETATM    8  N   UNL     1      -9.430  16.159  67.450  1.00  0.00    -0.225 NA 
BRANCH   8   9
HETATM    9  C   UNL     1      -9.918  17.298  66.572  1.00  0.00    -0.305 C  
HETATM   10  O   UNL     1      -9.721  18.663  68.542  1.00  0.00    -0.333 OA 
HETATM   11  C   UNL     1     -10.399  18.501  67.381  1.00  0.00    -0.400 C  
HETATM   12  O   UNL     1     -11.283  19.260  67.017  1.00  0.00    -0.284 OA 
ENDBRANCH   8   9
BRANCH   8  13
HETATM   13  C   UNL     1      -8.185  15.606  66.798  1.00  0.00    -0.265 C  
HETATM   14  O   UNL     1      -7.028  16.406  68.739  1.00  0.00    -0.151 OA 
HETATM   15  O   UNL     1      -5.859  16.306  66.800  1.00  0.00    -0.329 OA 
HETATM   16  C   UNL     1      -6.903  16.156  67.415  1.00  0.00    -0.182 C  
ENDBRANCH   8  13
ENDBRANCH   7   8
ENDBRANCH   6   7
ENDBRANCH   5   6
BRANCH   5  17
HETATM   17  C   UNL     1     -11.682  11.999  67.393  1.00  0.00    -0.281 C  
BRANCH  17  18
HETATM   18  C   UNL     1     -10.623  11.503  68.418  1.00  0.00    -0.201 C  
BRANCH  18  19
HETATM   19  N   UNL     1     -11.104  10.438  69.374  1.00  0.00    -0.239 NA 
BRANCH  19  20
HETATM   20  C   UNL     1     -11.462  11.131  70.677  1.00  0.00     0.063 C  
HETATM   21  O   UNL     1     -13.518  11.317  71.958  1.00  0.00    -0.389 OA 
HETATM   22  O   UNL     1     -13.043   9.341  70.960  1.00  0.00    -0.236 OA 
HETATM   23  C   UNL     1     -12.783  10.636  71.260  1.00  0.00    -0.433 C  
ENDBRANCH  19  20
BRANCH  19  24
HETATM   24  C   UNL     1      -9.940   9.519  69.674  1.00  0.00    -0.205 C  
HETATM   25  C   UNL     1     -10.099   8.136  69.053  1.00  0.00    -0.205 C  
HETATM   26  O   UNL     1      -9.615   7.117  69.520  1.00  0.00    -0.155 OA 
HETATM   27  O   UNL     1     -10.776   8.163  67.880  1.00  0.00    -0.177 OA 
ENDBRANCH  19  24
ENDBRANCH  18  19
ENDBRANCH  17  18
ENDBRANCH   5  17
ENDBRANCH   3   5
TORSDOF 11
ENDMDL
MODEL      195
REMARK 921   NORMALIZED FREE ENERGY PREDICTED BY IDOCK:   -4.41 KCAL/MOL
REMARK 922        TOTAL FREE ENERGY PREDICTED BY IDOCK:   -8.99 KCAL/MOL
REMARK 923 INTER-LIGAND FREE ENERGY PREDICTED BY IDOCK:   -8.84 KCAL/MOL
REMARK 924 INTRA-LIGAND FREE ENERGY PREDICTED BY IDOCK:   -0.15 KCAL/MOL
REMARK 927      BINDING AFFINITY PREDICTED BY RF-SCORE:    0.00 PKD
ROOT
HETATM    1  O   UNL     1      -6.154  13.702  67.217  1.00  0.00    -0.324 OA 
HETATM    2  C   UNL     1      -6.138  13.518  68.558  1.00  0.00    -0.090 C  
HETATM    3  C   UNL     1      -7.225  14.316  69.275  1.00  0.00    -0.083 C  
HETATM    4  O   UNL     1      -5.310  12.824  69.131  1.00  0.00    -0.068 OA 
ENDROOT
BRANCH   3   5
HETATM    5  N   UNL     1      -8.468  14.486  68.444  1.00  0.00    -0.157 NA 
BRANCH   5   6
HETATM    6  C   UNL     1      -8.228  15.557  67.419  1.00  0.00    -0.177 C  
BRANCH   6   7
HETATM    7  C   UNL     1      -8.816  16.950  67.795  1.00  0.00    -0.217 C  
BRANCH   7   8
HETATM    8  N   UNL     1     -10.316  17.045  67.868  1.00  0.00    -0.323 NA 
BRANCH   8   9
HETATM    9  C   UNL     1     -10.693  18.481  67.547  1.00  0.00    -0.377 C  
HETATM   10  O   UNL     1     -10.743  17.764  65.252  1.00  0.00    -0.649 OA 
HETATM   11  C   UNL     1     -10.514  18.820  66.068  1.00  0.00    -0.432 C  
HETATM   12  O   UNL     1     -10.220  19.930  65.652  1.00  0.00    -0.423 OA 
ENDBRANCH   8   9
BRANCH   8  13
HETATM   13  C   UNL     1     -10.728  16.793  69.299  1.00  0.00    -0.324 C  
HETATM   14  O   UNL     1     -11.911  14.895  68.438  1.00  0.00    -0.299 OA 
HETATM   15  O   UNL     1     -12.733  15.870  70.311  1.00  0.00    -0.343 OA 
HETATM   16  C   UNL     1     -11.909  15.835  69.412  1.00  0.00    -0.349 C  
ENDBRANCH   8  13
ENDBRANCH   7   8
ENDBRANCH   6   7
ENDBRANCH   5   6
BRANCH   5  17
HETATM   17  C   UNL     1      -8.744  13.200  67.726  1.00  0.00    -0.188 C  
BRANCH  17  18
HETATM   18  C   UNL     1      -9.548  13.293  66.398  1.00  0.00    -0.254 C  
BRANCH  18  19
HETATM   19  N   UNL     1     -10.703  12.328  66.277  1.00  0.00    -0.252 NA 
BRANCH  19  20
HETATM   20  C   UNL     1     -10.214  10.977  66.768  1.00  0.00    -0.229 C  
HETATM   21  O   UNL     1     -10.369   9.821  68.900  1.00  0.00    -0.193 OA 
HETATM   22  O   UNL     1     -12.154  11.017  68.188  1.00  0.00    -0.610 OA 
HETATM   23  C   UNL     1     -10.890  10.546  68.067  1.00  0.00    -0.263 C  
ENDBRANCH  19  20
BRANCH  19  24
HETATM   24  C   UNL     1     -11.025  12.167  64.808  1.00  0.00    -0.310 C  
HETATM   25  C   UNL     1     -12.478  12.494  64.478  1.00  0.00    -0.459 C  
HETATM   26  O   UNL     1     -13.098  11.994  63.553  1.00  0.00    -0.764 OA 
HETATM   27  O   UNL     1     -12.992  13.459  65.278  1.00  0.00    -0.681 OA 
ENDBRANCH  19  24
ENDBRANCH  18  19
ENDBRANCH  17  18
ENDBRANCH   5  17
ENDBRANCH   3   5
TORSDOF 11
ENDMDL
MODEL      196
REMARK 921   NORMALIZED FREE ENERGY PREDICTED BY IDOCK:   -4.41 KCAL/MOL
REMARK 922        TOTAL FREE ENERGY PREDICTED BY IDOCK:   -8.99 KCAL/MOL
REMARK 923 INTER-LIGAND FREE ENERGY PREDICTED BY IDOCK:   -7.46 KCAL/MOL
REMARK 924 INTRA-LIGAND FREE ENERGY PREDICTED BY IDOCK:   -1.53 KCAL/MOL
REMARK 927      BINDING AFFINITY PREDICTED BY RF-SCORE:    0.00 PKD
ROOT
HETATM    1  O   UNL     1     -12.326  13.419  70.786  1.00  0.00    -0.353 OA 
HETATM    2  C   UNL     1     -12.863  12.290  71.305  1.00  0.00    -0.239 C  
HETATM    3  C   UNL     1     -12.553  11.053  70.466  1.00  0.00    -0.304 C  
HETATM    4  O   UNL     1     -13.557  12.276  72.310  1.00  0.00    -0.472 OA 
ENDROOT
BRANCH   3   5
HETATM    5  N   UNL     1     -11.218  11.134  69.776  1.00  0.00    -0.260 NA 
BRANCH   5   6
HETATM    6  C   UNL     1     -10.309  10.082  70.344  1.00  0.00    -0.205 C  
BRANCH   6   7
HETATM    7  C   UNL     1     -10.769   8.619  70.070  1.00  0.00    -0.228 C  
BRANCH   7   8
HETATM    8  N   UNL     1      -9.883   7.796  69.174  1.00  0.00    -0.170 NA 
BRANCH   8   9
HETATM    9  C   UNL     1      -9.428   6.589  69.976  1.00  0.00    -0.156 C  
HETATM   10  O   UNL     1     -10.040   5.299  68.042  1.00  0.00    -0.160 OA 
HETATM   11  C   UNL     1      -9.928   5.270  69.391  1.00  0.00    -0.218 C  
HETATM   12  O   UNL     1     -10.180   4.279  70.058  1.00  0.00    -0.113 OA 
ENDBRANCH   8   9
BRANCH   8  13
HETATM   13  C   UNL     1      -8.649   8.611  68.868  1.00  0.00    -0.130 C  
HETATM   14  O   UNL     1      -9.303   8.410  66.571  1.00  0.00    -0.172 OA 
HETATM   15  O   UNL     1      -7.090   8.624  67.006  1.00  0.00    -0.073 OA 
HETATM   16  C   UNL     1      -8.241   8.532  67.400  1.00  0.00    -0.109 C  
ENDBRANCH   8  13
ENDBRANCH   7   8
ENDBRANCH   6   7
ENDBRANCH   5   6
BRANCH   5  17
HETATM   17  C   UNL     1     -11.412  10.852  68.318  1.00  0.00    -0.305 C  
BRANCH  17  18
HETATM   18  C   UNL     1     -10.492  11.614  67.323  1.00  0.00    -0.216 C  
BRANCH  18  19
HETATM   19  N   UNL     1     -11.080  12.881  66.746  1.00  0.00    -0.273 NA 
BRANCH  19  20
HETATM   20  C   UNL     1     -11.023  12.755  65.235  1.00  0.00    -0.284 C  
HETATM   21  O   UNL     1     -12.713  12.393  63.526  1.00  0.00    -0.727 OA 
HETATM   22  O   UNL     1     -13.216  13.742  65.273  1.00  0.00    -0.755 OA 
HETATM   23  C   UNL     1     -12.394  12.917  64.582  1.00  0.00    -0.439 C  
ENDBRANCH  19  20
BRANCH  19  24
HETATM   24  C   UNL     1     -10.171  14.030  67.123  1.00  0.00    -0.258 C  
HETATM   25  C   UNL     1     -10.935  15.306  67.461  1.00  0.00    -0.315 C  
HETATM   26  O   UNL     1     -10.489  16.431  67.304  1.00  0.00    -0.299 OA 
HETATM   27  O   UNL     1     -12.140  15.060  68.028  1.00  0.00    -0.230 OA 
ENDBRANCH  19  24
ENDBRANCH  18  19
ENDBRANCH  17  18
ENDBRANCH   5  17
ENDBRANCH   3   5
TORSDOF 11
ENDMDL
MODEL      197
REMARK 921   NORMALIZED FREE ENERGY PREDICTED BY IDOCK:   -4.41 KCAL/MOL
REMARK 922        TOTAL FREE ENERGY PREDICTED BY IDOCK:   -8.99 KCAL/MOL
REMARK 923 INTER-LIGAND FREE ENERGY PREDICTED BY IDOCK:   -7.80 KCAL/MOL
REMARK 924 INTRA-LIGAND FREE ENERGY PREDICTED BY IDOCK:   -1.19 KCAL/MOL
REMARK 927      BINDING AFFINITY PREDICTED BY RF-SCORE:    0.00 PKD
ROOT
HETATM    1  O   UNL     1     -13.277  12.937  64.861  1.00  0.00    -0.782 OA 
HETATM    2  C   UNL     1     -12.569  12.177  63.994  1.00  0.00    -0.403 C  
HETATM    3  C   UNL     1     -11.061  12.318  64.184  1.00  0.00    -0.366 C  
HETATM    4  O   UNL     1     -13.086  11.489  63.126  1.00  0.00    -0.352 OA 
ENDROOT
BRANCH   3   5
HETATM    5  N   UNL     1     -10.675  12.579  65.615  1.00  0.00    -0.260 NA 
BRANCH   5   6
HETATM    6  C   UNL     1      -9.617  11.595  66.024  1.00  0.00    -0.228 C  
BRANCH   6   7
HETATM    7  C   UNL     1     -10.160  10.180  66.385  1.00  0.00    -0.236 C  
BRANCH   7   8
HETATM    8  N   UNL     1     -10.348   9.889  67.849  1.00  0.00    -0.197 NA 
BRANCH   8   9
HETATM    9  C   UNL     1     -10.104  11.186  68.601  1.00  0.00    -0.200 C  
HETATM   10  O   UNL     1     -12.339  10.908  69.442  1.00  0.00    -0.349 OA 
HETATM   11  C   UNL     1     -11.395  11.821  69.114  1.00  0.00    -0.279 C  
HETATM   12  O   UNL     1     -11.560  13.024  69.243  1.00  0.00    -0.279 OA 
ENDBRANCH   8   9
BRANCH   8  13
HETATM   13  C   UNL     1      -9.265   8.925  68.273  1.00  0.00    -0.140 C  
HETATM   14  O   UNL     1     -10.992   7.801  69.497  1.00  0.00    -0.198 OA 
HETATM   15  O   UNL     1      -8.880   7.651  70.304  1.00  0.00    -0.143 OA 
HETATM   16  C   UNL     1      -9.667   8.080  69.477  1.00  0.00    -0.170 C  
ENDBRANCH   8  13
ENDBRANCH   7   8
ENDBRANCH   6   7
ENDBRANCH   5   6
BRANCH   5  17
HETATM   17  C   UNL     1     -10.098  13.958  65.712  1.00  0.00    -0.320 C  
BRANCH  17  18
HETATM   18  C   UNL     1      -9.196  14.261  66.942  1.00  0.00    -0.254 C  
BRANCH  18  19
HETATM   19  N   UNL     1      -8.929  15.725  67.199  1.00  0.00    -0.205 NA 
BRANCH  19  20
HETATM   20  C   UNL     1      -9.130  16.456  65.884  1.00  0.00    -0.182 C  
HETATM   21  O   UNL     1     -11.028  17.597  64.882  1.00  0.00    -0.886 OA 
HETATM   22  O   UNL     1     -10.690  17.815  67.110  1.00  0.00    -0.319 OA 
HETATM   23  C   UNL     1     -10.383  17.328  65.884  1.00  0.00    -0.278 C  
ENDBRANCH  19  20
BRANCH  19  24
HETATM   24  C   UNL     1      -7.468  15.876  67.563  1.00  0.00    -0.168 C  
HETATM   25  C   UNL     1      -7.153  17.223  68.205  1.00  0.00    -0.190 C  
HETATM   26  O   UNL     1      -6.068  17.779  68.128  1.00  0.00    -0.167 OA 
HETATM   27  O   UNL     1      -8.183  17.709  68.937  1.00  0.00    -0.250 OA 
ENDBRANCH  19  24
ENDBRANCH  18  19
ENDBRANCH  17  18
ENDBRANCH   5  17
ENDBRANCH   3   5
TORSDOF 11
ENDMDL
MODEL      198
REMARK 921   NORMALIZED FREE ENERGY PREDICTED BY IDOCK:   -4.41 KCAL/MOL
REMARK 922        TOTAL FREE ENERGY PREDICTED BY IDOCK:   -8.98 KCAL/MOL
REMARK 923 INTER-LIGAND FREE ENERGY PREDICTED BY IDOCK:   -7.93 KCAL/MOL
REMARK 924 INTRA-LIGAND FREE ENERGY PREDICTED BY IDOCK:   -1.05 KCAL/MOL
REMARK 927      BINDING AFFINITY PREDICTED BY RF-SCORE:    0.00 PKD
ROOT
HETATM    1  O   UNL     1     -10.000  19.979  66.341  1.00  0.00    -0.425 OA 
HETATM    2  C   UNL     1      -8.868  19.282  66.086  1.00  0.00    -0.247 C  
HETATM    3  C   UNL     1      -8.985  17.810  66.474  1.00  0.00    -0.261 C  
HETATM    4  O   UNL     1      -7.852  19.792  65.638  1.00  0.00    -0.381 OA 
ENDROOT
BRANCH   3   5
HETATM    5  N   UNL     1     -10.381  17.273  66.315  1.00  0.00    -0.339 NA 
BRANCH   5   6
HETATM    6  C   UNL     1     -10.314  15.919  65.671  1.00  0.00    -0.390 C  
BRANCH   6   7
HETATM    7  C   UNL     1     -11.231  14.846  66.332  1.00  0.00    -0.331 C  
BRANCH   7   8
HETATM    8  N   UNL     1     -11.155  13.457  65.759  1.00  0.00    -0.282 NA 
BRANCH   8   9
HETATM    9  C   UNL     1     -10.194  12.663  66.626  1.00  0.00    -0.236 C  
HETATM   10  O   UNL     1     -12.150  11.528  67.442  1.00  0.00    -0.593 OA 
HETATM   11  C   UNL     1     -10.898  11.928  67.765  1.00  0.00    -0.211 C  
HETATM   12  O   UNL     1     -10.385  11.697  68.849  1.00  0.00    -0.209 OA 
ENDBRANCH   8   9
BRANCH   8  13
HETATM   13  C   UNL     1     -10.531  13.554  64.387  1.00  0.00    -0.346 C  
HETATM   14  O   UNL     1     -11.590  11.448  63.951  1.00  0.00    -0.299 OA 
HETATM   15  O   UNL     1      -9.669  11.897  62.835  1.00  0.00    -0.349 OA 
HETATM   16  C   UNL     1     -10.518  12.219  63.650  1.00  0.00    -0.450 C  
ENDBRANCH   8  13
ENDBRANCH   7   8
ENDBRANCH   6   7
ENDBRANCH   5   6
BRANCH   5  17
HETATM   17  C   UNL     1     -10.994  17.120  67.673  1.00  0.00    -0.148 C  
BRANCH  17  18
HETATM   18  C   UNL     1     -10.036  17.215  68.894  1.00  0.00    -0.322 C  
BRANCH  18  19
HETATM   19  N   UNL     1     -10.088  16.042  69.844  1.00  0.00    -0.213 NA 
BRANCH  19  20
HETATM   20  C   UNL     1      -9.201  14.955  69.265  1.00  0.00    -0.098 C  
HETATM   21  O   UNL     1      -7.133  14.992  67.990  1.00  0.00    -0.108 OA 
HETATM   22  O   UNL     1      -7.399  16.497  69.660  1.00  0.00    -0.110 OA 
HETATM   23  C   UNL     1      -7.817  15.471  68.881  1.00  0.00    -0.182 C  
ENDBRANCH  19  20
BRANCH  19  24
HETATM   24  C   UNL     1     -11.501  15.501  69.841  1.00  0.00    -0.327 C  
HETATM   25  C   UNL     1     -11.866  14.783  71.135  1.00  0.00    -0.334 C  
HETATM   26  O   UNL     1     -12.678  13.875  71.207  1.00  0.00    -0.333 OA 
HETATM   27  O   UNL     1     -11.246  15.308  72.218  1.00  0.00    -0.408 OA 
ENDBRANCH  19  24
ENDBRANCH  18  19
ENDBRANCH  17  18
ENDBRANCH   5  17
ENDBRANCH   3   5
TORSDOF 11
ENDMDL
MODEL      199
REMARK 921   NORMALIZED FREE ENERGY PREDICTED BY IDOCK:   -4.39 KCAL/MOL
REMARK 922        TOTAL FREE ENERGY PREDICTED BY IDOCK:   -8.96 KCAL/MOL
REMARK 923 INTER-LIGAND FREE ENERGY PREDICTED BY IDOCK:   -7.61 KCAL/MOL
REMARK 924 INTRA-LIGAND FREE ENERGY PREDICTED BY IDOCK:   -1.35 KCAL/MOL
REMARK 927      BINDING AFFINITY PREDICTED BY RF-SCORE:    0.00 PKD
ROOT
HETATM    1  O   UNL     1      -8.848  11.058  66.200  1.00  0.00    -0.179 OA 
HETATM    2  C   UNL     1     -10.130  10.826  65.832  1.00  0.00    -0.256 C  
HETATM    3  C   UNL     1     -11.089  10.815  67.020  1.00  0.00    -0.174 C  
HETATM    4  O   UNL     1     -10.468  10.605  64.679  1.00  0.00    -0.336 OA 
ENDROOT
BRANCH   3   5
HETATM    5  N   UNL     1     -10.664  11.747  68.122  1.00  0.00    -0.204 NA 
BRANCH   5   6
HETATM    6  C   UNL     1     -11.725  12.793  68.314  1.00  0.00    -0.344 C  
BRANCH   6   7
HETATM    7  C   UNL     1     -11.958  13.208  69.798  1.00  0.00    -0.314 C  
BRANCH   7   8
HETATM    8  N   UNL     1     -11.855  14.677  70.106  1.00  0.00    -0.289 NA 
BRANCH   8   9
HETATM    9  C   UNL     1     -13.164  15.095  70.753  1.00  0.00    -0.382 C  
HETATM   10  O   UNL     1     -11.798  16.343  72.288  1.00  0.00    -0.534 OA 
HETATM   11  C   UNL     1     -12.970  15.679  72.151  1.00  0.00    -0.449 C  
HETATM   12  O   UNL     1     -13.790  15.584  73.050  1.00  0.00    -0.489 OA 
ENDBRANCH   8   9
BRANCH   8  13
HETATM   13  C   UNL     1     -11.757  15.420  68.794  1.00  0.00    -0.351 C  
HETATM   14  O   UNL     1      -9.628  16.182  69.589  1.00  0.00    -0.208 OA 
HETATM   15  O   UNL     1     -10.748  17.534  68.156  1.00  0.00    -0.381 OA 
HETATM   16  C   UNL     1     -10.688  16.507  68.812  1.00  0.00    -0.339 C  
ENDBRANCH   8  13
ENDBRANCH   7   8
ENDBRANCH   6   7
ENDBRANCH   5   6
BRANCH   5  17
HETATM   17  C   UNL     1     -10.540  10.963  69.392  1.00  0.00    -0.197 C  
BRANCH  17  18
HETATM   18  C   UNL     1     -11.079   9.505  69.377  1.00  0.00    -0.110 C  
BRANCH  18  19
HETATM   19  N   UNL     1     -10.303   8.524  70.223  1.00  0.00    -0.200 NA 
BRANCH  19  20
HETATM   20  C   UNL     1     -10.293   7.199  69.481  1.00  0.00    -0.215 C  
HETATM   21  O   UNL     1      -8.629   6.059  68.126  1.00  0.00    -0.115 OA 
HETATM   22  O   UNL     1      -7.939   7.174  69.971  1.00  0.00    -0.113 OA 
HETATM   23  C   UNL     1      -8.884   6.754  69.098  1.00  0.00    -0.134 C  
ENDBRANCH  19  20
BRANCH  19  24
HETATM   24  C   UNL     1     -11.075   8.300  71.505  1.00  0.00    -0.259 C  
HETATM   25  C   UNL     1     -10.171   8.122  72.720  1.00  0.00    -0.302 C  
HETATM   26  O   UNL     1     -10.470   7.465  73.704  1.00  0.00    -0.360 OA 
HETATM   27  O   UNL     1      -9.023   8.834  72.627  1.00  0.00    -0.380 OA 
ENDBRANCH  19  24
ENDBRANCH  18  19
ENDBRANCH  17  18
ENDBRANCH   5  17
ENDBRANCH   3   5
TORSDOF 11
ENDMDL
MODEL      200
REMARK 921   NORMALIZED FREE ENERGY PREDICTED BY IDOCK:   -4.38 KCAL/MOL
REMARK 922        TOTAL FREE ENERGY PREDICTED BY IDOCK:   -8.94 KCAL/MOL
REMARK 923 INTER-LIGAND FREE ENERGY PREDICTED BY IDOCK:   -7.71 KCAL/MOL
REMARK 924 INTRA-LIGAND FREE ENERGY PREDICTED BY IDOCK:   -1.23 KCAL/MOL
REMARK 927      BINDING AFFINITY PREDICTED BY RF-SCORE:    0.00 PKD
ROOT
HETATM    1  O   UNL     1     -10.452  10.908  63.852  1.00  0.00    -0.363 OA 
HETATM    2  C   UNL     1      -9.282  10.316  64.185  1.00  0.00    -0.267 C  
HETATM    3  C   UNL     1      -8.640  10.938  65.422  1.00  0.00    -0.120 C  
HETATM    4  O   UNL     1      -8.776   9.414  63.534  1.00  0.00    -0.214 OA 
ENDROOT
BRANCH   3   5
HETATM    5  N   UNL     1      -9.652  11.458  66.406  1.00  0.00    -0.200 NA 
BRANCH   5   6
HETATM    6  C   UNL     1      -9.519  10.697  67.694  1.00  0.00    -0.153 C  
BRANCH   6   7
HETATM    7  C   UNL     1     -10.764   9.837  68.065  1.00  0.00    -0.247 C  
BRANCH   7   8
HETATM    8  N   UNL     1     -10.492   8.438  68.547  1.00  0.00    -0.194 NA 
BRANCH   8   9
HETATM    9  C   UNL     1     -10.648   8.442  70.057  1.00  0.00    -0.235 C  
HETATM   10  O   UNL     1     -11.445   6.188  69.801  1.00  0.00    -0.433 OA 
HETATM   11  C   UNL     1     -11.535   7.305  70.560  1.00  0.00    -0.279 C  
HETATM   12  O   UNL     1     -12.236   7.376  71.558  1.00  0.00    -0.305 OA 
ENDBRANCH   8   9
BRANCH   8  13
HETATM   13  C   UNL     1      -9.043   8.122  68.256  1.00  0.00    -0.135 C  
HETATM   14  O   UNL     1      -9.892   6.545  66.662  1.00  0.00    -0.167 OA 
HETATM   15  O   UNL     1      -7.887   6.086  67.612  1.00  0.00    -0.099 OA 
HETATM   16  C   UNL     1      -8.867   6.804  67.508  1.00  0.00    -0.117 C  
ENDBRANCH   8  13
ENDBRANCH   7   8
ENDBRANCH   6   7
ENDBRANCH   5   6
BRANCH   5  17
HETATM   17  C   UNL     1      -9.359  12.901  66.680  1.00  0.00    -0.240 C  
BRANCH  17  18
HETATM   18  C   UNL     1     -10.292  13.633  67.686  1.00  0.00    -0.239 C  
BRANCH  18  19
HETATM   19  N   UNL     1     -10.738  15.012  67.263  1.00  0.00    -0.291 NA 
BRANCH  19  20
HETATM   20  C   UNL     1     -12.024  15.318  68.010  1.00  0.00    -0.026 C  
HETATM   21  O   UNL     1     -12.527  15.805  70.337  1.00  0.00    -0.399 OA 
HETATM   22  O   UNL     1     -10.637  16.667  69.437  1.00  0.00    -0.312 OA 
HETATM   23  C   UNL     1     -11.771  15.930  69.385  1.00  0.00    -0.343 C  
ENDBRANCH  19  20
BRANCH  19  24
HETATM   24  C   UNL     1     -11.089  14.958  65.792  1.00  0.00    -0.342 C  
HETATM   25  C   UNL     1     -10.810  16.270  65.066  1.00  0.00    -0.320 C  
HETATM   26  O   UNL     1     -11.427  16.652  64.085  1.00  0.00    -1.131 OA 
HETATM   27  O   UNL     1      -9.750  16.937  65.580  1.00  0.00    -0.538 OA 
ENDBRANCH  19  24
ENDBRANCH  18  19
ENDBRANCH  17  18
ENDBRANCH   5  17
ENDBRANCH   3   5
TORSDOF 11
ENDMDL
MODEL      201
REMARK 921   NORMALIZED FREE ENERGY PREDICTED BY IDOCK:   -4.38 KCAL/MOL
REMARK 922        TOTAL FREE ENERGY PREDICTED BY IDOCK:   -8.94 KCAL/MOL
REMARK 923 INTER-LIGAND FREE ENERGY PREDICTED BY IDOCK:   -7.54 KCAL/MOL
REMARK 924 INTRA-LIGAND FREE ENERGY PREDICTED BY IDOCK:   -1.41 KCAL/MOL
REMARK 927      BINDING AFFINITY PREDICTED BY RF-SCORE:    0.00 PKD
ROOT
HETATM    1  O   UNL     1     -13.039  10.358  70.567  1.00  0.00    -0.328 OA 
HETATM    2  C   UNL     1     -12.467  11.584  70.585  1.00  0.00    -0.314 C  
HETATM    3  C   UNL     1     -11.426  11.764  69.483  1.00  0.00    -0.295 C  
HETATM    4  O   UNL     1     -12.728  12.434  71.423  1.00  0.00    -0.348 OA 
ENDROOT
BRANCH   3   5
HETATM    5  N   UNL     1     -11.752  10.984  68.238  1.00  0.00    -0.529 NA 
BRANCH   5   6
HETATM    6  C   UNL     1     -11.587  11.879  67.044  1.00  0.00    -0.291 C  
BRANCH   6   7
HETATM    7  C   UNL     1     -10.523  13.003  67.224  1.00  0.00    -0.238 C  
BRANCH   7   8
HETATM    8  N   UNL     1     -10.982  14.409  66.945  1.00  0.00    -0.302 NA 
BRANCH   8   9
HETATM    9  C   UNL     1     -12.155  14.692  67.867  1.00  0.00    -0.179 C  
HETATM   10  O   UNL     1     -10.906  16.624  68.567  1.00  0.00    -0.331 OA 
HETATM   11  C   UNL     1     -11.813  15.700  68.963  1.00  0.00    -0.364 C  
HETATM   12  O   UNL     1     -12.317  15.698  70.075  1.00  0.00    -0.369 OA 
ENDBRANCH   8   9
BRANCH   8  13
HETATM   13  C   UNL     1     -11.514  14.451  65.532  1.00  0.00    -0.340 C  
HETATM   14  O   UNL     1      -9.936  16.221  65.180  1.00  0.00    -0.471 OA 
HETATM   15  O   UNL     1     -11.825  16.249  63.930  1.00  0.00    -0.994 OA 
HETATM   16  C   UNL     1     -11.142  15.737  64.802  1.00  0.00    -0.400 C  
ENDBRANCH   8  13
ENDBRANCH   7   8
ENDBRANCH   6   7
ENDBRANCH   5   6
BRANCH   5  17
HETATM   17  C   UNL     1     -10.782   9.849  68.114  1.00  0.00    -0.233 C  
BRANCH  17  18
HETATM   18  C   UNL     1     -10.496   9.319  66.681  1.00  0.00    -0.167 C  
BRANCH  18  19
HETATM   19  N   UNL     1      -9.073   8.879  66.431  1.00  0.00    -0.162 NA 
BRANCH  19  20
HETATM   20  C   UNL     1      -9.048   7.364  66.521  1.00  0.00    -0.162 C  
HETATM   21  O   UNL     1      -8.594   5.604  64.908  1.00  0.00    -0.145 OA 
HETATM   22  O   UNL     1      -7.349   7.493  64.824  1.00  0.00    -0.070 OA 
HETATM   23  C   UNL     1      -8.335   6.719  65.335  1.00  0.00    -0.122 C  
ENDBRANCH  19  20
BRANCH  19  24
HETATM   24  C   UNL     1      -8.218   9.398  67.566  1.00  0.00    -0.117 C  
HETATM   25  C   UNL     1      -7.128  10.357  67.100  1.00  0.00    -0.090 C  
HETATM   26  O   UNL     1      -6.060  10.507  67.671  1.00  0.00    -0.051 OA 
HETATM   27  O   UNL     1      -7.499  11.086  66.021  1.00  0.00    -0.123 OA 
ENDBRANCH  19  24
ENDBRANCH  18  19
ENDBRANCH  17  18
ENDBRANCH   5  17
ENDBRANCH   3   5
TORSDOF 11
ENDMDL
MODEL      202
REMARK 921   NORMALIZED FREE ENERGY PREDICTED BY IDOCK:   -4.38 KCAL/MOL
REMARK 922        TOTAL FREE ENERGY PREDICTED BY IDOCK:   -8.94 KCAL/MOL
REMARK 923 INTER-LIGAND FREE ENERGY PREDICTED BY IDOCK:   -7.55 KCAL/MOL
REMARK 924 INTRA-LIGAND FREE ENERGY PREDICTED BY IDOCK:   -1.39 KCAL/MOL
REMARK 927      BINDING AFFINITY PREDICTED BY RF-SCORE:    0.00 PKD
ROOT
HETATM    1  O   UNL     1      -8.760   9.163  71.347  1.00  0.00    -0.309 OA 
HETATM    2  C   UNL     1     -10.060   9.013  71.693  1.00  0.00    -0.335 C  
HETATM    3  C   UNL     1     -11.001   9.830  70.811  1.00  0.00    -0.336 C  
HETATM    4  O   UNL     1     -10.429   8.332  72.638  1.00  0.00    -0.320 OA 
ENDROOT
BRANCH   3   5
HETATM    5  N   UNL     1     -10.496   9.981  69.402  1.00  0.00    -0.216 NA 
BRANCH   5   6
HETATM    6  C   UNL     1     -10.905   8.776  68.605  1.00  0.00     0.028 C  
BRANCH   6   7
HETATM    7  C   UNL     1      -9.715   7.915  68.085  1.00  0.00    -0.159 C  
BRANCH   7   8
HETATM    8  N   UNL     1      -9.870   6.422  68.195  1.00  0.00    -0.125 NA 
BRANCH   8   9
HETATM    9  C   UNL     1     -10.717   5.969  67.019  1.00  0.00    -0.337 C  
HETATM   10  O   UNL     1      -9.553   3.874  67.221  1.00  0.00    -0.193 OA 
HETATM   11  C   UNL     1     -10.170   4.708  66.351  1.00  0.00    -0.260 C  
HETATM   12  O   UNL     1     -10.294   4.457  65.163  1.00  0.00    -0.225 OA 
ENDBRANCH   8   9
BRANCH   8  13
HETATM   13  C   UNL     1     -10.664   6.130  69.447  1.00  0.00    -0.320 C  
HETATM   14  O   UNL     1      -8.538   5.886  70.525  1.00  0.00    -0.132 OA 
HETATM   15  O   UNL     1     -10.272   4.692  71.363  1.00  0.00    -0.192 OA 
HETATM   16  C   UNL     1      -9.826   5.469  70.535  1.00  0.00    -0.193 C  
ENDBRANCH   8  13
ENDBRANCH   7   8
ENDBRANCH   6   7
ENDBRANCH   5   6
BRANCH   5  17
HETATM   17  C   UNL     1     -11.136  11.189  68.790  1.00  0.00    -0.236 C  
BRANCH  17  18
HETATM   18  C   UNL     1     -10.894  11.422  67.271  1.00  0.00    -0.263 C  
BRANCH  18  19
HETATM   19  N   UNL     1     -11.116  12.839  66.796  1.00  0.00    -0.267 NA 
BRANCH  19  20
HETATM   20  C   UNL     1     -11.814  13.586  67.918  1.00  0.00    -0.362 C  
HETATM   21  O   UNL     1     -11.035  15.100  69.652  1.00  0.00    -0.255 OA 
HETATM   22  O   UNL     1     -10.115  15.256  67.590  1.00  0.00    -0.232 OA 
HETATM   23  C   UNL     1     -10.955  14.706  68.498  1.00  0.00    -0.252 C  
ENDBRANCH  19  20
BRANCH  19  24
HETATM   24  C   UNL     1     -12.082  12.795  65.633  1.00  0.00    -0.459 C  
HETATM   25  C   UNL     1     -11.745  13.806  64.541  1.00  0.00    -0.407 C  
HETATM   26  O   UNL     1     -12.573  14.312  63.800  1.00  0.00    -0.821 OA 
HETATM   27  O   UNL     1     -10.415  14.030  64.428  1.00  0.00    -0.368 OA 
ENDBRANCH  19  24
ENDBRANCH  18  19
ENDBRANCH  17  18
ENDBRANCH   5  17
ENDBRANCH   3   5
TORSDOF 11
ENDMDL
MODEL      203
REMARK 921   NORMALIZED FREE ENERGY PREDICTED BY IDOCK:   -4.36 KCAL/MOL
REMARK 922        TOTAL FREE ENERGY PREDICTED BY IDOCK:   -8.90 KCAL/MOL
REMARK 923 INTER-LIGAND FREE ENERGY PREDICTED BY IDOCK:   -8.12 KCAL/MOL
REMARK 924 INTRA-LIGAND FREE ENERGY PREDICTED BY IDOCK:   -0.78 KCAL/MOL
REMARK 927      BINDING AFFINITY PREDICTED BY RF-SCORE:    0.00 PKD
ROOT
HETATM    1  O   UNL     1     -11.533  12.690  63.787  1.00  0.00    -0.401 OA 
HETATM    2  C   UNL     1     -12.191  13.764  64.282  1.00  0.00    -0.400 C  
HETATM    3  C   UNL     1     -12.364  13.701  65.798  1.00  0.00    -0.482 C  
HETATM    4  O   UNL     1     -12.636  14.661  63.580  1.00  0.00    -0.773 OA 
ENDROOT
BRANCH   3   5
HETATM    5  N   UNL     1     -11.228  12.995  66.486  1.00  0.00    -0.292 NA 
BRANCH   5   6
HETATM    6  C   UNL     1     -10.253  14.018  66.994  1.00  0.00    -0.261 C  
BRANCH   6   7
HETATM    7  C   UNL     1     -10.738  15.493  66.856  1.00  0.00    -0.317 C  
BRANCH   7   8
HETATM    8  N   UNL     1      -9.665  16.543  66.759  1.00  0.00    -0.247 NA 
BRANCH   8   9
HETATM    9  C   UNL     1     -10.042  17.468  65.615  1.00  0.00     0.010 C  
HETATM   10  O   UNL     1      -9.546  19.260  67.139  1.00  0.00    -0.310 OA 
HETATM   11  C   UNL     1     -10.305  18.900  66.077  1.00  0.00    -0.429 C  
HETATM   12  O   UNL     1     -11.096  19.658  65.538  1.00  0.00    -0.372 OA 
ENDBRANCH   8   9
BRANCH   8  13
HETATM   13  C   UNL     1      -8.379  15.857  66.362  1.00  0.00    -0.275 C  
HETATM   14  O   UNL     1      -7.394  17.026  68.209  1.00  0.00    -0.187 OA 
HETATM   15  O   UNL     1      -6.045  16.522  66.459  1.00  0.00    -0.297 OA 
HETATM   16  C   UNL     1      -7.148  16.511  66.981  1.00  0.00    -0.212 C  
ENDBRANCH   8  13
ENDBRANCH   7   8
ENDBRANCH   6   7
ENDBRANCH   5   6
BRANCH   5  17
HETATM   17  C   UNL     1     -11.772  12.240  67.659  1.00  0.00    -0.334 C  
BRANCH  17  18
HETATM   18  C   UNL     1     -11.237  12.638  69.064  1.00  0.00    -0.269 C  
BRANCH  18  19
HETATM   19  N   UNL     1     -12.152  13.527  69.872  1.00  0.00    -0.344 NA 
BRANCH  19  20
HETATM   20  C   UNL     1     -11.283  14.576  70.543  1.00  0.00    -0.036 C  
HETATM   21  O   UNL     1     -10.538  16.794  69.885  1.00  0.00    -0.250 OA 
HETATM   22  O   UNL     1     -12.651  16.168  69.369  1.00  0.00     0.052 OA 
HETATM   23  C   UNL     1     -11.423  15.952  69.897  1.00  0.00    -0.344 C  
ENDBRANCH  19  20
BRANCH  19  24
HETATM   24  C   UNL     1     -12.759  12.692  70.978  1.00  0.00    -0.226 C  
HETATM   25  C   UNL     1     -13.689  13.491  71.884  1.00  0.00    -0.392 C  
HETATM   26  O   UNL     1     -13.888  13.229  73.060  1.00  0.00    -0.378 OA 
HETATM   27  O   UNL     1     -14.334  14.483  71.228  1.00  0.00    -0.357 OA 
ENDBRANCH  19  24
ENDBRANCH  18  19
ENDBRANCH  17  18
ENDBRANCH   5  17
ENDBRANCH   3   5
TORSDOF 11
ENDMDL
MODEL      204
REMARK 921   NORMALIZED FREE ENERGY PREDICTED BY IDOCK:   -4.35 KCAL/MOL
REMARK 922        TOTAL FREE ENERGY PREDICTED BY IDOCK:   -8.88 KCAL/MOL
REMARK 923 INTER-LIGAND FREE ENERGY PREDICTED BY IDOCK:   -7.75 KCAL/MOL
REMARK 924 INTRA-LIGAND FREE ENERGY PREDICTED BY IDOCK:   -1.14 KCAL/MOL
REMARK 927      BINDING AFFINITY PREDICTED BY RF-SCORE:    0.00 PKD
ROOT
HETATM    1  O   UNL     1      -7.746   9.715  65.812  1.00  0.00    -0.102 OA 
HETATM    2  C   UNL     1      -8.916   9.414  65.202  1.00  0.00    -0.212 C  
HETATM    3  C   UNL     1     -10.092   9.373  66.174  1.00  0.00    -0.254 C  
HETATM    4  O   UNL     1      -9.006   9.158  64.010  1.00  0.00    -0.148 OA 
ENDROOT
BRANCH   3   5
HETATM    5  N   UNL     1      -9.941  10.341  67.316  1.00  0.00    -0.182 NA 
BRANCH   5   6
HETATM    6  C   UNL     1     -10.743  11.575  67.020  1.00  0.00    -0.259 C  
BRANCH   6   7
HETATM    7  C   UNL     1      -9.889  12.828  66.662  1.00  0.00    -0.250 C  
BRANCH   7   8
HETATM    8  N   UNL     1     -10.629  13.994  66.065  1.00  0.00    -0.291 NA 
BRANCH   8   9
HETATM    9  C   UNL     1     -10.838  13.689  64.592  1.00  0.00    -0.407 C  
HETATM   10  O   UNL     1     -13.188  13.820  65.084  1.00  0.00    -0.757 OA 
HETATM   11  C   UNL     1     -12.265  13.241  64.281  1.00  0.00    -0.392 C  
HETATM   12  O   UNL     1     -12.557  12.462  63.387  1.00  0.00    -0.684 OA 
ENDBRANCH   8   9
BRANCH   8  13
HETATM   13  C   UNL     1      -9.726  15.203  66.138  1.00  0.00    -0.310 C  
HETATM   14  O   UNL     1     -11.130  15.921  67.943  1.00  0.00    -0.331 OA 
HETATM   15  O   UNL     1     -10.113  17.530  66.714  1.00  0.00    -0.295 OA 
HETATM   16  C   UNL     1     -10.343  16.352  66.929  1.00  0.00    -0.300 C  
ENDBRANCH   8  13
ENDBRANCH   7   8
ENDBRANCH   6   7
ENDBRANCH   5   6
BRANCH   5  17
HETATM   17  C   UNL     1     -10.489   9.709  68.558  1.00  0.00    -0.212 C  
BRANCH  17  18
HETATM   18  C   UNL     1      -9.471   9.364  69.682  1.00  0.00    -0.189 C  
BRANCH  18  19
HETATM   19  N   UNL     1      -9.637   7.996  70.301  1.00  0.00    -0.171 NA 
BRANCH  19  20
HETATM   20  C   UNL     1      -8.559   7.848  71.359  1.00  0.00    -0.123 C  
HETATM   21  O   UNL     1      -8.351   8.627  73.652  1.00  0.00    -0.380 OA 
HETATM   22  O   UNL     1     -10.376   7.915  72.932  1.00  0.00    -0.299 OA 
HETATM   23  C   UNL     1      -9.062   8.188  72.760  1.00  0.00    -0.259 C  
ENDBRANCH  19  20
BRANCH  19  24
HETATM   24  C   UNL     1      -9.348   6.963  69.235  1.00  0.00    -0.144 C  
HETATM   25  C   UNL     1     -10.259   5.744  69.325  1.00  0.00    -0.226 C  
HETATM   26  O   UNL     1      -9.940   4.624  68.960  1.00  0.00    -0.175 OA 
HETATM   27  O   UNL     1     -11.495   6.047  69.787  1.00  0.00    -0.395 OA 
ENDBRANCH  19  24
ENDBRANCH  18  19
ENDBRANCH  17  18
ENDBRANCH   5  17
ENDBRANCH   3   5
TORSDOF 11
ENDMDL
MODEL      205
REMARK 921   NORMALIZED FREE ENERGY PREDICTED BY IDOCK:   -4.35 KCAL/MOL
REMARK 922        TOTAL FREE ENERGY PREDICTED BY IDOCK:   -8.88 KCAL/MOL
REMARK 923 INTER-LIGAND FREE ENERGY PREDICTED BY IDOCK:   -7.57 KCAL/MOL
REMARK 924 INTRA-LIGAND FREE ENERGY PREDICTED BY IDOCK:   -1.32 KCAL/MOL
REMARK 927      BINDING AFFINITY PREDICTED BY RF-SCORE:    0.00 PKD
ROOT
HETATM    1  O   UNL     1     -11.573   9.234  71.974  1.00  0.00    -0.356 OA 
HETATM    2  C   UNL     1     -12.756   9.879  71.843  1.00  0.00    -0.409 C  
HETATM    3  C   UNL     1     -12.620  11.213  71.113  1.00  0.00    -0.409 C  
HETATM    4  O   UNL     1     -13.807   9.456  72.302  1.00  0.00    -0.443 OA 
ENDROOT
BRANCH   3   5
HETATM    5  N   UNL     1     -11.524  11.206  70.082  1.00  0.00    -0.295 NA 
BRANCH   5   6
HETATM    6  C   UNL     1     -12.010  10.485  68.858  1.00  0.00     0.040 C  
BRANCH   6   7
HETATM    7  C   UNL     1     -10.881  10.066  67.868  1.00  0.00    -0.271 C  
BRANCH   7   8
HETATM    8  N   UNL     1     -10.106   8.826  68.223  1.00  0.00    -0.181 NA 
BRANCH   8   9
HETATM    9  C   UNL     1      -8.892   9.266  69.021  1.00  0.00    -0.136 C  
HETATM   10  O   UNL     1      -9.270   7.293  70.343  1.00  0.00    -0.158 OA 
HETATM   11  C   UNL     1      -8.785   8.557  70.370  1.00  0.00    -0.149 C  
HETATM   12  O   UNL     1      -8.293   9.058  71.368  1.00  0.00    -0.273 OA 
ENDBRANCH   8   9
BRANCH   8  13
HETATM   13  C   UNL     1      -9.591   8.217  66.940  1.00  0.00    -0.207 C  
HETATM   14  O   UNL     1     -11.239   6.513  67.295  1.00  0.00    -0.376 OA 
HETATM   15  O   UNL     1      -9.365   5.928  66.163  1.00  0.00    -0.160 OA 
HETATM   16  C   UNL     1     -10.019   6.764  66.764  1.00  0.00    -0.178 C  
ENDBRANCH   8  13
ENDBRANCH   7   8
ENDBRANCH   6   7
ENDBRANCH   5   6
BRANCH   5  17
HETATM   17  C   UNL     1     -11.212  12.621  69.703  1.00  0.00    -0.007 C  
BRANCH  17  18
HETATM   18  C   UNL     1     -12.085  13.261  68.586  1.00  0.00    -0.222 C  
BRANCH  18  19
HETATM   19  N   UNL     1     -11.417  13.377  67.236  1.00  0.00    -0.322 NA 
BRANCH  19  20
HETATM   20  C   UNL     1      -9.987  13.825  67.479  1.00  0.00    -0.233 C  
HETATM   21  O   UNL     1      -7.831  12.733  67.221  1.00  0.00    -0.173 OA 
HETATM   22  O   UNL     1      -9.431  12.345  65.667  1.00  0.00    -0.168 OA 
HETATM   23  C   UNL     1      -8.966  12.912  66.805  1.00  0.00    -0.179 C  
ENDBRANCH  19  20
BRANCH  19  24
HETATM   24  C   UNL     1     -12.100  14.491  66.473  1.00  0.00    -0.309 C  
HETATM   25  C   UNL     1     -12.581  14.058  65.092  1.00  0.00    -0.428 C  
HETATM   26  O   UNL     1     -12.685  14.811  64.138  1.00  0.00    -0.758 OA 
HETATM   27  O   UNL     1     -12.954  12.757  65.052  1.00  0.00    -0.811 OA 
ENDBRANCH  19  24
ENDBRANCH  18  19
ENDBRANCH  17  18
ENDBRANCH   5  17
ENDBRANCH   3   5
TORSDOF 11
ENDMDL
MODEL      206
REMARK 921   NORMALIZED FREE ENERGY PREDICTED BY IDOCK:   -4.35 KCAL/MOL
REMARK 922        TOTAL FREE ENERGY PREDICTED BY IDOCK:   -8.88 KCAL/MOL
REMARK 923 INTER-LIGAND FREE ENERGY PREDICTED BY IDOCK:   -7.71 KCAL/MOL
REMARK 924 INTRA-LIGAND FREE ENERGY PREDICTED BY IDOCK:   -1.18 KCAL/MOL
REMARK 927      BINDING AFFINITY PREDICTED BY RF-SCORE:    0.00 PKD
ROOT
HETATM    1  O   UNL     1     -13.244  11.477  72.119  1.00  0.00    -0.505 OA 
HETATM    2  C   UNL     1     -12.936  12.651  71.521  1.00  0.00    -0.282 C  
HETATM    3  C   UNL     1     -11.919  12.487  70.393  1.00  0.00    -0.251 C  
HETATM    4  O   UNL     1     -13.390  13.727  71.880  1.00  0.00    -0.357 OA 
ENDROOT
BRANCH   3   5
HETATM    5  N   UNL     1     -12.042  11.165  69.685  1.00  0.00    -0.336 NA 
BRANCH   5   6
HETATM    6  C   UNL     1     -12.125  11.410  68.206  1.00  0.00    -0.009 C  
BRANCH   6   7
HETATM    7  C   UNL     1     -10.871  12.106  67.597  1.00  0.00    -0.233 C  
BRANCH   7   8
HETATM    8  N   UNL     1     -11.130  13.300  66.719  1.00  0.00    -0.287 NA 
BRANCH   8   9
HETATM    9  C   UNL     1     -11.198  12.800  65.286  1.00  0.00    -0.293 C  
HETATM   10  O   UNL     1     -13.358  13.854  65.212  1.00  0.00    -0.732 OA 
HETATM   11  C   UNL     1     -12.616  12.837  64.717  1.00  0.00    -0.446 C  
HETATM   12  O   UNL     1     -13.037  12.050  63.883  1.00  0.00    -0.695 OA 
ENDBRANCH   8   9
BRANCH   8  13
HETATM   13  C   UNL     1      -9.928  14.211  66.808  1.00  0.00    -0.267 C  
HETATM   14  O   UNL     1     -11.298  15.587  68.214  1.00  0.00    -0.328 OA 
HETATM   15  O   UNL     1      -9.682  16.619  67.007  1.00  0.00    -0.238 OA 
HETATM   16  C   UNL     1     -10.281  15.603  67.320  1.00  0.00    -0.266 C  
ENDBRANCH   8  13
ENDBRANCH   7   8
ENDBRANCH   6   7
ENDBRANCH   5   6
BRANCH   5  17
HETATM   17  C   UNL     1     -10.811  10.358  69.960  1.00  0.00    -0.289 C  
BRANCH  17  18
HETATM   18  C   UNL     1     -10.910   9.278  71.074  1.00  0.00    -0.314 C  
BRANCH  18  19
HETATM   19  N   UNL     1      -9.920   8.142  70.959  1.00  0.00    -0.185 NA 
BRANCH  19  20
HETATM   20  C   UNL     1     -10.241   7.152  72.064  1.00  0.00    -0.190 C  
HETATM   21  O   UNL     1     -12.081   5.610  72.440  1.00  0.00    -0.204 OA 
HETATM   22  O   UNL     1     -11.305   5.870  70.330  1.00  0.00    -0.322 OA 
HETATM   23  C   UNL     1     -11.314   6.146  71.655  1.00  0.00    -0.284 C  
ENDBRANCH  19  20
BRANCH  19  24
HETATM   24  C   UNL     1      -8.542   8.693  71.252  1.00  0.00    -0.187 C  
HETATM   25  C   UNL     1      -7.518   8.332  70.181  1.00  0.00    -0.060 C  
HETATM   26  O   UNL     1      -6.323   8.205  70.395  1.00  0.00    -0.035 OA 
HETATM   27  O   UNL     1      -8.062   8.241  68.945  1.00  0.00    -0.112 OA 
ENDBRANCH  19  24
ENDBRANCH  18  19
ENDBRANCH  17  18
ENDBRANCH   5  17
ENDBRANCH   3   5
TORSDOF 11
ENDMDL
MODEL      207
REMARK 921   NORMALIZED FREE ENERGY PREDICTED BY IDOCK:   -4.34 KCAL/MOL
REMARK 922        TOTAL FREE ENERGY PREDICTED BY IDOCK:   -8.87 KCAL/MOL
REMARK 923 INTER-LIGAND FREE ENERGY PREDICTED BY IDOCK:   -7.59 KCAL/MOL
REMARK 924 INTRA-LIGAND FREE ENERGY PREDICTED BY IDOCK:   -1.28 KCAL/MOL
REMARK 927      BINDING AFFINITY PREDICTED BY RF-SCORE:    0.00 PKD
ROOT
HETATM    1  O   UNL     1      -6.156  15.651  67.910  1.00  0.00    -0.124 OA 
HETATM    2  C   UNL     1      -6.517  15.181  69.127  1.00  0.00    -0.116 C  
HETATM    3  C   UNL     1      -7.926  14.595  69.136  1.00  0.00    -0.097 C  
HETATM    4  O   UNL     1      -5.804  15.263  70.117  1.00  0.00    -0.130 OA 
ENDROOT
BRANCH   3   5
HETATM    5  N   UNL     1      -8.306  13.966  67.823  1.00  0.00    -0.160 NA 
BRANCH   5   6
HETATM    6  C   UNL     1      -8.349  12.474  67.990  1.00  0.00    -0.171 C  
BRANCH   6   7
HETATM    7  C   UNL     1      -8.199  11.674  66.661  1.00  0.00    -0.140 C  
BRANCH   7   8
HETATM    8  N   UNL     1      -9.457  11.067  66.101  1.00  0.00    -0.196 NA 
BRANCH   8   9
HETATM    9  C   UNL     1     -10.013  10.127  67.156  1.00  0.00    -0.196 C  
HETATM   10  O   UNL     1     -12.001  11.477  67.052  1.00  0.00    -0.556 OA 
HETATM   11  C   UNL     1     -11.246  10.694  67.858  1.00  0.00    -0.308 C  
HETATM   12  O   UNL     1     -11.543  10.452  69.017  1.00  0.00    -0.228 OA 
ENDBRANCH   8   9
BRANCH   8  13
HETATM   13  C   UNL     1      -9.072  10.216  64.914  1.00  0.00    -0.215 C  
HETATM   14  O   UNL     1      -9.630  12.131  63.584  1.00  0.00    -0.198 OA 
HETATM   15  O   UNL     1      -9.882  10.092  62.628  1.00  0.00    -0.174 OA 
HETATM   16  C   UNL     1      -9.589  10.778  63.594  1.00  0.00    -0.305 C  
ENDBRANCH   8  13
ENDBRANCH   7   8
ENDBRANCH   6   7
ENDBRANCH   5   6
BRANCH   5  17
HETATM   17  C   UNL     1      -9.676  14.437  67.443  1.00  0.00    -0.220 C  
BRANCH  17  18
HETATM   18  C   UNL     1      -9.876  14.915  65.977  1.00  0.00    -0.318 C  
BRANCH  18  19
HETATM   19  N   UNL     1     -10.973  15.934  65.778  1.00  0.00    -0.234 NA 
BRANCH  19  20
HETATM   20  C   UNL     1     -11.533  15.726  64.382  1.00  0.00    -0.263 C  
HETATM   21  O   UNL     1     -12.553  13.827  63.261  1.00  0.00    -0.830 OA 
HETATM   22  O   UNL     1     -13.049  14.188  65.440  1.00  0.00    -0.743 OA 
HETATM   23  C   UNL     1     -12.408  14.479  64.283  1.00  0.00    -0.369 C  
ENDBRANCH  19  20
BRANCH  19  24
HETATM   24  C   UNL     1     -10.341  17.309  65.794  1.00  0.00    -0.234 C  
HETATM   25  C   UNL     1     -10.763  18.143  66.998  1.00  0.00    -0.253 C  
HETATM   26  O   UNL     1     -10.820  19.363  66.998  1.00  0.00    -0.476 OA 
HETATM   27  O   UNL     1     -10.997  17.392  68.100  1.00  0.00    -0.334 OA 
ENDBRANCH  19  24
ENDBRANCH  18  19
ENDBRANCH  17  18
ENDBRANCH   5  17
ENDBRANCH   3   5
TORSDOF 11
ENDMDL
MODEL      208
REMARK 921   NORMALIZED FREE ENERGY PREDICTED BY IDOCK:   -4.32 KCAL/MOL
REMARK 922        TOTAL FREE ENERGY PREDICTED BY IDOCK:   -8.84 KCAL/MOL
REMARK 923 INTER-LIGAND FREE ENERGY PREDICTED BY IDOCK:   -7.47 KCAL/MOL
REMARK 924 INTRA-LIGAND FREE ENERGY PREDICTED BY IDOCK:   -1.37 KCAL/MOL
REMARK 927      BINDING AFFINITY PREDICTED BY RF-SCORE:    0.00 PKD
ROOT
HETATM    1  O   UNL     1     -10.285   9.072  71.925  1.00  0.00    -0.343 OA 
HETATM    2  C   UNL     1     -11.578   9.126  71.530  1.00  0.00    -0.368 C  
HETATM    3  C   UNL     1     -11.859  10.301  70.596  1.00  0.00    -0.347 C  
HETATM    4  O   UNL     1     -12.433   8.343  71.918  1.00  0.00    -0.311 OA 
ENDROOT
BRANCH   3   5
HETATM    5  N   UNL     1     -10.678  10.655  69.733  1.00  0.00    -0.253 NA 
BRANCH   5   6
HETATM    6  C   UNL     1     -10.568   9.652  68.620  1.00  0.00    -0.217 C  
BRANCH   6   7
HETATM    7  C   UNL     1      -9.216   8.877  68.585  1.00  0.00    -0.137 C  
BRANCH   7   8
HETATM    8  N   UNL     1      -9.306   7.375  68.605  1.00  0.00    -0.140 NA 
BRANCH   8   9
HETATM    9  C   UNL     1      -8.437   6.887  69.751  1.00  0.00    -0.133 C  
HETATM   10  O   UNL     1     -10.234   5.362  70.226  1.00  0.00    -0.224 OA 
HETATM   11  C   UNL     1      -9.220   6.069  70.777  1.00  0.00    -0.154 C  
HETATM   12  O   UNL     1      -8.953   6.031  71.967  1.00  0.00    -0.140 OA 
ENDBRANCH   8   9
BRANCH   8  13
HETATM   13  C   UNL     1      -8.683   6.856  67.331  1.00  0.00    -0.119 C  
HETATM   14  O   UNL     1     -10.800   5.804  66.935  1.00  0.00    -0.295 OA 
HETATM   15  O   UNL     1      -8.963   4.804  66.064  1.00  0.00    -0.119 OA 
HETATM   16  C   UNL     1      -9.468   5.699  66.721  1.00  0.00    -0.141 C  
ENDBRANCH   8  13
ENDBRANCH   7   8
ENDBRANCH   6   7
ENDBRANCH   5   6
BRANCH   5  17
HETATM   17  C   UNL     1     -10.913  12.005  69.128  1.00  0.00    -0.178 C  
BRANCH  17  18
HETATM   18  C   UNL     1     -11.527  12.042  67.700  1.00  0.00    -0.322 C  
BRANCH  18  19
HETATM   19  N   UNL     1     -11.501  13.392  67.024  1.00  0.00    -0.321 NA 
BRANCH  19  20
HETATM   20  C   UNL     1     -12.066  14.399  68.009  1.00  0.00    -0.231 C  
HETATM   21  O   UNL     1     -11.069  16.174  69.337  1.00  0.00    -0.296 OA 
HETATM   22  O   UNL     1     -10.307  15.843  67.231  1.00  0.00    -0.279 OA 
HETATM   23  C   UNL     1     -11.102  15.550  68.287  1.00  0.00    -0.322 C  
ENDBRANCH  19  20
BRANCH  19  24
HETATM   24  C   UNL     1     -12.456  13.345  65.851  1.00  0.00    -0.408 C  
HETATM   25  C   UNL     1     -11.920  14.066  64.619  1.00  0.00    -0.430 C  
HETATM   26  O   UNL     1     -12.626  14.594  63.775  1.00  0.00    -0.820 OA 
HETATM   27  O   UNL     1     -10.571  13.996  64.517  1.00  0.00    -0.416 OA 
ENDBRANCH  19  24
ENDBRANCH  18  19
ENDBRANCH  17  18
ENDBRANCH   5  17
ENDBRANCH   3   5
TORSDOF 11
ENDMDL
MODEL      209
REMARK 921   NORMALIZED FREE ENERGY PREDICTED BY IDOCK:   -4.30 KCAL/MOL
REMARK 922        TOTAL FREE ENERGY PREDICTED BY IDOCK:   -8.80 KCAL/MOL
REMARK 923 INTER-LIGAND FREE ENERGY PREDICTED BY IDOCK:   -7.60 KCAL/MOL
REMARK 924 INTRA-LIGAND FREE ENERGY PREDICTED BY IDOCK:   -1.20 KCAL/MOL
REMARK 927      BINDING AFFINITY PREDICTED BY RF-SCORE:    0.00 PKD
ROOT
HETATM    1  O   UNL     1      -9.076   7.145  65.954  1.00  0.00    -0.122 OA 
HETATM    2  C   UNL     1      -8.290   7.490  67.001  1.00  0.00    -0.121 C  
HETATM    3  C   UNL     1      -8.613   8.880  67.545  1.00  0.00    -0.120 C  
HETATM    4  O   UNL     1      -7.392   6.781  67.429  1.00  0.00    -0.090 OA 
ENDROOT
BRANCH   3   5
HETATM    5  N   UNL     1     -10.067   9.239  67.405  1.00  0.00    -0.206 NA 
BRANCH   5   6
HETATM    6  C   UNL     1     -10.635   9.516  68.767  1.00  0.00    -0.214 C  
BRANCH   6   7
HETATM    7  C   UNL     1     -10.751   8.262  69.684  1.00  0.00    -0.194 C  
BRANCH   7   8
HETATM    8  N   UNL     1     -11.282   8.494  71.072  1.00  0.00    -0.260 NA 
BRANCH   8   9
HETATM    9  C   UNL     1     -11.305   9.996  71.300  1.00  0.00    -0.263 C  
HETATM   10  O   UNL     1     -13.525   9.649  72.158  1.00  0.00    -0.424 OA 
HETATM   11  C   UNL     1     -12.717  10.535  71.529  1.00  0.00    -0.452 C  
HETATM   12  O   UNL     1     -13.080  11.655  71.207  1.00  0.00    -0.318 OA 
ENDBRANCH   8   9
BRANCH   8  13
HETATM   13  C   UNL     1     -10.288   7.917  72.052  1.00  0.00    -0.225 C  
HETATM   14  O   UNL     1     -11.864   6.131  72.325  1.00  0.00    -0.319 OA 
HETATM   15  O   UNL     1     -10.530   6.620  74.090  1.00  0.00    -0.353 OA 
HETATM   16  C   UNL     1     -10.901   6.848  72.951  1.00  0.00    -0.285 C  
ENDBRANCH   8  13
ENDBRANCH   7   8
ENDBRANCH   6   7
ENDBRANCH   5   6
BRANCH   5  17
HETATM   17  C   UNL     1     -10.177  10.487  66.585  1.00  0.00    -0.233 C  
BRANCH  17  18
HETATM   18  C   UNL     1     -11.165  11.577  67.088  1.00  0.00    -0.301 C  
BRANCH  18  19
HETATM   19  N   UNL     1     -10.839  12.988  66.658  1.00  0.00    -0.273 NA 
BRANCH  19  20
HETATM   20  C   UNL     1     -10.374  13.739  67.893  1.00  0.00    -0.244 C  
HETATM   21  O   UNL     1      -8.265  14.771  68.522  1.00  0.00    -0.139 OA 
HETATM   22  O   UNL     1      -8.957  14.951  66.374  1.00  0.00    -0.270 OA 
HETATM   23  C   UNL     1      -9.085  14.521  67.652  1.00  0.00    -0.195 C  
ENDBRANCH  19  20
BRANCH  19  24
HETATM   24  C   UNL     1     -12.124  13.646  66.206  1.00  0.00    -0.434 C  
HETATM   25  C   UNL     1     -12.147  13.938  64.709  1.00  0.00    -0.419 C  
HETATM   26  O   UNL     1     -12.776  14.853  64.201  1.00  0.00    -0.750 OA 
HETATM   27  O   UNL     1     -11.455  13.026  63.987  1.00  0.00    -0.377 OA 
ENDBRANCH  19  24
ENDBRANCH  18  19
ENDBRANCH  17  18
ENDBRANCH   5  17
ENDBRANCH   3   5
TORSDOF 11
ENDMDL
MODEL      210
REMARK 921   NORMALIZED FREE ENERGY PREDICTED BY IDOCK:   -4.30 KCAL/MOL
REMARK 922        TOTAL FREE ENERGY PREDICTED BY IDOCK:   -8.80 KCAL/MOL
REMARK 923 INTER-LIGAND FREE ENERGY PREDICTED BY IDOCK:   -7.21 KCAL/MOL
REMARK 924 INTRA-LIGAND FREE ENERGY PREDICTED BY IDOCK:   -1.59 KCAL/MOL
REMARK 927      BINDING AFFINITY PREDICTED BY RF-SCORE:    0.00 PKD
ROOT
HETATM    1  O   UNL     1      -5.734  15.137  67.834  1.00  0.00    -0.135 OA 
HETATM    2  C   UNL     1      -6.119  14.478  68.952  1.00  0.00    -0.086 C  
HETATM    3  C   UNL     1      -7.516  13.875  68.827  1.00  0.00    -0.114 C  
HETATM    4  O   UNL     1      -5.436  14.415  69.964  1.00  0.00    -0.095 OA 
ENDROOT
BRANCH   3   5
HETATM    5  N   UNL     1      -7.846  13.453  67.421  1.00  0.00    -0.163 NA 
BRANCH   5   6
HETATM    6  C   UNL     1      -7.854  11.953  67.350  1.00  0.00    -0.158 C  
BRANCH   6   7
HETATM    7  C   UNL     1      -8.227  11.248  68.689  1.00  0.00    -0.146 C  
BRANCH   7   8
HETATM    8  N   UNL     1      -9.597  10.631  68.761  1.00  0.00    -0.179 NA 
BRANCH   8   9
HETATM    9  C   UNL     1     -10.471  11.566  69.577  1.00  0.00     0.154 C  
HETATM   10  O   UNL     1     -12.171  11.118  67.937  1.00  0.00    -0.521 OA 
HETATM   11  C   UNL     1     -11.703  12.042  68.809  1.00  0.00    -0.321 C  
HETATM   12  O   UNL     1     -12.234  13.129  68.975  1.00  0.00    -0.247 OA 
ENDBRANCH   8   9
BRANCH   8  13
HETATM   13  C   UNL     1      -9.485   9.342  69.541  1.00  0.00    -0.180 C  
HETATM   14  O   UNL     1     -10.515   8.309  67.639  1.00  0.00    -0.239 OA 
HETATM   15  O   UNL     1     -10.869   7.350  69.661  1.00  0.00    -0.239 OA 
HETATM   16  C   UNL     1     -10.377   8.237  68.984  1.00  0.00    -0.221 C  
ENDBRANCH   8  13
ENDBRANCH   7   8
ENDBRANCH   6   7
ENDBRANCH   5   6
BRANCH   5  17
HETATM   17  C   UNL     1      -9.219  13.947  67.082  1.00  0.00    -0.239 C  
BRANCH  17  18
HETATM   18  C   UNL     1      -9.333  14.961  65.907  1.00  0.00    -0.181 C  
BRANCH  18  19
HETATM   19  N   UNL     1     -10.555  15.848  65.941  1.00  0.00    -0.336 NA 
BRANCH  19  20
HETATM   20  C   UNL     1     -11.224  15.744  64.583  1.00  0.00    -0.363 C  
HETATM   21  O   UNL     1     -12.461  13.977  63.463  1.00  0.00    -0.826 OA 
HETATM   22  O   UNL     1     -12.776  14.275  65.685  1.00  0.00    -0.471 OA 
HETATM   23  C   UNL     1     -12.197  14.571  64.498  1.00  0.00    -0.465 C  
ENDBRANCH  19  20
BRANCH  19  24
HETATM   24  C   UNL     1     -10.087  17.280  66.089  1.00  0.00    -0.302 C  
HETATM   25  C   UNL     1     -10.673  17.973  67.315  1.00  0.00    -0.290 C  
HETATM   26  O   UNL     1     -10.871  19.175  67.391  1.00  0.00    -0.483 OA 
HETATM   27  O   UNL     1     -10.884  17.122  68.347  1.00  0.00    -0.367 OA 
ENDBRANCH  19  24
ENDBRANCH  18  19
ENDBRANCH  17  18
ENDBRANCH   5  17
ENDBRANCH   3   5
TORSDOF 11
ENDMDL
MODEL      211
REMARK 921   NORMALIZED FREE ENERGY PREDICTED BY IDOCK:   -4.30 KCAL/MOL
REMARK 922        TOTAL FREE ENERGY PREDICTED BY IDOCK:   -8.80 KCAL/MOL
REMARK 923 INTER-LIGAND FREE ENERGY PREDICTED BY IDOCK:   -7.58 KCAL/MOL
REMARK 924 INTRA-LIGAND FREE ENERGY PREDICTED BY IDOCK:   -1.22 KCAL/MOL
REMARK 927      BINDING AFFINITY PREDICTED BY RF-SCORE:    0.00 PKD
ROOT
HETATM    1  O   UNL     1     -10.248   9.468  66.010  1.00  0.00    -0.272 OA 
HETATM    2  C   UNL     1      -9.010   9.782  66.456  1.00  0.00    -0.150 C  
HETATM    3  C   UNL     1      -9.021  10.931  67.461  1.00  0.00    -0.136 C  
HETATM    4  O   UNL     1      -7.993   9.232  66.059  1.00  0.00    -0.107 OA 
ENDROOT
BRANCH   3   5
HETATM    5  N   UNL     1     -10.272  10.964  68.297  1.00  0.00    -0.167 NA 
BRANCH   5   6
HETATM    6  C   UNL     1      -9.962  10.416  69.660  1.00  0.00    -0.174 C  
BRANCH   6   7
HETATM    7  C   UNL     1     -11.033   9.428  70.214  1.00  0.00    -0.262 C  
BRANCH   7   8
HETATM    8  N   UNL     1     -10.523   8.108  70.726  1.00  0.00    -0.200 NA 
BRANCH   8   9
HETATM    9  C   UNL     1      -9.105   8.334  71.222  1.00  0.00    -0.160 C  
HETATM   10  O   UNL     1      -9.832   7.253  73.243  1.00  0.00    -0.203 OA 
HETATM   11  C   UNL     1      -8.978   8.173  72.736  1.00  0.00    -0.246 C  
HETATM   12  O   UNL     1      -8.176   8.786  73.423  1.00  0.00    -0.389 OA 
ENDBRANCH   8   9
BRANCH   8  13
HETATM   13  C   UNL     1     -10.431   7.160  69.554  1.00  0.00    -0.225 C  
HETATM   14  O   UNL     1     -10.998   5.443  71.128  1.00  0.00    -0.179 OA 
HETATM   15  O   UNL     1      -9.735   4.843  69.345  1.00  0.00    -0.156 OA 
HETATM   16  C   UNL     1     -10.320   5.701  69.985  1.00  0.00    -0.275 C  
ENDBRANCH   8  13
ENDBRANCH   7   8
ENDBRANCH   6   7
ENDBRANCH   5   6
BRANCH   5  17
HETATM   17  C   UNL     1     -10.710  12.388  68.449  1.00  0.00    -0.235 C  
BRANCH  17  18
HETATM   18  C   UNL     1      -9.874  13.467  67.705  1.00  0.00    -0.228 C  
BRANCH  18  19
HETATM   19  N   UNL     1     -10.542  14.077  66.496  1.00  0.00    -0.277 NA 
BRANCH  19  20
HETATM   20  C   UNL     1     -10.863  15.521  66.840  1.00  0.00    -0.301 C  
HETATM   21  O   UNL     1     -10.351  17.643  65.772  1.00  0.00    -0.558 OA 
HETATM   22  O   UNL     1     -10.874  15.873  64.461  1.00  0.00    -0.532 OA 
HETATM   23  C   UNL     1     -10.652  16.465  65.658  1.00  0.00    -0.323 C  
ENDBRANCH  19  20
BRANCH  19  24
HETATM   24  C   UNL     1     -11.866  13.374  66.290  1.00  0.00    -0.394 C  
HETATM   25  C   UNL     1     -11.966  12.679  64.937  1.00  0.00    -0.406 C  
HETATM   26  O   UNL     1     -13.014  12.496  64.339  1.00  0.00    -0.748 OA 
HETATM   27  O   UNL     1     -10.772  12.217  64.496  1.00  0.00    -0.279 OA 
ENDBRANCH  19  24
ENDBRANCH  18  19
ENDBRANCH  17  18
ENDBRANCH   5  17
ENDBRANCH   3   5
TORSDOF 11
ENDMDL
MODEL      212
REMARK 921   NORMALIZED FREE ENERGY PREDICTED BY IDOCK:   -4.27 KCAL/MOL
REMARK 922        TOTAL FREE ENERGY PREDICTED BY IDOCK:   -8.76 KCAL/MOL
REMARK 923 INTER-LIGAND FREE ENERGY PREDICTED BY IDOCK:   -7.40 KCAL/MOL
REMARK 924 INTRA-LIGAND FREE ENERGY PREDICTED BY IDOCK:   -1.35 KCAL/MOL
REMARK 927      BINDING AFFINITY PREDICTED BY RF-SCORE:    0.00 PKD
ROOT
HETATM    1  O   UNL     1     -13.040  12.515  64.886  1.00  0.00    -0.833 OA 
HETATM    2  C   UNL     1     -11.696  12.606  64.758  1.00  0.00    -0.352 C  
HETATM    3  C   UNL     1     -10.998  12.911  66.082  1.00  0.00    -0.281 C  
HETATM    4  O   UNL     1     -11.114  12.500  63.688  1.00  0.00    -0.418 OA 
ENDROOT
BRANCH   3   5
HETATM    5  N   UNL     1     -11.713  12.322  67.268  1.00  0.00    -0.488 NA 
BRANCH   5   6
HETATM    6  C   UNL     1     -11.347  10.870  67.387  1.00  0.00    -0.195 C  
BRANCH   6   7
HETATM    7  C   UNL     1     -10.205  10.576  68.406  1.00  0.00    -0.172 C  
BRANCH   7   8
HETATM    8  N   UNL     1      -8.830  10.376  67.830  1.00  0.00    -0.125 NA 
BRANCH   8   9
HETATM    9  C   UNL     1      -8.915   9.219  66.850  1.00  0.00    -0.130 C  
HETATM   10  O   UNL     1      -7.579  10.590  65.394  1.00  0.00    -0.147 OA 
HETATM   11  C   UNL     1      -8.525   9.622  65.429  1.00  0.00    -0.145 C  
HETATM   12  O   UNL     1      -8.992   9.112  64.422  1.00  0.00    -0.173 OA 
ENDBRANCH   8   9
BRANCH   8  13
HETATM   13  C   UNL     1      -7.918   9.934  68.951  1.00  0.00    -0.096 C  
HETATM   14  O   UNL     1      -7.106  12.190  68.939  1.00  0.00    -0.107 OA 
HETATM   15  O   UNL     1      -5.668  10.570  69.607  1.00  0.00    -0.038 OA 
HETATM   16  C   UNL     1      -6.764  10.903  69.187  1.00  0.00    -0.079 C  
ENDBRANCH   8  13
ENDBRANCH   7   8
ENDBRANCH   6   7
ENDBRANCH   5   6
BRANCH   5  17
HETATM   17  C   UNL     1     -11.251  13.027  68.505  1.00  0.00    -0.274 C  
BRANCH  17  18
HETATM   18  C   UNL     1     -12.336  13.757  69.348  1.00  0.00    -0.173 C  
BRANCH  18  19
HETATM   19  N   UNL     1     -11.884  15.041  70.003  1.00  0.00    -0.298 NA 
BRANCH  19  20
HETATM   20  C   UNL     1     -13.064  15.583  70.790  1.00  0.00    -0.390 C  
HETATM   21  O   UNL     1     -13.673  15.516  73.141  1.00  0.00    -0.480 OA 
HETATM   22  O   UNL     1     -11.495  15.807  72.598  1.00  0.00    -0.383 OA 
HETATM   23  C   UNL     1     -12.800  15.615  72.293  1.00  0.00    -0.441 C  
ENDBRANCH  19  20
BRANCH  19  24
HETATM   24  C   UNL     1     -11.590  16.044  68.909  1.00  0.00    -0.354 C  
HETATM   25  C   UNL     1     -10.152  16.550  68.937  1.00  0.00    -0.266 C  
HETATM   26  O   UNL     1      -9.807  17.652  68.542  1.00  0.00    -0.309 OA 
HETATM   27  O   UNL     1      -9.277  15.615  69.379  1.00  0.00    -0.258 OA 
ENDBRANCH  19  24
ENDBRANCH  18  19
ENDBRANCH  17  18
ENDBRANCH   5  17
ENDBRANCH   3   5
TORSDOF 11
ENDMDL
MODEL      213
REMARK 921   NORMALIZED FREE ENERGY PREDICTED BY IDOCK:   -4.27 KCAL/MOL
REMARK 922        TOTAL FREE ENERGY PREDICTED BY IDOCK:   -8.76 KCAL/MOL
REMARK 923 INTER-LIGAND FREE ENERGY PREDICTED BY IDOCK:   -7.56 KCAL/MOL
REMARK 924 INTRA-LIGAND FREE ENERGY PREDICTED BY IDOCK:   -1.20 KCAL/MOL
REMARK 927      BINDING AFFINITY PREDICTED BY RF-SCORE:    0.00 PKD
ROOT
HETATM    1  O   UNL     1      -7.228  11.057  69.088  1.00  0.00    -0.101 OA 
HETATM    2  C   UNL     1      -7.649  11.433  67.858  1.00  0.00    -0.108 C  
HETATM    3  C   UNL     1      -9.140  11.184  67.645  1.00  0.00    -0.147 C  
HETATM    4  O   UNL     1      -6.902  11.878  66.999  1.00  0.00    -0.144 OA 
ENDROOT
BRANCH   3   5
HETATM    5  N   UNL     1      -9.942  11.327  68.910  1.00  0.00    -0.188 NA 
BRANCH   5   6
HETATM    6  C   UNL     1     -10.716  12.612  68.855  1.00  0.00    -0.164 C  
BRANCH   6   7
HETATM    7  C   UNL     1     -11.674  12.735  67.632  1.00  0.00    -0.367 C  
BRANCH   7   8
HETATM    8  N   UNL     1     -11.292  13.741  66.581  1.00  0.00    -0.318 NA 
BRANCH   8   9
HETATM    9  C   UNL     1     -11.232  15.100  67.257  1.00  0.00    -0.324 C  
HETATM   10  O   UNL     1      -9.525  15.626  65.648  1.00  0.00    -0.320 OA 
HETATM   11  C   UNL     1      -9.968  15.880  66.902  1.00  0.00    -0.249 C  
HETATM   12  O   UNL     1      -9.420  16.672  67.652  1.00  0.00    -0.223 OA 
ENDBRANCH   8   9
BRANCH   8  13
HETATM   13  C   UNL     1     -12.412  13.803  65.569  1.00  0.00    -0.512 C  
HETATM   14  O   UNL     1     -11.052  12.343  64.240  1.00  0.00    -0.305 OA 
HETATM   15  O   UNL     1     -12.460  13.739  63.142  1.00  0.00    -0.786 OA 
HETATM   16  C   UNL     1     -11.982  13.326  64.186  1.00  0.00    -0.447 C  
ENDBRANCH   8  13
ENDBRANCH   7   8
ENDBRANCH   6   7
ENDBRANCH   5   6
BRANCH   5  17
HETATM   17  C   UNL     1     -10.918  10.193  68.991  1.00  0.00    -0.226 C  
BRANCH  17  18
HETATM   18  C   UNL     1     -10.329   8.771  69.213  1.00  0.00    -0.214 C  
BRANCH  18  19
HETATM   19  N   UNL     1     -10.469   8.230  70.617  1.00  0.00    -0.200 NA 
BRANCH  19  20
HETATM   20  C   UNL     1     -11.900   8.483  71.055  1.00  0.00    -0.257 C  
HETATM   21  O   UNL     1     -13.835   7.042  71.349  1.00  0.00    -0.317 OA 
HETATM   22  O   UNL     1     -11.802   6.259  71.963  1.00  0.00    -0.320 OA 
HETATM   23  C   UNL     1     -12.628   7.200  71.449  1.00  0.00    -0.394 C  
ENDBRANCH  19  20
BRANCH  19  24
HETATM   24  C   UNL     1      -9.582   9.054  71.525  1.00  0.00    -0.270 C  
HETATM   25  C   UNL     1      -8.924   8.226  72.623  1.00  0.00    -0.246 C  
HETATM   26  O   UNL     1      -8.605   8.670  73.715  1.00  0.00    -0.292 OA 
HETATM   27  O   UNL     1      -8.660   6.956  72.235  1.00  0.00    -0.119 OA 
ENDBRANCH  19  24
ENDBRANCH  18  19
ENDBRANCH  17  18
ENDBRANCH   5  17
ENDBRANCH   3   5
TORSDOF 11
ENDMDL
MODEL      214
REMARK 921   NORMALIZED FREE ENERGY PREDICTED BY IDOCK:   -4.27 KCAL/MOL
REMARK 922        TOTAL FREE ENERGY PREDICTED BY IDOCK:   -8.75 KCAL/MOL
REMARK 923 INTER-LIGAND FREE ENERGY PREDICTED BY IDOCK:   -7.36 KCAL/MOL
REMARK 924 INTRA-LIGAND FREE ENERGY PREDICTED BY IDOCK:   -1.40 KCAL/MOL
REMARK 927      BINDING AFFINITY PREDICTED BY RF-SCORE:    0.00 PKD
ROOT
HETATM    1  O   UNL     1      -7.154  10.498  69.507  1.00  0.00    -0.094 OA 
HETATM    2  C   UNL     1      -7.425  10.391  68.186  1.00  0.00    -0.090 C  
HETATM    3  C   UNL     1      -8.923  10.401  67.890  1.00  0.00    -0.128 C  
HETATM    4  O   UNL     1      -6.561  10.254  67.332  1.00  0.00    -0.066 OA 
ENDROOT
BRANCH   3   5
HETATM    5  N   UNL     1      -9.705  11.241  68.864  1.00  0.00    -0.170 NA 
BRANCH   5   6
HETATM    6  C   UNL     1     -10.239  12.448  68.150  1.00  0.00    -0.225 C  
BRANCH   6   7
HETATM    7  C   UNL     1     -11.325  12.133  67.078  1.00  0.00    -0.337 C  
BRANCH   7   8
HETATM    8  N   UNL     1     -11.213  12.875  65.774  1.00  0.00    -0.287 NA 
BRANCH   8   9
HETATM    9  C   UNL     1     -10.065  12.252  64.998  1.00  0.00    -0.253 C  
HETATM   10  O   UNL     1     -11.653  11.987  63.212  1.00  0.00    -0.392 OA 
HETATM   11  C   UNL     1     -10.538  11.467  63.776  1.00  0.00    -0.403 C  
HETATM   12  O   UNL     1      -9.963  10.486  63.330  1.00  0.00    -0.307 OA 
ENDBRANCH   8   9
BRANCH   8  13
HETATM   13  C   UNL     1     -10.812  14.298  66.083  1.00  0.00    -0.310 C  
HETATM   14  O   UNL     1     -12.378  14.921  64.378  1.00  0.00    -0.490 OA 
HETATM   15  O   UNL     1     -10.612  16.298  64.720  1.00  0.00    -0.658 OA 
HETATM   16  C   UNL     1     -11.222  15.276  64.987  1.00  0.00    -0.403 C  
ENDBRANCH   8  13
ENDBRANCH   7   8
ENDBRANCH   6   7
ENDBRANCH   5   6
BRANCH   5  17
HETATM   17  C   UNL     1     -10.865  10.438  69.366  1.00  0.00    -0.248 C  
BRANCH  17  18
HETATM   18  C   UNL     1     -10.980  10.250  70.905  1.00  0.00    -0.045 C  
BRANCH  18  19
HETATM   19  N   UNL     1     -10.748   8.841  71.400  1.00  0.00    -0.260 NA 
BRANCH  19  20
HETATM   20  C   UNL     1      -9.282   8.734  71.780  1.00  0.00    -0.262 C  
HETATM   21  O   UNL     1      -8.113   8.640  73.908  1.00  0.00    -0.398 OA 
HETATM   22  O   UNL     1     -10.079   7.535  73.706  1.00  0.00    -0.319 OA 
HETATM   23  C   UNL     1      -9.084   8.324  73.237  1.00  0.00    -0.207 C  
ENDBRANCH  19  20
BRANCH  19  24
HETATM   24  C   UNL     1     -10.968   7.897  70.238  1.00  0.00    -0.248 C  
HETATM   25  C   UNL     1     -11.586   6.569  70.661  1.00  0.00    -0.381 C  
HETATM   26  O   UNL     1     -11.408   5.514  70.073  1.00  0.00    -0.023 OA 
HETATM   27  O   UNL     1     -12.421   6.693  71.720  1.00  0.00    -0.352 OA 
ENDBRANCH  19  24
ENDBRANCH  18  19
ENDBRANCH  17  18
ENDBRANCH   5  17
ENDBRANCH   3   5
TORSDOF 11
ENDMDL
MODEL      215
REMARK 921   NORMALIZED FREE ENERGY PREDICTED BY IDOCK:   -4.26 KCAL/MOL
REMARK 922        TOTAL FREE ENERGY PREDICTED BY IDOCK:   -8.74 KCAL/MOL
REMARK 923 INTER-LIGAND FREE ENERGY PREDICTED BY IDOCK:   -7.39 KCAL/MOL
REMARK 924 INTRA-LIGAND FREE ENERGY PREDICTED BY IDOCK:   -1.35 KCAL/MOL
REMARK 927      BINDING AFFINITY PREDICTED BY RF-SCORE:    0.00 PKD
ROOT
HETATM    1  O   UNL     1      -7.400   9.718  66.614  1.00  0.00    -0.092 OA 
HETATM    2  C   UNL     1      -8.309   9.693  65.612  1.00  0.00    -0.129 C  
HETATM    3  C   UNL     1      -9.732   9.465  66.115  1.00  0.00    -0.265 C  
HETATM    4  O   UNL     1      -8.011   9.795  64.431  1.00  0.00    -0.130 OA 
ENDROOT
BRANCH   3   5
HETATM    5  N   UNL     1      -9.970  10.053  67.480  1.00  0.00    -0.181 NA 
BRANCH   5   6
HETATM    6  C   UNL     1     -10.887  11.235  67.349  1.00  0.00    -0.262 C  
BRANCH   6   7
HETATM    7  C   UNL     1     -10.161  12.584  67.061  1.00  0.00    -0.221 C  
BRANCH   7   8
HETATM    8  N   UNL     1     -10.769  13.457  65.997  1.00  0.00    -0.276 NA 
BRANCH   8   9
HETATM    9  C   UNL     1     -11.226  14.739  66.672  1.00  0.00    -0.346 C  
HETATM   10  O   UNL     1     -10.675  15.816  64.593  1.00  0.00    -0.497 OA 
HETATM   11  C   UNL     1     -10.758  15.992  65.933  1.00  0.00    -0.280 C  
HETATM   12  O   UNL     1     -10.507  17.054  66.481  1.00  0.00    -0.305 OA 
ENDBRANCH   8   9
BRANCH   8  13
HETATM   13  C   UNL     1     -12.010  12.766  65.483  1.00  0.00    -0.449 C  
HETATM   14  O   UNL     1     -10.701  12.248  63.542  1.00  0.00    -0.429 OA 
HETATM   15  O   UNL     1     -12.940  12.462  63.261  1.00  0.00    -0.675 OA 
HETATM   16  C   UNL     1     -11.957  12.500  63.982  1.00  0.00    -0.454 C  
ENDBRANCH   8  13
ENDBRANCH   7   8
ENDBRANCH   6   7
ENDBRANCH   5   6
BRANCH   5  17
HETATM   17  C   UNL     1     -10.645   9.026  68.335  1.00  0.00    -0.154 C  
BRANCH  17  18
HETATM   18  C   UNL     1      -9.745   8.226  69.319  1.00  0.00    -0.177 C  
BRANCH  18  19
HETATM   19  N   UNL     1     -10.249   6.847  69.674  1.00  0.00    -0.188 NA 
BRANCH  19  20
HETATM   20  C   UNL     1     -11.095   6.364  68.510  1.00  0.00    -0.300 C  
HETATM   21  O   UNL     1     -10.565   5.285  66.397  1.00  0.00    -0.287 OA 
HETATM   22  O   UNL     1      -9.400   4.679  68.241  1.00  0.00    -0.122 OA 
HETATM   23  C   UNL     1     -10.335   5.410  67.590  1.00  0.00    -0.177 C  
ENDBRANCH  19  20
BRANCH  19  24
HETATM   24  C   UNL     1     -11.177   6.981  70.862  1.00  0.00    -0.282 C  
HETATM   25  C   UNL     1     -10.923   5.928  71.936  1.00  0.00    -0.266 C  
HETATM   26  O   UNL     1     -11.781   5.505  72.693  1.00  0.00    -0.293 OA 
HETATM   27  O   UNL     1      -9.622   5.563  72.013  1.00  0.00    -0.150 OA 
ENDBRANCH  19  24
ENDBRANCH  18  19
ENDBRANCH  17  18
ENDBRANCH   5  17
ENDBRANCH   3   5
TORSDOF 11
ENDMDL
MODEL      216
REMARK 921   NORMALIZED FREE ENERGY PREDICTED BY IDOCK:   -4.26 KCAL/MOL
REMARK 922        TOTAL FREE ENERGY PREDICTED BY IDOCK:   -8.74 KCAL/MOL
REMARK 923 INTER-LIGAND FREE ENERGY PREDICTED BY IDOCK:   -7.18 KCAL/MOL
REMARK 924 INTRA-LIGAND FREE ENERGY PREDICTED BY IDOCK:   -1.56 KCAL/MOL
REMARK 927      BINDING AFFINITY PREDICTED BY RF-SCORE:    0.00 PKD
ROOT
HETATM    1  O   UNL     1      -5.724  11.349  66.077  1.00  0.00    -0.173 OA 
HETATM    2  C   UNL     1      -5.962  12.255  67.054  1.00  0.00    -0.041 C  
HETATM    3  C   UNL     1      -7.362  12.124  67.649  1.00  0.00    -0.122 C  
HETATM    4  O   UNL     1      -5.156  13.111  67.387  1.00  0.00    -0.308 OA 
ENDROOT
BRANCH   3   5
HETATM    5  N   UNL     1      -7.868  10.707  67.646  1.00  0.00    -0.104 NA 
BRANCH   5   6
HETATM    6  C   UNL     1      -8.054  10.252  69.065  1.00  0.00    -0.132 C  
BRANCH   6   7
HETATM    7  C   UNL     1      -9.510   9.821  69.417  1.00  0.00    -0.201 C  
BRANCH   7   8
HETATM    8  N   UNL     1      -9.700   8.390  69.839  1.00  0.00    -0.178 NA 
BRANCH   8   9
HETATM    9  C   UNL     1     -10.554   8.399  71.094  1.00  0.00    -0.215 C  
HETATM   10  O   UNL     1     -11.697   6.525  70.114  1.00  0.00    -0.418 OA 
HETATM   11  C   UNL     1     -11.840   7.589  70.938  1.00  0.00    -0.267 C  
HETATM   12  O   UNL     1     -12.886   7.850  71.512  1.00  0.00    -0.320 OA 
ENDBRANCH   8   9
BRANCH   8  13
HETATM   13  C   UNL     1      -8.350   7.839  70.232  1.00  0.00    -0.127 C  
HETATM   14  O   UNL     1      -8.787   6.111  68.628  1.00  0.00    -0.115 OA 
HETATM   15  O   UNL     1      -7.459   5.585  70.387  1.00  0.00    -0.075 OA 
HETATM   16  C   UNL     1      -8.154   6.391  69.792  1.00  0.00    -0.121 C  
ENDBRANCH   8  13
ENDBRANCH   7   8
ENDBRANCH   6   7
ENDBRANCH   5   6
BRANCH   5  17
HETATM   17  C   UNL     1      -9.200  10.673  66.962  1.00  0.00    -0.151 C  
BRANCH  17  18
HETATM   18  C   UNL     1      -9.504  11.817  65.953  1.00  0.00    -0.223 C  
BRANCH  18  19
HETATM   19  N   UNL     1     -10.836  12.503  66.143  1.00  0.00    -0.266 NA 
BRANCH  19  20
HETATM   20  C   UNL     1     -11.012  13.470  64.985  1.00  0.00    -0.335 C  
HETATM   21  O   UNL     1     -12.412  13.457  62.998  1.00  0.00    -0.667 OA 
HETATM   22  O   UNL     1     -13.284  12.683  64.939  1.00  0.00    -0.819 OA 
HETATM   23  C   UNL     1     -12.285  13.201  64.186  1.00  0.00    -0.398 C  
ENDBRANCH  19  20
BRANCH  19  24
HETATM   24  C   UNL     1     -10.756  13.339  67.401  1.00  0.00    -0.258 C  
HETATM   25  C   UNL     1     -11.839  12.989  68.417  1.00  0.00    -0.334 C  
HETATM   26  O   UNL     1     -12.301  13.781  69.223  1.00  0.00    -0.312 OA 
HETATM   27  O   UNL     1     -12.186  11.681  68.382  1.00  0.00    -0.498 OA 
ENDBRANCH  19  24
ENDBRANCH  18  19
ENDBRANCH  17  18
ENDBRANCH   5  17
ENDBRANCH   3   5
TORSDOF 11
ENDMDL
MODEL      217
REMARK 921   NORMALIZED FREE ENERGY PREDICTED BY IDOCK:   -4.25 KCAL/MOL
REMARK 922        TOTAL FREE ENERGY PREDICTED BY IDOCK:   -8.73 KCAL/MOL
REMARK 923 INTER-LIGAND FREE ENERGY PREDICTED BY IDOCK:   -7.76 KCAL/MOL
REMARK 924 INTRA-LIGAND FREE ENERGY PREDICTED BY IDOCK:   -0.97 KCAL/MOL
REMARK 927      BINDING AFFINITY PREDICTED BY RF-SCORE:    0.00 PKD
ROOT
HETATM    1  O   UNL     1     -12.945  10.200  70.724  1.00  0.00    -0.358 OA 
HETATM    2  C   UNL     1     -12.650  11.518  70.820  1.00  0.00    -0.298 C  
HETATM    3  C   UNL     1     -11.641  11.972  69.769  1.00  0.00    -0.276 C  
HETATM    4  O   UNL     1     -13.110  12.247  71.686  1.00  0.00    -0.409 OA 
ENDROOT
BRANCH   3   5
HETATM    5  N   UNL     1     -11.758  11.208  68.478  1.00  0.00    -0.445 NA 
BRANCH   5   6
HETATM    6  C   UNL     1     -11.832  12.182  67.339  1.00  0.00    -0.227 C  
BRANCH   6   7
HETATM    7  C   UNL     1     -10.543  13.035  67.136  1.00  0.00    -0.246 C  
BRANCH   7   8
HETATM    8  N   UNL     1     -10.631  14.154  66.134  1.00  0.00    -0.288 NA 
BRANCH   8   9
HETATM    9  C   UNL     1     -10.773  13.520  64.761  1.00  0.00    -0.401 C  
HETATM   10  O   UNL     1     -12.987  14.458  64.755  1.00  0.00    -0.616 OA 
HETATM   11  C   UNL     1     -12.227  13.435  64.299  1.00  0.00    -0.392 C  
HETATM   12  O   UNL     1     -12.662  12.555  63.573  1.00  0.00    -0.722 OA 
ENDBRANCH   8   9
BRANCH   8  13
HETATM   13  C   UNL     1      -9.312  14.890  66.143  1.00  0.00    -0.272 C  
HETATM   14  O   UNL     1     -10.557  16.746  67.009  1.00  0.00    -0.305 OA 
HETATM   15  O   UNL     1      -8.707  17.214  65.787  1.00  0.00    -0.527 OA 
HETATM   16  C   UNL     1      -9.482  16.401  66.262  1.00  0.00    -0.317 C  
ENDBRANCH   8  13
ENDBRANCH   7   8
ENDBRANCH   6   7
ENDBRANCH   5   6
BRANCH   5  17
HETATM   17  C   UNL     1     -10.528  10.371  68.303  1.00  0.00    -0.191 C  
BRANCH  17  18
HETATM   18  C   UNL     1     -10.741   8.862  67.994  1.00  0.00    -0.108 C  
BRANCH  18  19
HETATM   19  N   UNL     1      -9.475   8.047  67.868  1.00  0.00    -0.144 NA 
BRANCH  19  20
HETATM   20  C   UNL     1      -9.325   7.249  69.151  1.00  0.00    -0.146 C  
HETATM   21  O   UNL     1     -10.701   5.568  70.240  1.00  0.00    -0.294 OA 
HETATM   22  O   UNL     1     -10.534   5.529  67.983  1.00  0.00    -0.204 OA 
HETATM   23  C   UNL     1     -10.263   6.046  69.205  1.00  0.00    -0.204 C  
ENDBRANCH  19  20
BRANCH  19  24
HETATM   24  C   UNL     1      -8.306   9.007  67.812  1.00  0.00    -0.117 C  
HETATM   25  C   UNL     1      -7.433   8.809  66.577  1.00  0.00    -0.085 C  
HETATM   26  O   UNL     1      -6.240   9.062  66.537  1.00  0.00    -0.062 OA 
HETATM   27  O   UNL     1      -8.138   8.392  65.500  1.00  0.00    -0.113 OA 
ENDBRANCH  19  24
ENDBRANCH  18  19
ENDBRANCH  17  18
ENDBRANCH   5  17
ENDBRANCH   3   5
TORSDOF 11
ENDMDL
MODEL      218
REMARK 921   NORMALIZED FREE ENERGY PREDICTED BY IDOCK:   -4.25 KCAL/MOL
REMARK 922        TOTAL FREE ENERGY PREDICTED BY IDOCK:   -8.72 KCAL/MOL
REMARK 923 INTER-LIGAND FREE ENERGY PREDICTED BY IDOCK:   -7.67 KCAL/MOL
REMARK 924 INTRA-LIGAND FREE ENERGY PREDICTED BY IDOCK:   -1.05 KCAL/MOL
REMARK 927      BINDING AFFINITY PREDICTED BY RF-SCORE:    0.00 PKD
ROOT
HETATM    1  O   UNL     1      -7.686   6.949  67.372  1.00  0.00    -0.106 OA 
HETATM    2  C   UNL     1      -8.706   6.853  66.488  1.00  0.00    -0.133 C  
HETATM    3  C   UNL     1      -9.870   7.780  66.830  1.00  0.00    -0.241 C  
HETATM    4  O   UNL     1      -8.708   6.074  65.546  1.00  0.00    -0.154 OA 
ENDROOT
BRANCH   3   5
HETATM    5  N   UNL     1      -9.426   9.053  67.498  1.00  0.00    -0.135 NA 
BRANCH   5   6
HETATM    6  C   UNL     1      -9.901  10.223  66.685  1.00  0.00    -0.204 C  
BRANCH   6   7
HETATM    7  C   UNL     1     -11.077  11.018  67.328  1.00  0.00    -0.294 C  
BRANCH   7   8
HETATM    8  N   UNL     1     -11.428  12.332  66.684  1.00  0.00    -0.357 NA 
BRANCH   8   9
HETATM    9  C   UNL     1     -11.380  12.124  65.180  1.00  0.00    -0.327 C  
HETATM   10  O   UNL     1     -13.221  13.668  65.089  1.00  0.00    -0.739 OA 
HETATM   11  C   UNL     1     -12.649  12.604  64.479  1.00  0.00    -0.412 C  
HETATM   12  O   UNL     1     -13.097  12.103  63.459  1.00  0.00    -0.785 OA 
ENDBRANCH   8   9
BRANCH   8  13
HETATM   13  C   UNL     1     -10.338  13.321  67.025  1.00  0.00    -0.246 C  
HETATM   14  O   UNL     1     -12.013  14.450  68.316  1.00  0.00    -0.329 OA 
HETATM   15  O   UNL     1     -10.341  15.711  67.451  1.00  0.00    -0.264 OA 
HETATM   16  C   UNL     1     -10.885  14.628  67.588  1.00  0.00    -0.284 C  
ENDBRANCH   8  13
ENDBRANCH   7   8
ENDBRANCH   6   7
ENDBRANCH   5   6
BRANCH   5  17
HETATM   17  C   UNL     1     -10.061   9.132  68.852  1.00  0.00    -0.197 C  
BRANCH  17  18
HETATM   18  C   UNL     1     -10.652   7.816  69.431  1.00  0.00    -0.208 C  
BRANCH  18  19
HETATM   19  N   UNL     1     -10.751   7.764  70.938  1.00  0.00    -0.219 NA 
BRANCH  19  20
HETATM   20  C   UNL     1     -10.112   6.462  71.386  1.00  0.00    -0.189 C  
HETATM   21  O   UNL     1      -7.985   5.392  70.899  1.00  0.00    -0.099 OA 
HETATM   22  O   UNL     1      -8.029   7.640  71.159  1.00  0.00    -0.089 OA 
HETATM   23  C   UNL     1      -8.612   6.420  71.109  1.00  0.00    -0.128 C  
ENDBRANCH  19  20
BRANCH  19  24
HETATM   24  C   UNL     1     -12.216   7.682  71.307  1.00  0.00    -0.315 C  
HETATM   25  C   UNL     1     -12.753   8.980  71.901  1.00  0.00    -0.382 C  
HETATM   26  O   UNL     1     -13.674   9.035  72.700  1.00  0.00    -0.470 OA 
HETATM   27  O   UNL     1     -12.149  10.078  71.391  1.00  0.00    -0.367 OA 
ENDBRANCH  19  24
ENDBRANCH  18  19
ENDBRANCH  17  18
ENDBRANCH   5  17
ENDBRANCH   3   5
TORSDOF 11
ENDMDL
MODEL      219
REMARK 921   NORMALIZED FREE ENERGY PREDICTED BY IDOCK:   -4.25 KCAL/MOL
REMARK 922        TOTAL FREE ENERGY PREDICTED BY IDOCK:   -8.72 KCAL/MOL
REMARK 923 INTER-LIGAND FREE ENERGY PREDICTED BY IDOCK:   -7.30 KCAL/MOL
REMARK 924 INTRA-LIGAND FREE ENERGY PREDICTED BY IDOCK:   -1.42 KCAL/MOL
REMARK 927      BINDING AFFINITY PREDICTED BY RF-SCORE:    0.00 PKD
ROOT
HETATM    1  O   UNL     1     -10.896  10.800  64.080  1.00  0.00    -0.207 OA 
HETATM    2  C   UNL     1      -9.598  10.513  64.332  1.00  0.00    -0.300 C  
HETATM    3  C   UNL     1      -9.166  10.925  65.737  1.00  0.00    -0.201 C  
HETATM    4  O   UNL     1      -8.846  10.020  63.503  1.00  0.00    -0.194 OA 
ENDROOT
BRANCH   3   5
HETATM    5  N   UNL     1     -10.280  10.825  66.743  1.00  0.00    -0.222 NA 
BRANCH   5   6
HETATM    6  C   UNL     1     -10.043   9.629  67.618  1.00  0.00    -0.194 C  
BRANCH   6   7
HETATM    7  C   UNL     1     -10.731   8.321  67.121  1.00  0.00    -0.170 C  
BRANCH   7   8
HETATM    8  N   UNL     1     -10.278   7.040  67.766  1.00  0.00    -0.167 NA 
BRANCH   8   9
HETATM    9  C   UNL     1     -10.860   5.896  66.955  1.00  0.00    -0.296 C  
HETATM   10  O   UNL     1      -8.630   4.997  66.958  1.00  0.00    -0.107 OA 
HETATM   11  C   UNL     1      -9.786   5.062  66.258  1.00  0.00    -0.200 C  
HETATM   12  O   UNL     1      -9.952   4.489  65.192  1.00  0.00    -0.179 OA 
ENDBRANCH   8   9
BRANCH   8  13
HETATM   13  C   UNL     1     -10.902   6.966  69.139  1.00  0.00    -0.228 C  
HETATM   14  O   UNL     1      -8.657   6.761  69.954  1.00  0.00    -0.138 OA 
HETATM   15  O   UNL     1     -10.300   5.787  71.175  1.00  0.00    -0.208 OA 
HETATM   16  C   UNL     1      -9.945   6.418  70.193  1.00  0.00    -0.171 C  
ENDBRANCH   8  13
ENDBRANCH   7   8
ENDBRANCH   6   7
ENDBRANCH   5   6
BRANCH   5  17
HETATM   17  C   UNL     1     -10.261  12.050  67.604  1.00  0.00    -0.199 C  
BRANCH  17  18
HETATM   18  C   UNL     1      -9.690  13.350  66.969  1.00  0.00    -0.239 C  
BRANCH  18  19
HETATM   19  N   UNL     1     -10.699  14.451  66.743  1.00  0.00    -0.289 NA 
BRANCH  19  20
HETATM   20  C   UNL     1     -11.887  14.164  67.642  1.00  0.00    -0.392 C  
HETATM   21  O   UNL     1     -12.417  14.745  69.942  1.00  0.00    -0.306 OA 
HETATM   22  O   UNL     1     -11.378  16.287  68.651  1.00  0.00    -0.359 OA 
HETATM   23  C   UNL     1     -11.921  15.067  68.873  1.00  0.00    -0.254 C  
ENDBRANCH  19  20
BRANCH  19  24
HETATM   24  C   UNL     1     -11.195  14.343  65.317  1.00  0.00    -0.345 C  
HETATM   25  C   UNL     1     -11.461  15.700  64.676  1.00  0.00    -0.303 C  
HETATM   26  O   UNL     1     -12.288  15.891  63.799  1.00  0.00    -0.791 OA 
HETATM   27  O   UNL     1     -10.627  16.666  65.129  1.00  0.00    -0.645 OA 
ENDBRANCH  19  24
ENDBRANCH  18  19
ENDBRANCH  17  18
ENDBRANCH   5  17
ENDBRANCH   3   5
TORSDOF 11
ENDMDL
MODEL      220
REMARK 921   NORMALIZED FREE ENERGY PREDICTED BY IDOCK:   -4.24 KCAL/MOL
REMARK 922        TOTAL FREE ENERGY PREDICTED BY IDOCK:   -8.71 KCAL/MOL
REMARK 923 INTER-LIGAND FREE ENERGY PREDICTED BY IDOCK:   -7.66 KCAL/MOL
REMARK 924 INTRA-LIGAND FREE ENERGY PREDICTED BY IDOCK:   -1.05 KCAL/MOL
REMARK 927      BINDING AFFINITY PREDICTED BY RF-SCORE:    0.00 PKD
ROOT
HETATM    1  O   UNL     1     -13.000  10.105  70.727  1.00  0.00    -0.358 OA 
HETATM    2  C   UNL     1     -12.637  11.409  70.751  1.00  0.00    -0.316 C  
HETATM    3  C   UNL     1     -11.635  11.761  69.654  1.00  0.00    -0.323 C  
HETATM    4  O   UNL     1     -13.036  12.201  71.592  1.00  0.00    -0.418 OA 
ENDROOT
BRANCH   3   5
HETATM    5  N   UNL     1     -11.825  10.943  68.406  1.00  0.00    -0.525 NA 
BRANCH   5   6
HETATM    6  C   UNL     1     -11.816  11.859  67.216  1.00  0.00    -0.148 C  
BRANCH   6   7
HETATM    7  C   UNL     1     -10.675  12.921  67.230  1.00  0.00    -0.245 C  
BRANCH   7   8
HETATM    8  N   UNL     1     -11.043  14.304  66.767  1.00  0.00    -0.307 NA 
BRANCH   8   9
HETATM    9  C   UNL     1     -10.965  14.308  65.250  1.00  0.00    -0.343 C  
HETATM   10  O   UNL     1     -13.368  14.373  65.306  1.00  0.00    -0.574 OA 
HETATM   11  C   UNL     1     -12.298  13.955  64.591  1.00  0.00    -0.388 C  
HETATM   12  O   UNL     1     -12.398  13.380  63.519  1.00  0.00    -0.711 OA 
ENDBRANCH   8   9
BRANCH   8  13
HETATM   13  C   UNL     1      -9.982  15.258  67.263  1.00  0.00    -0.226 C  
HETATM   14  O   UNL     1     -11.706  16.172  68.656  1.00  0.00    -0.362 OA 
HETATM   15  O   UNL     1     -10.044  17.568  68.007  1.00  0.00    -0.297 OA 
HETATM   16  C   UNL     1     -10.568  16.467  67.985  1.00  0.00    -0.314 C  
ENDBRANCH   8  13
ENDBRANCH   7   8
ENDBRANCH   6   7
ENDBRANCH   5   6
BRANCH   5  17
HETATM   17  C   UNL     1     -10.677   9.991  68.276  1.00  0.00    -0.240 C  
BRANCH  17  18
HETATM   18  C   UNL     1      -9.570  10.068  69.365  1.00  0.00    -0.222 C  
BRANCH  18  19
HETATM   19  N   UNL     1      -8.334   9.245  69.086  1.00  0.00    -0.123 NA 
BRANCH  19  20
HETATM   20  C   UNL     1      -7.205  10.216  68.787  1.00  0.00    -0.081 C  
HETATM   21  O   UNL     1      -6.113  11.954  70.087  1.00  0.00    -0.152 OA 
HETATM   22  O   UNL     1      -6.702  10.034  71.132  1.00  0.00    -0.338 OA 
HETATM   23  C   UNL     1      -6.627  10.847  70.052  1.00  0.00    -0.151 C  
ENDBRANCH  19  20
BRANCH  19  24
HETATM   24  C   UNL     1      -8.577   8.456  67.818  1.00  0.00    -0.130 C  
HETATM   25  C   UNL     1      -8.687   6.955  68.065  1.00  0.00    -0.125 C  
HETATM   26  O   UNL     1      -8.385   6.103  67.244  1.00  0.00    -0.106 OA 
HETATM   27  O   UNL     1      -9.229   6.661  69.270  1.00  0.00    -0.140 OA 
ENDBRANCH  19  24
ENDBRANCH  18  19
ENDBRANCH  17  18
ENDBRANCH   5  17
ENDBRANCH   3   5
TORSDOF 11
ENDMDL
MODEL      221
REMARK 921   NORMALIZED FREE ENERGY PREDICTED BY IDOCK:   -4.24 KCAL/MOL
REMARK 922        TOTAL FREE ENERGY PREDICTED BY IDOCK:   -8.71 KCAL/MOL
REMARK 923 INTER-LIGAND FREE ENERGY PREDICTED BY IDOCK:   -7.29 KCAL/MOL
REMARK 924 INTRA-LIGAND FREE ENERGY PREDICTED BY IDOCK:   -1.42 KCAL/MOL
REMARK 927      BINDING AFFINITY PREDICTED BY RF-SCORE:    0.00 PKD
ROOT
HETATM    1  O   UNL     1     -11.112   6.933  67.436  1.00  0.00    -0.304 OA 
HETATM    2  C   UNL     1      -9.809   7.285  67.338  1.00  0.00    -0.159 C  
HETATM    3  C   UNL     1      -9.603   8.797  67.386  1.00  0.00    -0.161 C  
HETATM    4  O   UNL     1      -8.905   6.477  67.180  1.00  0.00    -0.110 OA 
ENDROOT
BRANCH   3   5
HETATM    5  N   UNL     1     -10.622   9.498  68.244  1.00  0.00    -0.222 NA 
BRANCH   5   6
HETATM    6  C   UNL     1      -9.924  10.132  69.412  1.00  0.00    -0.228 C  
BRANCH   6   7
HETATM    7  C   UNL     1      -9.344   9.118  70.443  1.00  0.00    -0.232 C  
BRANCH   7   8
HETATM    8  N   UNL     1     -10.333   8.200  71.108  1.00  0.00    -0.196 NA 
BRANCH   8   9
HETATM    9  C   UNL     1     -11.193   9.052  72.026  1.00  0.00    -0.309 C  
HETATM   10  O   UNL     1     -12.970   7.527  71.480  1.00  0.00    -0.345 OA 
HETATM   11  C   UNL     1     -12.687   8.804  71.831  1.00  0.00    -0.374 C  
HETATM   12  O   UNL     1     -13.548   9.654  71.998  1.00  0.00    -0.408 OA 
ENDBRANCH   8   9
BRANCH   8  13
HETATM   13  C   UNL     1      -9.562   7.247  71.990  1.00  0.00    -0.150 C  
HETATM   14  O   UNL     1     -10.188   5.558  70.407  1.00  0.00    -0.212 OA 
HETATM   15  O   UNL     1      -9.852   4.902  72.550  1.00  0.00    -0.149 OA 
HETATM   16  C   UNL     1      -9.896   5.785  71.710  1.00  0.00    -0.166 C  
ENDBRANCH   8  13
ENDBRANCH   7   8
ENDBRANCH   6   7
ENDBRANCH   5   6
BRANCH   5  17
HETATM   17  C   UNL     1     -11.266  10.581  67.435  1.00  0.00    -0.173 C  
BRANCH  17  18
HETATM   18  C   UNL     1     -10.463  11.901  67.256  1.00  0.00    -0.222 C  
BRANCH  18  19
HETATM   19  N   UNL     1     -10.692  12.620  65.948  1.00  0.00    -0.262 NA 
BRANCH  19  20
HETATM   20  C   UNL     1      -9.716  12.040  64.940  1.00  0.00    -0.106 C  
HETATM   21  O   UNL     1      -9.904  10.318  63.235  1.00  0.00    -0.261 OA 
HETATM   22  O   UNL     1     -11.654  11.719  63.552  1.00  0.00    -0.434 OA 
HETATM   23  C   UNL     1     -10.415  11.252  63.835  1.00  0.00    -0.391 C  
ENDBRANCH  19  20
BRANCH  19  24
HETATM   24  C   UNL     1     -10.311  14.071  66.140  1.00  0.00    -0.297 C  
HETATM   25  C   UNL     1     -11.059  15.012  65.201  1.00  0.00    -0.401 C  
HETATM   26  O   UNL     1     -10.614  16.077  64.804  1.00  0.00    -0.600 OA 
HETATM   27  O   UNL     1     -12.307  14.576  64.909  1.00  0.00    -0.419 OA 
ENDBRANCH  19  24
ENDBRANCH  18  19
ENDBRANCH  17  18
ENDBRANCH   5  17
ENDBRANCH   3   5
TORSDOF 11
ENDMDL
MODEL      222
REMARK 921   NORMALIZED FREE ENERGY PREDICTED BY IDOCK:   -4.24 KCAL/MOL
REMARK 922        TOTAL FREE ENERGY PREDICTED BY IDOCK:   -8.71 KCAL/MOL
REMARK 923 INTER-LIGAND FREE ENERGY PREDICTED BY IDOCK:   -8.04 KCAL/MOL
REMARK 924 INTRA-LIGAND FREE ENERGY PREDICTED BY IDOCK:   -0.67 KCAL/MOL
REMARK 927      BINDING AFFINITY PREDICTED BY RF-SCORE:    0.00 PKD
ROOT
HETATM    1  O   UNL     1      -9.920  10.396  69.358  1.00  0.00    -0.216 OA 
HETATM    2  C   UNL     1     -10.875  10.988  68.602  1.00  0.00    -0.215 C  
HETATM    3  C   UNL     1     -10.596  12.469  68.356  1.00  0.00    -0.242 C  
HETATM    4  O   UNL     1     -11.872  10.404  68.201  1.00  0.00    -0.338 OA 
ENDROOT
BRANCH   3   5
HETATM    5  N   UNL     1      -9.126  12.783  68.288  1.00  0.00    -0.199 NA 
BRANCH   5   6
HETATM    6  C   UNL     1      -8.674  12.697  66.859  1.00  0.00    -0.175 C  
BRANCH   6   7
HETATM    7  C   UNL     1      -9.810  12.894  65.811  1.00  0.00    -0.209 C  
BRANCH   7   8
HETATM    8  N   UNL     1     -10.244  11.666  65.057  1.00  0.00    -0.263 NA 
BRANCH   8   9
HETATM    9  C   UNL     1      -8.987  10.921  64.646  1.00  0.00    -0.132 C  
HETATM   10  O   UNL     1      -9.890   9.075  65.894  1.00  0.00    -0.276 OA 
HETATM   11  C   UNL     1      -8.744   9.668  65.486  1.00  0.00    -0.153 C  
HETATM   12  O   UNL     1      -7.636   9.225  65.747  1.00  0.00    -0.096 OA 
ENDBRANCH   8   9
BRANCH   8  13
HETATM   13  C   UNL     1     -10.921  12.119  63.785  1.00  0.00    -0.431 C  
HETATM   14  O   UNL     1     -12.793  12.658  65.183  1.00  0.00    -0.721 OA 
HETATM   15  O   UNL     1     -13.230  12.090  63.033  1.00  0.00    -0.427 OA 
HETATM   16  C   UNL     1     -12.432  12.260  63.940  1.00  0.00    -0.485 C  
ENDBRANCH   8  13
ENDBRANCH   7   8
ENDBRANCH   6   7
ENDBRANCH   5   6
BRANCH   5  17
HETATM   17  C   UNL     1      -8.913  14.186  68.766  1.00  0.00    -0.065 C  
BRANCH  17  18
HETATM   18  C   UNL     1      -9.155  15.327  67.737  1.00  0.00    -0.182 C  
BRANCH  18  19
HETATM   19  N   UNL     1     -10.078  16.428  68.204  1.00  0.00    -0.244 NA 
BRANCH  19  20
HETATM   20  C   UNL     1     -11.459  15.818  68.365  1.00  0.00    -0.365 C  
HETATM   21  O   UNL     1     -12.606  14.754  70.224  1.00  0.00    -0.341 OA 
HETATM   22  O   UNL     1     -11.292  16.547  70.650  1.00  0.00    -0.312 OA 
HETATM   23  C   UNL     1     -11.846  15.625  69.829  1.00  0.00    -0.363 C  
ENDBRANCH  19  20
BRANCH  19  24
HETATM   24  C   UNL     1     -10.180  17.452  67.095  1.00  0.00    -0.323 C  
HETATM   25  C   UNL     1     -10.502  18.852  67.607  1.00  0.00    -0.443 C  
HETATM   26  O   UNL     1     -11.106  19.693  66.961  1.00  0.00    -0.412 OA 
HETATM   27  O   UNL     1      -9.981  19.094  68.832  1.00  0.00    -0.418 OA 
ENDBRANCH  19  24
ENDBRANCH  18  19
ENDBRANCH  17  18
ENDBRANCH   5  17
ENDBRANCH   3   5
TORSDOF 11
ENDMDL
MODEL      223
REMARK 921   NORMALIZED FREE ENERGY PREDICTED BY IDOCK:   -4.24 KCAL/MOL
REMARK 922        TOTAL FREE ENERGY PREDICTED BY IDOCK:   -8.70 KCAL/MOL
REMARK 923 INTER-LIGAND FREE ENERGY PREDICTED BY IDOCK:   -7.10 KCAL/MOL
REMARK 924 INTRA-LIGAND FREE ENERGY PREDICTED BY IDOCK:   -1.60 KCAL/MOL
REMARK 927      BINDING AFFINITY PREDICTED BY RF-SCORE:    0.00 PKD
ROOT
HETATM    1  O   UNL     1     -11.879   8.508  71.896  1.00  0.00    -0.296 OA 
HETATM    2  C   UNL     1     -12.690   9.576  71.711  1.00  0.00    -0.404 C  
HETATM    3  C   UNL     1     -12.103  10.599  70.741  1.00  0.00    -0.374 C  
HETATM    4  O   UNL     1     -13.753   9.722  72.296  1.00  0.00    -0.393 OA 
ENDROOT
BRANCH   3   5
HETATM    5  N   UNL     1     -11.251   9.968  69.672  1.00  0.00    -0.249 NA 
BRANCH   5   6
HETATM    6  C   UNL     1     -11.495  10.678  68.372  1.00  0.00    -0.259 C  
BRANCH   6   7
HETATM    7  C   UNL     1     -10.285  11.516  67.860  1.00  0.00    -0.184 C  
BRANCH   7   8
HETATM    8  N   UNL     1     -10.519  12.992  67.687  1.00  0.00    -0.223 NA 
BRANCH   8   9
HETATM    9  C   UNL     1     -11.857  13.315  68.327  1.00  0.00    -0.354 C  
HETATM   10  O   UNL     1     -10.653  14.971  69.587  1.00  0.00    -0.248 OA 
HETATM   11  C   UNL     1     -11.715  14.133  69.610  1.00  0.00    -0.316 C  
HETATM   12  O   UNL     1     -12.488  14.065  70.553  1.00  0.00    -0.331 OA 
ENDBRANCH   8   9
BRANCH   8  13
HETATM   13  C   UNL     1     -10.661  13.270  66.209  1.00  0.00    -0.289 C  
HETATM   14  O   UNL     1      -9.096  15.049  66.574  1.00  0.00    -0.261 OA 
HETATM   15  O   UNL     1     -10.589  15.306  64.889  1.00  0.00    -0.407 OA 
HETATM   16  C   UNL     1     -10.146  14.651  65.817  1.00  0.00    -0.340 C  
ENDBRANCH   8  13
ENDBRANCH   7   8
ENDBRANCH   6   7
ENDBRANCH   5   6
BRANCH   5  17
HETATM   17  C   UNL     1      -9.810  10.143  70.042  1.00  0.00    -0.128 C  
BRANCH  17  18
HETATM   18  C   UNL     1      -8.915   8.872  70.008  1.00  0.00    -0.165 C  
BRANCH  18  19
HETATM   19  N   UNL     1      -9.484   7.705  69.235  1.00  0.00    -0.158 NA 
BRANCH  19  20
HETATM   20  C   UNL     1      -9.171   6.447  70.025  1.00  0.00    -0.156 C  
HETATM   21  O   UNL     1     -10.449   5.100  71.593  1.00  0.00    -0.210 OA 
HETATM   22  O   UNL     1     -11.514   5.960  69.790  1.00  0.00    -0.307 OA 
HETATM   23  C   UNL     1     -10.426   5.772  70.573  1.00  0.00    -0.263 C  
ENDBRANCH  19  20
BRANCH  19  24
HETATM   24  C   UNL     1      -8.730   7.599  67.928  1.00  0.00    -0.124 C  
HETATM   25  C   UNL     1      -9.541   6.923  66.827  1.00  0.00    -0.168 C  
HETATM   26  O   UNL     1      -9.049   6.287  65.909  1.00  0.00    -0.145 OA 
HETATM   27  O   UNL     1     -10.869   7.164  66.932  1.00  0.00    -0.352 OA 
ENDBRANCH  19  24
ENDBRANCH  18  19
ENDBRANCH  17  18
ENDBRANCH   5  17
ENDBRANCH   3   5
TORSDOF 11
ENDMDL
MODEL      224
REMARK 921   NORMALIZED FREE ENERGY PREDICTED BY IDOCK:   -4.23 KCAL/MOL
REMARK 922        TOTAL FREE ENERGY PREDICTED BY IDOCK:   -8.70 KCAL/MOL
REMARK 923 INTER-LIGAND FREE ENERGY PREDICTED BY IDOCK:   -7.88 KCAL/MOL
REMARK 924 INTRA-LIGAND FREE ENERGY PREDICTED BY IDOCK:   -0.82 KCAL/MOL
REMARK 927      BINDING AFFINITY PREDICTED BY RF-SCORE:    0.00 PKD
ROOT
HETATM    1  O   UNL     1     -13.032  13.770  65.602  1.00  0.00    -0.574 OA 
HETATM    2  C   UNL     1     -12.176  14.049  64.591  1.00  0.00    -0.435 C  
HETATM    3  C   UNL     1     -10.756  14.321  65.081  1.00  0.00    -0.394 C  
HETATM    4  O   UNL     1     -12.520  14.121  63.421  1.00  0.00    -0.797 OA 
ENDROOT
BRANCH   3   5
HETATM    5  N   UNL     1     -10.404  13.535  66.315  1.00  0.00    -0.287 NA 
BRANCH   5   6
HETATM    6  C   UNL     1     -10.236  12.090  65.943  1.00  0.00    -0.232 C  
BRANCH   6   7
HETATM    7  C   UNL     1     -10.576  11.087  67.087  1.00  0.00    -0.250 C  
BRANCH   7   8
HETATM    8  N   UNL     1      -9.467  10.171  67.525  1.00  0.00    -0.151 NA 
BRANCH   8   9
HETATM    9  C   UNL     1     -10.109   8.881  68.004  1.00  0.00    -0.195 C  
HETATM   10  O   UNL     1      -9.221   7.902  65.996  1.00  0.00    -0.172 OA 
HETATM   11  C   UNL     1     -10.228   7.835  66.897  1.00  0.00    -0.303 C  
HETATM   12  O   UNL     1     -11.121   7.004  66.836  1.00  0.00    -0.359 OA 
ENDBRANCH   8   9
BRANCH   8  13
HETATM   13  C   UNL     1      -8.794  10.797  68.723  1.00  0.00    -0.163 C  
HETATM   14  O   UNL     1      -7.364   8.873  68.703  1.00  0.00    -0.075 OA 
HETATM   15  O   UNL     1      -7.734   9.873  70.703  1.00  0.00    -0.289 OA 
HETATM   16  C   UNL     1      -7.935   9.806  69.502  1.00  0.00    -0.137 C  
ENDBRANCH   8  13
ENDBRANCH   7   8
ENDBRANCH   6   7
ENDBRANCH   5   6
BRANCH   5  17
HETATM   17  C   UNL     1      -9.099  14.039  66.850  1.00  0.00    -0.248 C  
BRANCH  17  18
HETATM   18  C   UNL     1      -9.121  14.700  68.257  1.00  0.00    -0.189 C  
BRANCH  18  19
HETATM   19  N   UNL     1      -9.908  15.985  68.351  1.00  0.00    -0.209 NA 
BRANCH  19  20
HETATM   20  C   UNL     1      -8.920  17.129  68.214  1.00  0.00    -0.248 C  
HETATM   21  O   UNL     1      -7.814  18.159  66.311  1.00  0.00    -0.277 OA 
HETATM   22  O   UNL     1      -9.973  17.517  66.087  1.00  0.00    -0.379 OA 
HETATM   23  C   UNL     1      -8.818  17.646  66.781  1.00  0.00    -0.258 C  
ENDBRANCH  19  20
BRANCH  19  24
HETATM   24  C   UNL     1     -10.489  16.076  69.746  1.00  0.00    -0.300 C  
HETATM   25  C   UNL     1     -11.951  15.645  69.809  1.00  0.00    -0.354 C  
HETATM   26  O   UNL     1     -12.754  16.072  70.623  1.00  0.00    -0.356 OA 
HETATM   27  O   UNL     1     -12.251  14.676  68.912  1.00  0.00    -0.246 OA 
ENDBRANCH  19  24
ENDBRANCH  18  19
ENDBRANCH  17  18
ENDBRANCH   5  17
ENDBRANCH   3   5
TORSDOF 11
ENDMDL
MODEL      225
REMARK 921   NORMALIZED FREE ENERGY PREDICTED BY IDOCK:   -4.23 KCAL/MOL
REMARK 922        TOTAL FREE ENERGY PREDICTED BY IDOCK:   -8.68 KCAL/MOL
REMARK 923 INTER-LIGAND FREE ENERGY PREDICTED BY IDOCK:   -7.39 KCAL/MOL
REMARK 924 INTRA-LIGAND FREE ENERGY PREDICTED BY IDOCK:   -1.29 KCAL/MOL
REMARK 927      BINDING AFFINITY PREDICTED BY RF-SCORE:    0.00 PKD
ROOT
HETATM    1  O   UNL     1     -13.182  13.949  65.262  1.00  0.00    -0.774 OA 
HETATM    2  C   UNL     1     -12.405  14.336  64.224  1.00  0.00    -0.377 C  
HETATM    3  C   UNL     1     -11.384  15.400  64.618  1.00  0.00    -0.355 C  
HETATM    4  O   UNL     1     -12.543  13.910  63.086  1.00  0.00    -0.775 OA 
ENDROOT
BRANCH   3   5
HETATM    5  N   UNL     1     -10.913  15.258  66.040  1.00  0.00    -0.332 NA 
BRANCH   5   6
HETATM    6  C   UNL     1      -9.845  14.205  66.099  1.00  0.00    -0.308 C  
BRANCH   6   7
HETATM    7  C   UNL     1     -10.186  12.992  67.016  1.00  0.00    -0.245 C  
BRANCH   7   8
HETATM    8  N   UNL     1      -9.577  11.671  66.632  1.00  0.00    -0.199 NA 
BRANCH   8   9
HETATM    9  C   UNL     1      -8.068  11.831  66.710  1.00  0.00    -0.133 C  
HETATM   10  O   UNL     1      -8.220  10.560  68.746  1.00  0.00    -0.116 OA 
HETATM   11  C   UNL     1      -7.514  11.516  68.099  1.00  0.00    -0.101 C  
HETATM   12  O   UNL     1      -6.523  12.048  68.575  1.00  0.00    -0.052 OA 
ENDBRANCH   8   9
BRANCH   8  13
HETATM   13  C   UNL     1      -9.916  11.407  65.184  1.00  0.00    -0.264 C  
HETATM   14  O   UNL     1      -9.819   9.085  65.770  1.00  0.00    -0.262 OA 
HETATM   15  O   UNL     1      -9.308   9.640  63.633  1.00  0.00    -0.211 OA 
HETATM   16  C   UNL     1      -9.625   9.970  64.764  1.00  0.00    -0.308 C  
ENDBRANCH   8  13
ENDBRANCH   7   8
ENDBRANCH   6   7
ENDBRANCH   5   6
BRANCH   5  17
HETATM   17  C   UNL     1     -10.316  16.560  66.480  1.00  0.00    -0.305 C  
BRANCH  17  18
HETATM   18  C   UNL     1      -8.837  16.532  66.958  1.00  0.00    -0.195 C  
BRANCH  18  19
HETATM   19  N   UNL     1      -8.449  17.635  67.914  1.00  0.00    -0.228 NA 
BRANCH  19  20
HETATM   20  C   UNL     1      -7.567  17.015  68.982  1.00  0.00    -0.194 C  
HETATM   21  O   UNL     1      -5.438  15.845  68.915  1.00  0.00    -0.102 OA 
HETATM   22  O   UNL     1      -5.742  17.614  67.535  1.00  0.00    -0.134 OA 
HETATM   23  C   UNL     1      -6.151  16.738  68.483  1.00  0.00    -0.136 C  
ENDBRANCH  19  20
BRANCH  19  24
HETATM   24  C   UNL     1      -9.705  18.112  68.609  1.00  0.00    -0.357 C  
HETATM   25  C   UNL     1      -9.860  19.629  68.582  1.00  0.00    -0.427 C  
HETATM   26  O   UNL     1     -10.447  20.272  69.437  1.00  0.00    -0.149 OA 
HETATM   27  O   UNL     1      -9.339  20.188  67.464  1.00  0.00    -0.350 OA 
ENDBRANCH  19  24
ENDBRANCH  18  19
ENDBRANCH  17  18
ENDBRANCH   5  17
ENDBRANCH   3   5
TORSDOF 11
ENDMDL
MODEL      226
REMARK 921   NORMALIZED FREE ENERGY PREDICTED BY IDOCK:   -4.22 KCAL/MOL
REMARK 922        TOTAL FREE ENERGY PREDICTED BY IDOCK:   -8.68 KCAL/MOL
REMARK 923 INTER-LIGAND FREE ENERGY PREDICTED BY IDOCK:   -7.96 KCAL/MOL
REMARK 924 INTRA-LIGAND FREE ENERGY PREDICTED BY IDOCK:   -0.72 KCAL/MOL
REMARK 927      BINDING AFFINITY PREDICTED BY RF-SCORE:    0.00 PKD
ROOT
HETATM    1  O   UNL     1     -11.233  10.429  71.005  1.00  0.00    -0.266 OA 
HETATM    2  C   UNL     1     -12.330  10.506  70.217  1.00  0.00    -0.298 C  
HETATM    3  C   UNL     1     -12.014  11.023  68.816  1.00  0.00    -0.225 C  
HETATM    4  O   UNL     1     -13.457  10.234  70.606  1.00  0.00    -0.234 OA 
ENDROOT
BRANCH   3   5
HETATM    5  N   UNL     1     -10.641  10.626  68.344  1.00  0.00    -0.186 NA 
BRANCH   5   6
HETATM    6  C   UNL     1     -10.620   9.147  68.089  1.00  0.00    -0.183 C  
BRANCH   6   7
HETATM    7  C   UNL     1      -9.427   8.396  68.753  1.00  0.00    -0.147 C  
BRANCH   7   8
HETATM    8  N   UNL     1      -9.751   7.090  69.427  1.00  0.00    -0.158 NA 
BRANCH   8   9
HETATM    9  C   UNL     1      -9.505   7.276  70.914  1.00  0.00    -0.159 C  
HETATM   10  O   UNL     1     -11.619   6.171  71.219  1.00  0.00    -0.290 OA 
HETATM   11  C   UNL     1     -10.770   7.083  71.749  1.00  0.00    -0.216 C  
HETATM   12  O   UNL     1     -10.990   7.665  72.800  1.00  0.00    -0.315 OA 
ENDBRANCH   8   9
BRANCH   8  13
HETATM   13  C   UNL     1      -8.758   6.060  68.944  1.00  0.00    -0.122 C  
HETATM   14  O   UNL     1     -10.548   5.234  67.580  1.00  0.00    -0.171 OA 
HETATM   15  O   UNL     1      -8.976   3.744  68.246  1.00  0.00    -0.105 OA 
HETATM   16  C   UNL     1      -9.427   4.878  68.249  1.00  0.00    -0.138 C  
ENDBRANCH   8  13
ENDBRANCH   7   8
ENDBRANCH   6   7
ENDBRANCH   5   6
BRANCH   5  17
HETATM   17  C   UNL     1     -10.354  11.331  67.054  1.00  0.00    -0.227 C  
BRANCH  17  18
HETATM   18  C   UNL     1     -10.486  12.881  67.052  1.00  0.00    -0.238 C  
BRANCH  18  19
HETATM   19  N   UNL     1     -11.107  13.471  65.808  1.00  0.00    -0.286 NA 
BRANCH  19  20
HETATM   20  C   UNL     1     -10.224  13.080  64.636  1.00  0.00    -0.302 C  
HETATM   21  O   UNL     1     -10.123  11.118  63.205  1.00  0.00    -0.342 OA 
HETATM   22  O   UNL     1     -12.155  11.887  63.841  1.00  0.00    -0.420 OA 
HETATM   23  C   UNL     1     -10.802  11.919  63.830  1.00  0.00    -0.395 C  
ENDBRANCH  19  20
BRANCH  19  24
HETATM   24  C   UNL     1     -11.038  14.978  65.922  1.00  0.00    -0.334 C  
HETATM   25  C   UNL     1     -11.486  15.692  64.651  1.00  0.00    -0.303 C  
HETATM   26  O   UNL     1     -11.077  16.787  64.302  1.00  0.00    -1.106 OA 
HETATM   27  O   UNL     1     -12.449  15.014  63.982  1.00  0.00    -0.796 OA 
ENDBRANCH  19  24
ENDBRANCH  18  19
ENDBRANCH  17  18
ENDBRANCH   5  17
ENDBRANCH   3   5
TORSDOF 11
ENDMDL
MODEL      227
REMARK 921   NORMALIZED FREE ENERGY PREDICTED BY IDOCK:   -4.22 KCAL/MOL
REMARK 922        TOTAL FREE ENERGY PREDICTED BY IDOCK:   -8.68 KCAL/MOL
REMARK 923 INTER-LIGAND FREE ENERGY PREDICTED BY IDOCK:   -7.09 KCAL/MOL
REMARK 924 INTRA-LIGAND FREE ENERGY PREDICTED BY IDOCK:   -1.59 KCAL/MOL
REMARK 927      BINDING AFFINITY PREDICTED BY RF-SCORE:    0.00 PKD
ROOT
HETATM    1  O   UNL     1     -12.092  10.595  71.330  1.00  0.00    -0.345 OA 
HETATM    2  C   UNL     1     -11.461   9.414  71.134  1.00  0.00    -0.352 C  
HETATM    3  C   UNL     1     -10.867   9.290  69.733  1.00  0.00    -0.224 C  
HETATM    4  O   UNL     1     -11.415   8.529  71.976  1.00  0.00    -0.312 OA 
ENDROOT
BRANCH   3   5
HETATM    5  N   UNL     1     -10.417  10.611  69.170  1.00  0.00    -0.210 NA 
BRANCH   5   6
HETATM    6  C   UNL     1      -8.957  10.525  68.831  1.00  0.00    -0.172 C  
BRANCH   6   7
HETATM    7  C   UNL     1      -8.424   9.073  68.644  1.00  0.00    -0.128 C  
BRANCH   7   8
HETATM    8  N   UNL     1      -8.402   8.544  67.236  1.00  0.00    -0.115 NA 
BRANCH   8   9
HETATM    9  C   UNL     1      -7.465   7.349  67.217  1.00  0.00    -0.103 C  
HETATM   10  O   UNL     1      -9.262   6.185  66.122  1.00  0.00    -0.161 OA 
HETATM   11  C   UNL     1      -8.193   6.035  66.938  1.00  0.00    -0.105 C  
HETATM   12  O   UNL     1      -7.840   4.952  67.379  1.00  0.00    -0.093 OA 
ENDBRANCH   8   9
BRANCH   8  13
HETATM   13  C   UNL     1      -7.781   9.602  66.353  1.00  0.00    -0.101 C  
HETATM   14  O   UNL     1      -9.885   9.624  65.204  1.00  0.00    -0.295 OA 
HETATM   15  O   UNL     1      -8.040  10.164  64.005  1.00  0.00    -0.153 OA 
HETATM   16  C   UNL     1      -8.553   9.811  65.054  1.00  0.00    -0.162 C  
ENDBRANCH   8  13
ENDBRANCH   7   8
ENDBRANCH   6   7
ENDBRANCH   5   6
BRANCH   5  17
HETATM   17  C   UNL     1     -11.179  10.881  67.909  1.00  0.00    -0.321 C  
BRANCH  17  18
HETATM   18  C   UNL     1     -11.841  12.281  67.771  1.00  0.00    -0.273 C  
BRANCH  18  19
HETATM   19  N   UNL     1     -11.393  13.088  66.575  1.00  0.00    -0.306 NA 
BRANCH  19  20
HETATM   20  C   UNL     1     -11.472  14.553  66.967  1.00  0.00    -0.370 C  
HETATM   21  O   UNL     1      -9.949  16.056  68.117  1.00  0.00    -0.223 OA 
HETATM   22  O   UNL     1      -9.087  14.554  66.659  1.00  0.00    -0.257 OA 
HETATM   23  C   UNL     1     -10.109  15.135  67.331  1.00  0.00    -0.229 C  
ENDBRANCH  19  20
BRANCH  19  24
HETATM   24  C   UNL     1     -12.401  12.878  65.466  1.00  0.00    -0.461 C  
HETATM   25  C   UNL     1     -11.822  13.138  64.080  1.00  0.00    -0.453 C  
HETATM   26  O   UNL     1     -12.479  13.522  63.126  1.00  0.00    -0.759 OA 
HETATM   27  O   UNL     1     -10.507  12.825  63.995  1.00  0.00    -0.406 OA 
ENDBRANCH  19  24
ENDBRANCH  18  19
ENDBRANCH  17  18
ENDBRANCH   5  17
ENDBRANCH   3   5
TORSDOF 11
ENDMDL
MODEL      228
REMARK 921   NORMALIZED FREE ENERGY PREDICTED BY IDOCK:   -4.20 KCAL/MOL
REMARK 922        TOTAL FREE ENERGY PREDICTED BY IDOCK:   -8.64 KCAL/MOL
REMARK 923 INTER-LIGAND FREE ENERGY PREDICTED BY IDOCK:   -7.77 KCAL/MOL
REMARK 924 INTRA-LIGAND FREE ENERGY PREDICTED BY IDOCK:   -0.87 KCAL/MOL
REMARK 927      BINDING AFFINITY PREDICTED BY RF-SCORE:    0.00 PKD
ROOT
HETATM    1  O   UNL     1      -7.790  11.344  69.227  1.00  0.00    -0.039 OA 
HETATM    2  C   UNL     1      -7.896  11.498  67.887  1.00  0.00    -0.123 C  
HETATM    3  C   UNL     1      -8.998  10.633  67.281  1.00  0.00    -0.136 C  
HETATM    4  O   UNL     1      -7.155  12.217  67.232  1.00  0.00    -0.140 OA 
ENDROOT
BRANCH   3   5
HETATM    5  N   UNL     1     -10.157  10.423  68.218  1.00  0.00    -0.149 NA 
BRANCH   5   6
HETATM    6  C   UNL     1     -11.345  11.183  67.704  1.00  0.00    -0.284 C  
BRANCH   6   7
HETATM    7  C   UNL     1     -11.176  12.732  67.726  1.00  0.00    -0.275 C  
BRANCH   7   8
HETATM    8  N   UNL     1     -11.379  13.446  66.417  1.00  0.00    -0.305 NA 
BRANCH   8   9
HETATM    9  C   UNL     1     -11.539  12.383  65.344  1.00  0.00    -0.381 C  
HETATM   10  O   UNL     1     -12.453  14.146  63.988  1.00  0.00    -0.685 OA 
HETATM   11  C   UNL     1     -12.486  12.814  64.225  1.00  0.00    -0.382 C  
HETATM   12  O   UNL     1     -13.185  12.042  63.587  1.00  0.00    -0.737 OA 
ENDBRANCH   8   9
BRANCH   8  13
HETATM   13  C   UNL     1     -10.111  14.203  66.100  1.00  0.00    -0.313 C  
HETATM   14  O   UNL     1     -11.107  16.022  67.302  1.00  0.00    -0.257 OA 
HETATM   15  O   UNL     1      -9.643  16.543  65.652  1.00  0.00    -0.511 OA 
HETATM   16  C   UNL     1     -10.260  15.708  66.294  1.00  0.00    -0.299 C  
ENDBRANCH   8  13
ENDBRANCH   7   8
ENDBRANCH   6   7
ENDBRANCH   5   6
BRANCH   5  17
HETATM   17  C   UNL     1     -10.502   8.965  68.235  1.00  0.00    -0.195 C  
BRANCH  17  18
HETATM   18  C   UNL     1     -10.736   8.312  69.627  1.00  0.00    -0.194 C  
BRANCH  18  19
HETATM   19  N   UNL     1     -10.878   9.283  70.776  1.00  0.00    -0.258 NA 
BRANCH  19  20
HETATM   20  C   UNL     1     -10.355   8.587  72.020  1.00  0.00    -0.338 C  
HETATM   21  O   UNL     1      -8.222   7.573  72.593  1.00  0.00    -0.103 OA 
HETATM   22  O   UNL     1      -8.218   9.483  71.378  1.00  0.00    -0.239 OA 
HETATM   23  C   UNL     1      -8.833   8.467  72.029  1.00  0.00    -0.216 C  
ENDBRANCH  19  20
BRANCH  19  24
HETATM   24  C   UNL     1     -12.354   9.527  71.001  1.00  0.00    -0.282 C  
HETATM   25  C   UNL     1     -12.665  10.969  71.387  1.00  0.00    -0.429 C  
HETATM   26  O   UNL     1     -13.616  11.302  72.076  1.00  0.00    -0.287 OA 
HETATM   27  O   UNL     1     -11.815  11.858  70.820  1.00  0.00    -0.213 OA 
ENDBRANCH  19  24
ENDBRANCH  18  19
ENDBRANCH  17  18
ENDBRANCH   5  17
ENDBRANCH   3   5
TORSDOF 11
ENDMDL
MODEL      229
REMARK 921   NORMALIZED FREE ENERGY PREDICTED BY IDOCK:   -4.19 KCAL/MOL
REMARK 922        TOTAL FREE ENERGY PREDICTED BY IDOCK:   -8.63 KCAL/MOL
REMARK 923 INTER-LIGAND FREE ENERGY PREDICTED BY IDOCK:   -7.01 KCAL/MOL
REMARK 924 INTRA-LIGAND FREE ENERGY PREDICTED BY IDOCK:   -1.61 KCAL/MOL
REMARK 927      BINDING AFFINITY PREDICTED BY RF-SCORE:    0.00 PKD
ROOT
HETATM    1  O   UNL     1     -10.220  12.087  68.664  1.00  0.00    -0.214 OA 
HETATM    2  C   UNL     1     -11.353  11.800  67.981  1.00  0.00    -0.288 C  
HETATM    3  C   UNL     1     -11.445  12.546  66.653  1.00  0.00    -0.359 C  
HETATM    4  O   UNL     1     -12.225  11.058  68.409  1.00  0.00    -0.586 OA 
ENDROOT
BRANCH   3   5
HETATM    5  N   UNL     1     -10.099  12.788  66.025  1.00  0.00    -0.265 NA 
BRANCH   5   6
HETATM    6  C   UNL     1     -10.084  12.181  64.652  1.00  0.00    -0.257 C  
BRANCH   6   7
HETATM    7  C   UNL     1     -10.394  10.654  64.621  1.00  0.00    -0.283 C  
BRANCH   7   8
HETATM    8  N   UNL     1      -9.217   9.729  64.774  1.00  0.00    -0.250 NA 
BRANCH   8   9
HETATM    9  C   UNL     1      -8.834   9.725  66.243  1.00  0.00    -0.147 C  
HETATM   10  O   UNL     1      -9.770   7.511  66.295  1.00  0.00    -0.142 OA 
HETATM   11  C   UNL     1      -9.539   8.623  67.032  1.00  0.00    -0.182 C  
HETATM   12  O   UNL     1      -9.843   8.714  68.211  1.00  0.00    -0.156 OA 
ENDBRANCH   8   9
BRANCH   8  13
HETATM   13  C   UNL     1      -8.054  10.330  64.019  1.00  0.00    -0.137 C  
HETATM   14  O   UNL     1      -8.273   8.455  62.542  1.00  0.00    -0.171 OA 
HETATM   15  O   UNL     1      -6.210   9.364  62.769  1.00  0.00    -0.094 OA 
HETATM   16  C   UNL     1      -7.392   9.337  63.069  1.00  0.00    -0.105 C  
ENDBRANCH   8  13
ENDBRANCH   7   8
ENDBRANCH   6   7
ENDBRANCH   5   6
BRANCH   5  17
HETATM   17  C   UNL     1      -9.891  14.265  65.889  1.00  0.00    -0.298 C  
BRANCH  17  18
HETATM   18  C   UNL     1      -9.135  14.981  67.044  1.00  0.00    -0.230 C  
BRANCH  18  19
HETATM   19  N   UNL     1      -9.750  16.281  67.506  1.00  0.00    -0.232 NA 
BRANCH  19  20
HETATM   20  C   UNL     1     -11.197  15.992  67.863  1.00  0.00    -0.276 C  
HETATM   21  O   UNL     1     -12.255  14.741  69.658  1.00  0.00    -0.306 OA 
HETATM   22  O   UNL     1     -10.421  15.978  70.139  1.00  0.00    -0.280 OA 
HETATM   23  C   UNL     1     -11.357  15.485  69.294  1.00  0.00    -0.325 C  
ENDBRANCH  19  20
BRANCH  19  24
HETATM   24  C   UNL     1      -9.771  17.231  66.329  1.00  0.00    -0.266 C  
HETATM   25  C   UNL     1     -10.102  18.665  66.729  1.00  0.00    -0.380 C  
HETATM   26  O   UNL     1     -10.655  19.469  65.995  1.00  0.00    -0.485 OA 
HETATM   27  O   UNL     1      -9.649  18.981  67.965  1.00  0.00    -0.304 OA 
ENDBRANCH  19  24
ENDBRANCH  18  19
ENDBRANCH  17  18
ENDBRANCH   5  17
ENDBRANCH   3   5
TORSDOF 11
ENDMDL
MODEL      230
REMARK 921   NORMALIZED FREE ENERGY PREDICTED BY IDOCK:   -4.19 KCAL/MOL
REMARK 922        TOTAL FREE ENERGY PREDICTED BY IDOCK:   -8.63 KCAL/MOL
REMARK 923 INTER-LIGAND FREE ENERGY PREDICTED BY IDOCK:   -8.70 KCAL/MOL
REMARK 924 INTRA-LIGAND FREE ENERGY PREDICTED BY IDOCK:    0.07 KCAL/MOL
REMARK 927      BINDING AFFINITY PREDICTED BY RF-SCORE:    0.00 PKD
ROOT
HETATM    1  O   UNL     1     -10.763  14.113  64.560  1.00  0.00    -0.403 OA 
HETATM    2  C   UNL     1     -11.981  13.658  64.183  1.00  0.00    -0.443 C  
HETATM    3  C   UNL     1     -12.406  12.408  64.950  1.00  0.00    -0.402 C  
HETATM    4  O   UNL     1     -12.643  14.170  63.292  1.00  0.00    -0.766 OA 
ENDROOT
BRANCH   3   5
HETATM    5  N   UNL     1     -11.873  12.377  66.356  1.00  0.00    -0.560 NA 
BRANCH   5   6
HETATM    6  C   UNL     1     -10.386  12.178  66.311  1.00  0.00    -0.221 C  
BRANCH   6   7
HETATM    7  C   UNL     1      -9.856  11.069  67.270  1.00  0.00    -0.178 C  
BRANCH   7   8
HETATM    8  N   UNL     1      -9.630   9.711  66.662  1.00  0.00    -0.175 NA 
BRANCH   8   9
HETATM    9  C   UNL     1      -9.789   9.857  65.159  1.00  0.00    -0.278 C  
HETATM   10  O   UNL     1      -7.573   8.935  65.016  1.00  0.00    -0.095 OA 
HETATM   11  C   UNL     1      -8.459   9.764  64.414  1.00  0.00    -0.179 C  
HETATM   12  O   UNL     1      -8.218  10.350  63.371  1.00  0.00    -0.161 OA 
ENDBRANCH   8   9
BRANCH   8  13
HETATM   13  C   UNL     1     -10.740   8.801  67.134  1.00  0.00    -0.134 C  
HETATM   14  O   UNL     1      -9.030   7.140  67.386  1.00  0.00    -0.121 OA 
HETATM   15  O   UNL     1     -11.127   6.413  66.931  1.00  0.00    -0.384 OA 
HETATM   16  C   UNL     1     -10.343   7.329  67.114  1.00  0.00    -0.297 C  
ENDBRANCH   8  13
ENDBRANCH   7   8
ENDBRANCH   6   7
ENDBRANCH   5   6
BRANCH   5  17
HETATM   17  C   UNL     1     -12.151  13.699  67.004  1.00  0.00    -0.380 C  
BRANCH  17  18
HETATM   18  C   UNL     1     -11.707  13.866  68.485  1.00  0.00    -0.355 C  
BRANCH  18  19
HETATM   19  N   UNL     1     -11.288  15.264  68.876  1.00  0.00    -0.285 NA 
BRANCH  19  20
HETATM   20  C   UNL     1      -9.991  15.565  68.146  1.00  0.00    -0.217 C  
HETATM   21  O   UNL     1      -9.416  17.045  66.306  1.00  0.00    -0.262 OA 
HETATM   22  O   UNL     1     -10.905  17.769  67.850  1.00  0.00    -0.365 OA 
HETATM   23  C   UNL     1     -10.067  16.846  67.320  1.00  0.00    -0.286 C  
ENDBRANCH  19  20
BRANCH  19  24
HETATM   24  C   UNL     1     -10.965  15.258  70.354  1.00  0.00    -0.290 C  
HETATM   25  C   UNL     1     -12.087  15.838  71.209  1.00  0.00    -0.437 C  
HETATM   26  O   UNL     1     -11.911  16.393  72.282  1.00  0.00    -0.534 OA 
HETATM   27  O   UNL     1     -13.315  15.607  70.688  1.00  0.00    -0.494 OA 
ENDBRANCH  19  24
ENDBRANCH  18  19
ENDBRANCH  17  18
ENDBRANCH   5  17
ENDBRANCH   3   5
TORSDOF 11
ENDMDL
MODEL      231
REMARK 921   NORMALIZED FREE ENERGY PREDICTED BY IDOCK:   -4.17 KCAL/MOL
REMARK 922        TOTAL FREE ENERGY PREDICTED BY IDOCK:   -8.60 KCAL/MOL
REMARK 923 INTER-LIGAND FREE ENERGY PREDICTED BY IDOCK:   -7.29 KCAL/MOL
REMARK 924 INTRA-LIGAND FREE ENERGY PREDICTED BY IDOCK:   -1.31 KCAL/MOL
REMARK 927      BINDING AFFINITY PREDICTED BY RF-SCORE:    0.00 PKD
ROOT
HETATM    1  O   UNL     1     -10.811   9.954  71.054  1.00  0.00    -0.321 OA 
HETATM    2  C   UNL     1     -11.940  10.272  70.379  1.00  0.00    -0.303 C  
HETATM    3  C   UNL     1     -11.655  10.861  69.000  1.00  0.00    -0.316 C  
HETATM    4  O   UNL     1     -13.061  10.142  70.847  1.00  0.00    -0.381 OA 
ENDROOT
BRANCH   3   5
HETATM    5  N   UNL     1     -10.406  10.303  68.373  1.00  0.00    -0.168 NA 
BRANCH   5   6
HETATM    6  C   UNL     1     -10.725   8.978  67.744  1.00  0.00    -0.151 C  
BRANCH   6   7
HETATM    7  C   UNL     1      -9.672   7.863  68.023  1.00  0.00    -0.159 C  
BRANCH   7   8
HETATM    8  N   UNL     1     -10.213   6.520  68.434  1.00  0.00    -0.159 NA 
BRANCH   8   9
HETATM    9  C   UNL     1     -10.908   5.924  67.222  1.00  0.00    -0.260 C  
HETATM   10  O   UNL     1      -9.453   4.037  67.540  1.00  0.00    -0.169 OA 
HETATM   11  C   UNL     1     -10.136   4.753  66.617  1.00  0.00    -0.245 C  
HETATM   12  O   UNL     1     -10.148   4.468  65.429  1.00  0.00    -0.203 OA 
ENDBRANCH   8   9
BRANCH   8  13
HETATM   13  C   UNL     1     -11.277   6.749  69.481  1.00  0.00    -0.266 C  
HETATM   14  O   UNL     1      -9.527   6.389  71.080  1.00  0.00    -0.166 OA 
HETATM   15  O   UNL     1     -11.636   5.845  71.706  1.00  0.00    -0.254 OA 
HETATM   16  C   UNL     1     -10.857   6.258  70.863  1.00  0.00    -0.272 C  
ENDBRANCH   8  13
ENDBRANCH   7   8
ENDBRANCH   6   7
ENDBRANCH   5   6
BRANCH   5  17
HETATM   17  C   UNL     1      -9.949  11.238  67.296  1.00  0.00    -0.183 C  
BRANCH  17  18
HETATM   18  C   UNL     1      -9.591  12.689  67.727  1.00  0.00    -0.197 C  
BRANCH  18  19
HETATM   19  N   UNL     1     -10.466  13.769  67.135  1.00  0.00    -0.271 NA 
BRANCH  19  20
HETATM   20  C   UNL     1     -10.351  13.664  65.625  1.00  0.00    -0.300 C  
HETATM   21  O   UNL     1     -11.894  12.971  63.880  1.00  0.00    -0.411 OA 
HETATM   22  O   UNL     1     -12.700  14.183  65.615  1.00  0.00    -0.514 OA 
HETATM   23  C   UNL     1     -11.712  13.546  64.942  1.00  0.00    -0.357 C  
ENDBRANCH  19  20
BRANCH  19  24
HETATM   24  C   UNL     1      -9.880  15.109  67.525  1.00  0.00    -0.220 C  
HETATM   25  C   UNL     1     -10.929  16.087  68.043  1.00  0.00    -0.341 C  
HETATM   26  O   UNL     1     -10.839  17.301  67.944  1.00  0.00    -0.369 OA 
HETATM   27  O   UNL     1     -11.942  15.471  68.696  1.00  0.00    -0.335 OA 
ENDBRANCH  19  24
ENDBRANCH  18  19
ENDBRANCH  17  18
ENDBRANCH   5  17
ENDBRANCH   3   5
TORSDOF 11
ENDMDL
MODEL      232
REMARK 921   NORMALIZED FREE ENERGY PREDICTED BY IDOCK:   -4.17 KCAL/MOL
REMARK 922        TOTAL FREE ENERGY PREDICTED BY IDOCK:   -8.60 KCAL/MOL
REMARK 923 INTER-LIGAND FREE ENERGY PREDICTED BY IDOCK:   -7.19 KCAL/MOL
REMARK 924 INTRA-LIGAND FREE ENERGY PREDICTED BY IDOCK:   -1.41 KCAL/MOL
REMARK 927      BINDING AFFINITY PREDICTED BY RF-SCORE:    0.00 PKD
ROOT
HETATM    1  O   UNL     1     -10.747   6.645  68.848  1.00  0.00    -0.222 OA 
HETATM    2  C   UNL     1      -9.517   7.206  68.799  1.00  0.00    -0.141 C  
HETATM    3  C   UNL     1      -9.566   8.732  68.799  1.00  0.00    -0.158 C  
HETATM    4  O   UNL     1      -8.485   6.555  68.717  1.00  0.00    -0.121 OA 
ENDROOT
BRANCH   3   5
HETATM    5  N   UNL     1     -10.731   9.278  69.578  1.00  0.00    -0.229 NA 
BRANCH   5   6
HETATM    6  C   UNL     1     -10.230   9.840  70.877  1.00  0.00    -0.125 C  
BRANCH   6   7
HETATM    7  C   UNL     1      -9.931   8.768  71.969  1.00  0.00    -0.321 C  
BRANCH   7   8
HETATM    8  N   UNL     1     -11.005   7.744  72.213  1.00  0.00    -0.267 NA 
BRANCH   8   9
HETATM    9  C   UNL     1     -12.275   8.498  72.568  1.00  0.00    -0.315 C  
HETATM   10  O   UNL     1     -13.417   6.819  71.279  1.00  0.00    -0.185 OA 
HETATM   11  C   UNL     1     -13.457   8.112  71.680  1.00  0.00    -0.332 C  
HETATM   12  O   UNL     1     -14.361   8.874  71.378  1.00  0.00    -0.311 OA 
ENDBRANCH   8   9
BRANCH   8  13
HETATM   13  C   UNL     1     -10.615   6.943  73.433  1.00  0.00    -0.344 C  
HETATM   14  O   UNL     1     -10.506   5.065  71.946  1.00  0.00    -0.209 OA 
HETATM   15  O   UNL     1     -11.025   4.648  74.112  1.00  0.00    -0.282 OA 
HETATM   16  C   UNL     1     -10.762   5.440  73.222  1.00  0.00    -0.276 C  
ENDBRANCH   8  13
ENDBRANCH   7   8
ENDBRANCH   6   7
ENDBRANCH   5   6
BRANCH   5  17
HETATM   17  C   UNL     1     -11.353  10.392  68.793  1.00  0.00    -0.214 C  
BRANCH  17  18
HETATM   18  C   UNL     1     -10.629  11.767  68.824  1.00  0.00    -0.206 C  
BRANCH  18  19
HETATM   19  N   UNL     1     -10.972  12.700  67.686  1.00  0.00    -0.233 NA 
BRANCH  19  20
HETATM   20  C   UNL     1     -11.632  13.926  68.292  1.00  0.00    -0.337 C  
HETATM   21  O   UNL     1     -10.803  16.117  68.940  1.00  0.00    -0.266 OA 
HETATM   22  O   UNL     1      -9.993  15.171  67.050  1.00  0.00    -0.237 OA 
HETATM   23  C   UNL     1     -10.772  15.180  68.157  1.00  0.00    -0.254 C  
ENDBRANCH  19  20
BRANCH  19  24
HETATM   24  C   UNL     1     -12.018  12.022  66.827  1.00  0.00    -0.006 C  
HETATM   25  C   UNL     1     -12.107  12.613  65.424  1.00  0.00    -0.462 C  
HETATM   26  O   UNL     1     -13.123  12.618  64.748  1.00  0.00    -0.852 OA 
HETATM   27  O   UNL     1     -10.915  13.067  64.970  1.00  0.00    -0.284 OA 
ENDBRANCH  19  24
ENDBRANCH  18  19
ENDBRANCH  17  18
ENDBRANCH   5  17
ENDBRANCH   3   5
TORSDOF 11
ENDMDL
MODEL      233
REMARK 921   NORMALIZED FREE ENERGY PREDICTED BY IDOCK:   -4.17 KCAL/MOL
REMARK 922        TOTAL FREE ENERGY PREDICTED BY IDOCK:   -8.59 KCAL/MOL
REMARK 923 INTER-LIGAND FREE ENERGY PREDICTED BY IDOCK:   -7.10 KCAL/MOL
REMARK 924 INTRA-LIGAND FREE ENERGY PREDICTED BY IDOCK:   -1.49 KCAL/MOL
REMARK 927      BINDING AFFINITY PREDICTED BY RF-SCORE:    0.00 PKD
ROOT
HETATM    1  O   UNL     1     -12.912  10.486  70.646  1.00  0.00    -0.366 OA 
HETATM    2  C   UNL     1     -12.117  11.571  70.493  1.00  0.00    -0.378 C  
HETATM    3  C   UNL     1     -11.039  11.365  69.432  1.00  0.00    -0.241 C  
HETATM    4  O   UNL     1     -12.228  12.585  71.167  1.00  0.00    -0.243 OA 
ENDROOT
BRANCH   3   5
HETATM    5  N   UNL     1     -11.483  10.458  68.316  1.00  0.00    -0.312 NA 
BRANCH   5   6
HETATM    6  C   UNL     1     -11.155  11.104  67.002  1.00  0.00    -0.273 C  
BRANCH   6   7
HETATM    7  C   UNL     1     -10.356  12.437  67.121  1.00  0.00    -0.219 C  
BRANCH   7   8
HETATM    8  N   UNL     1     -11.112  13.700  66.814  1.00  0.00    -0.303 NA 
BRANCH   8   9
HETATM    9  C   UNL     1     -11.139  13.854  65.303  1.00  0.00    -0.318 C  
HETATM   10  O   UNL     1     -13.523  14.052  65.546  1.00  0.00    -0.677 OA 
HETATM   11  C   UNL     1     -12.534  13.648  64.715  1.00  0.00    -0.350 C  
HETATM   12  O   UNL     1     -12.745  13.192  63.602  1.00  0.00    -0.706 OA 
ENDBRANCH   8   9
BRANCH   8  13
HETATM   13  C   UNL     1     -10.316  14.862  67.359  1.00  0.00    -0.243 C  
HETATM   14  O   UNL     1     -12.100  15.113  68.941  1.00  0.00    -0.281 OA 
HETATM   15  O   UNL     1     -10.947  16.978  68.369  1.00  0.00    -0.352 OA 
HETATM   16  C   UNL     1     -11.148  15.781  68.248  1.00  0.00    -0.342 C  
ENDBRANCH   8  13
ENDBRANCH   7   8
ENDBRANCH   6   7
ENDBRANCH   5   6
BRANCH   5  17
HETATM   17  C   UNL     1     -10.723   9.171  68.412  1.00  0.00    -0.115 C  
BRANCH  17  18
HETATM   18  C   UNL     1     -10.622   8.314  67.119  1.00  0.00    -0.270 C  
BRANCH  18  19
HETATM   19  N   UNL     1      -9.312   7.584  66.933  1.00  0.00    -0.149 NA 
BRANCH  19  20
HETATM   20  C   UNL     1      -8.641   8.170  65.704  1.00  0.00    -0.158 C  
HETATM   21  O   UNL     1      -7.615  10.322  65.230  1.00  0.00    -0.141 OA 
HETATM   22  O   UNL     1      -7.298   9.402  67.274  1.00  0.00    -0.086 OA 
HETATM   23  C   UNL     1      -7.819   9.417  66.024  1.00  0.00    -0.099 C  
ENDBRANCH  19  20
BRANCH  19  24
HETATM   24  C   UNL     1      -9.625   6.139  66.612  1.00  0.00    -0.152 C  
HETATM   25  C   UNL     1      -9.051   5.165  67.636  1.00  0.00    -0.111 C  
HETATM   26  O   UNL     1      -8.725   4.017  67.379  1.00  0.00    -0.099 OA 
HETATM   27  O   UNL     1      -9.009   5.684  68.886  1.00  0.00    -0.111 OA 
ENDBRANCH  19  24
ENDBRANCH  18  19
ENDBRANCH  17  18
ENDBRANCH   5  17
ENDBRANCH   3   5
TORSDOF 11
ENDMDL
MODEL      234
REMARK 921   NORMALIZED FREE ENERGY PREDICTED BY IDOCK:   -4.16 KCAL/MOL
REMARK 922        TOTAL FREE ENERGY PREDICTED BY IDOCK:   -8.57 KCAL/MOL
REMARK 923 INTER-LIGAND FREE ENERGY PREDICTED BY IDOCK:   -7.07 KCAL/MOL
REMARK 924 INTRA-LIGAND FREE ENERGY PREDICTED BY IDOCK:   -1.50 KCAL/MOL
REMARK 927      BINDING AFFINITY PREDICTED BY RF-SCORE:    0.00 PKD
ROOT
HETATM    1  O   UNL     1      -6.695   9.461  64.636  1.00  0.00    -0.083 OA 
HETATM    2  C   UNL     1      -6.394  10.222  65.714  1.00  0.00    -0.111 C  
HETATM    3  C   UNL     1      -7.636  10.745  66.430  1.00  0.00    -0.141 C  
HETATM    4  O   UNL     1      -5.249  10.495  66.044  1.00  0.00    -0.056 OA 
ENDROOT
BRANCH   3   5
HETATM    5  N   UNL     1      -8.802   9.797  66.344  1.00  0.00    -0.144 NA 
BRANCH   5   6
HETATM    6  C   UNL     1      -9.260   9.458  67.733  1.00  0.00    -0.128 C  
BRANCH   6   7
HETATM    7  C   UNL     1     -10.442   8.443  67.791  1.00  0.00    -0.220 C  
BRANCH   7   8
HETATM    8  N   UNL     1     -10.274   7.274  68.723  1.00  0.00    -0.177 NA 
BRANCH   8   9
HETATM    9  C   UNL     1     -11.034   6.105  68.121  1.00  0.00    -0.307 C  
HETATM   10  O   UNL     1      -8.917   5.440  67.193  1.00  0.00    -0.113 OA 
HETATM   11  C   UNL     1     -10.257   5.411  67.003  1.00  0.00    -0.233 C  
HETATM   12  O   UNL     1     -10.781   4.861  66.047  1.00  0.00    -0.316 OA 
ENDBRANCH   8   9
BRANCH   8  13
HETATM   13  C   UNL     1     -10.958   7.617  70.025  1.00  0.00    -0.228 C  
HETATM   14  O   UNL     1      -8.746   7.844  70.921  1.00  0.00    -0.132 OA 
HETATM   15  O   UNL     1     -10.389   7.222  72.353  1.00  0.00    -0.195 OA 
HETATM   16  C   UNL     1     -10.023   7.514  71.226  1.00  0.00    -0.186 C  
ENDBRANCH   8  13
ENDBRANCH   7   8
ENDBRANCH   6   7
ENDBRANCH   5   6
BRANCH   5  17
HETATM   17  C   UNL     1      -9.927  10.483  65.632  1.00  0.00    -0.270 C  
BRANCH  17  18
HETATM   18  C   UNL     1      -9.880  12.037  65.571  1.00  0.00    -0.229 C  
BRANCH  18  19
HETATM   19  N   UNL     1     -11.007  12.742  66.288  1.00  0.00    -0.274 NA 
BRANCH  19  20
HETATM   20  C   UNL     1     -11.119  14.133  65.691  1.00  0.00    -0.307 C  
HETATM   21  O   UNL     1     -12.545  15.103  63.978  1.00  0.00    -0.791 OA 
HETATM   22  O   UNL     1     -13.449  13.606  65.415  1.00  0.00    -0.550 OA 
HETATM   23  C   UNL     1     -12.422  14.336  64.921  1.00  0.00    -0.390 C  
ENDBRANCH  19  20
BRANCH  19  24
HETATM   24  C   UNL     1     -10.601  12.919  67.735  1.00  0.00    -0.222 C  
HETATM   25  C   UNL     1     -11.611  12.330  68.713  1.00  0.00    -0.330 C  
HETATM   26  O   UNL     1     -11.791  12.749  69.845  1.00  0.00    -0.324 OA 
HETATM   27  O   UNL     1     -12.242  11.238  68.219  1.00  0.00    -0.611 OA 
ENDBRANCH  19  24
ENDBRANCH  18  19
ENDBRANCH  17  18
ENDBRANCH   5  17
ENDBRANCH   3   5
TORSDOF 11
ENDMDL
MODEL      235
REMARK 921   NORMALIZED FREE ENERGY PREDICTED BY IDOCK:   -4.16 KCAL/MOL
REMARK 922        TOTAL FREE ENERGY PREDICTED BY IDOCK:   -8.57 KCAL/MOL
REMARK 923 INTER-LIGAND FREE ENERGY PREDICTED BY IDOCK:   -7.37 KCAL/MOL
REMARK 924 INTRA-LIGAND FREE ENERGY PREDICTED BY IDOCK:   -1.20 KCAL/MOL
REMARK 927      BINDING AFFINITY PREDICTED BY RF-SCORE:    0.00 PKD
ROOT
HETATM    1  O   UNL     1     -13.442  10.225  71.247  1.00  0.00    -0.319 OA 
HETATM    2  C   UNL     1     -12.988  11.497  71.331  1.00  0.00    -0.348 C  
HETATM    3  C   UNL     1     -11.924  11.812  70.282  1.00  0.00    -0.343 C  
HETATM    4  O   UNL     1     -13.360  12.289  72.185  1.00  0.00    -0.526 OA 
ENDROOT
BRANCH   3   5
HETATM    5  N   UNL     1     -12.126  11.052  68.999  1.00  0.00    -0.474 NA 
BRANCH   5   6
HETATM    6  C   UNL     1     -11.949  11.992  67.842  1.00  0.00    -0.134 C  
BRANCH   6   7
HETATM    7  C   UNL     1     -11.389  13.393  68.230  1.00  0.00    -0.295 C  
BRANCH   7   8
HETATM    8  N   UNL     1     -11.284  14.403  67.120  1.00  0.00    -0.316 NA 
BRANCH   8   9
HETATM    9  C   UNL     1     -11.598  15.764  67.717  1.00  0.00    -0.096 C  
HETATM   10  O   UNL     1      -9.941  16.613  66.196  1.00  0.00    -0.305 OA 
HETATM   11  C   UNL     1     -10.528  16.807  67.400  1.00  0.00    -0.310 C  
HETATM   12  O   UNL     1     -10.242  17.737  68.138  1.00  0.00    -0.340 OA 
ENDBRANCH   8   9
BRANCH   8  13
HETATM   13  C   UNL     1     -12.372  14.103  66.116  1.00  0.00    -0.436 C  
HETATM   14  O   UNL     1     -10.593  13.862  64.527  1.00  0.00    -0.424 OA 
HETATM   15  O   UNL     1     -12.605  14.546  63.740  1.00  0.00    -0.825 OA 
HETATM   16  C   UNL     1     -11.891  14.220  64.674  1.00  0.00    -0.448 C  
ENDBRANCH   8  13
ENDBRANCH   7   8
ENDBRANCH   6   7
ENDBRANCH   5   6
BRANCH   5  17
HETATM   17  C   UNL     1     -11.079   9.985  68.904  1.00  0.00    -0.176 C  
BRANCH  17  18
HETATM   18  C   UNL     1      -9.838  10.292  68.019  1.00  0.00    -0.150 C  
BRANCH  18  19
HETATM   19  N   UNL     1      -8.554   9.629  68.461  1.00  0.00    -0.118 NA 
BRANCH  19  20
HETATM   20  C   UNL     1      -8.259   8.516  67.472  1.00  0.00    -0.117 C  
HETATM   21  O   UNL     1      -6.606   8.245  65.711  1.00  0.00    -0.052 OA 
HETATM   22  O   UNL     1      -5.975   9.250  67.638  1.00  0.00    -0.051 OA 
HETATM   23  C   UNL     1      -6.882   8.656  66.827  1.00  0.00    -0.069 C  
ENDBRANCH  19  20
BRANCH  19  24
HETATM   24  C   UNL     1      -8.807   8.969  69.799  1.00  0.00    -0.153 C  
HETATM   25  C   UNL     1      -7.656   9.156  70.781  1.00  0.00    -0.133 C  
HETATM   26  O   UNL     1      -7.379   8.365  71.668  1.00  0.00    -0.083 OA 
HETATM   27  O   UNL     1      -7.013  10.336  70.615  1.00  0.00    -0.323 OA 
ENDBRANCH  19  24
ENDBRANCH  18  19
ENDBRANCH  17  18
ENDBRANCH   5  17
ENDBRANCH   3   5
TORSDOF 11
ENDMDL
MODEL      236
REMARK 921   NORMALIZED FREE ENERGY PREDICTED BY IDOCK:   -4.14 KCAL/MOL
REMARK 922        TOTAL FREE ENERGY PREDICTED BY IDOCK:   -8.54 KCAL/MOL
REMARK 923 INTER-LIGAND FREE ENERGY PREDICTED BY IDOCK:   -7.47 KCAL/MOL
REMARK 924 INTRA-LIGAND FREE ENERGY PREDICTED BY IDOCK:   -1.07 KCAL/MOL
REMARK 927      BINDING AFFINITY PREDICTED BY RF-SCORE:    0.00 PKD
ROOT
HETATM    1  O   UNL     1     -13.279  13.039  64.833  1.00  0.00    -0.735 OA 
HETATM    2  C   UNL     1     -12.565  12.254  63.993  1.00  0.00    -0.420 C  
HETATM    3  C   UNL     1     -11.063  12.326  64.254  1.00  0.00    -0.348 C  
HETATM    4  O   UNL     1     -13.072  11.597  63.095  1.00  0.00    -0.497 OA 
ENDROOT
BRANCH   3   5
HETATM    5  N   UNL     1     -10.733  12.560  65.704  1.00  0.00    -0.260 NA 
BRANCH   5   6
HETATM    6  C   UNL     1      -9.683  11.575  66.131  1.00  0.00    -0.223 C  
BRANCH   6   7
HETATM    7  C   UNL     1      -9.828  10.162  65.490  1.00  0.00    -0.298 C  
BRANCH   7   8
HETATM    8  N   UNL     1      -9.569   8.988  66.395  1.00  0.00    -0.222 NA 
BRANCH   8   9
HETATM    9  C   UNL     1      -8.865   9.518  67.631  1.00  0.00    -0.118 C  
HETATM   10  O   UNL     1     -10.482   8.246  68.877  1.00  0.00    -0.221 OA 
HETATM   11  C   UNL     1      -9.698   9.350  68.901  1.00  0.00    -0.164 C  
HETATM   12  O   UNL     1      -9.651  10.111  69.854  1.00  0.00    -0.213 OA 
ENDBRANCH   8   9
BRANCH   8  13
HETATM   13  C   UNL     1      -8.595   8.070  65.695  1.00  0.00    -0.145 C  
HETATM   14  O   UNL     1      -9.950   6.281  66.537  1.00  0.00    -0.166 OA 
HETATM   15  O   UNL     1      -7.751   5.849  66.201  1.00  0.00    -0.098 OA 
HETATM   16  C   UNL     1      -8.690   6.628  66.183  1.00  0.00    -0.148 C  
ENDBRANCH   8  13
ENDBRANCH   7   8
ENDBRANCH   6   7
ENDBRANCH   5   6
BRANCH   5  17
HETATM   17  C   UNL     1     -10.172  13.941  65.852  1.00  0.00    -0.315 C  
BRANCH  17  18
HETATM   18  C   UNL     1      -9.313  14.221  67.118  1.00  0.00    -0.228 C  
BRANCH  18  19
HETATM   19  N   UNL     1      -9.112  15.681  67.448  1.00  0.00    -0.191 NA 
BRANCH  19  20
HETATM   20  C   UNL     1     -10.475  16.256  67.789  1.00  0.00    -0.295 C  
HETATM   21  O   UNL     1     -12.144  15.710  69.469  1.00  0.00    -0.360 OA 
HETATM   22  O   UNL     1      -9.958  15.613  70.047  1.00  0.00    -0.290 OA 
HETATM   23  C   UNL     1     -10.966  15.822  69.168  1.00  0.00    -0.265 C  
ENDBRANCH  19  20
BRANCH  19  24
HETATM   24  C   UNL     1      -8.644  16.383  66.192  1.00  0.00    -0.308 C  
HETATM   25  C   UNL     1      -7.865  17.662  66.482  1.00  0.00    -0.272 C  
HETATM   26  O   UNL     1      -7.823  18.621  65.728  1.00  0.00    -0.493 OA 
HETATM   27  O   UNL     1      -7.159  17.595  67.635  1.00  0.00    -0.172 OA 
ENDBRANCH  19  24
ENDBRANCH  18  19
ENDBRANCH  17  18
ENDBRANCH   5  17
ENDBRANCH   3   5
TORSDOF 11
ENDMDL
MODEL      237
REMARK 921   NORMALIZED FREE ENERGY PREDICTED BY IDOCK:   -4.11 KCAL/MOL
REMARK 922        TOTAL FREE ENERGY PREDICTED BY IDOCK:   -8.49 KCAL/MOL
REMARK 923 INTER-LIGAND FREE ENERGY PREDICTED BY IDOCK:   -7.28 KCAL/MOL
REMARK 924 INTRA-LIGAND FREE ENERGY PREDICTED BY IDOCK:   -1.21 KCAL/MOL
REMARK 927      BINDING AFFINITY PREDICTED BY RF-SCORE:    0.00 PKD
ROOT
HETATM    1  O   UNL     1      -7.698   9.359  65.622  1.00  0.00    -0.097 OA 
HETATM    2  C   UNL     1      -8.882   9.559  64.999  1.00  0.00    -0.195 C  
HETATM    3  C   UNL     1     -10.067   9.516  65.960  1.00  0.00    -0.249 C  
HETATM    4  O   UNL     1      -8.988   9.711  63.790  1.00  0.00    -0.230 OA 
ENDROOT
BRANCH   3   5
HETATM    5  N   UNL     1      -9.721  10.019  67.336  1.00  0.00    -0.157 NA 
BRANCH   5   6
HETATM    6  C   UNL     1     -10.407  11.336  67.561  1.00  0.00    -0.194 C  
BRANCH   6   7
HETATM    7  C   UNL     1      -9.865  12.502  66.681  1.00  0.00    -0.241 C  
BRANCH   7   8
HETATM    8  N   UNL     1     -10.819  13.634  66.409  1.00  0.00    -0.289 NA 
BRANCH   8   9
HETATM    9  C   UNL     1     -10.878  13.822  64.903  1.00  0.00    -0.391 C  
HETATM   10  O   UNL     1     -13.259  13.973  65.196  1.00  0.00    -0.768 OA 
HETATM   11  C   UNL     1     -12.280  13.606  64.337  1.00  0.00    -0.390 C  
HETATM   12  O   UNL     1     -12.505  13.172  63.218  1.00  0.00    -0.720 OA 
ENDBRANCH   8   9
BRANCH   8  13
HETATM   13  C   UNL     1     -10.220  14.895  66.986  1.00  0.00    -0.256 C  
HETATM   14  O   UNL     1     -11.988  14.783  68.602  1.00  0.00    -0.311 OA 
HETATM   15  O   UNL     1     -11.180  16.836  68.084  1.00  0.00    -0.325 OA 
HETATM   16  C   UNL     1     -11.177  15.627  67.921  1.00  0.00    -0.328 C  
ENDBRANCH   8  13
ENDBRANCH   7   8
ENDBRANCH   6   7
ENDBRANCH   5   6
BRANCH   5  17
HETATM   17  C   UNL     1     -10.235   9.041  68.347  1.00  0.00    -0.201 C  
BRANCH  17  18
HETATM   18  C   UNL     1     -10.083   7.531  68.009  1.00  0.00    -0.183 C  
BRANCH  18  19
HETATM   19  N   UNL     1     -10.000   6.610  69.203  1.00  0.00    -0.154 NA 
BRANCH  19  20
HETATM   20  C   UNL     1      -9.603   5.239  68.687  1.00  0.00    -0.136 C  
HETATM   21  O   UNL     1      -7.585   3.900  68.890  1.00  0.00    -0.054 OA 
HETATM   22  O   UNL     1      -8.272   5.096  70.685  1.00  0.00    -0.102 OA 
HETATM   23  C   UNL     1      -8.376   4.677  69.402  1.00  0.00    -0.075 C  
ENDBRANCH  19  20
BRANCH  19  24
HETATM   24  C   UNL     1     -11.390   6.472  69.784  1.00  0.00    -0.393 C  
HETATM   25  C   UNL     1     -11.438   6.744  71.283  1.00  0.00    -0.302 C  
HETATM   26  O   UNL     1     -12.250   6.241  72.044  1.00  0.00    -0.338 OA 
HETATM   27  O   UNL     1     -10.528   7.666  71.677  1.00  0.00    -0.197 OA 
ENDBRANCH  19  24
ENDBRANCH  18  19
ENDBRANCH  17  18
ENDBRANCH   5  17
ENDBRANCH   3   5
TORSDOF 11
ENDMDL
MODEL      238
REMARK 921   NORMALIZED FREE ENERGY PREDICTED BY IDOCK:   -4.10 KCAL/MOL
REMARK 922        TOTAL FREE ENERGY PREDICTED BY IDOCK:   -8.48 KCAL/MOL
REMARK 923 INTER-LIGAND FREE ENERGY PREDICTED BY IDOCK:   -6.90 KCAL/MOL
REMARK 924 INTRA-LIGAND FREE ENERGY PREDICTED BY IDOCK:   -1.58 KCAL/MOL
REMARK 927      BINDING AFFINITY PREDICTED BY RF-SCORE:    0.00 PKD
ROOT
HETATM    1  O   UNL     1      -5.922  14.847  67.372  1.00  0.00    -0.338 OA 
HETATM    2  C   UNL     1      -6.180  14.303  68.584  1.00  0.00    -0.088 C  
HETATM    3  C   UNL     1      -7.403  13.388  68.569  1.00  0.00    -0.111 C  
HETATM    4  O   UNL     1      -5.530  14.557  69.587  1.00  0.00    -0.091 OA 
ENDROOT
BRANCH   3   5
HETATM    5  N   UNL     1      -7.590  12.685  67.251  1.00  0.00    -0.146 NA 
BRANCH   5   6
HETATM    6  C   UNL     1      -7.135  11.261  67.388  1.00  0.00    -0.109 C  
BRANCH   6   7
HETATM    7  C   UNL     1      -7.574  10.570  68.714  1.00  0.00    -0.101 C  
BRANCH   7   8
HETATM    8  N   UNL     1      -8.495   9.388  68.580  1.00  0.00    -0.118 NA 
BRANCH   8   9
HETATM    9  C   UNL     1      -9.848   9.806  69.127  1.00  0.00    -0.188 C  
HETATM   10  O   UNL     1     -10.726   9.089  67.006  1.00  0.00    -0.242 OA 
HETATM   11  C   UNL     1     -10.906   9.951  68.034  1.00  0.00    -0.243 C  
HETATM   12  O   UNL     1     -11.836  10.741  68.084  1.00  0.00    -0.533 OA 
ENDBRANCH   8   9
BRANCH   8  13
HETATM   13  C   UNL     1      -7.977   8.291  69.480  1.00  0.00    -0.112 C  
HETATM   14  O   UNL     1      -8.365   6.827  67.623  1.00  0.00    -0.121 OA 
HETATM   15  O   UNL     1      -8.513   5.933  69.700  1.00  0.00    -0.115 OA 
HETATM   16  C   UNL     1      -8.332   6.897  68.974  1.00  0.00    -0.125 C  
ENDBRANCH   8  13
ENDBRANCH   7   8
ENDBRANCH   6   7
ENDBRANCH   5   6
BRANCH   5  17
HETATM   17  C   UNL     1      -9.049  12.683  66.911  1.00  0.00    -0.218 C  
BRANCH  17  18
HETATM   18  C   UNL     1      -9.686  14.049  66.531  1.00  0.00    -0.295 C  
BRANCH  18  19
HETATM   19  N   UNL     1     -11.084  14.274  67.057  1.00  0.00    -0.304 NA 
BRANCH  19  20
HETATM   20  C   UNL     1     -11.882  14.934  65.947  1.00  0.00    -0.113 C  
HETATM   21  O   UNL     1     -12.602  14.198  63.745  1.00  0.00    -0.804 OA 
HETATM   22  O   UNL     1     -12.648  12.710  65.450  1.00  0.00    -0.641 OA 
HETATM   23  C   UNL     1     -12.397  13.930  64.919  1.00  0.00    -0.420 C  
ENDBRANCH  19  20
BRANCH  19  24
HETATM   24  C   UNL     1     -11.002  15.275  68.189  1.00  0.00    -0.292 C  
HETATM   25  C   UNL     1     -11.874  14.897  69.381  1.00  0.00    -0.324 C  
HETATM   26  O   UNL     1     -12.367  15.707  70.150  1.00  0.00    -0.395 OA 
HETATM   27  O   UNL     1     -11.985  13.558  69.545  1.00  0.00    -0.311 OA 
ENDBRANCH  19  24
ENDBRANCH  18  19
ENDBRANCH  17  18
ENDBRANCH   5  17
ENDBRANCH   3   5
TORSDOF 11
ENDMDL
MODEL      239
REMARK 921   NORMALIZED FREE ENERGY PREDICTED BY IDOCK:   -4.10 KCAL/MOL
REMARK 922        TOTAL FREE ENERGY PREDICTED BY IDOCK:   -8.48 KCAL/MOL
REMARK 923 INTER-LIGAND FREE ENERGY PREDICTED BY IDOCK:   -7.00 KCAL/MOL
REMARK 924 INTRA-LIGAND FREE ENERGY PREDICTED BY IDOCK:   -1.48 KCAL/MOL
REMARK 927      BINDING AFFINITY PREDICTED BY RF-SCORE:    0.00 PKD
ROOT
HETATM    1  O   UNL     1     -11.716   9.089  70.752  1.00  0.00    -0.281 OA 
HETATM    2  C   UNL     1     -10.365   9.159  70.713  1.00  0.00    -0.258 C  
HETATM    3  C   UNL     1      -9.807   8.966  69.305  1.00  0.00    -0.176 C  
HETATM    4  O   UNL     1      -9.671   9.314  71.707  1.00  0.00    -0.269 OA 
ENDROOT
BRANCH   3   5
HETATM    5  N   UNL     1     -10.728   9.487  68.235  1.00  0.00    -0.218 NA 
BRANCH   5   6
HETATM    6  C   UNL     1     -10.373  10.916  67.939  1.00  0.00    -0.187 C  
BRANCH   6   7
HETATM    7  C   UNL     1     -11.601  11.851  67.719  1.00  0.00    -0.323 C  
BRANCH   7   8
HETATM    8  N   UNL     1     -11.413  12.983  66.745  1.00  0.00    -0.327 NA 
BRANCH   8   9
HETATM    9  C   UNL     1     -11.926  14.245  67.416  1.00  0.00    -0.391 C  
HETATM   10  O   UNL     1      -9.767  15.175  66.910  1.00  0.00    -0.228 OA 
HETATM   11  C   UNL     1     -10.804  15.216  67.779  1.00  0.00    -0.292 C  
HETATM   12  O   UNL     1     -10.839  15.973  68.737  1.00  0.00    -0.265 OA 
ENDBRANCH   8   9
BRANCH   8  13
HETATM   13  C   UNL     1     -12.307  12.724  65.555  1.00  0.00    -0.434 C  
HETATM   14  O   UNL     1     -10.508  13.603  64.237  1.00  0.00    -0.392 OA 
HETATM   15  O   UNL     1     -12.610  13.859  63.430  1.00  0.00    -0.853 OA 
HETATM   16  C   UNL     1     -11.854  13.471  64.305  1.00  0.00    -0.428 C  
ENDBRANCH   8  13
ENDBRANCH   7   8
ENDBRANCH   6   7
ENDBRANCH   5   6
BRANCH   5  17
HETATM   17  C   UNL     1     -10.521   8.683  66.989  1.00  0.00    -0.284 C  
BRANCH  17  18
HETATM   18  C   UNL     1      -9.929   9.428  65.759  1.00  0.00    -0.208 C  
BRANCH  18  19
HETATM   19  N   UNL     1      -8.723   8.771  65.129  1.00  0.00    -0.186 NA 
BRANCH  19  20
HETATM   20  C   UNL     1      -8.287   7.649  66.054  1.00  0.00    -0.135 C  
HETATM   21  O   UNL     1      -8.404   5.226  65.909  1.00  0.00    -0.114 OA 
HETATM   22  O   UNL     1      -7.920   6.398  64.034  1.00  0.00    -0.114 OA 
HETATM   23  C   UNL     1      -8.229   6.297  65.348  1.00  0.00    -0.142 C  
ENDBRANCH  19  20
BRANCH  19  24
HETATM   24  C   UNL     1      -7.598   9.782  65.109  1.00  0.00    -0.125 C  
HETATM   25  C   UNL     1      -7.012   9.992  63.717  1.00  0.00    -0.124 C  
HETATM   26  O   UNL     1      -5.856  10.323  63.505  1.00  0.00    -0.128 OA 
HETATM   27  O   UNL     1      -7.931   9.844  62.734  1.00  0.00    -0.122 OA 
ENDBRANCH  19  24
ENDBRANCH  18  19
ENDBRANCH  17  18
ENDBRANCH   5  17
ENDBRANCH   3   5
TORSDOF 11
ENDMDL
MODEL      240
REMARK 921   NORMALIZED FREE ENERGY PREDICTED BY IDOCK:   -4.10 KCAL/MOL
REMARK 922        TOTAL FREE ENERGY PREDICTED BY IDOCK:   -8.48 KCAL/MOL
REMARK 923 INTER-LIGAND FREE ENERGY PREDICTED BY IDOCK:   -6.98 KCAL/MOL
REMARK 924 INTRA-LIGAND FREE ENERGY PREDICTED BY IDOCK:   -1.50 KCAL/MOL
REMARK 927      BINDING AFFINITY PREDICTED BY RF-SCORE:    0.00 PKD
ROOT
HETATM    1  O   UNL     1      -7.170  10.755  67.546  1.00  0.00    -0.087 OA 
HETATM    2  C   UNL     1      -7.813  10.839  68.734  1.00  0.00    -0.129 C  
HETATM    3  C   UNL     1      -9.295  11.172  68.577  1.00  0.00    -0.190 C  
HETATM    4  O   UNL     1      -7.253  10.707  69.812  1.00  0.00    -0.149 OA 
ENDROOT
BRANCH   3   5
HETATM    5  N   UNL     1      -9.889  10.612  67.313  1.00  0.00    -0.172 NA 
BRANCH   5   6
HETATM    6  C   UNL     1     -10.877   9.540  67.671  1.00  0.00    -0.187 C  
BRANCH   6   7
HETATM    7  C   UNL     1     -10.504   8.120  67.148  1.00  0.00    -0.326 C  
BRANCH   7   8
HETATM    8  N   UNL     1      -9.642   7.279  68.050  1.00  0.00    -0.138 NA 
BRANCH   8   9
HETATM    9  C   UNL     1      -8.407   6.889  67.257  1.00  0.00    -0.121 C  
HETATM   10  O   UNL     1      -7.184   7.372  69.271  1.00  0.00    -0.076 OA 
HETATM   11  C   UNL     1      -7.111   7.356  67.919  1.00  0.00    -0.085 C  
HETATM   12  O   UNL     1      -6.101   7.660  67.304  1.00  0.00    -0.045 OA 
ENDBRANCH   8   9
BRANCH   8  13
HETATM   13  C   UNL     1     -10.392   6.003  68.351  1.00  0.00    -0.207 C  
HETATM   14  O   UNL     1     -10.299   6.699  70.643  1.00  0.00    -0.198 OA 
HETATM   15  O   UNL     1     -10.370   4.471  70.235  1.00  0.00    -0.160 OA 
HETATM   16  C   UNL     1     -10.333   5.620  69.826  1.00  0.00    -0.282 C  
ENDBRANCH   8  13
ENDBRANCH   7   8
ENDBRANCH   6   7
ENDBRANCH   5   6
BRANCH   5  17
HETATM   17  C   UNL     1     -10.620  11.707  66.600  1.00  0.00    -0.243 C  
BRANCH  17  18
HETATM   18  C   UNL     1      -9.836  13.025  66.339  1.00  0.00    -0.270 C  
BRANCH  18  19
HETATM   19  N   UNL     1     -10.680  14.276  66.293  1.00  0.00    -0.293 NA 
BRANCH  19  20
HETATM   20  C   UNL     1     -10.940  14.589  64.830  1.00  0.00    -0.410 C  
HETATM   21  O   UNL     1     -12.562  13.776  63.213  1.00  0.00    -0.830 OA 
HETATM   22  O   UNL     1     -13.240  14.112  65.346  1.00  0.00    -0.741 OA 
HETATM   23  C   UNL     1     -12.310  14.104  64.362  1.00  0.00    -0.381 C  
ENDBRANCH  19  20
BRANCH  19  24
HETATM   24  C   UNL     1      -9.854  15.418  66.843  1.00  0.00    -0.244 C  
HETATM   25  C   UNL     1     -10.671  16.393  67.683  1.00  0.00    -0.312 C  
HETATM   26  O   UNL     1     -10.406  17.578  67.806  1.00  0.00    -0.335 OA 
HETATM   27  O   UNL     1     -11.687  15.789  68.345  1.00  0.00    -0.366 OA 
ENDBRANCH  19  24
ENDBRANCH  18  19
ENDBRANCH  17  18
ENDBRANCH   5  17
ENDBRANCH   3   5
TORSDOF 11
ENDMDL
MODEL      241
REMARK 921   NORMALIZED FREE ENERGY PREDICTED BY IDOCK:   -4.09 KCAL/MOL
REMARK 922        TOTAL FREE ENERGY PREDICTED BY IDOCK:   -8.47 KCAL/MOL
REMARK 923 INTER-LIGAND FREE ENERGY PREDICTED BY IDOCK:   -7.13 KCAL/MOL
REMARK 924 INTRA-LIGAND FREE ENERGY PREDICTED BY IDOCK:   -1.34 KCAL/MOL
REMARK 927      BINDING AFFINITY PREDICTED BY RF-SCORE:    0.00 PKD
ROOT
HETATM    1  O   UNL     1     -10.632  19.764  65.705  1.00  0.00    -0.507 OA 
HETATM    2  C   UNL     1     -10.754  19.412  67.006  1.00  0.00    -0.474 C  
HETATM    3  C   UNL     1     -10.623  17.907  67.223  1.00  0.00    -0.332 C  
HETATM    4  O   UNL     1     -10.991  20.213  67.899  1.00  0.00    -0.056 OA 
ENDROOT
BRANCH   3   5
HETATM    5  N   UNL     1      -9.691  17.254  66.239  1.00  0.00    -0.361 NA 
BRANCH   5   6
HETATM    6  C   UNL     1      -8.366  17.017  66.904  1.00  0.00    -0.218 C  
BRANCH   6   7
HETATM    7  C   UNL     1      -7.140  17.560  66.108  1.00  0.00    -0.306 C  
BRANCH   7   8
HETATM    8  N   UNL     1      -6.653  18.932  66.485  1.00  0.00    -0.190 NA 
BRANCH   8   9
HETATM    9  C   UNL     1      -7.296  19.290  67.814  1.00  0.00    -0.254 C  
HETATM   10  O   UNL     1      -5.216  20.386  68.320  1.00  0.00    -0.199 OA 
HETATM   11  C   UNL     1      -6.276  19.740  68.859  1.00  0.00    -0.276 C  
HETATM   12  O   UNL     1      -6.406  19.563  70.060  1.00  0.00    -0.294 OA 
ENDBRANCH   8   9
BRANCH   8  13
HETATM   13  C   UNL     1      -7.184  19.910  65.464  1.00  0.00    -0.281 C  
HETATM   14  O   UNL     1      -5.310  19.253  64.122  1.00  0.00    -0.197 OA 
HETATM   15  O   UNL     1      -6.110  21.353  63.832  1.00  0.00    -0.271 OA 
HETATM   16  C   UNL     1      -6.149  20.276  64.406  1.00  0.00    -0.282 C  
ENDBRANCH   8  13
ENDBRANCH   7   8
ENDBRANCH   6   7
ENDBRANCH   5   6
BRANCH   5  17
HETATM   17  C   UNL     1     -10.263  15.928  65.842  1.00  0.00    -0.352 C  
BRANCH  17  18
HETATM   18  C   UNL     1      -9.367  14.677  66.067  1.00  0.00    -0.181 C  
BRANCH  18  19
HETATM   19  N   UNL     1      -9.898  13.678  67.067  1.00  0.00    -0.245 NA 
BRANCH  19  20
HETATM   20  C   UNL     1      -9.984  12.337  66.361  1.00  0.00    -0.228 C  
HETATM   21  O   UNL     1      -8.802  10.231  66.631  1.00  0.00    -0.135 OA 
HETATM   22  O   UNL     1      -9.351  11.406  68.486  1.00  0.00    -0.182 OA 
HETATM   23  C   UNL     1      -9.305  11.217  67.146  1.00  0.00    -0.163 C  
ENDBRANCH  19  20
BRANCH  19  24
HETATM   24  C   UNL     1     -11.314  14.078  67.420  1.00  0.00    -0.329 C  
HETATM   25  C   UNL     1     -11.480  14.441  68.891  1.00  0.00    -0.289 C  
HETATM   26  O   UNL     1     -12.520  14.307  69.515  1.00  0.00    -0.292 OA 
HETATM   27  O   UNL     1     -10.367  15.003  69.421  1.00  0.00    -0.234 OA 
ENDBRANCH  19  24
ENDBRANCH  18  19
ENDBRANCH  17  18
ENDBRANCH   5  17
ENDBRANCH   3   5
TORSDOF 11
ENDMDL
MODEL      242
REMARK 921   NORMALIZED FREE ENERGY PREDICTED BY IDOCK:   -4.09 KCAL/MOL
REMARK 922        TOTAL FREE ENERGY PREDICTED BY IDOCK:   -8.46 KCAL/MOL
REMARK 923 INTER-LIGAND FREE ENERGY PREDICTED BY IDOCK:   -7.09 KCAL/MOL
REMARK 924 INTRA-LIGAND FREE ENERGY PREDICTED BY IDOCK:   -1.37 KCAL/MOL
REMARK 927      BINDING AFFINITY PREDICTED BY RF-SCORE:    0.00 PKD
ROOT
HETATM    1  O   UNL     1      -6.352   9.878  67.375  1.00  0.00    -0.065 OA 
HETATM    2  C   UNL     1      -6.568  10.473  66.179  1.00  0.00    -0.123 C  
HETATM    3  C   UNL     1      -7.758   9.876  65.431  1.00  0.00    -0.130 C  
HETATM    4  O   UNL     1      -5.855  11.359  65.731  1.00  0.00    -0.117 OA 
ENDROOT
BRANCH   3   5
HETATM    5  N   UNL     1      -8.838   9.381  66.354  1.00  0.00    -0.141 NA 
BRANCH   5   6
HETATM    6  C   UNL     1     -10.145  10.001  65.953  1.00  0.00    -0.249 C  
BRANCH   6   7
HETATM    7  C   UNL     1     -10.732  10.999  66.997  1.00  0.00    -0.270 C  
BRANCH   7   8
HETATM    8  N   UNL     1     -11.225  12.315  66.461  1.00  0.00    -0.306 NA 
BRANCH   8   9
HETATM    9  C   UNL     1     -11.085  12.267  64.950  1.00  0.00    -0.311 C  
HETATM   10  O   UNL     1     -13.369  13.017  64.895  1.00  0.00    -0.641 OA 
HETATM   11  C   UNL     1     -12.434  12.297  64.232  1.00  0.00    -0.413 C  
HETATM   12  O   UNL     1     -12.650  11.754  63.160  1.00  0.00    -0.514 OA 
ENDBRANCH   8   9
BRANCH   8  13
HETATM   13  C   UNL     1     -10.291  13.395  66.954  1.00  0.00    -0.257 C  
HETATM   14  O   UNL     1     -12.189  14.243  68.148  1.00  0.00    -0.284 OA 
HETATM   15  O   UNL     1     -10.611  15.738  67.509  1.00  0.00    -0.296 OA 
HETATM   16  C   UNL     1     -11.034  14.594  67.537  1.00  0.00    -0.298 C  
ENDBRANCH   8  13
ENDBRANCH   7   8
ENDBRANCH   6   7
ENDBRANCH   5   6
BRANCH   5  17
HETATM   17  C   UNL     1      -8.955   7.895  66.203  1.00  0.00    -0.175 C  
BRANCH  17  18
HETATM   18  C   UNL     1      -8.544   7.027  67.426  1.00  0.00    -0.121 C  
BRANCH  18  19
HETATM   19  N   UNL     1      -9.658   6.210  68.037  1.00  0.00    -0.115 NA 
BRANCH  19  20
HETATM   20  C   UNL     1     -10.623   5.858  66.919  1.00  0.00    -0.315 C  
HETATM   21  O   UNL     1     -10.535   4.276  65.075  1.00  0.00    -0.243 OA 
HETATM   22  O   UNL     1      -9.683   3.650  67.077  1.00  0.00    -0.197 OA 
HETATM   23  C   UNL     1     -10.276   4.535  66.241  1.00  0.00    -0.239 C  
ENDBRANCH  19  20
BRANCH  19  24
HETATM   24  C   UNL     1     -10.413   7.098  69.002  1.00  0.00    -0.211 C  
HETATM   25  C   UNL     1     -11.161   6.310  70.072  1.00  0.00    -0.412 C  
HETATM   26  O   UNL     1     -12.184   6.697  70.615  1.00  0.00    -0.377 OA 
HETATM   27  O   UNL     1     -10.530   5.163  70.416  1.00  0.00    -0.267 OA 
ENDBRANCH  19  24
ENDBRANCH  18  19
ENDBRANCH  17  18
ENDBRANCH   5  17
ENDBRANCH   3   5
TORSDOF 11
ENDMDL
MODEL      243
REMARK 921   NORMALIZED FREE ENERGY PREDICTED BY IDOCK:   -4.09 KCAL/MOL
REMARK 922        TOTAL FREE ENERGY PREDICTED BY IDOCK:   -8.46 KCAL/MOL
REMARK 923 INTER-LIGAND FREE ENERGY PREDICTED BY IDOCK:   -7.07 KCAL/MOL
REMARK 924 INTRA-LIGAND FREE ENERGY PREDICTED BY IDOCK:   -1.39 KCAL/MOL
REMARK 927      BINDING AFFINITY PREDICTED BY RF-SCORE:    0.00 PKD
ROOT
HETATM    1  O   UNL     1     -13.198   9.815  70.987  1.00  0.00    -0.353 OA 
HETATM    2  C   UNL     1     -12.910  11.119  71.206  1.00  0.00    -0.412 C  
HETATM    3  C   UNL     1     -11.800  11.637  70.295  1.00  0.00    -0.326 C  
HETATM    4  O   UNL     1     -13.451  11.790  72.072  1.00  0.00    -0.422 OA 
ENDROOT
BRANCH   3   5
HETATM    5  N   UNL     1     -11.791  10.967  68.947  1.00  0.00    -0.399 NA 
BRANCH   5   6
HETATM    6  C   UNL     1     -11.950  12.012  67.881  1.00  0.00    -0.134 C  
BRANCH   6   7
HETATM    7  C   UNL     1     -10.618  12.439  67.194  1.00  0.00    -0.224 C  
BRANCH   7   8
HETATM    8  N   UNL     1     -10.707  13.570  66.206  1.00  0.00    -0.286 NA 
BRANCH   8   9
HETATM    9  C   UNL     1     -10.852  12.953  64.826  1.00  0.00    -0.327 C  
HETATM   10  O   UNL     1     -12.934  14.151  64.706  1.00  0.00    -0.674 OA 
HETATM   11  C   UNL     1     -12.280  13.042  64.288  1.00  0.00    -0.396 C  
HETATM   12  O   UNL     1     -12.779  12.219  63.538  1.00  0.00    -0.729 OA 
ENDBRANCH   8   9
BRANCH   8  13
HETATM   13  C   UNL     1      -9.388  14.305  66.221  1.00  0.00    -0.208 C  
HETATM   14  O   UNL     1     -10.636  16.165  67.075  1.00  0.00    -0.310 OA 
HETATM   15  O   UNL     1      -8.778  16.628  65.863  1.00  0.00    -0.483 OA 
HETATM   16  C   UNL     1      -9.557  15.816  66.335  1.00  0.00    -0.285 C  
ENDBRANCH   8  13
ENDBRANCH   7   8
ENDBRANCH   6   7
ENDBRANCH   5   6
BRANCH   5  17
HETATM   17  C   UNL     1     -10.467  10.295  68.754  1.00  0.00    -0.203 C  
BRANCH  17  18
HETATM   18  C   UNL     1      -9.809   9.658  70.010  1.00  0.00    -0.246 C  
BRANCH  18  19
HETATM   19  N   UNL     1      -8.322   9.417  69.904  1.00  0.00    -0.147 NA 
BRANCH  19  20
HETATM   20  C   UNL     1      -7.814   9.118  71.304  1.00  0.00    -0.019 C  
HETATM   21  O   UNL     1      -7.655   7.082  72.621  1.00  0.00    -0.088 OA 
HETATM   22  O   UNL     1      -7.205   6.972  70.405  1.00  0.00    -0.071 OA 
HETATM   23  C   UNL     1      -7.569   7.628  71.532  1.00  0.00    -0.081 C  
ENDBRANCH  19  20
BRANCH  19  24
HETATM   24  C   UNL     1      -7.669  10.711  69.471  1.00  0.00    -0.106 C  
HETATM   25  C   UNL     1      -6.293  10.502  68.846  1.00  0.00    -0.047 C  
HETATM   26  O   UNL     1      -5.395  11.328  68.881  1.00  0.00    -0.041 OA 
HETATM   27  O   UNL     1      -6.194   9.329  68.178  1.00  0.00    -0.052 OA 
ENDBRANCH  19  24
ENDBRANCH  18  19
ENDBRANCH  17  18
ENDBRANCH   5  17
ENDBRANCH   3   5
TORSDOF 11
ENDMDL
MODEL      244
REMARK 921   NORMALIZED FREE ENERGY PREDICTED BY IDOCK:   -4.07 KCAL/MOL
REMARK 922        TOTAL FREE ENERGY PREDICTED BY IDOCK:   -8.43 KCAL/MOL
REMARK 923 INTER-LIGAND FREE ENERGY PREDICTED BY IDOCK:   -7.04 KCAL/MOL
REMARK 924 INTRA-LIGAND FREE ENERGY PREDICTED BY IDOCK:   -1.38 KCAL/MOL
REMARK 927      BINDING AFFINITY PREDICTED BY RF-SCORE:    0.00 PKD
ROOT
HETATM    1  O   UNL     1      -7.811  10.673  66.212  1.00  0.00    -0.138 OA 
HETATM    2  C   UNL     1      -8.577  10.408  65.128  1.00  0.00    -0.180 C  
HETATM    3  C   UNL     1     -10.065  10.336  65.463  1.00  0.00    -0.281 C  
HETATM    4  O   UNL     1      -8.117  10.205  64.014  1.00  0.00    -0.153 OA 
ENDROOT
BRANCH   3   5
HETATM    5  N   UNL     1     -10.454  11.254  66.590  1.00  0.00    -0.238 NA 
BRANCH   5   6
HETATM    6  C   UNL     1     -11.334  12.344  66.050  1.00  0.00    -0.353 C  
BRANCH   6   7
HETATM    7  C   UNL     1     -12.135  13.122  67.138  1.00  0.00    -0.286 C  
BRANCH   7   8
HETATM    8  N   UNL     1     -11.545  14.428  67.597  1.00  0.00    -0.352 NA 
BRANCH   8   9
HETATM    9  C   UNL     1     -10.531  14.858  66.552  1.00  0.00    -0.297 C  
HETATM   10  O   UNL     1     -10.840  17.076  67.425  1.00  0.00    -0.281 OA 
HETATM   11  C   UNL     1     -10.534  16.367  66.314  1.00  0.00    -0.293 C  
HETATM   12  O   UNL     1     -10.266  16.890  65.244  1.00  0.00    -0.607 OA 
ENDBRANCH   8   9
BRANCH   8  13
HETATM   13  C   UNL     1     -10.777  14.166  68.871  1.00  0.00    -0.256 C  
HETATM   14  O   UNL     1     -12.763  14.883  70.006  1.00  0.00    -0.259 OA 
HETATM   15  O   UNL     1     -10.786  15.219  71.060  1.00  0.00    -0.240 OA 
HETATM   16  C   UNL     1     -11.413  14.829  70.089  1.00  0.00    -0.266 C  
ENDBRANCH   8  13
ENDBRANCH   7   8
ENDBRANCH   6   7
ENDBRANCH   5   6
BRANCH   5  17
HETATM   17  C   UNL     1     -11.240  10.471  67.597  1.00  0.00    -0.265 C  
BRANCH  17  18
HETATM   18  C   UNL     1     -10.621  10.326  69.016  1.00  0.00    -0.224 C  
BRANCH  18  19
HETATM   19  N   UNL     1     -10.316   8.910  69.443  1.00  0.00    -0.210 NA 
BRANCH  19  20
HETATM   20  C   UNL     1      -8.861   8.874  69.875  1.00  0.00    -0.151 C  
HETATM   21  O   UNL     1      -7.756   9.059  72.032  1.00  0.00    -0.348 OA 
HETATM   22  O   UNL     1      -9.700   7.905  71.910  1.00  0.00    -0.162 OA 
HETATM   23  C   UNL     1      -8.702   8.648  71.376  1.00  0.00    -0.204 C  
ENDBRANCH  19  20
BRANCH  19  24
HETATM   24  C   UNL     1     -10.431   8.020  68.224  1.00  0.00    -0.161 C  
HETATM   25  C   UNL     1     -10.884   6.604  68.563  1.00  0.00    -0.258 C  
HETATM   26  O   UNL     1     -10.586   5.617  67.909  1.00  0.00    -0.224 OA 
HETATM   27  O   UNL     1     -11.719   6.562  69.627  1.00  0.00    -0.357 OA 
ENDBRANCH  19  24
ENDBRANCH  18  19
ENDBRANCH  17  18
ENDBRANCH   5  17
ENDBRANCH   3   5
TORSDOF 11
ENDMDL
MODEL      245
REMARK 921   NORMALIZED FREE ENERGY PREDICTED BY IDOCK:   -4.07 KCAL/MOL
REMARK 922        TOTAL FREE ENERGY PREDICTED BY IDOCK:   -8.43 KCAL/MOL
REMARK 923 INTER-LIGAND FREE ENERGY PREDICTED BY IDOCK:   -7.06 KCAL/MOL
REMARK 924 INTRA-LIGAND FREE ENERGY PREDICTED BY IDOCK:   -1.37 KCAL/MOL
REMARK 927      BINDING AFFINITY PREDICTED BY RF-SCORE:    0.00 PKD
ROOT
HETATM    1  O   UNL     1      -5.519  13.142  67.898  1.00  0.00    -0.100 OA 
HETATM    2  C   UNL     1      -6.449  13.714  68.699  1.00  0.00    -0.094 C  
HETATM    3  C   UNL     1      -7.876  13.446  68.228  1.00  0.00    -0.143 C  
HETATM    4  O   UNL     1      -6.167  14.407  69.666  1.00  0.00    -0.108 OA 
ENDROOT
BRANCH   3   5
HETATM    5  N   UNL     1      -8.026  12.110  67.552  1.00  0.00    -0.152 NA 
BRANCH   5   6
HETATM    6  C   UNL     1      -8.206  11.049  68.600  1.00  0.00    -0.151 C  
BRANCH   6   7
HETATM    7  C   UNL     1      -8.990   9.792  68.115  1.00  0.00    -0.119 C  
BRANCH   7   8
HETATM    8  N   UNL     1      -9.212   8.709  69.135  1.00  0.00    -0.152 NA 
BRANCH   8   9
HETATM    9  C   UNL     1     -10.533   8.039  68.801  1.00  0.00    -0.173 C  
HETATM   10  O   UNL     1      -9.284   5.984  68.796  1.00  0.00    -0.123 OA 
HETATM   11  C   UNL     1     -10.355   6.620  68.265  1.00  0.00    -0.190 C  
HETATM   12  O   UNL     1     -11.109   6.094  67.460  1.00  0.00    -0.330 OA 
ENDBRANCH   8   9
BRANCH   8  13
HETATM   13  C   UNL     1      -9.382   9.368  70.483  1.00  0.00    -0.262 C  
HETATM   14  O   UNL     1      -8.363   7.392  71.379  1.00  0.00    -0.110 OA 
HETATM   15  O   UNL     1      -9.823   8.503  72.709  1.00  0.00    -0.258 OA 
HETATM   16  C   UNL     1      -9.246   8.384  71.641  1.00  0.00    -0.206 C  
ENDBRANCH   8  13
ENDBRANCH   7   8
ENDBRANCH   6   7
ENDBRANCH   5   6
BRANCH   5  17
HETATM   17  C   UNL     1      -9.255  12.140  66.697  1.00  0.00    -0.206 C  
BRANCH  17  18
HETATM   18  C   UNL     1      -9.865  13.537  66.387  1.00  0.00    -0.295 C  
BRANCH  18  19
HETATM   19  N   UNL     1     -11.329  13.688  66.729  1.00  0.00    -0.318 NA 
BRANCH  19  20
HETATM   20  C   UNL     1     -11.961  14.529  65.634  1.00  0.00    -0.311 C  
HETATM   21  O   UNL     1     -12.622  14.060  63.342  1.00  0.00    -0.845 OA 
HETATM   22  O   UNL     1     -12.969  12.468  64.914  1.00  0.00    -0.821 OA 
HETATM   23  C   UNL     1     -12.531  13.680  64.500  1.00  0.00    -0.287 C  
ENDBRANCH  19  20
BRANCH  19  24
HETATM   24  C   UNL     1     -11.429  14.491  68.007  1.00  0.00    -0.321 C  
HETATM   25  C   UNL     1     -12.025  13.695  69.163  1.00  0.00    -0.351 C  
HETATM   26  O   UNL     1     -12.654  14.193  70.083  1.00  0.00    -0.345 OA 
HETATM   27  O   UNL     1     -11.721  12.377  69.104  1.00  0.00    -0.288 OA 
ENDBRANCH  19  24
ENDBRANCH  18  19
ENDBRANCH  17  18
ENDBRANCH   5  17
ENDBRANCH   3   5
TORSDOF 11
ENDMDL
MODEL      246
REMARK 921   NORMALIZED FREE ENERGY PREDICTED BY IDOCK:   -4.06 KCAL/MOL
REMARK 922        TOTAL FREE ENERGY PREDICTED BY IDOCK:   -8.41 KCAL/MOL
REMARK 923 INTER-LIGAND FREE ENERGY PREDICTED BY IDOCK:   -8.42 KCAL/MOL
REMARK 924 INTRA-LIGAND FREE ENERGY PREDICTED BY IDOCK:    0.02 KCAL/MOL
REMARK 927      BINDING AFFINITY PREDICTED BY RF-SCORE:    0.00 PKD
ROOT
HETATM    1  O   UNL     1     -12.609  10.724  69.204  1.00  0.00    -0.312 OA 
HETATM    2  C   UNL     1     -11.938  11.705  69.851  1.00  0.00    -0.340 C  
HETATM    3  C   UNL     1     -10.605  12.042  69.188  1.00  0.00    -0.025 C  
HETATM    4  O   UNL     1     -12.340  12.227  70.881  1.00  0.00    -0.376 OA 
ENDROOT
BRANCH   3   5
HETATM    5  N   UNL     1     -10.634  11.859  67.694  1.00  0.00    -0.206 NA 
BRANCH   5   6
HETATM    6  C   UNL     1     -10.657  10.391  67.382  1.00  0.00    -0.269 C  
BRANCH   6   7
HETATM    7  C   UNL     1      -9.427   9.599  67.921  1.00  0.00    -0.131 C  
BRANCH   7   8
HETATM    8  N   UNL     1      -9.677   8.695  69.098  1.00  0.00    -0.170 NA 
BRANCH   8   9
HETATM    9  C   UNL     1      -8.328   8.385  69.722  1.00  0.00    -0.125 C  
HETATM   10  O   UNL     1      -9.249   9.316  71.739  1.00  0.00    -0.306 OA 
HETATM   11  C   UNL     1      -8.105   9.123  71.041  1.00  0.00    -0.134 C  
HETATM   12  O   UNL     1      -7.011   9.484  71.445  1.00  0.00    -0.316 OA 
ENDBRANCH   8   9
BRANCH   8  13
HETATM   13  C   UNL     1     -10.228   7.391  68.572  1.00  0.00    -0.183 C  
HETATM   14  O   UNL     1     -11.632   7.406  70.515  1.00  0.00    -0.283 OA 
HETATM   15  O   UNL     1     -11.066   5.387  69.656  1.00  0.00    -0.135 OA 
HETATM   16  C   UNL     1     -10.991   6.604  69.633  1.00  0.00    -0.313 C  
ENDBRANCH   8  13
ENDBRANCH   7   8
ENDBRANCH   6   7
ENDBRANCH   5   6
BRANCH   5  17
HETATM   17  C   UNL     1     -11.891  12.474  67.159  1.00  0.00    -0.316 C  
BRANCH  17  18
HETATM   18  C   UNL     1     -12.042  14.014  67.309  1.00  0.00    -0.370 C  
BRANCH  18  19
HETATM   19  N   UNL     1     -11.432  14.831  66.194  1.00  0.00    -0.338 NA 
BRANCH  19  20
HETATM   20  C   UNL     1     -11.099  13.872  65.065  1.00  0.00    -0.353 C  
HETATM   21  O   UNL     1     -12.401  12.918  63.248  1.00  0.00    -0.652 OA 
HETATM   22  O   UNL     1     -12.767  15.077  63.821  1.00  0.00    -0.741 OA 
HETATM   23  C   UNL     1     -12.154  13.878  63.961  1.00  0.00    -0.396 C  
ENDBRANCH  19  20
BRANCH  19  24
HETATM   24  C   UNL     1     -10.118  15.392  66.691  1.00  0.00    -0.265 C  
HETATM   25  C   UNL     1      -9.631  16.581  65.870  1.00  0.00    -0.248 C  
HETATM   26  O   UNL     1      -8.456  16.877  65.727  1.00  0.00    -0.492 OA 
HETATM   27  O   UNL     1     -10.647  17.325  65.372  1.00  0.00    -0.630 OA 
ENDBRANCH  19  24
ENDBRANCH  18  19
ENDBRANCH  17  18
ENDBRANCH   5  17
ENDBRANCH   3   5
TORSDOF 11
ENDMDL
MODEL      247
REMARK 921   NORMALIZED FREE ENERGY PREDICTED BY IDOCK:   -4.05 KCAL/MOL
REMARK 922        TOTAL FREE ENERGY PREDICTED BY IDOCK:   -8.40 KCAL/MOL
REMARK 923 INTER-LIGAND FREE ENERGY PREDICTED BY IDOCK:   -7.03 KCAL/MOL
REMARK 924 INTRA-LIGAND FREE ENERGY PREDICTED BY IDOCK:   -1.37 KCAL/MOL
REMARK 927      BINDING AFFINITY PREDICTED BY RF-SCORE:    0.00 PKD
ROOT
HETATM    1  O   UNL     1      -8.030   9.430  65.698  1.00  0.00    -0.101 OA 
HETATM    2  C   UNL     1      -9.230   9.700  65.134  1.00  0.00    -0.246 C  
HETATM    3  C   UNL     1     -10.373   9.678  66.145  1.00  0.00    -0.132 C  
HETATM    4  O   UNL     1      -9.381   9.893  63.936  1.00  0.00    -0.267 OA 
ENDROOT
BRANCH   3   5
HETATM    5  N   UNL     1      -9.947  10.125  67.517  1.00  0.00    -0.183 NA 
BRANCH   5   6
HETATM    6  C   UNL     1     -10.623  11.426  67.840  1.00  0.00    -0.189 C  
BRANCH   6   7
HETATM    7  C   UNL     1      -9.953  12.676  67.195  1.00  0.00    -0.217 C  
BRANCH   7   8
HETATM    8  N   UNL     1     -10.876  13.783  66.765  1.00  0.00    -0.283 NA 
BRANCH   8   9
HETATM    9  C   UNL     1     -12.028  13.819  67.754  1.00  0.00    -0.356 C  
HETATM   10  O   UNL     1     -11.309  16.063  68.233  1.00  0.00    -0.353 OA 
HETATM   11  C   UNL     1     -11.909  14.967  68.755  1.00  0.00    -0.301 C  
HETATM   12  O   UNL     1     -12.330  14.921  69.900  1.00  0.00    -0.314 OA 
ENDBRANCH   8   9
BRANCH   8  13
HETATM   13  C   UNL     1     -11.461  13.406  65.424  1.00  0.00    -0.302 C  
HETATM   14  O   UNL     1     -10.970  15.661  64.775  1.00  0.00    -0.436 OA 
HETATM   15  O   UNL     1     -12.719  14.642  63.755  1.00  0.00    -0.778 OA 
HETATM   16  C   UNL     1     -11.813  14.621  64.572  1.00  0.00    -0.431 C  
ENDBRANCH   8  13
ENDBRANCH   7   8
ENDBRANCH   6   7
ENDBRANCH   5   6
BRANCH   5  17
HETATM   17  C   UNL     1     -10.395   9.101  68.515  1.00  0.00    -0.207 C  
BRANCH  17  18
HETATM   18  C   UNL     1     -10.226   7.607  68.118  1.00  0.00    -0.196 C  
BRANCH  18  19
HETATM   19  N   UNL     1     -10.221   6.632  69.272  1.00  0.00    -0.175 NA 
BRANCH  19  20
HETATM   20  C   UNL     1      -9.962   5.253  68.693  1.00  0.00    -0.168 C  
HETATM   21  O   UNL     1      -8.084   3.716  68.822  1.00  0.00    -0.065 OA 
HETATM   22  O   UNL     1      -8.644   4.893  70.672  1.00  0.00    -0.104 OA 
HETATM   23  C   UNL     1      -8.793   4.543  69.373  1.00  0.00    -0.089 C  
ENDBRANCH  19  20
BRANCH  19  24
HETATM   24  C   UNL     1     -11.614   6.603  69.863  1.00  0.00    -0.332 C  
HETATM   25  C   UNL     1     -11.620   6.792  71.376  1.00  0.00    -0.305 C  
HETATM   26  O   UNL     1     -12.473   6.331  72.119  1.00  0.00    -0.291 OA 
HETATM   27  O   UNL     1     -10.617   7.592  71.809  1.00  0.00    -0.210 OA 
ENDBRANCH  19  24
ENDBRANCH  18  19
ENDBRANCH  17  18
ENDBRANCH   5  17
ENDBRANCH   3   5
TORSDOF 11
ENDMDL
MODEL      248
REMARK 921   NORMALIZED FREE ENERGY PREDICTED BY IDOCK:   -4.05 KCAL/MOL
REMARK 922        TOTAL FREE ENERGY PREDICTED BY IDOCK:   -8.39 KCAL/MOL
REMARK 923 INTER-LIGAND FREE ENERGY PREDICTED BY IDOCK:   -7.27 KCAL/MOL
REMARK 924 INTRA-LIGAND FREE ENERGY PREDICTED BY IDOCK:   -1.12 KCAL/MOL
REMARK 927      BINDING AFFINITY PREDICTED BY RF-SCORE:    0.00 PKD
ROOT
HETATM    1  O   UNL     1     -13.198  13.875  65.653  1.00  0.00    -0.623 OA 
HETATM    2  C   UNL     1     -12.407  13.274  64.735  1.00  0.00    -0.402 C  
HETATM    3  C   UNL     1     -10.922  13.399  65.066  1.00  0.00    -0.316 C  
HETATM    4  O   UNL     1     -12.838  12.731  63.728  1.00  0.00    -0.695 OA 
ENDROOT
BRANCH   3   5
HETATM    5  N   UNL     1     -10.654  13.429  66.546  1.00  0.00    -0.285 NA 
BRANCH   5   6
HETATM    6  C   UNL     1     -10.061  12.114  66.962  1.00  0.00    -0.204 C  
BRANCH   6   7
HETATM    7  C   UNL     1      -8.502  12.086  66.972  1.00  0.00    -0.183 C  
BRANCH   7   8
HETATM    8  N   UNL     1      -7.857  10.733  66.850  1.00  0.00    -0.124 NA 
BRANCH   8   9
HETATM    9  C   UNL     1      -6.451  10.851  67.412  1.00  0.00    -0.065 C  
HETATM   10  O   UNL     1      -6.708   8.549  68.055  1.00  0.00    -0.063 OA 
HETATM   11  C   UNL     1      -6.105   9.717  68.376  1.00  0.00    -0.043 C  
HETATM   12  O   UNL     1      -5.344   9.835  69.323  1.00  0.00    -0.036 OA 
ENDBRANCH   8   9
BRANCH   8  13
HETATM   13  C   UNL     1      -7.716  10.417  65.379  1.00  0.00    -0.136 C  
HETATM   14  O   UNL     1      -9.411   8.764  65.754  1.00  0.00    -0.229 OA 
HETATM   15  O   UNL     1      -7.919   8.366  64.096  1.00  0.00    -0.138 OA 
HETATM   16  C   UNL     1      -8.325   9.070  65.005  1.00  0.00    -0.166 C  
ENDBRANCH   8  13
ENDBRANCH   7   8
ENDBRANCH   6   7
ENDBRANCH   5   6
BRANCH   5  17
HETATM   17  C   UNL     1      -9.656  14.508  66.832  1.00  0.00    -0.250 C  
BRANCH  17  18
HETATM   18  C   UNL     1     -10.218  15.909  67.206  1.00  0.00    -0.278 C  
BRANCH  18  19
HETATM   19  N   UNL     1      -9.359  17.079  66.789  1.00  0.00    -0.243 NA 
BRANCH  19  20
HETATM   20  C   UNL     1      -7.998  16.890  67.436  1.00  0.00    -0.170 C  
HETATM   21  O   UNL     1      -5.732  16.812  66.562  1.00  0.00    -0.328 OA 
HETATM   22  O   UNL     1      -7.185  18.296  65.663  1.00  0.00    -0.503 OA 
HETATM   23  C   UNL     1      -6.851  17.300  66.516  1.00  0.00    -0.257 C  
ENDBRANCH  19  20
BRANCH  19  24
HETATM   24  C   UNL     1      -9.956  18.333  67.387  1.00  0.00    -0.334 C  
HETATM   25  C   UNL     1     -10.478  19.304  66.333  1.00  0.00    -0.474 C  
HETATM   26  O   UNL     1     -10.530  20.514  66.484  1.00  0.00    -0.195 OA 
HETATM   27  O   UNL     1     -10.953  18.675  65.232  1.00  0.00    -0.536 OA 
ENDBRANCH  19  24
ENDBRANCH  18  19
ENDBRANCH  17  18
ENDBRANCH   5  17
ENDBRANCH   3   5
TORSDOF 11
ENDMDL
MODEL      249
REMARK 921   NORMALIZED FREE ENERGY PREDICTED BY IDOCK:   -4.03 KCAL/MOL
REMARK 922        TOTAL FREE ENERGY PREDICTED BY IDOCK:   -8.37 KCAL/MOL
REMARK 923 INTER-LIGAND FREE ENERGY PREDICTED BY IDOCK:   -6.88 KCAL/MOL
REMARK 924 INTRA-LIGAND FREE ENERGY PREDICTED BY IDOCK:   -1.49 KCAL/MOL
REMARK 927      BINDING AFFINITY PREDICTED BY RF-SCORE:    0.00 PKD
ROOT
HETATM    1  O   UNL     1     -11.003   7.840  70.085  1.00  0.00    -0.256 OA 
HETATM    2  C   UNL     1     -10.466   8.710  70.971  1.00  0.00    -0.219 C  
HETATM    3  C   UNL     1      -9.617   9.786  70.299  1.00  0.00    -0.208 C  
HETATM    4  O   UNL     1     -10.613   8.612  72.181  1.00  0.00    -0.321 OA 
ENDROOT
BRANCH   3   5
HETATM    5  N   UNL     1     -10.116  10.152  68.928  1.00  0.00    -0.189 NA 
BRANCH   5   6
HETATM    6  C   UNL     1     -10.826  11.473  69.002  1.00  0.00    -0.212 C  
BRANCH   6   7
HETATM    7  C   UNL     1     -10.089  12.640  68.279  1.00  0.00    -0.233 C  
BRANCH   7   8
HETATM    8  N   UNL     1     -10.959  13.649  67.580  1.00  0.00    -0.264 NA 
BRANCH   8   9
HETATM    9  C   UNL     1     -12.079  14.019  68.536  1.00  0.00    -0.294 C  
HETATM   10  O   UNL     1     -11.174  16.246  68.448  1.00  0.00    -0.354 OA 
HETATM   11  C   UNL     1     -11.845  15.363  69.225  1.00  0.00    -0.343 C  
HETATM   12  O   UNL     1     -12.239  15.632  70.348  1.00  0.00    -0.381 OA 
ENDBRANCH   8   9
BRANCH   8  13
HETATM   13  C   UNL     1     -11.601  12.965  66.396  1.00  0.00    -0.371 C  
HETATM   14  O   UNL     1     -10.981  14.921  65.156  1.00  0.00    -0.350 OA 
HETATM   15  O   UNL     1     -12.818  13.790  64.463  1.00  0.00    -0.648 OA 
HETATM   16  C   UNL     1     -11.895  13.927  65.249  1.00  0.00    -0.357 C  
ENDBRANCH   8  13
ENDBRANCH   7   8
ENDBRANCH   6   7
ENDBRANCH   5   6
BRANCH   5  17
HETATM   17  C   UNL     1      -8.940  10.299  68.012  1.00  0.00    -0.132 C  
BRANCH  17  18
HETATM   18  C   UNL     1      -8.214   8.994  67.581  1.00  0.00    -0.109 C  
BRANCH  18  19
HETATM   19  N   UNL     1      -8.790   8.311  66.362  1.00  0.00    -0.143 NA 
BRANCH  19  20
HETATM   20  C   UNL     1      -9.693   9.315  65.669  1.00  0.00    -0.232 C  
HETATM   21  O   UNL     1      -9.330  10.944  63.902  1.00  0.00    -0.216 OA 
HETATM   22  O   UNL     1      -8.301   8.934  63.745  1.00  0.00    -0.173 OA 
HETATM   23  C   UNL     1      -9.095   9.839  64.366  1.00  0.00    -0.248 C  
ENDBRANCH  19  20
BRANCH  19  24
HETATM   24  C   UNL     1      -9.677   7.181  66.836  1.00  0.00    -0.186 C  
HETATM   25  C   UNL     1      -9.381   5.859  66.135  1.00  0.00    -0.132 C  
HETATM   26  O   UNL     1     -10.210   4.983  65.951  1.00  0.00    -0.204 OA 
HETATM   27  O   UNL     1      -8.076   5.725  65.800  1.00  0.00    -0.106 OA 
ENDBRANCH  19  24
ENDBRANCH  18  19
ENDBRANCH  17  18
ENDBRANCH   5  17
ENDBRANCH   3   5
TORSDOF 11
ENDMDL
MODEL      250
REMARK 921   NORMALIZED FREE ENERGY PREDICTED BY IDOCK:   -4.03 KCAL/MOL
REMARK 922        TOTAL FREE ENERGY PREDICTED BY IDOCK:   -8.36 KCAL/MOL
REMARK 923 INTER-LIGAND FREE ENERGY PREDICTED BY IDOCK:   -6.94 KCAL/MOL
REMARK 924 INTRA-LIGAND FREE ENERGY PREDICTED BY IDOCK:   -1.42 KCAL/MOL
REMARK 927      BINDING AFFINITY PREDICTED BY RF-SCORE:    0.00 PKD
ROOT
HETATM    1  O   UNL     1      -7.353  11.441  68.932  1.00  0.00    -0.104 OA 
HETATM    2  C   UNL     1      -7.750  11.909  67.726  1.00  0.00    -0.136 C  
HETATM    3  C   UNL     1      -9.146  11.429  67.339  1.00  0.00    -0.160 C  
HETATM    4  O   UNL     1      -7.043  12.603  67.010  1.00  0.00    -0.076 OA 
ENDROOT
BRANCH   3   5
HETATM    5  N   UNL     1     -10.049  11.238  68.528  1.00  0.00    -0.198 NA 
BRANCH   5   6
HETATM    6  C   UNL     1     -10.753  12.532  68.819  1.00  0.00    -0.202 C  
BRANCH   6   7
HETATM    7  C   UNL     1     -11.908  12.872  67.829  1.00  0.00    -0.339 C  
BRANCH   7   8
HETATM    8  N   UNL     1     -11.536  13.693  66.624  1.00  0.00    -0.329 NA 
BRANCH   8   9
HETATM    9  C   UNL     1     -11.603  15.153  67.034  1.00  0.00    -0.174 C  
HETATM   10  O   UNL     1      -9.361  15.311  66.181  1.00  0.00    -0.290 OA 
HETATM   11  C   UNL     1     -10.227  15.814  67.092  1.00  0.00    -0.279 C  
HETATM   12  O   UNL     1      -9.935  16.719  67.858  1.00  0.00    -0.254 OA 
ENDBRANCH   8   9
BRANCH   8  13
HETATM   13  C   UNL     1     -12.600  13.482  65.573  1.00  0.00    -0.481 C  
HETATM   14  O   UNL     1     -10.808  12.747  64.161  1.00  0.00    -0.354 OA 
HETATM   15  O   UNL     1     -12.606  13.689  63.154  1.00  0.00    -0.792 OA 
HETATM   16  C   UNL     1     -12.021  13.347  64.168  1.00  0.00    -0.450 C  
ENDBRANCH   8  13
ENDBRANCH   7   8
ENDBRANCH   6   7
ENDBRANCH   5   6
BRANCH   5  17
HETATM   17  C   UNL     1     -11.080  10.206  68.187  1.00  0.00    -0.230 C  
BRANCH  17  18
HETATM   18  C   UNL     1     -10.606   8.986  67.348  1.00  0.00    -0.239 C  
BRANCH  18  19
HETATM   19  N   UNL     1     -10.121   7.803  68.153  1.00  0.00    -0.179 NA 
BRANCH  19  20
HETATM   20  C   UNL     1     -10.631   7.984  69.571  1.00  0.00    -0.214 C  
HETATM   21  O   UNL     1     -12.160   6.711  70.968  1.00  0.00    -0.369 OA 
HETATM   22  O   UNL     1     -10.730   5.582  69.625  1.00  0.00    -0.322 OA 
HETATM   23  C   UNL     1     -11.273   6.715  70.128  1.00  0.00    -0.360 C  
ENDBRANCH  19  20
BRANCH  19  24
HETATM   24  C   UNL     1      -8.611   7.873  68.221  1.00  0.00    -0.124 C  
HETATM   25  C   UNL     1      -7.938   6.553  67.861  1.00  0.00    -0.109 C  
HETATM   26  O   UNL     1      -6.855   6.197  68.297  1.00  0.00    -0.068 OA 
HETATM   27  O   UNL     1      -8.635   5.843  66.942  1.00  0.00    -0.112 OA 
ENDBRANCH  19  24
ENDBRANCH  18  19
ENDBRANCH  17  18
ENDBRANCH   5  17
ENDBRANCH   3   5
TORSDOF 11
ENDMDL
MODEL      251
REMARK 921   NORMALIZED FREE ENERGY PREDICTED BY IDOCK:   -4.03 KCAL/MOL
REMARK 922        TOTAL FREE ENERGY PREDICTED BY IDOCK:   -8.36 KCAL/MOL
REMARK 923 INTER-LIGAND FREE ENERGY PREDICTED BY IDOCK:   -7.08 KCAL/MOL
REMARK 924 INTRA-LIGAND FREE ENERGY PREDICTED BY IDOCK:   -1.28 KCAL/MOL
REMARK 927      BINDING AFFINITY PREDICTED BY RF-SCORE:    0.00 PKD
ROOT
HETATM    1  O   UNL     1      -9.205  10.514  65.345  1.00  0.00    -0.172 OA 
HETATM    2  C   UNL     1     -10.272  11.345  65.409  1.00  0.00    -0.270 C  
HETATM    3  C   UNL     1     -10.480  11.928  66.805  1.00  0.00    -0.221 C  
HETATM    4  O   UNL     1     -11.011  11.564  64.460  1.00  0.00    -0.321 OA 
ENDROOT
BRANCH   3   5
HETATM    5  N   UNL     1      -9.189  12.123  67.554  1.00  0.00    -0.177 NA 
BRANCH   5   6
HETATM    6  C   UNL     1      -8.944  13.594  67.730  1.00  0.00    -0.196 C  
BRANCH   6   7
HETATM    7  C   UNL     1      -9.705  14.234  68.931  1.00  0.00    -0.115 C  
BRANCH   7   8
HETATM    8  N   UNL     1     -10.919  15.055  68.593  1.00  0.00    -0.247 NA 
BRANCH   8   9
HETATM    9  C   UNL     1     -10.471  16.152  67.643  1.00  0.00    -0.292 C  
HETATM   10  O   UNL     1     -11.788  15.008  65.988  1.00  0.00    -0.190 OA 
HETATM   11  C   UNL     1     -10.700  15.790  66.176  1.00  0.00    -0.290 C  
HETATM   12  O   UNL     1      -9.996  16.182  65.259  1.00  0.00    -0.487 OA 
ENDBRANCH   8   9
BRANCH   8  13
HETATM   13  C   UNL     1     -11.387  15.734  69.858  1.00  0.00    -0.349 C  
HETATM   14  O   UNL     1     -12.728  13.777  70.202  1.00  0.00    -0.243 OA 
HETATM   15  O   UNL     1     -13.495  15.727  71.063  1.00  0.00    -0.581 OA 
HETATM   16  C   UNL     1     -12.657  15.110  70.426  1.00  0.00    -0.359 C  
ENDBRANCH   8  13
ENDBRANCH   7   8
ENDBRANCH   6   7
ENDBRANCH   5   6
BRANCH   5  17
HETATM   17  C   UNL     1      -9.323  11.502  68.910  1.00  0.00     0.007 C  
BRANCH  17  18
HETATM   18  C   UNL     1      -8.929  10.004  69.042  1.00  0.00    -0.163 C  
BRANCH  18  19
HETATM   19  N   UNL     1     -10.067   9.067  69.370  1.00  0.00    -0.192 NA 
BRANCH  19  20
HETATM   20  C   UNL     1     -10.546   8.466  68.060  1.00  0.00    -0.130 C  
HETATM   21  O   UNL     1     -10.677   6.189  67.218  1.00  0.00    -0.258 OA 
HETATM   22  O   UNL     1     -11.172   6.566  69.395  1.00  0.00    -0.340 OA 
HETATM   23  C   UNL     1     -10.785   6.961  68.160  1.00  0.00    -0.205 C  
ENDBRANCH  19  20
BRANCH  19  24
HETATM   24  C   UNL     1     -11.211   9.894  69.914  1.00  0.00    -0.250 C  
HETATM   25  C   UNL     1     -11.710   9.401  71.268  1.00  0.00    -0.360 C  
HETATM   26  O   UNL     1     -12.856   9.537  71.665  1.00  0.00    -0.339 OA 
HETATM   27  O   UNL     1     -10.725   8.859  72.023  1.00  0.00    -0.339 OA 
ENDBRANCH  19  24
ENDBRANCH  18  19
ENDBRANCH  17  18
ENDBRANCH   5  17
ENDBRANCH   3   5
TORSDOF 11
ENDMDL
MODEL      252
REMARK 921   NORMALIZED FREE ENERGY PREDICTED BY IDOCK:   -4.02 KCAL/MOL
REMARK 922        TOTAL FREE ENERGY PREDICTED BY IDOCK:   -8.35 KCAL/MOL
REMARK 923 INTER-LIGAND FREE ENERGY PREDICTED BY IDOCK:   -6.73 KCAL/MOL
REMARK 924 INTRA-LIGAND FREE ENERGY PREDICTED BY IDOCK:   -1.62 KCAL/MOL
REMARK 927      BINDING AFFINITY PREDICTED BY RF-SCORE:    0.00 PKD
ROOT
HETATM    1  O   UNL     1      -9.161   9.521  70.883  1.00  0.00    -0.217 OA 
HETATM    2  C   UNL     1     -10.419   9.044  71.031  1.00  0.00    -0.269 C  
HETATM    3  C   UNL     1     -11.485  10.068  70.649  1.00  0.00    -0.345 C  
HETATM    4  O   UNL     1     -10.668   7.930  71.469  1.00  0.00    -0.222 OA 
ENDROOT
BRANCH   3   5
HETATM    5  N   UNL     1     -11.039  10.992  69.549  1.00  0.00    -0.254 NA 
BRANCH   5   6
HETATM    6  C   UNL     1     -11.090  10.256  68.241  1.00  0.00    -0.254 C  
BRANCH   6   7
HETATM    7  C   UNL     1      -9.723  10.167  67.498  1.00  0.00    -0.162 C  
BRANCH   7   8
HETATM    8  N   UNL     1      -9.317   8.805  67.005  1.00  0.00    -0.150 NA 
BRANCH   8   9
HETATM    9  C   UNL     1      -9.121   8.909  65.503  1.00  0.00    -0.190 C  
HETATM   10  O   UNL     1      -7.316   7.351  65.812  1.00  0.00    -0.071 OA 
HETATM   11  C   UNL     1      -7.764   8.374  65.048  1.00  0.00    -0.104 C  
HETATM   12  O   UNL     1      -7.151   8.801  64.082  1.00  0.00    -0.088 OA 
ENDBRANCH   8   9
BRANCH   8  13
HETATM   13  C   UNL     1     -10.478   7.865  67.232  1.00  0.00    -0.320 C  
HETATM   14  O   UNL     1      -8.959   6.604  68.592  1.00  0.00    -0.125 OA 
HETATM   15  O   UNL     1     -10.627   5.464  67.566  1.00  0.00    -0.200 OA 
HETATM   16  C   UNL     1     -10.040   6.511  67.782  1.00  0.00    -0.148 C  
ENDBRANCH   8  13
ENDBRANCH   7   8
ENDBRANCH   6   7
ENDBRANCH   5   6
BRANCH   5  17
HETATM   17  C   UNL     1     -11.989  12.148  69.477  1.00  0.00    -0.275 C  
BRANCH  17  18
HETATM   18  C   UNL     1     -11.372  13.555  69.243  1.00  0.00    -0.262 C  
BRANCH  18  19
HETATM   19  N   UNL     1     -10.955  13.845  67.821  1.00  0.00    -0.252 NA 
BRANCH  19  20
HETATM   20  C   UNL     1      -9.929  14.964  67.872  1.00  0.00    -0.219 C  
HETATM   21  O   UNL     1      -7.547  15.022  68.353  1.00  0.00    -0.107 OA 
HETATM   22  O   UNL     1      -8.364  13.287  67.150  1.00  0.00    -0.180 OA 
HETATM   23  C   UNL     1      -8.494  14.443  67.842  1.00  0.00    -0.165 C  
ENDBRANCH  19  20
BRANCH  19  24
HETATM   24  C   UNL     1     -12.158  14.391  67.083  1.00  0.00    -0.333 C  
HETATM   25  C   UNL     1     -12.492  13.599  65.823  1.00  0.00    -0.477 C  
HETATM   26  O   UNL     1     -13.035  14.077  64.840  1.00  0.00    -0.707 OA 
HETATM   27  O   UNL     1     -12.189  12.285  65.935  1.00  0.00    -0.634 OA 
ENDBRANCH  19  24
ENDBRANCH  18  19
ENDBRANCH  17  18
ENDBRANCH   5  17
ENDBRANCH   3   5
TORSDOF 11
ENDMDL
MODEL      253
REMARK 921   NORMALIZED FREE ENERGY PREDICTED BY IDOCK:   -4.02 KCAL/MOL
REMARK 922        TOTAL FREE ENERGY PREDICTED BY IDOCK:   -8.35 KCAL/MOL
REMARK 923 INTER-LIGAND FREE ENERGY PREDICTED BY IDOCK:   -6.74 KCAL/MOL
REMARK 924 INTRA-LIGAND FREE ENERGY PREDICTED BY IDOCK:   -1.61 KCAL/MOL
REMARK 927      BINDING AFFINITY PREDICTED BY RF-SCORE:    0.00 PKD
ROOT
HETATM    1  O   UNL     1     -11.902   9.089  70.699  1.00  0.00    -0.255 OA 
HETATM    2  C   UNL     1     -10.552   9.116  70.799  1.00  0.00    -0.260 C  
HETATM    3  C   UNL     1      -9.858   8.836  69.469  1.00  0.00    -0.180 C  
HETATM    4  O   UNL     1      -9.960   9.298  71.853  1.00  0.00    -0.228 OA 
ENDROOT
BRANCH   3   5
HETATM    5  N   UNL     1     -10.644   9.332  68.285  1.00  0.00    -0.211 NA 
BRANCH   5   6
HETATM    6  C   UNL     1     -10.287  10.768  68.028  1.00  0.00    -0.182 C  
BRANCH   6   7
HETATM    7  C   UNL     1     -11.512  11.722  67.897  1.00  0.00    -0.317 C  
BRANCH   7   8
HETATM    8  N   UNL     1     -11.356  12.886  66.956  1.00  0.00    -0.293 NA 
BRANCH   8   9
HETATM    9  C   UNL     1     -11.466  12.341  65.543  1.00  0.00    -0.361 C  
HETATM   10  O   UNL     1     -13.204  13.975  65.241  1.00  0.00    -0.782 OA 
HETATM   11  C   UNL     1     -12.763  12.755  64.851  1.00  0.00    -0.404 C  
HETATM   12  O   UNL     1     -13.338  12.077  64.014  1.00  0.00    -0.703 OA 
ENDBRANCH   8   9
BRANCH   8  13
HETATM   13  C   UNL     1      -9.952  13.423  67.111  1.00  0.00    -0.242 C  
HETATM   14  O   UNL     1     -10.961  15.594  66.993  1.00  0.00    -0.322 OA 
HETATM   15  O   UNL     1      -8.828  15.397  66.255  1.00  0.00    -0.304 OA 
HETATM   16  C   UNL     1      -9.837  14.892  66.717  1.00  0.00    -0.246 C  
ENDBRANCH   8  13
ENDBRANCH   7   8
ENDBRANCH   6   7
ENDBRANCH   5   6
BRANCH   5  17
HETATM   17  C   UNL     1     -10.258   8.528  67.082  1.00  0.00    -0.284 C  
BRANCH  17  18
HETATM   18  C   UNL     1      -9.608   9.298  65.898  1.00  0.00    -0.275 C  
BRANCH  18  19
HETATM   19  N   UNL     1      -8.162   8.955  65.626  1.00  0.00    -0.119 NA 
BRANCH  19  20
HETATM   20  C   UNL     1      -7.730   7.954  66.683  1.00  0.00    -0.098 C  
HETATM   21  O   UNL     1      -7.290   5.565  66.636  1.00  0.00    -0.080 OA 
HETATM   22  O   UNL     1      -6.633   6.819  64.869  1.00  0.00    -0.041 OA 
HETATM   23  C   UNL     1      -7.218   6.649  66.078  1.00  0.00    -0.071 C  
ENDBRANCH  19  20
BRANCH  19  24
HETATM   24  C   UNL     1      -7.337  10.205  65.846  1.00  0.00    -0.121 C  
HETATM   25  C   UNL     1      -6.224  10.371  64.817  1.00  0.00    -0.090 C  
HETATM   26  O   UNL     1      -5.173  10.951  65.035  1.00  0.00    -0.154 OA 
HETATM   27  O   UNL     1      -6.556   9.872  63.603  1.00  0.00    -0.115 OA 
ENDBRANCH  19  24
ENDBRANCH  18  19
ENDBRANCH  17  18
ENDBRANCH   5  17
ENDBRANCH   3   5
TORSDOF 11
ENDMDL
MODEL      254
REMARK 921   NORMALIZED FREE ENERGY PREDICTED BY IDOCK:   -4.01 KCAL/MOL
REMARK 922        TOTAL FREE ENERGY PREDICTED BY IDOCK:   -8.34 KCAL/MOL
REMARK 923 INTER-LIGAND FREE ENERGY PREDICTED BY IDOCK:   -7.29 KCAL/MOL
REMARK 924 INTRA-LIGAND FREE ENERGY PREDICTED BY IDOCK:   -1.05 KCAL/MOL
REMARK 927      BINDING AFFINITY PREDICTED BY RF-SCORE:    0.00 PKD
ROOT
HETATM    1  O   UNL     1      -5.687  14.729  69.300  1.00  0.00    -0.095 OA 
HETATM    2  C   UNL     1      -5.981  14.215  68.083  1.00  0.00    -0.133 C  
HETATM    3  C   UNL     1      -7.481  14.203  67.797  1.00  0.00    -0.165 C  
HETATM    4  O   UNL     1      -5.137  13.769  67.320  1.00  0.00    -0.315 OA 
ENDROOT
BRANCH   3   5
HETATM    5  N   UNL     1      -8.209  15.348  68.448  1.00  0.00    -0.137 NA 
BRANCH   5   6
HETATM    6  C   UNL     1      -8.265  16.500  67.487  1.00  0.00    -0.154 C  
BRANCH   6   7
HETATM    7  C   UNL     1      -7.374  17.715  67.887  1.00  0.00    -0.202 C  
BRANCH   7   8
HETATM    8  N   UNL     1      -7.294  18.842  66.894  1.00  0.00    -0.208 NA 
BRANCH   8   9
HETATM    9  C   UNL     1      -8.667  18.981  66.258  1.00  0.00    -0.273 C  
HETATM   10  O   UNL     1      -8.686  21.188  67.213  1.00  0.00    -0.086 OA 
HETATM   11  C   UNL     1      -9.466  20.149  66.834  1.00  0.00    -0.412 C  
HETATM   12  O   UNL     1     -10.684  20.164  66.923  1.00  0.00    -0.331 OA 
ENDBRANCH   8   9
BRANCH   8  13
HETATM   13  C   UNL     1      -6.343  18.426  65.797  1.00  0.00    -0.260 C  
HETATM   14  O   UNL     1      -6.057  20.773  65.399  1.00  0.00    -0.226 OA 
HETATM   15  O   UNL     1      -5.787  19.379  63.633  1.00  0.00    -0.382 OA 
HETATM   16  C   UNL     1      -6.052  19.553  64.811  1.00  0.00    -0.273 C  
ENDBRANCH   8  13
ENDBRANCH   7   8
ENDBRANCH   6   7
ENDBRANCH   5   6
BRANCH   5  17
HETATM   17  C   UNL     1      -9.611  14.916  68.748  1.00  0.00    -0.214 C  
BRANCH  17  18
HETATM   18  C   UNL     1     -10.588  14.804  67.544  1.00  0.00    -0.259 C  
BRANCH  18  19
HETATM   19  N   UNL     1     -11.046  13.402  67.216  1.00  0.00    -0.276 NA 
BRANCH  19  20
HETATM   20  C   UNL     1     -10.305  12.458  68.146  1.00  0.00    -0.226 C  
HETATM   21  O   UNL     1     -11.029  10.900  69.865  1.00  0.00    -0.257 OA 
HETATM   22  O   UNL     1     -12.266  11.077  67.977  1.00  0.00    -0.520 OA 
HETATM   23  C   UNL     1     -11.224  11.413  68.773  1.00  0.00    -0.247 C  
ENDBRANCH  19  20
BRANCH  19  24
HETATM   24  C   UNL     1     -10.588  13.078  65.811  1.00  0.00    -0.277 C  
HETATM   25  C   UNL     1     -11.727  13.090  64.797  1.00  0.00    -0.345 C  
HETATM   26  O   UNL     1     -11.743  12.415  63.780  1.00  0.00    -0.397 OA 
HETATM   27  O   UNL     1     -12.692  13.989  65.104  1.00  0.00    -0.619 OA 
ENDBRANCH  19  24
ENDBRANCH  18  19
ENDBRANCH  17  18
ENDBRANCH   5  17
ENDBRANCH   3   5
TORSDOF 11
ENDMDL
MODEL      255
REMARK 921   NORMALIZED FREE ENERGY PREDICTED BY IDOCK:   -4.01 KCAL/MOL
REMARK 922        TOTAL FREE ENERGY PREDICTED BY IDOCK:   -8.34 KCAL/MOL
REMARK 923 INTER-LIGAND FREE ENERGY PREDICTED BY IDOCK:   -8.34 KCAL/MOL
REMARK 924 INTRA-LIGAND FREE ENERGY PREDICTED BY IDOCK:    0.01 KCAL/MOL
REMARK 927      BINDING AFFINITY PREDICTED BY RF-SCORE:    0.00 PKD
ROOT
HETATM    1  O   UNL     1     -10.550   8.846  69.122  1.00  0.00    -0.227 OA 
HETATM    2  C   UNL     1      -9.430   9.535  68.801  1.00  0.00    -0.147 C  
HETATM    3  C   UNL     1      -9.728  10.811  68.018  1.00  0.00    -0.162 C  
HETATM    4  O   UNL     1      -8.302   9.147  69.072  1.00  0.00    -0.121 OA 
ENDROOT
BRANCH   3   5
HETATM    5  N   UNL     1     -11.043  11.435  68.398  1.00  0.00    -0.221 NA 
BRANCH   5   6
HETATM    6  C   UNL     1     -10.840  12.305  69.605  1.00  0.00     0.272 C  
BRANCH   6   7
HETATM    7  C   UNL     1     -12.137  12.993  70.128  1.00  0.00    -0.307 C  
BRANCH   7   8
HETATM    8  N   UNL     1     -12.024  14.452  70.481  1.00  0.00    -0.306 NA 
BRANCH   8   9
HETATM    9  C   UNL     1     -10.570  14.849  70.296  1.00  0.00     0.009 C  
HETATM   10  O   UNL     1     -11.408  16.527  68.791  1.00  0.00    -0.318 OA 
HETATM   11  C   UNL     1     -10.351  15.726  69.064  1.00  0.00    -0.223 C  
HETATM   12  O   UNL     1      -9.325  15.731  68.403  1.00  0.00    -0.190 OA 
ENDBRANCH   8   9
BRANCH   8  13
HETATM   13  C   UNL     1     -12.336  14.598  71.951  1.00  0.00    -0.338 C  
HETATM   14  O   UNL     1     -14.364  15.656  71.234  1.00  0.00    -0.521 OA 
HETATM   15  O   UNL     1     -13.514  16.288  73.237  1.00  0.00    -0.502 OA 
HETATM   16  C   UNL     1     -13.438  15.618  72.221  1.00  0.00    -0.495 C  
ENDBRANCH   8  13
ENDBRANCH   7   8
ENDBRANCH   6   7
ENDBRANCH   5   6
BRANCH   5  17
HETATM   17  C   UNL     1     -11.508  12.300  67.268  1.00  0.00    -0.357 C  
BRANCH  17  18
HETATM   18  C   UNL     1     -10.411  12.994  66.412  1.00  0.00    -0.281 C  
BRANCH  18  19
HETATM   19  N   UNL     1     -10.920  13.777  65.226  1.00  0.00    -0.310 NA 
BRANCH  19  20
HETATM   20  C   UNL     1     -11.155  15.202  65.694  1.00  0.00    -0.334 C  
HETATM   21  O   UNL     1     -11.467  17.311  64.528  1.00  0.00    -0.864 OA 
HETATM   22  O   UNL     1     -12.416  15.448  63.662  1.00  0.00    -0.493 OA 
HETATM   23  C   UNL     1     -11.670  16.108  64.578  1.00  0.00    -0.065 C  
ENDBRANCH  19  20
BRANCH  19  24
HETATM   24  C   UNL     1     -12.272  13.216  64.842  1.00  0.00    -0.428 C  
HETATM   25  C   UNL     1     -12.185  12.135  63.770  1.00  0.00    -0.531 C  
HETATM   26  O   UNL     1     -13.071  11.898  62.965  1.00  0.00    -0.500 OA 
HETATM   27  O   UNL     1     -11.045  11.408  63.851  1.00  0.00    -0.384 OA 
ENDBRANCH  19  24
ENDBRANCH  18  19
ENDBRANCH  17  18
ENDBRANCH   5  17
ENDBRANCH   3   5
TORSDOF 11
ENDMDL
MODEL      256
REMARK 921   NORMALIZED FREE ENERGY PREDICTED BY IDOCK:   -4.01 KCAL/MOL
REMARK 922        TOTAL FREE ENERGY PREDICTED BY IDOCK:   -8.33 KCAL/MOL
REMARK 923 INTER-LIGAND FREE ENERGY PREDICTED BY IDOCK:   -8.41 KCAL/MOL
REMARK 924 INTRA-LIGAND FREE ENERGY PREDICTED BY IDOCK:    0.08 KCAL/MOL
REMARK 927      BINDING AFFINITY PREDICTED BY RF-SCORE:    0.00 PKD
ROOT
HETATM    1  O   UNL     1     -10.982  17.978  65.148  1.00  0.00    -0.645 OA 
HETATM    2  C   UNL     1     -10.300  18.654  66.102  1.00  0.00    -0.443 C  
HETATM    3  C   UNL     1     -10.427  18.013  67.482  1.00  0.00    -0.396 C  
HETATM    4  O   UNL     1      -9.689  19.690  65.884  1.00  0.00    -0.362 OA 
ENDROOT
BRANCH   3   5
HETATM    5  N   UNL     1     -10.566  16.515  67.419  1.00  0.00    -0.317 NA 
BRANCH   5   6
HETATM    6  C   UNL     1      -9.226  15.890  67.683  1.00  0.00    -0.208 C  
BRANCH   6   7
HETATM    7  C   UNL     1      -8.904  14.657  66.785  1.00  0.00    -0.241 C  
BRANCH   7   8
HETATM    8  N   UNL     1      -9.648  13.388  67.099  1.00  0.00    -0.233 NA 
BRANCH   8   9
HETATM    9  C   UNL     1      -8.908  12.700  68.233  1.00  0.00    -0.172 C  
HETATM   10  O   UNL     1      -6.908  13.222  67.003  1.00  0.00    -0.050 OA 
HETATM   11  C   UNL     1      -7.469  12.341  67.864  1.00  0.00    -0.121 C  
HETATM   12  O   UNL     1      -6.870  11.376  68.313  1.00  0.00    -0.064 OA 
ENDBRANCH   8   9
BRANCH   8  13
HETATM   13  C   UNL     1      -9.547  12.481  65.895  1.00  0.00    -0.168 C  
HETATM   14  O   UNL     1     -11.863  12.000  66.286  1.00  0.00    -0.563 OA 
HETATM   15  O   UNL     1     -10.616  10.382  65.305  1.00  0.00    -0.191 OA 
HETATM   16  C   UNL     1     -10.704  11.491  65.806  1.00  0.00    -0.271 C  
ENDBRANCH   8  13
ENDBRANCH   7   8
ENDBRANCH   6   7
ENDBRANCH   5   6
BRANCH   5  17
HETATM   17  C   UNL     1     -11.511  16.075  68.494  1.00  0.00    -0.357 C  
BRANCH  17  18
HETATM   18  C   UNL     1     -10.884  15.455  69.774  1.00  0.00    -0.288 C  
BRANCH  18  19
HETATM   19  N   UNL     1     -11.775  14.493  70.525  1.00  0.00    -0.284 NA 
BRANCH  19  20
HETATM   20  C   UNL     1     -12.153  13.384  69.560  1.00  0.00    -0.278 C  
HETATM   21  O   UNL     1     -11.972  10.962  69.650  1.00  0.00    -0.304 OA 
HETATM   22  O   UNL     1     -12.542  12.073  71.538  1.00  0.00    -0.279 OA 
HETATM   23  C   UNL     1     -12.193  12.013  70.232  1.00  0.00    -0.266 C  
ENDBRANCH  19  20
BRANCH  19  24
HETATM   24  C   UNL     1     -13.055  15.220  70.876  1.00  0.00    -0.464 C  
HETATM   25  C   UNL     1     -13.084  15.707  72.321  1.00  0.00    -0.456 C  
HETATM   26  O   UNL     1     -14.106  15.848  72.973  1.00  0.00    -0.518 OA 
HETATM   27  O   UNL     1     -11.857  16.040  72.787  1.00  0.00    -0.467 OA 
ENDBRANCH  19  24
ENDBRANCH  18  19
ENDBRANCH  17  18
ENDBRANCH   5  17
ENDBRANCH   3   5
TORSDOF 11
ENDMDL
MODEL      257
REMARK 921   NORMALIZED FREE ENERGY PREDICTED BY IDOCK:   -4.00 KCAL/MOL
REMARK 922        TOTAL FREE ENERGY PREDICTED BY IDOCK:   -8.31 KCAL/MOL
REMARK 923 INTER-LIGAND FREE ENERGY PREDICTED BY IDOCK:   -7.12 KCAL/MOL
REMARK 924 INTRA-LIGAND FREE ENERGY PREDICTED BY IDOCK:   -1.19 KCAL/MOL
REMARK 927      BINDING AFFINITY PREDICTED BY RF-SCORE:    0.00 PKD
ROOT
HETATM    1  O   UNL     1     -13.015  10.248  70.795  1.00  0.00    -0.370 OA 
HETATM    2  C   UNL     1     -12.762  11.544  71.088  1.00  0.00    -0.356 C  
HETATM    3  C   UNL     1     -11.843  12.210  70.066  1.00  0.00    -0.306 C  
HETATM    4  O   UNL     1     -13.188  12.103  72.088  1.00  0.00    -0.499 OA 
ENDROOT
BRANCH   3   5
HETATM    5  N   UNL     1     -12.019  11.659  68.677  1.00  0.00    -0.459 NA 
BRANCH   5   6
HETATM    6  C   UNL     1     -12.066  12.799  67.701  1.00  0.00    -0.140 C  
BRANCH   6   7
HETATM    7  C   UNL     1     -11.994  14.211  68.358  1.00  0.00    -0.331 C  
BRANCH   7   8
HETATM    8  N   UNL     1     -11.119  15.225  67.671  1.00  0.00    -0.316 NA 
BRANCH   8   9
HETATM    9  C   UNL     1     -10.200  14.464  66.731  1.00  0.00    -0.270 C  
HETATM   10  O   UNL     1     -11.026  15.939  65.021  1.00  0.00    -0.425 OA 
HETATM   11  C   UNL     1     -10.538  14.699  65.260  1.00  0.00    -0.391 C  
HETATM   12  O   UNL     1     -10.365  13.872  64.379  1.00  0.00    -0.384 OA 
ENDBRANCH   8   9
BRANCH   8  13
HETATM   13  C   UNL     1     -10.241  15.866  68.720  1.00  0.00    -0.220 C  
HETATM   14  O   UNL     1     -10.778  17.940  67.644  1.00  0.00    -0.399 OA 
HETATM   15  O   UNL     1      -8.776  17.803  68.698  1.00  0.00    -0.291 OA 
HETATM   16  C   UNL     1      -9.826  17.286  68.350  1.00  0.00    -0.309 C  
ENDBRANCH   8  13
ENDBRANCH   7   8
ENDBRANCH   6   7
ENDBRANCH   5   6
BRANCH   5  17
HETATM   17  C   UNL     1     -10.835  10.804  68.345  1.00  0.00    -0.232 C  
BRANCH  17  18
HETATM   18  C   UNL     1      -9.490  11.535  68.076  1.00  0.00    -0.181 C  
BRANCH  18  19
HETATM   19  N   UNL     1      -8.380  10.662  67.541  1.00  0.00    -0.115 NA 
BRANCH  19  20
HETATM   20  C   UNL     1      -7.130  10.983  68.340  1.00  0.00    -0.074 C  
HETATM   21  O   UNL     1      -6.577  10.839  70.702  1.00  0.00    -0.332 OA 
HETATM   22  O   UNL     1      -7.841   9.200  69.788  1.00  0.00    -0.075 OA 
HETATM   23  C   UNL     1      -7.151  10.363  69.735  1.00  0.00    -0.148 C  
ENDBRANCH  19  20
BRANCH  19  24
HETATM   24  C   UNL     1      -8.104  11.080  66.113  1.00  0.00    -0.141 C  
HETATM   25  C   UNL     1      -7.367  10.011  65.313  1.00  0.00    -0.137 C  
HETATM   26  O   UNL     1      -6.618  10.252  64.380  1.00  0.00    -0.127 OA 
HETATM   27  O   UNL     1      -7.688   8.754  65.698  1.00  0.00    -0.088 OA 
ENDBRANCH  19  24
ENDBRANCH  18  19
ENDBRANCH  17  18
ENDBRANCH   5  17
ENDBRANCH   3   5
TORSDOF 11
ENDMDL
MODEL      258
REMARK 921   NORMALIZED FREE ENERGY PREDICTED BY IDOCK:   -3.98 KCAL/MOL
REMARK 922        TOTAL FREE ENERGY PREDICTED BY IDOCK:   -8.29 KCAL/MOL
REMARK 923 INTER-LIGAND FREE ENERGY PREDICTED BY IDOCK:   -7.40 KCAL/MOL
REMARK 924 INTRA-LIGAND FREE ENERGY PREDICTED BY IDOCK:   -0.89 KCAL/MOL
REMARK 927      BINDING AFFINITY PREDICTED BY RF-SCORE:    0.00 PKD
ROOT
HETATM    1  O   UNL     1      -8.671   9.554  65.165  1.00  0.00    -0.150 OA 
HETATM    2  C   UNL     1      -9.761  10.309  64.893  1.00  0.00    -0.320 C  
HETATM    3  C   UNL     1     -10.579  10.633  66.141  1.00  0.00    -0.142 C  
HETATM    4  O   UNL     1     -10.076  10.651  63.762  1.00  0.00    -0.330 OA 
ENDROOT
BRANCH   3   5
HETATM    5  N   UNL     1      -9.731  10.759  67.378  1.00  0.00    -0.169 NA 
BRANCH   5   6
HETATM    6  C   UNL     1      -9.103  12.122  67.403  1.00  0.00    -0.181 C  
BRANCH   6   7
HETATM    7  C   UNL     1      -9.686  13.079  68.486  1.00  0.00    -0.130 C  
BRANCH   7   8
HETATM    8  N   UNL     1     -10.991  13.751  68.153  1.00  0.00    -0.239 NA 
BRANCH   8   9
HETATM    9  C   UNL     1     -10.781  14.532  66.868  1.00  0.00    -0.288 C  
HETATM   10  O   UNL     1     -12.663  13.298  66.022  1.00  0.00    -0.367 OA 
HETATM   11  C   UNL     1     -11.507  13.911  65.676  1.00  0.00    -0.318 C  
HETATM   12  O   UNL     1     -11.109  13.978  64.524  1.00  0.00    -0.381 OA 
ENDBRANCH   8   9
BRANCH   8  13
HETATM   13  C   UNL     1     -11.283  14.760  69.238  1.00  0.00    -0.283 C  
HETATM   14  O   UNL     1     -12.326  12.942  70.402  1.00  0.00    -0.323 OA 
HETATM   15  O   UNL     1     -13.118  15.026  70.806  1.00  0.00    -0.379 OA 
HETATM   16  C   UNL     1     -12.354  14.283  70.214  1.00  0.00    -0.354 C  
ENDBRANCH   8  13
ENDBRANCH   7   8
ENDBRANCH   6   7
ENDBRANCH   5   6
BRANCH   5  17
HETATM   17  C   UNL     1     -10.613  10.624  68.580  1.00  0.00    -0.203 C  
BRANCH  17  18
HETATM   18  C   UNL     1     -10.035   9.846  69.796  1.00  0.00    -0.243 C  
BRANCH  18  19
HETATM   19  N   UNL     1     -10.866   8.675  70.264  1.00  0.00    -0.234 NA 
BRANCH  19  20
HETATM   20  C   UNL     1     -11.371   9.010  71.656  1.00  0.00    -0.360 C  
HETATM   21  O   UNL     1     -13.593   9.258  72.609  1.00  0.00    -0.455 OA 
HETATM   22  O   UNL     1     -13.247   7.616  71.090  1.00  0.00    -0.250 OA 
HETATM   23  C   UNL     1     -12.848   8.670  71.840  1.00  0.00    -0.369 C  
ENDBRANCH  19  20
BRANCH  19  24
HETATM   24  C   UNL     1      -9.950   7.480  70.408  1.00  0.00    -0.184 C  
HETATM   25  C   UNL     1     -10.422   6.269  69.609  1.00  0.00    -0.238 C  
HETATM   26  O   UNL     1     -10.191   5.112  69.922  1.00  0.00    -0.255 OA 
HETATM   27  O   UNL     1     -11.064   6.613  68.468  1.00  0.00    -0.256 OA 
ENDBRANCH  19  24
ENDBRANCH  18  19
ENDBRANCH  17  18
ENDBRANCH   5  17
ENDBRANCH   3   5
TORSDOF 11
ENDMDL
MODEL      259
REMARK 921   NORMALIZED FREE ENERGY PREDICTED BY IDOCK:   -3.96 KCAL/MOL
REMARK 922        TOTAL FREE ENERGY PREDICTED BY IDOCK:   -8.25 KCAL/MOL
REMARK 923 INTER-LIGAND FREE ENERGY PREDICTED BY IDOCK:   -7.65 KCAL/MOL
REMARK 924 INTRA-LIGAND FREE ENERGY PREDICTED BY IDOCK:   -0.60 KCAL/MOL
REMARK 927      BINDING AFFINITY PREDICTED BY RF-SCORE:    0.00 PKD
ROOT
HETATM    1  O   UNL     1     -13.324  12.657  64.736  1.00  0.00    -0.787 OA 
HETATM    2  C   UNL     1     -12.044  12.386  64.390  1.00  0.00    -0.426 C  
HETATM    3  C   UNL     1     -11.035  12.941  65.392  1.00  0.00    -0.278 C  
HETATM    4  O   UNL     1     -11.736  11.801  63.362  1.00  0.00    -0.427 OA 
ENDROOT
BRANCH   3   5
HETATM    5  N   UNL     1     -11.560  12.959  66.802  1.00  0.00    -0.341 NA 
BRANCH   5   6
HETATM    6  C   UNL     1     -10.766  11.993  67.632  1.00  0.00    -0.217 C  
BRANCH   6   7
HETATM    7  C   UNL     1     -11.275  10.521  67.570  1.00  0.00    -0.224 C  
BRANCH   7   8
HETATM    8  N   UNL     1     -10.281   9.488  67.112  1.00  0.00    -0.224 NA 
BRANCH   8   9
HETATM    9  C   UNL     1     -10.064   8.527  68.268  1.00  0.00    -0.192 C  
HETATM   10  O   UNL     1     -10.663   6.798  66.708  1.00  0.00    -0.294 OA 
HETATM   11  C   UNL     1     -10.680   7.152  68.014  1.00  0.00    -0.171 C  
HETATM   12  O   UNL     1     -11.120   6.428  68.893  1.00  0.00    -0.329 OA 
ENDBRANCH   8   9
BRANCH   8  13
HETATM   13  C   UNL     1      -8.964  10.187  66.870  1.00  0.00    -0.132 C  
HETATM   14  O   UNL     1      -9.376   9.775  64.545  1.00  0.00    -0.261 OA 
HETATM   15  O   UNL     1      -7.214   9.900  65.211  1.00  0.00    -0.117 OA 
HETATM   16  C   UNL     1      -8.404   9.922  65.476  1.00  0.00    -0.140 C  
ENDBRANCH   8  13
ENDBRANCH   7   8
ENDBRANCH   6   7
ENDBRANCH   5   6
BRANCH   5  17
HETATM   17  C   UNL     1     -11.371  14.332  67.367  1.00  0.00    -0.332 C  
BRANCH  17  18
HETATM   18  C   UNL     1     -10.128  14.557  68.274  1.00  0.00    -0.232 C  
BRANCH  18  19
HETATM   19  N   UNL     1      -9.461  15.904  68.127  1.00  0.00    -0.202 NA 
BRANCH  19  20
HETATM   20  C   UNL     1      -9.289  16.162  66.641  1.00  0.00    -0.242 C  
HETATM   21  O   UNL     1     -10.729  17.128  64.938  1.00  0.00    -0.737 OA 
HETATM   22  O   UNL     1     -10.736  18.048  67.007  1.00  0.00    -0.342 OA 
HETATM   23  C   UNL     1     -10.328  17.137  66.092  1.00  0.00    -0.322 C  
ENDBRANCH  19  20
BRANCH  19  24
HETATM   24  C   UNL     1      -8.071  15.803  68.716  1.00  0.00    -0.179 C  
HETATM   25  C   UNL     1      -7.122  16.874  68.187  1.00  0.00    -0.165 C  
HETATM   26  O   UNL     1      -5.914  16.731  68.094  1.00  0.00    -0.119 OA 
HETATM   27  O   UNL     1      -7.754  18.037  67.900  1.00  0.00    -0.220 OA 
ENDBRANCH  19  24
ENDBRANCH  18  19
ENDBRANCH  17  18
ENDBRANCH   5  17
ENDBRANCH   3   5
TORSDOF 11
ENDMDL
MODEL      260
REMARK 921   NORMALIZED FREE ENERGY PREDICTED BY IDOCK:   -3.96 KCAL/MOL
REMARK 922        TOTAL FREE ENERGY PREDICTED BY IDOCK:   -8.25 KCAL/MOL
REMARK 923 INTER-LIGAND FREE ENERGY PREDICTED BY IDOCK:   -6.79 KCAL/MOL
REMARK 924 INTRA-LIGAND FREE ENERGY PREDICTED BY IDOCK:   -1.46 KCAL/MOL
REMARK 927      BINDING AFFINITY PREDICTED BY RF-SCORE:    0.00 PKD
ROOT
HETATM    1  O   UNL     1     -12.086  11.120  70.927  1.00  0.00    -0.346 OA 
HETATM    2  C   UNL     1     -11.479   9.923  71.108  1.00  0.00    -0.383 C  
HETATM    3  C   UNL     1     -10.672   9.484  69.889  1.00  0.00    -0.240 C  
HETATM    4  O   UNL     1     -11.606   9.252  72.122  1.00  0.00    -0.312 OA 
ENDROOT
BRANCH   3   5
HETATM    5  N   UNL     1     -10.083  10.642  69.130  1.00  0.00    -0.215 NA 
BRANCH   5   6
HETATM    6  C   UNL     1      -8.608  10.418  68.964  1.00  0.00    -0.157 C  
BRANCH   6   7
HETATM    7  C   UNL     1      -8.215   9.659  67.661  1.00  0.00    -0.114 C  
BRANCH   7   8
HETATM    8  N   UNL     1      -7.336  10.403  66.693  1.00  0.00    -0.109 NA 
BRANCH   8   9
HETATM    9  C   UNL     1      -7.438  11.879  67.033  1.00  0.00    -0.126 C  
HETATM   10  O   UNL     1      -5.143  12.016  66.329  1.00  0.00    -0.320 OA 
HETATM   11  C   UNL     1      -6.071  12.551  67.155  1.00  0.00    -0.031 C  
HETATM   12  O   UNL     1      -5.837  13.491  67.899  1.00  0.00    -0.117 OA 
ENDBRANCH   8   9
BRANCH   8  13
HETATM   13  C   UNL     1      -7.919  10.230  65.310  1.00  0.00    -0.148 C  
HETATM   14  O   UNL     1      -5.818   9.222  64.744  1.00  0.00    -0.062 OA 
HETATM   15  O   UNL     1      -6.950  10.270  63.084  1.00  0.00    -0.138 OA 
HETATM   16  C   UNL     1      -6.856   9.941  64.255  1.00  0.00    -0.125 C  
ENDBRANCH   8  13
ENDBRANCH   7   8
ENDBRANCH   6   7
ENDBRANCH   5   6
BRANCH   5  17
HETATM   17  C   UNL     1     -10.708  10.691  67.770  1.00  0.00    -0.257 C  
BRANCH  17  18
HETATM   18  C   UNL     1     -11.781  11.790  67.526  1.00  0.00    -0.240 C  
BRANCH  18  19
HETATM   19  N   UNL     1     -11.441  12.792  66.449  1.00  0.00    -0.337 NA 
BRANCH  19  20
HETATM   20  C   UNL     1     -11.876  14.157  66.951  1.00  0.00    -0.431 C  
HETATM   21  O   UNL     1     -10.878  15.774  68.467  1.00  0.00    -0.262 OA 
HETATM   22  O   UNL     1      -9.524  14.650  67.042  1.00  0.00    -0.223 OA 
HETATM   23  C   UNL     1     -10.730  14.941  67.586  1.00  0.00    -0.270 C  
ENDBRANCH  19  20
BRANCH  19  24
HETATM   24  C   UNL     1     -12.291  12.482  65.237  1.00  0.00    -0.403 C  
HETATM   25  C   UNL     1     -11.810  13.193  63.976  1.00  0.00    -0.453 C  
HETATM   26  O   UNL     1     -12.541  13.516  63.053  1.00  0.00    -0.716 OA 
HETATM   27  O   UNL     1     -10.467  13.362  63.951  1.00  0.00    -0.253 OA 
ENDBRANCH  19  24
ENDBRANCH  18  19
ENDBRANCH  17  18
ENDBRANCH   5  17
ENDBRANCH   3   5
TORSDOF 11
ENDMDL
MODEL      261
REMARK 921   NORMALIZED FREE ENERGY PREDICTED BY IDOCK:   -3.96 KCAL/MOL
REMARK 922        TOTAL FREE ENERGY PREDICTED BY IDOCK:   -8.24 KCAL/MOL
REMARK 923 INTER-LIGAND FREE ENERGY PREDICTED BY IDOCK:   -8.08 KCAL/MOL
REMARK 924 INTRA-LIGAND FREE ENERGY PREDICTED BY IDOCK:   -0.16 KCAL/MOL
REMARK 927      BINDING AFFINITY PREDICTED BY RF-SCORE:    0.00 PKD
ROOT
HETATM    1  O   UNL     1     -10.440  18.927  66.397  1.00  0.00    -0.404 OA 
HETATM    2  C   UNL     1      -9.239  18.359  66.650  1.00  0.00    -0.304 C  
HETATM    3  C   UNL     1      -9.342  16.860  66.923  1.00  0.00    -0.241 C  
HETATM    4  O   UNL     1      -8.194  18.991  66.700  1.00  0.00    -0.269 OA 
ENDROOT
BRANCH   3   5
HETATM    5  N   UNL     1     -10.461  16.204  66.160  1.00  0.00    -0.325 NA 
BRANCH   5   6
HETATM    6  C   UNL     1      -9.918  15.012  65.425  1.00  0.00    -0.330 C  
BRANCH   6   7
HETATM    7  C   UNL     1     -10.746  13.706  65.618  1.00  0.00    -0.283 C  
BRANCH   7   8
HETATM    8  N   UNL     1     -10.253  12.487  64.886  1.00  0.00    -0.290 NA 
BRANCH   8   9
HETATM    9  C   UNL     1     -10.941  12.466  63.532  1.00  0.00    -0.450 C  
HETATM   10  O   UNL     1     -12.934  13.062  64.738  1.00  0.00    -0.735 OA 
HETATM   11  C   UNL     1     -12.464  12.414  63.647  1.00  0.00    -0.508 C  
HETATM   12  O   UNL     1     -13.191  11.869  62.831  1.00  0.00    -0.358 OA 
ENDBRANCH   8   9
BRANCH   8  13
HETATM   13  C   UNL     1     -10.729  11.268  65.640  1.00  0.00    -0.217 C  
HETATM   14  O   UNL     1      -8.413  10.663  65.770  1.00  0.00    -0.169 OA 
HETATM   15  O   UNL     1      -9.929   8.979  65.768  1.00  0.00    -0.241 OA 
HETATM   16  C   UNL     1      -9.673  10.171  65.712  1.00  0.00    -0.245 C  
ENDBRANCH   8  13
ENDBRANCH   7   8
ENDBRANCH   6   7
ENDBRANCH   5   6
BRANCH   5  17
HETATM   17  C   UNL     1     -11.492  15.726  67.135  1.00  0.00     0.080 C  
BRANCH  17  18
HETATM   18  C   UNL     1     -11.250  16.057  68.636  1.00  0.00    -0.366 C  
BRANCH  18  19
HETATM   19  N   UNL     1     -11.353  14.880  69.577  1.00  0.00    -0.266 NA 
BRANCH  19  20
HETATM   20  C   UNL     1     -10.920  15.363  70.950  1.00  0.00    -0.286 C  
HETATM   21  O   UNL     1     -12.018  16.664  72.684  1.00  0.00    -0.490 OA 
HETATM   22  O   UNL     1     -13.241  15.143  71.537  1.00  0.00    -0.360 OA 
HETATM   23  C   UNL     1     -12.097  15.814  71.810  1.00  0.00    -0.464 C  
ENDBRANCH  19  20
BRANCH  19  24
HETATM   24  C   UNL     1     -10.342  13.843  69.140  1.00  0.00    -0.008 C  
HETATM   25  C   UNL     1     -10.948  12.453  68.981  1.00  0.00    -0.197 C  
HETATM   26  O   UNL     1     -10.325  11.414  69.135  1.00  0.00    -0.186 OA 
HETATM   27  O   UNL     1     -12.239  12.487  68.575  1.00  0.00    -0.168 OA 
ENDBRANCH  19  24
ENDBRANCH  18  19
ENDBRANCH  17  18
ENDBRANCH   5  17
ENDBRANCH   3   5
TORSDOF 11
ENDMDL
MODEL      262
REMARK 921   NORMALIZED FREE ENERGY PREDICTED BY IDOCK:   -3.95 KCAL/MOL
REMARK 922        TOTAL FREE ENERGY PREDICTED BY IDOCK:   -8.24 KCAL/MOL
REMARK 923 INTER-LIGAND FREE ENERGY PREDICTED BY IDOCK:   -6.99 KCAL/MOL
REMARK 924 INTRA-LIGAND FREE ENERGY PREDICTED BY IDOCK:   -1.25 KCAL/MOL
REMARK 927      BINDING AFFINITY PREDICTED BY RF-SCORE:    0.00 PKD
ROOT
HETATM    1  O   UNL     1      -9.803  10.721  65.268  1.00  0.00    -0.235 OA 
HETATM    2  C   UNL     1     -10.792  11.485  65.791  1.00  0.00    -0.262 C  
HETATM    3  C   UNL     1     -10.625  11.717  67.290  1.00  0.00    -0.224 C  
HETATM    4  O   UNL     1     -11.736  11.900  65.136  1.00  0.00    -0.288 OA 
ENDROOT
BRANCH   3   5
HETATM    5  N   UNL     1      -9.183  11.765  67.717  1.00  0.00    -0.175 NA 
BRANCH   5   6
HETATM    6  C   UNL     1      -8.779  13.198  67.914  1.00  0.00    -0.192 C  
BRANCH   6   7
HETATM    7  C   UNL     1      -9.957  14.215  67.835  1.00  0.00    -0.231 C  
BRANCH   7   8
HETATM    8  N   UNL     1      -9.709  15.466  67.037  1.00  0.00    -0.221 NA 
BRANCH   8   9
HETATM    9  C   UNL     1      -9.325  16.559  68.019  1.00  0.00    -0.218 C  
HETATM   10  O   UNL     1      -7.382  16.869  66.637  1.00  0.00    -0.208 OA 
HETATM   11  C   UNL     1      -7.858  16.968  67.900  1.00  0.00    -0.184 C  
HETATM   12  O   UNL     1      -7.183  17.370  68.835  1.00  0.00    -0.242 OA 
ENDBRANCH   8   9
BRANCH   8  13
HETATM   13  C   UNL     1     -11.018  15.882  66.408  1.00  0.00    -0.115 C  
HETATM   14  O   UNL     1     -10.204  14.801  64.428  1.00  0.00    -0.025 OA 
HETATM   15  O   UNL     1     -11.642  16.531  64.152  1.00  0.00    -1.052 OA 
HETATM   16  C   UNL     1     -10.989  15.806  64.884  1.00  0.00    -0.427 C  
ENDBRANCH   8  13
ENDBRANCH   7   8
ENDBRANCH   6   7
ENDBRANCH   5   6
BRANCH   5  17
HETATM   17  C   UNL     1      -9.046  11.053  69.027  1.00  0.00    -0.063 C  
BRANCH  17  18
HETATM   18  C   UNL     1      -8.858   9.510  68.975  1.00  0.00    -0.143 C  
BRANCH  18  19
HETATM   19  N   UNL     1     -10.068   8.702  69.377  1.00  0.00    -0.198 NA 
BRANCH  19  20
HETATM   20  C   UNL     1     -10.683   8.150  68.103  1.00  0.00    -0.029 C  
HETATM   21  O   UNL     1     -10.996   5.899  67.241  1.00  0.00    -0.293 OA 
HETATM   22  O   UNL     1     -11.289   6.257  69.457  1.00  0.00    -0.409 OA 
HETATM   23  C   UNL     1     -10.987   6.656  68.199  1.00  0.00    -0.243 C  
ENDBRANCH  19  20
BRANCH  19  24
HETATM   24  C   UNL     1     -11.084   9.649  69.976  1.00  0.00    -0.255 C  
HETATM   25  C   UNL     1     -11.310   9.413  71.466  1.00  0.00    -0.394 C  
HETATM   26  O   UNL     1     -12.357   9.654  72.045  1.00  0.00    -0.361 OA 
HETATM   27  O   UNL     1     -10.197   8.975  72.101  1.00  0.00    -0.300 OA 
ENDBRANCH  19  24
ENDBRANCH  18  19
ENDBRANCH  17  18
ENDBRANCH   5  17
ENDBRANCH   3   5
TORSDOF 11
ENDMDL
MODEL      263
REMARK 921   NORMALIZED FREE ENERGY PREDICTED BY IDOCK:   -3.94 KCAL/MOL
REMARK 922        TOTAL FREE ENERGY PREDICTED BY IDOCK:   -8.22 KCAL/MOL
REMARK 923 INTER-LIGAND FREE ENERGY PREDICTED BY IDOCK:   -6.88 KCAL/MOL
REMARK 924 INTRA-LIGAND FREE ENERGY PREDICTED BY IDOCK:   -1.34 KCAL/MOL
REMARK 927      BINDING AFFINITY PREDICTED BY RF-SCORE:    0.00 PKD
ROOT
HETATM    1  O   UNL     1      -7.959  11.171  66.213  1.00  0.00    -0.164 OA 
HETATM    2  C   UNL     1      -8.935  10.836  65.337  1.00  0.00    -0.194 C  
HETATM    3  C   UNL     1     -10.293  10.658  66.011  1.00  0.00    -0.225 C  
HETATM    4  O   UNL     1      -8.734  10.652  64.145  1.00  0.00    -0.178 OA 
ENDROOT
BRANCH   3   5
HETATM    5  N   UNL     1     -10.477  11.559  67.202  1.00  0.00    -0.215 NA 
BRANCH   5   6
HETATM    6  C   UNL     1     -11.585  12.530  66.914  1.00  0.00    -0.370 C  
BRANCH   6   7
HETATM    7  C   UNL     1     -11.984  13.428  68.124  1.00  0.00    -0.321 C  
BRANCH   7   8
HETATM    8  N   UNL     1     -11.132  14.645  68.363  1.00  0.00    -0.248 NA 
BRANCH   8   9
HETATM    9  C   UNL     1     -12.024  15.705  68.984  1.00  0.00    -0.304 C  
HETATM   10  O   UNL     1     -11.479  14.675  71.087  1.00  0.00    -0.265 OA 
HETATM   11  C   UNL     1     -12.430  15.367  70.417  1.00  0.00    -0.404 C  
HETATM   12  O   UNL     1     -13.489  15.704  70.925  1.00  0.00    -0.569 OA 
ENDBRANCH   8   9
BRANCH   8  13
HETATM   13  C   UNL     1     -10.692  15.174  67.018  1.00  0.00    -0.307 C  
HETATM   14  O   UNL     1      -8.523  14.333  67.595  1.00  0.00    -0.157 OA 
HETATM   15  O   UNL     1      -8.609  16.124  66.209  1.00  0.00    -0.304 OA 
HETATM   16  C   UNL     1      -9.176  15.293  66.899  1.00  0.00    -0.234 C  
ENDBRANCH   8  13
ENDBRANCH   7   8
ENDBRANCH   6   7
ENDBRANCH   5   6
BRANCH   5  17
HETATM   17  C   UNL     1     -10.876  10.723  68.379  1.00  0.00    -0.232 C  
BRANCH  17  18
HETATM   18  C   UNL     1     -10.199   9.330  68.518  1.00  0.00    -0.201 C  
BRANCH  18  19
HETATM   19  N   UNL     1     -10.045   8.829  69.934  1.00  0.00    -0.186 NA 
BRANCH  19  20
HETATM   20  C   UNL     1      -8.685   8.162  70.030  1.00  0.00    -0.131 C  
HETATM   21  O   UNL     1      -6.646   8.699  71.240  1.00  0.00    -0.055 OA 
HETATM   22  O   UNL     1      -8.634   9.048  72.265  1.00  0.00    -0.362 OA 
HETATM   23  C   UNL     1      -7.867   8.669  71.216  1.00  0.00    -0.128 C  
ENDBRANCH  19  20
BRANCH  19  24
HETATM   24  C   UNL     1     -11.078   7.746  70.160  1.00  0.00    -0.209 C  
HETATM   25  C   UNL     1     -11.893   7.959  71.432  1.00  0.00    -0.299 C  
HETATM   26  O   UNL     1     -12.390   7.054  72.084  1.00  0.00    -0.275 OA 
HETATM   27  O   UNL     1     -12.074   9.268  71.725  1.00  0.00    -0.346 OA 
ENDBRANCH  19  24
ENDBRANCH  18  19
ENDBRANCH  17  18
ENDBRANCH   5  17
ENDBRANCH   3   5
TORSDOF 11
ENDMDL
MODEL      264
REMARK 921   NORMALIZED FREE ENERGY PREDICTED BY IDOCK:   -3.94 KCAL/MOL
REMARK 922        TOTAL FREE ENERGY PREDICTED BY IDOCK:   -8.22 KCAL/MOL
REMARK 923 INTER-LIGAND FREE ENERGY PREDICTED BY IDOCK:   -6.45 KCAL/MOL
REMARK 924 INTRA-LIGAND FREE ENERGY PREDICTED BY IDOCK:   -1.77 KCAL/MOL
REMARK 927      BINDING AFFINITY PREDICTED BY RF-SCORE:    0.00 PKD
ROOT
HETATM    1  O   UNL     1      -6.086   8.650  68.602  1.00  0.00    -0.044 OA 
HETATM    2  C   UNL     1      -5.911   9.611  69.539  1.00  0.00    -0.033 C  
HETATM    3  C   UNL     1      -6.635  10.910  69.192  1.00  0.00    -0.069 C  
HETATM    4  O   UNL     1      -5.210   9.464  70.530  1.00  0.00    -0.029 OA 
ENDROOT
BRANCH   3   5
HETATM    5  N   UNL     1      -7.906  10.681  68.420  1.00  0.00    -0.107 NA 
BRANCH   5   6
HETATM    6  C   UNL     1      -9.028  10.434  69.388  1.00  0.00    -0.151 C  
BRANCH   6   7
HETATM    7  C   UNL     1      -9.823   9.119  69.129  1.00  0.00    -0.171 C  
BRANCH   7   8
HETATM    8  N   UNL     1     -10.163   8.294  70.341  1.00  0.00    -0.198 NA 
BRANCH   8   9
HETATM    9  C   UNL     1     -10.641   9.251  71.419  1.00  0.00    -0.347 C  
HETATM   10  O   UNL     1     -12.549   7.800  71.609  1.00  0.00    -0.314 OA 
HETATM   11  C   UNL     1     -12.123   9.077  71.745  1.00  0.00    -0.368 C  
HETATM   12  O   UNL     1     -12.851   9.984  72.117  1.00  0.00    -0.389 OA 
ENDBRANCH   8   9
BRANCH   8  13
HETATM   13  C   UNL     1      -8.887   7.665  70.847  1.00  0.00    -0.146 C  
HETATM   14  O   UNL     1     -10.078   5.587  70.740  1.00  0.00    -0.189 OA 
HETATM   15  O   UNL     1      -8.432   5.763  72.288  1.00  0.00    -0.121 OA 
HETATM   16  C   UNL     1      -9.101   6.257  71.395  1.00  0.00    -0.142 C  
ENDBRANCH   8  13
ENDBRANCH   7   8
ENDBRANCH   6   7
ENDBRANCH   5   6
BRANCH   5  17
HETATM   17  C   UNL     1      -8.223  11.918  67.638  1.00  0.00    -0.148 C  
BRANCH  17  18
HETATM   18  C   UNL     1      -9.059  11.737  66.340  1.00  0.00    -0.213 C  
BRANCH  18  19
HETATM   19  N   UNL     1     -10.316  12.572  66.263  1.00  0.00    -0.246 NA 
BRANCH  19  20
HETATM   20  C   UNL     1     -11.443  11.744  66.853  1.00  0.00    -0.293 C  
HETATM   21  O   UNL     1     -12.351  11.519  69.096  1.00  0.00    -0.309 OA 
HETATM   22  O   UNL     1     -11.711  13.573  68.391  1.00  0.00    -0.315 OA 
HETATM   23  C   UNL     1     -11.873  12.238  68.232  1.00  0.00    -0.310 C  
ENDBRANCH  19  20
BRANCH  19  24
HETATM   24  C   UNL     1     -10.647  12.783  64.802  1.00  0.00    -0.327 C  
HETATM   25  C   UNL     1     -11.613  13.941  64.574  1.00  0.00    -0.393 C  
HETATM   26  O   UNL     1     -12.395  14.004  63.638  1.00  0.00    -0.728 OA 
HETATM   27  O   UNL     1     -11.462  14.936  65.480  1.00  0.00    -0.347 OA 
ENDBRANCH  19  24
ENDBRANCH  18  19
ENDBRANCH  17  18
ENDBRANCH   5  17
ENDBRANCH   3   5
TORSDOF 11
ENDMDL
MODEL      265
REMARK 921   NORMALIZED FREE ENERGY PREDICTED BY IDOCK:   -3.92 KCAL/MOL
REMARK 922        TOTAL FREE ENERGY PREDICTED BY IDOCK:   -8.18 KCAL/MOL
REMARK 923 INTER-LIGAND FREE ENERGY PREDICTED BY IDOCK:   -7.32 KCAL/MOL
REMARK 924 INTRA-LIGAND FREE ENERGY PREDICTED BY IDOCK:   -0.86 KCAL/MOL
REMARK 927      BINDING AFFINITY PREDICTED BY RF-SCORE:    0.00 PKD
ROOT
HETATM    1  O   UNL     1      -5.159  15.354  68.107  1.00  0.00    -0.106 OA 
HETATM    2  C   UNL     1      -5.795  14.175  67.917  1.00  0.00    -0.126 C  
HETATM    3  C   UNL     1      -7.257  14.217  68.353  1.00  0.00    -0.113 C  
HETATM    4  O   UNL     1      -5.240  13.175  67.485  1.00  0.00    -0.268 OA 
ENDROOT
BRANCH   3   5
HETATM    5  N   UNL     1      -7.883  15.573  68.166  1.00  0.00    -0.125 NA 
BRANCH   5   6
HETATM    6  C   UNL     1      -7.691  16.007  66.742  1.00  0.00    -0.235 C  
BRANCH   6   7
HETATM    7  C   UNL     1      -8.566  17.225  66.317  1.00  0.00    -0.229 C  
BRANCH   7   8
HETATM    8  N   UNL     1      -8.114  18.575  66.804  1.00  0.00    -0.246 NA 
BRANCH   8   9
HETATM    9  C   UNL     1      -9.219  19.565  66.478  1.00  0.00    -0.365 C  
HETATM   10  O   UNL     1      -9.829  19.370  68.796  1.00  0.00    -0.413 OA 
HETATM   11  C   UNL     1     -10.305  19.609  67.552  1.00  0.00    -0.448 C  
HETATM   12  O   UNL     1     -11.479  19.857  67.325  1.00  0.00     0.108 OA 
ENDBRANCH   8   9
BRANCH   8  13
HETATM   13  C   UNL     1      -6.908  18.981  65.990  1.00  0.00    -0.248 C  
HETATM   14  O   UNL     1      -6.238  20.220  67.930  1.00  0.00    -0.218 OA 
HETATM   15  O   UNL     1      -5.561  21.001  65.914  1.00  0.00    -0.209 OA 
HETATM   16  C   UNL     1      -6.179  20.185  66.578  1.00  0.00    -0.177 C  
ENDBRANCH   8  13
ENDBRANCH   7   8
ENDBRANCH   6   7
ENDBRANCH   5   6
BRANCH   5  17
HETATM   17  C   UNL     1      -9.353  15.464  68.431  1.00  0.00    -0.193 C  
BRANCH  17  18
HETATM   18  C   UNL     1      -9.998  14.058  68.264  1.00  0.00    -0.236 C  
BRANCH  18  19
HETATM   19  N   UNL     1     -11.508  14.040  68.265  1.00  0.00    -0.285 NA 
BRANCH  19  20
HETATM   20  C   UNL     1     -11.949  13.410  69.574  1.00  0.00    -0.319 C  
HETATM   21  O   UNL     1     -12.187  14.261  71.838  1.00  0.00    -0.299 OA 
HETATM   22  O   UNL     1     -12.783  15.600  70.113  1.00  0.00    -0.335 OA 
HETATM   23  C   UNL     1     -12.297  14.450  70.636  1.00  0.00    -0.351 C  
ENDBRANCH  19  20
BRANCH  19  24
HETATM   24  C   UNL     1     -11.965  13.114  67.159  1.00  0.00    -0.341 C  
HETATM   25  C   UNL     1     -12.320  13.853  65.874  1.00  0.00    -0.483 C  
HETATM   26  O   UNL     1     -13.142  13.456  65.063  1.00  0.00    -0.734 OA 
HETATM   27  O   UNL     1     -11.573  14.966  65.685  1.00  0.00    -0.329 OA 
ENDBRANCH  19  24
ENDBRANCH  18  19
ENDBRANCH  17  18
ENDBRANCH   5  17
ENDBRANCH   3   5
TORSDOF 11
ENDMDL
MODEL      266
REMARK 921   NORMALIZED FREE ENERGY PREDICTED BY IDOCK:   -3.91 KCAL/MOL
REMARK 922        TOTAL FREE ENERGY PREDICTED BY IDOCK:   -8.17 KCAL/MOL
REMARK 923 INTER-LIGAND FREE ENERGY PREDICTED BY IDOCK:   -6.63 KCAL/MOL
REMARK 924 INTRA-LIGAND FREE ENERGY PREDICTED BY IDOCK:   -1.54 KCAL/MOL
REMARK 927      BINDING AFFINITY PREDICTED BY RF-SCORE:    0.00 PKD
ROOT
HETATM    1  O   UNL     1      -7.762   7.498  65.807  1.00  0.00    -0.089 OA 
HETATM    2  C   UNL     1      -6.839   8.099  66.592  1.00  0.00    -0.068 C  
HETATM    3  C   UNL     1      -7.234   9.522  66.981  1.00  0.00    -0.087 C  
HETATM    4  O   UNL     1      -5.784   7.571  66.914  1.00  0.00    -0.026 OA 
ENDROOT
BRANCH   3   5
HETATM    5  N   UNL     1      -8.722   9.700  67.110  1.00  0.00    -0.131 NA 
BRANCH   5   6
HETATM    6  C   UNL     1      -9.047  10.078  68.526  1.00  0.00    -0.127 C  
BRANCH   6   7
HETATM    7  C   UNL     1     -10.430   9.564  69.029  1.00  0.00    -0.213 C  
BRANCH   7   8
HETATM    8  N   UNL     1     -10.407   8.380  69.957  1.00  0.00    -0.206 NA 
BRANCH   8   9
HETATM    9  C   UNL     1     -10.991   8.834  71.283  1.00  0.00    -0.275 C  
HETATM   10  O   UNL     1     -12.421   6.909  71.107  1.00  0.00    -0.378 OA 
HETATM   11  C   UNL     1     -12.330   8.168  71.595  1.00  0.00    -0.314 C  
HETATM   12  O   UNL     1     -13.222   8.697  72.240  1.00  0.00    -0.365 OA 
ENDBRANCH   8   9
BRANCH   8  13
HETATM   13  C   UNL     1      -8.962   8.021  70.214  1.00  0.00    -0.147 C  
HETATM   14  O   UNL     1      -9.311   6.241  68.646  1.00  0.00    -0.124 OA 
HETATM   15  O   UNL     1      -7.761   5.911  70.265  1.00  0.00    -0.091 OA 
HETATM   16  C   UNL     1      -8.613   6.612  69.745  1.00  0.00    -0.136 C  
ENDBRANCH   8  13
ENDBRANCH   7   8
ENDBRANCH   6   7
ENDBRANCH   5   6
BRANCH   5  17
HETATM   17  C   UNL     1      -9.152  10.819  66.213  1.00  0.00    -0.175 C  
BRANCH  17  18
HETATM   18  C   UNL     1      -9.383  12.206  66.876  1.00  0.00    -0.203 C  
BRANCH  18  19
HETATM   19  N   UNL     1     -10.629  12.934  66.428  1.00  0.00    -0.269 NA 
BRANCH  19  20
HETATM   20  C   UNL     1     -11.705  12.665  67.465  1.00  0.00    -0.368 C  
HETATM   21  O   UNL     1     -12.307  13.739  69.560  1.00  0.00    -0.316 OA 
HETATM   22  O   UNL     1     -11.667  15.043  67.824  1.00  0.00    -0.339 OA 
HETATM   23  C   UNL     1     -11.916  13.847  68.408  1.00  0.00    -0.356 C  
ENDBRANCH  19  20
BRANCH  19  24
HETATM   24  C   UNL     1     -11.099  12.300  65.137  1.00  0.00    -0.317 C  
HETATM   25  C   UNL     1     -12.028  13.206  64.334  1.00  0.00    -0.397 C  
HETATM   26  O   UNL     1     -12.898  12.798  63.582  1.00  0.00    -0.701 OA 
HETATM   27  O   UNL     1     -11.737  14.520  64.486  1.00  0.00    -0.411 OA 
ENDBRANCH  19  24
ENDBRANCH  18  19
ENDBRANCH  17  18
ENDBRANCH   5  17
ENDBRANCH   3   5
TORSDOF 11
ENDMDL
MODEL      267
REMARK 921   NORMALIZED FREE ENERGY PREDICTED BY IDOCK:   -3.88 KCAL/MOL
REMARK 922        TOTAL FREE ENERGY PREDICTED BY IDOCK:   -8.11 KCAL/MOL
REMARK 923 INTER-LIGAND FREE ENERGY PREDICTED BY IDOCK:   -6.84 KCAL/MOL
REMARK 924 INTRA-LIGAND FREE ENERGY PREDICTED BY IDOCK:   -1.28 KCAL/MOL
REMARK 927      BINDING AFFINITY PREDICTED BY RF-SCORE:    0.00 PKD
ROOT
HETATM    1  O   UNL     1      -8.313   9.705  65.110  1.00  0.00    -0.124 OA 
HETATM    2  C   UNL     1      -9.501  10.321  64.912  1.00  0.00    -0.279 C  
HETATM    3  C   UNL     1     -10.229  10.629  66.218  1.00  0.00    -0.245 C  
HETATM    4  O   UNL     1      -9.958  10.561  63.803  1.00  0.00    -0.323 OA 
ENDROOT
BRANCH   3   5
HETATM    5  N   UNL     1      -9.288  10.917  67.356  1.00  0.00    -0.154 NA 
BRANCH   5   6
HETATM    6  C   UNL     1      -9.147  12.404  67.509  1.00  0.00    -0.185 C  
BRANCH   6   7
HETATM    7  C   UNL     1     -10.017  13.020  68.646  1.00  0.00    -0.107 C  
BRANCH   7   8
HETATM    8  N   UNL     1     -11.090  13.985  68.220  1.00  0.00    -0.245 NA 
BRANCH   8   9
HETATM    9  C   UNL     1     -11.776  14.482  69.480  1.00  0.00    -0.314 C  
HETATM   10  O   UNL     1     -11.183  16.684  68.718  1.00  0.00    -0.308 OA 
HETATM   11  C   UNL     1     -11.414  15.928  69.816  1.00  0.00    -0.342 C  
HETATM   12  O   UNL     1     -11.361  16.372  70.952  1.00  0.00    -0.373 OA 
ENDBRANCH   8   9
BRANCH   8  13
HETATM   13  C   UNL     1     -12.123  13.212  67.434  1.00  0.00    -0.263 C  
HETATM   14  O   UNL     1     -11.323  14.428  65.529  1.00  0.00    -0.319 OA 
HETATM   15  O   UNL     1     -13.488  13.760  65.501  1.00  0.00    -0.591 OA 
HETATM   16  C   UNL     1     -12.412  13.834  66.071  1.00  0.00    -0.445 C  
ENDBRANCH   8  13
ENDBRANCH   7   8
ENDBRANCH   6   7
ENDBRANCH   5   6
BRANCH   5  17
HETATM   17  C   UNL     1      -9.879  10.368  68.618  1.00  0.00    -0.177 C  
BRANCH  17  18
HETATM   18  C   UNL     1      -9.035   9.318  69.394  1.00  0.00    -0.147 C  
BRANCH  18  19
HETATM   19  N   UNL     1      -9.675   7.958  69.539  1.00  0.00    -0.171 NA 
BRANCH  19  20
HETATM   20  C   UNL     1      -9.410   7.484  70.956  1.00  0.00    -0.156 C  
HETATM   21  O   UNL     1     -10.721   7.526  73.002  1.00  0.00    -0.317 OA 
HETATM   22  O   UNL     1     -11.780   7.085  71.050  1.00  0.00    -0.298 OA 
HETATM   23  C   UNL     1     -10.686   7.386  71.789  1.00  0.00    -0.214 C  
ENDBRANCH  19  20
BRANCH  19  24
HETATM   24  C   UNL     1      -8.952   7.001  68.616  1.00  0.00    -0.130 C  
HETATM   25  C   UNL     1      -9.817   6.530  67.452  1.00  0.00    -0.133 C  
HETATM   26  O   UNL     1      -9.686   5.452  66.896  1.00  0.00    -0.131 OA 
HETATM   27  O   UNL     1     -10.703   7.469  67.045  1.00  0.00    -0.346 OA 
ENDBRANCH  19  24
ENDBRANCH  18  19
ENDBRANCH  17  18
ENDBRANCH   5  17
ENDBRANCH   3   5
TORSDOF 11
ENDMDL
MODEL      268
REMARK 921   NORMALIZED FREE ENERGY PREDICTED BY IDOCK:   -3.88 KCAL/MOL
REMARK 922        TOTAL FREE ENERGY PREDICTED BY IDOCK:   -8.11 KCAL/MOL
REMARK 923 INTER-LIGAND FREE ENERGY PREDICTED BY IDOCK:   -7.80 KCAL/MOL
REMARK 924 INTRA-LIGAND FREE ENERGY PREDICTED BY IDOCK:   -0.31 KCAL/MOL
REMARK 927      BINDING AFFINITY PREDICTED BY RF-SCORE:    0.00 PKD
ROOT
HETATM    1  O   UNL     1      -9.649   9.634  71.055  1.00  0.00    -0.173 OA 
HETATM    2  C   UNL     1     -10.918   9.338  71.419  1.00  0.00    -0.359 C  
HETATM    3  C   UNL     1     -11.958  10.031  70.541  1.00  0.00    -0.272 C  
HETATM    4  O   UNL     1     -11.195   8.630  72.376  1.00  0.00    -0.357 OA 
ENDROOT
BRANCH   3   5
HETATM    5  N   UNL     1     -11.490  10.223  69.124  1.00  0.00    -0.190 NA 
BRANCH   5   6
HETATM    6  C   UNL     1     -10.943  11.613  68.974  1.00  0.00    -0.233 C  
BRANCH   6   7
HETATM    7  C   UNL     1     -11.785  12.540  68.046  1.00  0.00    -0.355 C  
BRANCH   7   8
HETATM    8  N   UNL     1     -11.496  12.452  66.572  1.00  0.00    -0.350 NA 
BRANCH   8   9
HETATM    9  C   UNL     1      -9.987  12.430  66.409  1.00  0.00    -0.242 C  
HETATM   10  O   UNL     1     -10.362  10.640  64.849  1.00  0.00    -0.321 OA 
HETATM   11  C   UNL     1      -9.484  11.149  65.745  1.00  0.00    -0.221 C  
HETATM   12  O   UNL     1      -8.397  10.644  65.972  1.00  0.00    -0.150 OA 
ENDBRANCH   8   9
BRANCH   8  13
HETATM   13  C   UNL     1     -11.989  13.725  65.926  1.00  0.00    -0.406 C  
HETATM   14  O   UNL     1     -13.135  12.290  64.386  1.00  0.00    -0.780 OA 
HETATM   15  O   UNL     1     -12.503  14.330  63.631  1.00  0.00    -0.816 OA 
HETATM   16  C   UNL     1     -12.540  13.498  64.522  1.00  0.00    -0.206 C  
ENDBRANCH   8  13
ENDBRANCH   7   8
ENDBRANCH   6   7
ENDBRANCH   5   6
BRANCH   5  17
HETATM   17  C   UNL     1     -10.387   9.249  68.846  1.00  0.00    -0.214 C  
BRANCH  17  18
HETATM   18  C   UNL     1     -10.628   8.215  67.711  1.00  0.00    -0.165 C  
BRANCH  18  19
HETATM   19  N   UNL     1     -10.328   6.780  68.075  1.00  0.00    -0.174 NA 
BRANCH  19  20
HETATM   20  C   UNL     1     -10.902   5.907  66.973  1.00  0.00    -0.295 C  
HETATM   21  O   UNL     1      -9.926   4.273  65.460  1.00  0.00    -0.200 OA 
HETATM   22  O   UNL     1      -9.188   4.341  67.599  1.00  0.00    -0.129 OA 
HETATM   23  C   UNL     1      -9.961   4.773  66.575  1.00  0.00    -0.239 C  
ENDBRANCH  19  20
BRANCH  19  24
HETATM   24  C   UNL     1     -11.095   6.449  69.337  1.00  0.00    -0.387 C  
HETATM   25  C   UNL     1     -10.204   5.900  70.446  1.00  0.00    -0.213 C  
HETATM   26  O   UNL     1     -10.587   5.127  71.310  1.00  0.00    -0.208 OA 
HETATM   27  O   UNL     1      -8.954   6.419  70.419  1.00  0.00    -0.152 OA 
ENDBRANCH  19  24
ENDBRANCH  18  19
ENDBRANCH  17  18
ENDBRANCH   5  17
ENDBRANCH   3   5
TORSDOF 11
ENDMDL
MODEL      269
REMARK 921   NORMALIZED FREE ENERGY PREDICTED BY IDOCK:   -3.87 KCAL/MOL
REMARK 922        TOTAL FREE ENERGY PREDICTED BY IDOCK:   -8.11 KCAL/MOL
REMARK 923 INTER-LIGAND FREE ENERGY PREDICTED BY IDOCK:   -6.50 KCAL/MOL
REMARK 924 INTRA-LIGAND FREE ENERGY PREDICTED BY IDOCK:   -1.60 KCAL/MOL
REMARK 927      BINDING AFFINITY PREDICTED BY RF-SCORE:    0.00 PKD
ROOT
HETATM    1  O   UNL     1      -9.908   9.177  65.572  1.00  0.00    -0.220 OA 
HETATM    2  C   UNL     1      -8.852   9.966  65.879  1.00  0.00    -0.148 C  
HETATM    3  C   UNL     1      -9.274  11.311  66.465  1.00  0.00    -0.188 C  
HETATM    4  O   UNL     1      -7.691   9.648  65.665  1.00  0.00    -0.102 OA 
ENDROOT
BRANCH   3   5
HETATM    5  N   UNL     1     -10.547  11.227  67.262  1.00  0.00    -0.221 NA 
BRANCH   5   6
HETATM    6  C   UNL     1     -10.204  11.114  68.720  1.00  0.00    -0.206 C  
BRANCH   6   7
HETATM    7  C   UNL     1     -11.284  10.391  69.580  1.00  0.00    -0.277 C  
BRANCH   7   8
HETATM    8  N   UNL     1     -11.044   8.934  69.870  1.00  0.00    -0.190 NA 
BRANCH   8   9
HETATM    9  C   UNL     1     -10.888   8.793  71.374  1.00  0.00    -0.289 C  
HETATM   10  O   UNL     1     -12.287   6.849  71.155  1.00  0.00    -0.369 OA 
HETATM   11  C   UNL     1     -11.924   7.853  71.987  1.00  0.00    -0.319 C  
HETATM   12  O   UNL     1     -12.367   7.971  73.119  1.00  0.00    -0.016 OA 
ENDBRANCH   8   9
BRANCH   8  13
HETATM   13  C   UNL     1      -9.719   8.551  69.253  1.00  0.00    -0.173 C  
HETATM   14  O   UNL     1     -10.945   6.826  68.126  1.00  0.00    -0.238 OA 
HETATM   15  O   UNL     1      -8.759   6.427  68.571  1.00  0.00    -0.121 OA 
HETATM   16  C   UNL     1      -9.737   7.154  68.642  1.00  0.00    -0.141 C  
ENDBRANCH   8  13
ENDBRANCH   7   8
ENDBRANCH   6   7
ENDBRANCH   5   6
BRANCH   5  17
HETATM   17  C   UNL     1     -11.325  12.491  67.059  1.00  0.00    -0.328 C  
BRANCH  17  18
HETATM   18  C   UNL     1     -10.539  13.828  67.163  1.00  0.00    -0.277 C  
BRANCH  18  19
HETATM   19  N   UNL     1     -10.807  14.635  68.412  1.00  0.00    -0.239 NA 
BRANCH  19  20
HETATM   20  C   UNL     1     -12.139  14.169  68.971  1.00  0.00    -0.313 C  
HETATM   21  O   UNL     1     -12.800  13.149  71.075  1.00  0.00    -0.296 OA 
HETATM   22  O   UNL     1     -11.221  14.771  71.111  1.00  0.00    -0.208 OA 
HETATM   23  C   UNL     1     -12.096  13.951  70.481  1.00  0.00    -0.356 C  
ENDBRANCH  19  20
BRANCH  19  24
HETATM   24  C   UNL     1     -10.986  16.081  68.003  1.00  0.00    -0.341 C  
HETATM   25  C   UNL     1     -10.020  17.023  68.713  1.00  0.00    -0.293 C  
HETATM   26  O   UNL     1     -10.261  18.195  68.954  1.00  0.00    -0.379 OA 
HETATM   27  O   UNL     1      -8.827  16.442  68.984  1.00  0.00    -0.253 OA 
ENDBRANCH  19  24
ENDBRANCH  18  19
ENDBRANCH  17  18
ENDBRANCH   5  17
ENDBRANCH   3   5
TORSDOF 11
ENDMDL
MODEL      270
REMARK 921   NORMALIZED FREE ENERGY PREDICTED BY IDOCK:   -3.87 KCAL/MOL
REMARK 922        TOTAL FREE ENERGY PREDICTED BY IDOCK:   -8.10 KCAL/MOL
REMARK 923 INTER-LIGAND FREE ENERGY PREDICTED BY IDOCK:   -7.20 KCAL/MOL
REMARK 924 INTRA-LIGAND FREE ENERGY PREDICTED BY IDOCK:   -0.90 KCAL/MOL
REMARK 927      BINDING AFFINITY PREDICTED BY RF-SCORE:    0.00 PKD
ROOT
HETATM    1  O   UNL     1     -11.307  15.573  64.573  1.00  0.00    -0.399 OA 
HETATM    2  C   UNL     1     -11.653  14.269  64.681  1.00  0.00    -0.408 C  
HETATM    3  C   UNL     1     -10.886  13.546  65.785  1.00  0.00    -0.275 C  
HETATM    4  O   UNL     1     -12.460  13.725  63.941  1.00  0.00    -0.695 OA 
ENDROOT
BRANCH   3   5
HETATM    5  N   UNL     1     -10.543  14.445  66.942  1.00  0.00    -0.276 NA 
BRANCH   5   6
HETATM    6  C   UNL     1     -11.094  13.848  68.205  1.00  0.00    -0.256 C  
BRANCH   6   7
HETATM    7  C   UNL     1     -11.606  12.384  68.053  1.00  0.00    -0.347 C  
BRANCH   7   8
HETATM    8  N   UNL     1     -11.087  11.386  69.053  1.00  0.00    -0.225 NA 
BRANCH   8   9
HETATM    9  C   UNL     1     -10.248  10.377  68.289  1.00  0.00    -0.160 C  
HETATM   10  O   UNL     1      -9.282   9.835  70.423  1.00  0.00    -0.237 OA 
HETATM   11  C   UNL     1      -9.046   9.883  69.091  1.00  0.00    -0.173 C  
HETATM   12  O   UNL     1      -7.985   9.541  68.591  1.00  0.00    -0.090 OA 
ENDBRANCH   8   9
BRANCH   8  13
HETATM   13  C   UNL     1     -12.270  10.636  69.618  1.00  0.00    -0.206 C  
HETATM   14  O   UNL     1     -12.445  12.446  71.180  1.00  0.00    -0.343 OA 
HETATM   15  O   UNL     1     -13.176  10.411  71.860  1.00  0.00    -0.439 OA 
HETATM   16  C   UNL     1     -12.665  11.121  71.009  1.00  0.00    -0.378 C  
ENDBRANCH   8  13
ENDBRANCH   7   8
ENDBRANCH   6   7
ENDBRANCH   5   6
BRANCH   5  17
HETATM   17  C   UNL     1      -9.052  14.519  67.067  1.00  0.00    -0.239 C  
BRANCH  17  18
HETATM   18  C   UNL     1      -8.485  15.312  68.279  1.00  0.00    -0.154 C  
BRANCH  18  19
HETATM   19  N   UNL     1      -7.708  16.557  67.925  1.00  0.00    -0.150 NA 
BRANCH  19  20
HETATM   20  C   UNL     1      -7.467  17.319  69.216  1.00  0.00    -0.039 C  
HETATM   21  O   UNL     1      -5.508  17.654  70.614  1.00  0.00    -0.256 OA 
HETATM   22  O   UNL     1      -5.242  17.652  68.366  1.00  0.00    -0.147 OA 
HETATM   23  C   UNL     1      -5.983  17.544  69.494  1.00  0.00    -0.246 C  
ENDBRANCH  19  20
BRANCH  19  24
HETATM   24  C   UNL     1      -8.593  17.430  67.062  1.00  0.00    -0.233 C  
HETATM   25  C   UNL     1      -7.803  18.307  66.096  1.00  0.00    -0.204 C  
HETATM   26  O   UNL     1      -8.188  19.390  65.686  1.00  0.00    -0.397 OA 
HETATM   27  O   UNL     1      -6.656  17.722  65.677  1.00  0.00    -0.225 OA 
ENDBRANCH  19  24
ENDBRANCH  18  19
ENDBRANCH  17  18
ENDBRANCH   5  17
ENDBRANCH   3   5
TORSDOF 11
ENDMDL
MODEL      271
REMARK 921   NORMALIZED FREE ENERGY PREDICTED BY IDOCK:   -3.86 KCAL/MOL
REMARK 922        TOTAL FREE ENERGY PREDICTED BY IDOCK:   -8.09 KCAL/MOL
REMARK 923 INTER-LIGAND FREE ENERGY PREDICTED BY IDOCK:   -6.66 KCAL/MOL
REMARK 924 INTRA-LIGAND FREE ENERGY PREDICTED BY IDOCK:   -1.43 KCAL/MOL
REMARK 927      BINDING AFFINITY PREDICTED BY RF-SCORE:    0.00 PKD
ROOT
HETATM    1  O   UNL     1      -7.845   6.814  64.836  1.00  0.00    -0.106 OA 
HETATM    2  C   UNL     1      -7.332   7.442  65.920  1.00  0.00    -0.075 C  
HETATM    3  C   UNL     1      -8.041   8.758  66.229  1.00  0.00    -0.107 C  
HETATM    4  O   UNL     1      -6.374   7.018  66.551  1.00  0.00    -0.046 OA 
ENDROOT
BRANCH   3   5
HETATM    5  N   UNL     1      -9.499   8.737  65.855  1.00  0.00    -0.231 NA 
BRANCH   5   6
HETATM    6  C   UNL     1     -10.324   8.732  67.109  1.00  0.00    -0.293 C  
BRANCH   6   7
HETATM    7  C   UNL     1     -10.102   7.488  68.022  1.00  0.00    -0.183 C  
BRANCH   7   8
HETATM    8  N   UNL     1      -9.735   7.766  69.454  1.00  0.00    -0.167 NA 
BRANCH   8   9
HETATM    9  C   UNL     1      -8.298   7.315  69.648  1.00  0.00    -0.132 C  
HETATM   10  O   UNL     1      -8.093   9.204  71.121  1.00  0.00    -0.242 OA 
HETATM   11  C   UNL     1      -7.419   8.400  70.267  1.00  0.00    -0.063 C  
HETATM   12  O   UNL     1      -6.225   8.523  70.041  1.00  0.00    -0.034 OA 
ENDBRANCH   8   9
BRANCH   8  13
HETATM   13  C   UNL     1     -10.593   6.886  70.332  1.00  0.00    -0.219 C  
HETATM   14  O   UNL     1     -11.899   8.857  70.727  1.00  0.00    -0.273 OA 
HETATM   15  O   UNL     1     -11.851   7.295  72.368  1.00  0.00    -0.272 OA 
HETATM   16  C   UNL     1     -11.491   7.686  71.270  1.00  0.00    -0.269 C  
ENDBRANCH   8  13
ENDBRANCH   7   8
ENDBRANCH   6   7
ENDBRANCH   5   6
BRANCH   5  17
HETATM   17  C   UNL     1      -9.816   9.983  65.087  1.00  0.00    -0.318 C  
BRANCH  17  18
HETATM   18  C   UNL     1      -9.432  11.337  65.750  1.00  0.00    -0.227 C  
BRANCH  18  19
HETATM   19  N   UNL     1     -10.463  12.432  65.617  1.00  0.00    -0.255 NA 
BRANCH  19  20
HETATM   20  C   UNL     1     -11.705  11.973  66.358  1.00  0.00    -0.252 C  
HETATM   21  O   UNL     1     -12.242  11.716  68.715  1.00  0.00    -0.416 OA 
HETATM   22  O   UNL     1     -10.994  13.494  68.080  1.00  0.00    -0.239 OA 
HETATM   23  C   UNL     1     -11.678  12.351  67.837  1.00  0.00    -0.360 C  
ENDBRANCH  19  20
BRANCH  19  24
HETATM   24  C   UNL     1     -10.842  12.542  64.156  1.00  0.00    -0.382 C  
HETATM   25  C   UNL     1     -11.813  13.684  63.878  1.00  0.00    -0.374 C  
HETATM   26  O   UNL     1     -12.625  13.684  62.966  1.00  0.00    -0.729 OA 
HETATM   27  O   UNL     1     -11.632  14.739  64.707  1.00  0.00    -0.392 OA 
ENDBRANCH  19  24
ENDBRANCH  18  19
ENDBRANCH  17  18
ENDBRANCH   5  17
ENDBRANCH   3   5
TORSDOF 11
ENDMDL
MODEL      272
REMARK 921   NORMALIZED FREE ENERGY PREDICTED BY IDOCK:   -3.86 KCAL/MOL
REMARK 922        TOTAL FREE ENERGY PREDICTED BY IDOCK:   -8.09 KCAL/MOL
REMARK 923 INTER-LIGAND FREE ENERGY PREDICTED BY IDOCK:   -6.62 KCAL/MOL
REMARK 924 INTRA-LIGAND FREE ENERGY PREDICTED BY IDOCK:   -1.47 KCAL/MOL
REMARK 927      BINDING AFFINITY PREDICTED BY RF-SCORE:    0.00 PKD
ROOT
HETATM    1  O   UNL     1     -10.000   9.633  70.772  1.00  0.00    -0.270 OA 
HETATM    2  C   UNL     1     -10.546   8.786  69.868  1.00  0.00    -0.224 C  
HETATM    3  C   UNL     1     -10.729   9.430  68.496  1.00  0.00    -0.161 C  
HETATM    4  O   UNL     1     -10.894   7.647  70.140  1.00  0.00    -0.244 OA 
ENDROOT
BRANCH   3   5
HETATM    5  N   UNL     1      -9.672  10.456  68.187  1.00  0.00    -0.149 NA 
BRANCH   5   6
HETATM    6  C   UNL     1      -8.906  10.018  66.972  1.00  0.00    -0.138 C  
BRANCH   6   7
HETATM    7  C   UNL     1      -9.504   8.775  66.248  1.00  0.00    -0.234 C  
BRANCH   7   8
HETATM    8  N   UNL     1      -8.770   7.475  66.435  1.00  0.00    -0.138 NA 
BRANCH   8   9
HETATM    9  C   UNL     1      -8.186   7.089  65.087  1.00  0.00    -0.113 C  
HETATM   10  O   UNL     1      -6.088   7.853  65.979  1.00  0.00    -0.038 OA 
HETATM   11  C   UNL     1      -6.809   7.705  64.843  1.00  0.00    -0.051 C  
HETATM   12  O   UNL     1      -6.384   8.012  63.741  1.00  0.00    -0.065 OA 
ENDBRANCH   8   9
BRANCH   8  13
HETATM   13  C   UNL     1      -9.785   6.415  66.792  1.00  0.00    -0.158 C  
HETATM   14  O   UNL     1      -8.263   5.799  68.539  1.00  0.00    -0.106 OA 
HETATM   15  O   UNL     1      -9.592   4.169  67.694  1.00  0.00    -0.173 OA 
HETATM   16  C   UNL     1      -9.209   5.327  67.692  1.00  0.00    -0.115 C  
ENDBRANCH   8  13
ENDBRANCH   7   8
ENDBRANCH   6   7
ENDBRANCH   5   6
BRANCH   5  17
HETATM   17  C   UNL     1     -10.344  11.758  67.876  1.00  0.00    -0.193 C  
BRANCH  17  18
HETATM   18  C   UNL     1      -9.683  12.652  66.789  1.00  0.00    -0.240 C  
BRANCH  18  19
HETATM   19  N   UNL     1     -10.646  13.434  65.928  1.00  0.00    -0.279 NA 
BRANCH  19  20
HETATM   20  C   UNL     1     -11.094  14.640  66.734  1.00  0.00    -0.335 C  
HETATM   21  O   UNL     1     -10.421  16.975  66.758  1.00  0.00    -0.308 OA 
HETATM   22  O   UNL     1     -10.546  15.907  64.766  1.00  0.00    -0.562 OA 
HETATM   23  C   UNL     1     -10.641  15.959  66.115  1.00  0.00    -0.305 C  
ENDBRANCH  19  20
BRANCH  19  24
HETATM   24  C   UNL     1     -11.873  12.578  65.704  1.00  0.00    -0.438 C  
HETATM   25  C   UNL     1     -12.258  12.464  64.233  1.00  0.00    -0.452 C  
HETATM   26  O   UNL     1     -13.400  12.289  63.837  1.00  0.00    -0.657 OA 
HETATM   27  O   UNL     1     -11.186  12.503  63.407  1.00  0.00    -0.469 OA 
ENDBRANCH  19  24
ENDBRANCH  18  19
ENDBRANCH  17  18
ENDBRANCH   5  17
ENDBRANCH   3   5
TORSDOF 11
ENDMDL
MODEL      273
REMARK 921   NORMALIZED FREE ENERGY PREDICTED BY IDOCK:   -3.86 KCAL/MOL
REMARK 922        TOTAL FREE ENERGY PREDICTED BY IDOCK:   -8.09 KCAL/MOL
REMARK 923 INTER-LIGAND FREE ENERGY PREDICTED BY IDOCK:   -7.00 KCAL/MOL
REMARK 924 INTRA-LIGAND FREE ENERGY PREDICTED BY IDOCK:   -1.09 KCAL/MOL
REMARK 927      BINDING AFFINITY PREDICTED BY RF-SCORE:    0.00 PKD
ROOT
HETATM    1  O   UNL     1     -11.864  15.143  69.761  1.00  0.00    -0.294 OA 
HETATM    2  C   UNL     1     -11.988  14.070  70.576  1.00  0.00    -0.320 C  
HETATM    3  C   UNL     1     -11.963  12.746  69.815  1.00  0.00    -0.292 C  
HETATM    4  O   UNL     1     -12.149  14.159  71.785  1.00  0.00    -0.254 OA 
ENDROOT
BRANCH   3   5
HETATM    5  N   UNL     1     -11.098  12.797  68.584  1.00  0.00    -0.252 NA 
BRANCH   5   6
HETATM    6  C   UNL     1     -10.224  11.577  68.551  1.00  0.00    -0.213 C  
BRANCH   6   7
HETATM    7  C   UNL     1     -10.878  10.300  69.159  1.00  0.00    -0.233 C  
BRANCH   7   8
HETATM    8  N   UNL     1      -9.965   9.381  69.924  1.00  0.00    -0.197 NA 
BRANCH   8   9
HETATM    9  C   UNL     1     -10.461   9.343  71.358  1.00  0.00    -0.288 C  
HETATM   10  O   UNL     1     -10.690   6.972  71.027  1.00  0.00    -0.228 OA 
HETATM   11  C   UNL     1     -11.183   8.040  71.698  1.00  0.00    -0.255 C  
HETATM   12  O   UNL     1     -12.093   7.954  72.507  1.00  0.00    -0.315 OA 
ENDBRANCH   8   9
BRANCH   8  13
HETATM   13  C   UNL     1      -8.591  10.009  69.951  1.00  0.00    -0.146 C  
HETATM   14  O   UNL     1      -7.760   7.761  70.007  1.00  0.00    -0.087 OA 
HETATM   15  O   UNL     1      -6.492   9.363  70.988  1.00  0.00    -0.082 OA 
HETATM   16  C   UNL     1      -7.507   9.033  70.396  1.00  0.00    -0.089 C  
ENDBRANCH   8  13
ENDBRANCH   7   8
ENDBRANCH   6   7
ENDBRANCH   5   6
BRANCH   5  17
HETATM   17  C   UNL     1     -11.982  12.777  67.375  1.00  0.00    -0.272 C  
BRANCH  17  18
HETATM   18  C   UNL     1     -12.012  14.063  66.502  1.00  0.00    -0.444 C  
BRANCH  18  19
HETATM   19  N   UNL     1     -11.101  14.043  65.297  1.00  0.00    -0.312 NA 
BRANCH  19  20
HETATM   20  C   UNL     1     -11.038  15.460  64.757  1.00  0.00    -0.403 C  
HETATM   21  O   UNL     1     -10.101  17.532  65.615  1.00  0.00    -0.574 OA 
HETATM   22  O   UNL     1      -8.958  15.608  65.954  1.00  0.00    -0.320 OA 
HETATM   23  C   UNL     1     -10.011  16.320  65.489  1.00  0.00    -0.182 C  
ENDBRANCH  19  20
BRANCH  19  24
HETATM   24  C   UNL     1     -11.759  13.198  64.229  1.00  0.00    -0.395 C  
HETATM   25  C   UNL     1     -10.978  11.927  63.911  1.00  0.00    -0.406 C  
HETATM   26  O   UNL     1     -10.991  11.371  62.824  1.00  0.00     0.115 OA 
HETATM   27  O   UNL     1     -10.322  11.433  64.987  1.00  0.00    -0.259 OA 
ENDBRANCH  19  24
ENDBRANCH  18  19
ENDBRANCH  17  18
ENDBRANCH   5  17
ENDBRANCH   3   5
TORSDOF 11
ENDMDL
MODEL      274
REMARK 921   NORMALIZED FREE ENERGY PREDICTED BY IDOCK:   -3.86 KCAL/MOL
REMARK 922        TOTAL FREE ENERGY PREDICTED BY IDOCK:   -8.08 KCAL/MOL
REMARK 923 INTER-LIGAND FREE ENERGY PREDICTED BY IDOCK:   -7.30 KCAL/MOL
REMARK 924 INTRA-LIGAND FREE ENERGY PREDICTED BY IDOCK:   -0.78 KCAL/MOL
REMARK 927      BINDING AFFINITY PREDICTED BY RF-SCORE:    0.00 PKD
ROOT
HETATM    1  O   UNL     1      -9.127  10.313  64.824  1.00  0.00    -0.183 OA 
HETATM    2  C   UNL     1      -8.050  10.162  65.630  1.00  0.00    -0.149 C  
HETATM    3  C   UNL     1      -8.094  11.081  66.848  1.00  0.00    -0.142 C  
HETATM    4  O   UNL     1      -7.124   9.404  65.379  1.00  0.00    -0.087 OA 
ENDROOT
BRANCH   3   5
HETATM    5  N   UNL     1      -9.495  11.352  67.325  1.00  0.00    -0.167 NA 
BRANCH   5   6
HETATM    6  C   UNL     1      -9.602  10.967  68.772  1.00  0.00    -0.187 C  
BRANCH   6   7
HETATM    7  C   UNL     1     -10.757   9.970  69.089  1.00  0.00    -0.220 C  
BRANCH   7   8
HETATM    8  N   UNL     1     -10.351   8.560  69.423  1.00  0.00    -0.213 NA 
BRANCH   8   9
HETATM    9  C   UNL     1     -10.835   8.273  70.833  1.00  0.00    -0.230 C  
HETATM   10  O   UNL     1     -11.314   6.059  70.025  1.00  0.00    -0.384 OA 
HETATM   11  C   UNL     1     -11.686   7.007  70.918  1.00  0.00    -0.343 C  
HETATM   12  O   UNL     1     -12.592   6.845  71.719  1.00  0.00    -0.350 OA 
ENDBRANCH   8   9
BRANCH   8  13
HETATM   13  C   UNL     1      -8.842   8.508  69.458  1.00  0.00    -0.141 C  
HETATM   14  O   UNL     1      -9.008   7.418  67.329  1.00  0.00    -0.122 OA 
HETATM   15  O   UNL     1      -7.217   6.909  68.621  1.00  0.00    -0.083 OA 
HETATM   16  C   UNL     1      -8.264   7.514  68.456  1.00  0.00    -0.125 C  
ENDBRANCH   8  13
ENDBRANCH   7   8
ENDBRANCH   6   7
ENDBRANCH   5   6
BRANCH   5  17
HETATM   17  C   UNL     1      -9.768  12.820  67.206  1.00  0.00    -0.206 C  
BRANCH  17  18
HETATM   18  C   UNL     1     -10.838  13.257  66.166  1.00  0.00    -0.280 C  
BRANCH  18  19
HETATM   19  N   UNL     1     -10.918  14.744  65.913  1.00  0.00    -0.327 NA 
BRANCH  19  20
HETATM   20  C   UNL     1     -11.354  14.933  64.471  1.00  0.00    -0.300 C  
HETATM   21  O   UNL     1     -12.742  13.626  62.964  1.00  0.00    -0.681 OA 
HETATM   22  O   UNL     1     -13.355  13.778  65.138  1.00  0.00    -0.688 OA 
HETATM   23  C   UNL     1     -12.533  14.038  64.095  1.00  0.00    -0.234 C  
ENDBRANCH  19  20
BRANCH  19  24
HETATM   24  C   UNL     1      -9.520  15.312  66.024  1.00  0.00    -0.337 C  
HETATM   25  C   UNL     1      -9.508  16.821  66.246  1.00  0.00    -0.286 C  
HETATM   26  O   UNL     1      -8.605  17.558  65.881  1.00  0.00    -0.528 OA 
HETATM   27  O   UNL     1     -10.573  17.254  66.961  1.00  0.00    -0.310 OA 
ENDBRANCH  19  24
ENDBRANCH  18  19
ENDBRANCH  17  18
ENDBRANCH   5  17
ENDBRANCH   3   5
TORSDOF 11
ENDMDL
MODEL      275
REMARK 921   NORMALIZED FREE ENERGY PREDICTED BY IDOCK:   -3.85 KCAL/MOL
REMARK 922        TOTAL FREE ENERGY PREDICTED BY IDOCK:   -8.07 KCAL/MOL
REMARK 923 INTER-LIGAND FREE ENERGY PREDICTED BY IDOCK:   -7.87 KCAL/MOL
REMARK 924 INTRA-LIGAND FREE ENERGY PREDICTED BY IDOCK:   -0.20 KCAL/MOL
REMARK 927      BINDING AFFINITY PREDICTED BY RF-SCORE:    0.00 PKD
ROOT
HETATM    1  O   UNL     1      -6.144  13.626  67.289  1.00  0.00    -0.324 OA 
HETATM    2  C   UNL     1      -6.066  13.567  68.639  1.00  0.00    -0.086 C  
HETATM    3  C   UNL     1      -7.202  14.321  69.328  1.00  0.00    -0.083 C  
HETATM    4  O   UNL     1      -5.157  13.009  69.236  1.00  0.00    -0.073 OA 
ENDROOT
BRANCH   3   5
HETATM    5  N   UNL     1      -8.482  14.297  68.537  1.00  0.00    -0.165 NA 
BRANCH   5   6
HETATM    6  C   UNL     1      -8.316  15.151  67.313  1.00  0.00    -0.201 C  
BRANCH   6   7
HETATM    7  C   UNL     1      -8.882  16.597  67.456  1.00  0.00    -0.196 C  
BRANCH   7   8
HETATM    8  N   UNL     1      -9.220  17.312  66.177  1.00  0.00    -0.467 NA 
BRANCH   8   9
HETATM    9  C   UNL     1      -8.904  18.783  66.386  1.00  0.00    -0.291 C  
HETATM   10  O   UNL     1      -6.823  18.309  65.278  1.00  0.00    -0.505 OA 
HETATM   11  C   UNL     1      -7.421  19.099  66.200  1.00  0.00    -0.274 C  
HETATM   12  O   UNL     1      -6.832  19.987  66.796  1.00  0.00    -0.205 OA 
ENDBRANCH   8   9
BRANCH   8  13
HETATM   13  C   UNL     1     -10.712  17.209  65.967  1.00  0.00    -0.113 C  
HETATM   14  O   UNL     1     -10.208  15.318  64.583  1.00  0.00    -0.191 OA 
HETATM   15  O   UNL     1     -12.079  16.497  64.090  1.00  0.00    -0.774 OA 
HETATM   16  C   UNL     1     -11.080  16.336  64.772  1.00  0.00    -0.281 C  
ENDBRANCH   8  13
ENDBRANCH   7   8
ENDBRANCH   6   7
ENDBRANCH   5   6
BRANCH   5  17
HETATM   17  C   UNL     1      -8.748  12.890  68.097  1.00  0.00    -0.190 C  
BRANCH  17  18
HETATM   18  C   UNL     1      -9.358  12.698  66.680  1.00  0.00    -0.236 C  
BRANCH  18  19
HETATM   19  N   UNL     1     -10.748  12.108  66.653  1.00  0.00    -0.239 NA 
BRANCH  19  20
HETATM   20  C   UNL     1     -10.651  10.702  67.219  1.00  0.00    -0.263 C  
HETATM   21  O   UNL     1     -11.103   9.751  69.410  1.00  0.00    -0.227 OA 
HETATM   22  O   UNL     1     -12.490  11.359  68.623  1.00  0.00    -0.396 OA 
HETATM   23  C   UNL     1     -11.409  10.548  68.535  1.00  0.00    -0.257 C  
ENDBRANCH  19  20
BRANCH  19  24
HETATM   24  C   UNL     1     -11.168  11.967  65.207  1.00  0.00    -0.322 C  
HETATM   25  C   UNL     1     -12.577  12.488  64.943  1.00  0.00    -0.390 C  
HETATM   26  O   UNL     1     -13.309  12.063  64.064  1.00  0.00    -0.703 OA 
HETATM   27  O   UNL     1     -12.908  13.529  65.743  1.00  0.00    -0.420 OA 
ENDBRANCH  19  24
ENDBRANCH  18  19
ENDBRANCH  17  18
ENDBRANCH   5  17
ENDBRANCH   3   5
TORSDOF 11
ENDMDL
MODEL      276
REMARK 921   NORMALIZED FREE ENERGY PREDICTED BY IDOCK:   -3.85 KCAL/MOL
REMARK 922        TOTAL FREE ENERGY PREDICTED BY IDOCK:   -8.07 KCAL/MOL
REMARK 923 INTER-LIGAND FREE ENERGY PREDICTED BY IDOCK:   -6.77 KCAL/MOL
REMARK 924 INTRA-LIGAND FREE ENERGY PREDICTED BY IDOCK:   -1.30 KCAL/MOL
REMARK 927      BINDING AFFINITY PREDICTED BY RF-SCORE:    0.00 PKD
ROOT
HETATM    1  O   UNL     1     -12.166   9.491  70.808  1.00  0.00    -0.273 OA 
HETATM    2  C   UNL     1     -12.399  10.820  70.922  1.00  0.00    -0.396 C  
HETATM    3  C   UNL     1     -11.495  11.655  70.019  1.00  0.00    -0.182 C  
HETATM    4  O   UNL     1     -13.215  11.294  71.699  1.00  0.00    -0.419 OA 
ENDROOT
BRANCH   3   5
HETATM    5  N   UNL     1     -11.135  10.951  68.739  1.00  0.00    -0.234 NA 
BRANCH   5   6
HETATM    6  C   UNL     1     -11.256  11.919  67.598  1.00  0.00    -0.276 C  
BRANCH   6   7
HETATM    7  C   UNL     1     -11.941  13.269  67.969  1.00  0.00    -0.313 C  
BRANCH   7   8
HETATM    8  N   UNL     1     -11.053  14.483  68.000  1.00  0.00    -0.267 NA 
BRANCH   8   9
HETATM    9  C   UNL     1     -11.752  15.531  68.848  1.00  0.00    -0.370 C  
HETATM   10  O   UNL     1      -9.653  15.735  70.004  1.00  0.00    -0.155 OA 
HETATM   11  C   UNL     1     -10.996  15.845  70.138  1.00  0.00    -0.364 C  
HETATM   12  O   UNL     1     -11.535  16.185  71.180  1.00  0.00    -0.413 OA 
ENDBRANCH   8   9
BRANCH   8  13
HETATM   13  C   UNL     1     -10.974  15.036  66.597  1.00  0.00    -0.325 C  
HETATM   14  O   UNL     1      -8.596  14.960  66.892  1.00  0.00    -0.227 OA 
HETATM   15  O   UNL     1      -9.420  16.539  65.491  1.00  0.00    -0.473 OA 
HETATM   16  C   UNL     1      -9.602  15.618  66.270  1.00  0.00    -0.308 C  
ENDBRANCH   8  13
ENDBRANCH   7   8
ENDBRANCH   6   7
ENDBRANCH   5   6
BRANCH   5  17
HETATM   17  C   UNL     1      -9.710  10.498  68.824  1.00  0.00    -0.184 C  
BRANCH  17  18
HETATM   18  C   UNL     1      -9.460   8.964  68.886  1.00  0.00    -0.152 C  
BRANCH  18  19
HETATM   19  N   UNL     1      -9.366   8.274  67.546  1.00  0.00    -0.139 NA 
BRANCH  19  20
HETATM   20  C   UNL     1      -9.078   6.808  67.814  1.00  0.00    -0.117 C  
HETATM   21  O   UNL     1     -10.359   5.018  68.844  1.00  0.00    -0.161 OA 
HETATM   22  O   UNL     1     -11.445   6.499  67.520  1.00  0.00    -0.168 OA 
HETATM   23  C   UNL     1     -10.341   6.013  68.136  1.00  0.00    -0.205 C  
ENDBRANCH  19  20
BRANCH  19  24
HETATM   24  C   UNL     1      -8.161   8.830  66.818  1.00  0.00    -0.108 C  
HETATM   25  C   UNL     1      -8.472   9.245  65.384  1.00  0.00    -0.145 C  
HETATM   26  O   UNL     1      -7.655   9.236  64.478  1.00  0.00    -0.102 OA 
HETATM   27  O   UNL     1      -9.739   9.699  65.234  1.00  0.00    -0.300 OA 
ENDBRANCH  19  24
ENDBRANCH  18  19
ENDBRANCH  17  18
ENDBRANCH   5  17
ENDBRANCH   3   5
TORSDOF 11
ENDMDL
MODEL      277
REMARK 921   NORMALIZED FREE ENERGY PREDICTED BY IDOCK:   -3.85 KCAL/MOL
REMARK 922        TOTAL FREE ENERGY PREDICTED BY IDOCK:   -8.07 KCAL/MOL
REMARK 923 INTER-LIGAND FREE ENERGY PREDICTED BY IDOCK:   -8.03 KCAL/MOL
REMARK 924 INTRA-LIGAND FREE ENERGY PREDICTED BY IDOCK:   -0.03 KCAL/MOL
REMARK 927      BINDING AFFINITY PREDICTED BY RF-SCORE:    0.00 PKD
ROOT
HETATM    1  O   UNL     1      -7.153   8.923  68.859  1.00  0.00    -0.064 OA 
HETATM    2  C   UNL     1      -7.534   9.939  69.668  1.00  0.00    -0.122 C  
HETATM    3  C   UNL     1      -8.406  10.966  68.952  1.00  0.00    -0.139 C  
HETATM    4  O   UNL     1      -7.176  10.040  70.833  1.00  0.00    -0.326 OA 
ENDROOT
BRANCH   3   5
HETATM    5  N   UNL     1      -9.262  10.356  67.875  1.00  0.00    -0.138 NA 
BRANCH   5   6
HETATM    6  C   UNL     1     -10.624  10.068  68.438  1.00  0.00    -0.220 C  
BRANCH   6   7
HETATM    7  C   UNL     1     -10.793   8.626  69.005  1.00  0.00    -0.019 C  
BRANCH   7   8
HETATM    8  N   UNL     1     -11.345   8.517  70.401  1.00  0.00    -0.228 NA 
BRANCH   8   9
HETATM    9  C   UNL     1     -11.291   9.903  71.017  1.00  0.00    -0.386 C  
HETATM   10  O   UNL     1     -13.451   9.383  71.935  1.00  0.00    -0.382 OA 
HETATM   11  C   UNL     1     -12.658  10.388  71.497  1.00  0.00    -0.439 C  
HETATM   12  O   UNL     1     -13.000  11.560  71.512  1.00  0.00    -0.431 OA 
ENDBRANCH   8   9
BRANCH   8  13
HETATM   13  C   UNL     1     -10.409   7.643  71.203  1.00  0.00    -0.200 C  
HETATM   14  O   UNL     1     -12.382   6.475  71.900  1.00  0.00    -0.347 OA 
HETATM   15  O   UNL     1     -10.626   6.495  73.332  1.00  0.00    -0.251 OA 
HETATM   16  C   UNL     1     -11.132   6.834  72.274  1.00  0.00    -0.251 C  
ENDBRANCH   8  13
ENDBRANCH   7   8
ENDBRANCH   6   7
ENDBRANCH   5   6
BRANCH   5  17
HETATM   17  C   UNL     1      -9.413  11.348  66.762  1.00  0.00    -0.182 C  
BRANCH  17  18
HETATM   18  C   UNL     1     -10.862  11.694  66.318  1.00  0.00    -0.286 C  
BRANCH  18  19
HETATM   19  N   UNL     1     -11.195  13.167  66.304  1.00  0.00    -0.295 NA 
BRANCH  19  20
HETATM   20  C   UNL     1     -12.361  13.356  65.349  1.00  0.00    -0.477 C  
HETATM   21  O   UNL     1     -12.509  13.878  62.980  1.00  0.00    -0.689 OA 
HETATM   22  O   UNL     1     -10.870  12.481  63.678  1.00  0.00    -0.423 OA 
HETATM   23  C   UNL     1     -11.934  13.292  63.885  1.00  0.00    -0.483 C  
ENDBRANCH  19  20
BRANCH  19  24
HETATM   24  C   UNL     1     -10.018  13.906  65.707  1.00  0.00    -0.284 C  
HETATM   25  C   UNL     1      -9.807  15.285  66.322  1.00  0.00    -0.294 C  
HETATM   26  O   UNL     1      -9.307  16.228  65.731  1.00  0.00    -0.442 OA 
HETATM   27  O   UNL     1     -10.167  15.337  67.627  1.00  0.00    -0.238 OA 
ENDBRANCH  19  24
ENDBRANCH  18  19
ENDBRANCH  17  18
ENDBRANCH   5  17
ENDBRANCH   3   5
TORSDOF 11
ENDMDL
MODEL      278
REMARK 921   NORMALIZED FREE ENERGY PREDICTED BY IDOCK:   -3.84 KCAL/MOL
REMARK 922        TOTAL FREE ENERGY PREDICTED BY IDOCK:   -8.04 KCAL/MOL
REMARK 923 INTER-LIGAND FREE ENERGY PREDICTED BY IDOCK:   -6.56 KCAL/MOL
REMARK 924 INTRA-LIGAND FREE ENERGY PREDICTED BY IDOCK:   -1.48 KCAL/MOL
REMARK 927      BINDING AFFINITY PREDICTED BY RF-SCORE:    0.00 PKD
ROOT
HETATM    1  O   UNL     1      -7.727  10.236  65.885  1.00  0.00    -0.124 OA 
HETATM    2  C   UNL     1      -8.935  10.420  65.304  1.00  0.00    -0.187 C  
HETATM    3  C   UNL     1     -10.095  10.113  66.248  1.00  0.00    -0.238 C  
HETATM    4  O   UNL     1      -9.076  10.751  64.136  1.00  0.00    -0.199 OA 
ENDROOT
BRANCH   3   5
HETATM    5  N   UNL     1      -9.774  10.421  67.686  1.00  0.00    -0.166 NA 
BRANCH   5   6
HETATM    6  C   UNL     1      -9.763  11.911  67.875  1.00  0.00    -0.192 C  
BRANCH   6   7
HETATM    7  C   UNL     1     -11.171  12.577  67.817  1.00  0.00    -0.269 C  
BRANCH   7   8
HETATM    8  N   UNL     1     -11.288  13.822  66.980  1.00  0.00    -0.314 NA 
BRANCH   8   9
HETATM    9  C   UNL     1     -11.835  14.918  67.877  1.00  0.00    -0.259 C  
HETATM   10  O   UNL     1     -10.109  16.302  66.933  1.00  0.00    -0.263 OA 
HETATM   11  C   UNL     1     -10.864  16.087  68.036  1.00  0.00    -0.335 C  
HETATM   12  O   UNL     1     -10.787  16.779  69.040  1.00  0.00    -0.319 OA 
ENDBRANCH   8   9
BRANCH   8  13
HETATM   13  C   UNL     1     -12.328  13.568  65.914  1.00  0.00    -0.456 C  
HETATM   14  O   UNL     1     -10.507  13.690  64.360  1.00  0.00    -0.432 OA 
HETATM   15  O   UNL     1     -12.556  14.302  63.611  1.00  0.00    -0.831 OA 
HETATM   16  C   UNL     1     -11.833  13.916  64.514  1.00  0.00    -0.426 C  
ENDBRANCH   8  13
ENDBRANCH   7   8
ENDBRANCH   6   7
ENDBRANCH   5   6
BRANCH   5  17
HETATM   17  C   UNL     1     -10.850   9.844  68.553  1.00  0.00    -0.217 C  
BRANCH  17  18
HETATM   18  C   UNL     1     -10.409   8.827  69.643  1.00  0.00    -0.213 C  
BRANCH  18  19
HETATM   19  N   UNL     1      -8.919   8.593  69.737  1.00  0.00    -0.143 NA 
BRANCH  19  20
HETATM   20  C   UNL     1      -8.638   7.235  69.119  1.00  0.00    -0.133 C  
HETATM   21  O   UNL     1      -7.534   6.530  67.072  1.00  0.00    -0.084 OA 
HETATM   22  O   UNL     1      -6.667   8.278  68.219  1.00  0.00    -0.062 OA 
HETATM   23  C   UNL     1      -7.581   7.300  68.019  1.00  0.00    -0.115 C  
ENDBRANCH  19  20
BRANCH  19  24
HETATM   24  C   UNL     1      -8.555   8.489  71.202  1.00  0.00    -0.169 C  
HETATM   25  C   UNL     1      -7.214   9.140  71.528  1.00  0.00     0.061 C  
HETATM   26  O   UNL     1      -6.487   8.784  72.441  1.00  0.00    -0.150 OA 
HETATM   27  O   UNL     1      -6.946  10.209  70.741  1.00  0.00    -0.329 OA 
ENDBRANCH  19  24
ENDBRANCH  18  19
ENDBRANCH  17  18
ENDBRANCH   5  17
ENDBRANCH   3   5
TORSDOF 11
ENDMDL
MODEL      279
REMARK 921   NORMALIZED FREE ENERGY PREDICTED BY IDOCK:   -3.83 KCAL/MOL
REMARK 922        TOTAL FREE ENERGY PREDICTED BY IDOCK:   -8.04 KCAL/MOL
REMARK 923 INTER-LIGAND FREE ENERGY PREDICTED BY IDOCK:   -7.96 KCAL/MOL
REMARK 924 INTRA-LIGAND FREE ENERGY PREDICTED BY IDOCK:   -0.08 KCAL/MOL
REMARK 927      BINDING AFFINITY PREDICTED BY RF-SCORE:    0.00 PKD
ROOT
HETATM    1  O   UNL     1      -8.748  15.708  69.418  1.00  0.00    -0.247 OA 
HETATM    2  C   UNL     1      -7.748  14.908  68.982  1.00  0.00    -0.153 C  
HETATM    3  C   UNL     1      -7.695  14.809  67.459  1.00  0.00    -0.194 C  
HETATM    4  O   UNL     1      -7.000  14.297  69.732  1.00  0.00    -0.107 OA 
ENDROOT
BRANCH   3   5
HETATM    5  N   UNL     1      -8.149  16.071  66.777  1.00  0.00    -0.243 NA 
BRANCH   5   6
HETATM    6  C   UNL     1      -9.650  16.109  66.768  1.00  0.00    -0.240 C  
BRANCH   6   7
HETATM    7  C   UNL     1     -10.315  15.078  65.807  1.00  0.00    -0.335 C  
BRANCH   7   8
HETATM    8  N   UNL     1     -11.222  14.059  66.442  1.00  0.00    -0.313 NA 
BRANCH   8   9
HETATM    9  C   UNL     1     -12.438  13.917  65.544  1.00  0.00    -0.511 C  
HETATM   10  O   UNL     1     -11.443  11.849  64.826  1.00  0.00    -0.313 OA 
HETATM   11  C   UNL     1     -12.241  12.874  64.445  1.00  0.00    -0.417 C  
HETATM   12  O   UNL     1     -12.764  12.936  63.344  1.00  0.00    -0.695 OA 
ENDBRANCH   8   9
BRANCH   8  13
HETATM   13  C   UNL     1     -11.708  14.626  67.754  1.00  0.00    -0.359 C  
HETATM   14  O   UNL     1     -10.540  12.797  68.773  1.00  0.00    -0.240 OA 
HETATM   15  O   UNL     1     -12.354  13.610  69.863  1.00  0.00    -0.310 OA 
HETATM   16  C   UNL     1     -11.602  13.628  68.902  1.00  0.00    -0.322 C  
ENDBRANCH   8  13
ENDBRANCH   7   8
ENDBRANCH   6   7
ENDBRANCH   5   6
BRANCH   5  17
HETATM   17  C   UNL     1      -7.653  17.247  67.561  1.00  0.00    -0.178 C  
BRANCH  17  18
HETATM   18  C   UNL     1      -6.253  17.808  67.181  1.00  0.00    -0.150 C  
BRANCH  18  19
HETATM   19  N   UNL     1      -6.269  18.990  66.241  1.00  0.00    -0.175 NA 
BRANCH  19  20
HETATM   20  C   UNL     1      -7.717  19.412  66.073  1.00  0.00    -0.296 C  
HETATM   21  O   UNL     1      -9.246  20.713  67.443  1.00  0.00    -0.382 OA 
HETATM   22  O   UNL     1      -7.082  21.366  67.322  1.00  0.00    -0.565 OA 
HETATM   23  C   UNL     1      -8.112  20.540  67.022  1.00  0.00    -0.266 C  
ENDBRANCH  19  20
BRANCH  19  24
HETATM   24  C   UNL     1      -5.793  18.515  64.886  1.00  0.00    -0.186 C  
HETATM   25  C   UNL     1      -5.589  19.655  63.894  1.00  0.00    -0.272 C  
HETATM   26  O   UNL     1      -5.706  19.537  62.684  1.00  0.00    -0.315 OA 
HETATM   27  O   UNL     1      -5.190  20.803  64.490  1.00  0.00    -0.179 OA 
ENDBRANCH  19  24
ENDBRANCH  18  19
ENDBRANCH  17  18
ENDBRANCH   5  17
ENDBRANCH   3   5
TORSDOF 11
ENDMDL
MODEL      280
REMARK 921   NORMALIZED FREE ENERGY PREDICTED BY IDOCK:   -3.83 KCAL/MOL
REMARK 922        TOTAL FREE ENERGY PREDICTED BY IDOCK:   -8.04 KCAL/MOL
REMARK 923 INTER-LIGAND FREE ENERGY PREDICTED BY IDOCK:   -7.54 KCAL/MOL
REMARK 924 INTRA-LIGAND FREE ENERGY PREDICTED BY IDOCK:   -0.50 KCAL/MOL
REMARK 927      BINDING AFFINITY PREDICTED BY RF-SCORE:    0.00 PKD
ROOT
HETATM    1  O   UNL     1     -13.658  14.008  65.537  1.00  0.00    -0.596 OA 
HETATM    2  C   UNL     1     -12.630  13.219  65.148  1.00  0.00    -0.453 C  
HETATM    3  C   UNL     1     -11.518  13.144  66.192  1.00  0.00    -0.330 C  
HETATM    4  O   UNL     1     -12.582  12.666  64.059  1.00  0.00    -0.614 OA 
ENDROOT
BRANCH   3   5
HETATM    5  N   UNL     1     -12.032  13.257  67.602  1.00  0.00    -0.348 NA 
BRANCH   5   6
HETATM    6  C   UNL     1     -11.910  11.920  68.275  1.00  0.00    -0.277 C  
BRANCH   6   7
HETATM    7  C   UNL     1     -10.543  11.680  68.984  1.00  0.00    -0.153 C  
BRANCH   7   8
HETATM    8  N   UNL     1      -9.705  10.548  68.456  1.00  0.00    -0.159 NA 
BRANCH   8   9
HETATM    9  C   UNL     1      -9.111   9.829  69.654  1.00  0.00    -0.220 C  
HETATM   10  O   UNL     1     -11.079   8.449  69.575  1.00  0.00    -0.111 OA 
HETATM   11  C   UNL     1     -10.136   8.971  70.394  1.00  0.00    -0.207 C  
HETATM   12  O   UNL     1     -10.103   8.752  71.595  1.00  0.00    -0.261 OA 
ENDBRANCH   8   9
BRANCH   8  13
HETATM   13  C   UNL     1      -8.551  11.145  67.686  1.00  0.00    -0.126 C  
HETATM   14  O   UNL     1      -9.591  10.203  65.743  1.00  0.00    -0.195 OA 
HETATM   15  O   UNL     1      -7.338  10.443  65.703  1.00  0.00    -0.143 OA 
HETATM   16  C   UNL     1      -8.402  10.549  66.291  1.00  0.00    -0.152 C  
ENDBRANCH   8  13
ENDBRANCH   7   8
ENDBRANCH   6   7
ENDBRANCH   5   6
BRANCH   5  17
HETATM   17  C   UNL     1     -11.181  14.239  68.346  1.00  0.00    -0.269 C  
BRANCH  17  18
HETATM   18  C   UNL     1     -11.532  15.744  68.182  1.00  0.00    -0.302 C  
BRANCH  18  19
HETATM   19  N   UNL     1     -10.537  16.553  67.383  1.00  0.00    -0.317 NA 
BRANCH  19  20
HETATM   20  C   UNL     1      -9.206  16.472  68.109  1.00  0.00    -0.217 C  
HETATM   21  O   UNL     1      -7.707  14.636  68.645  1.00  0.00    -0.122 OA 
HETATM   22  O   UNL     1      -8.742  14.632  66.631  1.00  0.00    -0.237 OA 
HETATM   23  C   UNL     1      -8.479  15.155  67.852  1.00  0.00    -0.149 C  
ENDBRANCH  19  20
BRANCH  19  24
HETATM   24  C   UNL     1     -10.971  18.002  67.427  1.00  0.00    -0.075 C  
HETATM   25  C   UNL     1     -10.766  18.724  66.099  1.00  0.00    -0.257 C  
HETATM   26  O   UNL     1     -10.554  19.922  65.999  1.00  0.00    -0.476 OA 
HETATM   27  O   UNL     1     -10.917  17.907  65.030  1.00  0.00    -0.776 OA 
ENDBRANCH  19  24
ENDBRANCH  18  19
ENDBRANCH  17  18
ENDBRANCH   5  17
ENDBRANCH   3   5
TORSDOF 11
ENDMDL
MODEL      281
REMARK 921   NORMALIZED FREE ENERGY PREDICTED BY IDOCK:   -3.83 KCAL/MOL
REMARK 922        TOTAL FREE ENERGY PREDICTED BY IDOCK:   -8.03 KCAL/MOL
REMARK 923 INTER-LIGAND FREE ENERGY PREDICTED BY IDOCK:   -6.90 KCAL/MOL
REMARK 924 INTRA-LIGAND FREE ENERGY PREDICTED BY IDOCK:   -1.14 KCAL/MOL
REMARK 927      BINDING AFFINITY PREDICTED BY RF-SCORE:    0.00 PKD
ROOT
HETATM    1  O   UNL     1      -5.631  13.402  68.613  1.00  0.00    -0.074 OA 
HETATM    2  C   UNL     1      -6.667  14.200  68.964  1.00  0.00    -0.107 C  
HETATM    3  C   UNL     1      -7.921  13.934  68.135  1.00  0.00    -0.148 C  
HETATM    4  O   UNL     1      -6.585  15.069  69.820  1.00  0.00    -0.148 OA 
ENDROOT
BRANCH   3   5
HETATM    5  N   UNL     1      -8.048  12.496  67.712  1.00  0.00    -0.151 NA 
BRANCH   5   6
HETATM    6  C   UNL     1      -8.162  11.635  68.937  1.00  0.00     0.020 C  
BRANCH   6   7
HETATM    7  C   UNL     1      -9.345  10.621  68.902  1.00  0.00    -0.184 C  
BRANCH   7   8
HETATM    8  N   UNL     1      -9.355   9.568  69.977  1.00  0.00    -0.218 NA 
BRANCH   8   9
HETATM    9  C   UNL     1      -8.077   8.761  69.830  1.00  0.00    -0.109 C  
HETATM   10  O   UNL     1      -7.919   8.913  72.225  1.00  0.00    -0.371 OA 
HETATM   11  C   UNL     1      -7.202   8.812  71.081  1.00  0.00    -0.093 C  
HETATM   12  O   UNL     1      -5.983   8.742  71.065  1.00  0.00    -0.034 OA 
ENDBRANCH   8   9
BRANCH   8  13
HETATM   13  C   UNL     1     -10.503   8.627  69.694  1.00  0.00    -0.220 C  
HETATM   14  O   UNL     1     -11.219   9.113  71.930  1.00  0.00    -0.364 OA 
HETATM   15  O   UNL     1     -11.764   7.084  71.082  1.00  0.00    -0.290 OA 
HETATM   16  C   UNL     1     -11.212   8.166  70.963  1.00  0.00    -0.258 C  
ENDBRANCH   8  13
ENDBRANCH   7   8
ENDBRANCH   6   7
ENDBRANCH   5   6
BRANCH   5  17
HETATM   17  C   UNL     1      -9.302  12.340  66.908  1.00  0.00    -0.210 C  
BRANCH  17  18
HETATM   18  C   UNL     1     -10.081  13.640  66.559  1.00  0.00    -0.286 C  
BRANCH  18  19
HETATM   19  N   UNL     1     -11.496  13.701  67.084  1.00  0.00    -0.325 NA 
BRANCH  19  20
HETATM   20  C   UNL     1     -12.352  14.329  65.998  1.00  0.00    -0.395 C  
HETATM   21  O   UNL     1     -12.610  13.898  63.620  1.00  0.00    -0.790 OA 
HETATM   22  O   UNL     1     -12.357  12.134  65.016  1.00  0.00    -0.454 OA 
HETATM   23  C   UNL     1     -12.442  13.458  64.747  1.00  0.00    -0.365 C  
ENDBRANCH  19  20
BRANCH  19  24
HETATM   24  C   UNL     1     -11.516  14.652  68.260  1.00  0.00    -0.314 C  
HETATM   25  C   UNL     1     -12.156  14.045  69.504  1.00  0.00    -0.347 C  
HETATM   26  O   UNL     1     -12.731  14.695  70.363  1.00  0.00    -0.348 OA 
HETATM   27  O   UNL     1     -11.954  12.710  69.598  1.00  0.00    -0.315 OA 
ENDBRANCH  19  24
ENDBRANCH  18  19
ENDBRANCH  17  18
ENDBRANCH   5  17
ENDBRANCH   3   5
TORSDOF 11
ENDMDL
MODEL      282
REMARK 921   NORMALIZED FREE ENERGY PREDICTED BY IDOCK:   -3.83 KCAL/MOL
REMARK 922        TOTAL FREE ENERGY PREDICTED BY IDOCK:   -8.03 KCAL/MOL
REMARK 923 INTER-LIGAND FREE ENERGY PREDICTED BY IDOCK:   -7.71 KCAL/MOL
REMARK 924 INTRA-LIGAND FREE ENERGY PREDICTED BY IDOCK:   -0.32 KCAL/MOL
REMARK 927      BINDING AFFINITY PREDICTED BY RF-SCORE:    0.00 PKD
ROOT
HETATM    1  O   UNL     1      -8.556  11.189  67.042  1.00  0.00    -0.139 OA 
HETATM    2  C   UNL     1      -8.988  10.550  65.930  1.00  0.00    -0.166 C  
HETATM    3  C   UNL     1     -10.277   9.766  66.165  1.00  0.00    -0.208 C  
HETATM    4  O   UNL     1      -8.382  10.566  64.868  1.00  0.00    -0.170 OA 
ENDROOT
BRANCH   3   5
HETATM    5  N   UNL     1     -11.170  10.407  67.193  1.00  0.00    -0.253 NA 
BRANCH   5   6
HETATM    6  C   UNL     1     -10.562  10.221  68.553  1.00  0.00    -0.213 C  
BRANCH   6   7
HETATM    7  C   UNL     1     -10.891   8.854  69.224  1.00  0.00    -0.096 C  
BRANCH   7   8
HETATM    8  N   UNL     1     -11.359   8.905  70.653  1.00  0.00    -0.263 NA 
BRANCH   8   9
HETATM    9  C   UNL     1     -11.426  10.368  71.053  1.00  0.00    -0.219 C  
HETATM   10  O   UNL     1     -13.583   9.832  71.971  1.00  0.00    -0.399 OA 
HETATM   11  C   UNL     1     -12.842  10.817  71.411  1.00  0.00    -0.452 C  
HETATM   12  O   UNL     1     -13.264  11.949  71.237  1.00  0.00    -0.216 OA 
ENDBRANCH   8   9
BRANCH   8  13
HETATM   13  C   UNL     1     -10.296   8.263  71.512  1.00  0.00    -0.214 C  
HETATM   14  O   UNL     1     -12.014   6.733  72.185  1.00  0.00    -0.299 OA 
HETATM   15  O   UNL     1     -10.355   7.150  73.670  1.00  0.00    -0.330 OA 
HETATM   16  C   UNL     1     -10.879   7.351  72.587  1.00  0.00    -0.303 C  
ENDBRANCH   8  13
ENDBRANCH   7   8
ENDBRANCH   6   7
ENDBRANCH   5   6
BRANCH   5  17
HETATM   17  C   UNL     1     -11.252  11.875  66.909  1.00  0.00    -0.325 C  
BRANCH  17  18
HETATM   18  C   UNL     1     -11.461  12.818  68.128  1.00  0.00    -0.314 C  
BRANCH  18  19
HETATM   19  N   UNL     1     -11.120  14.269  67.883  1.00  0.00    -0.269 NA 
BRANCH  19  20
HETATM   20  C   UNL     1     -11.989  15.098  68.812  1.00  0.00    -0.250 C  
HETATM   21  O   UNL     1     -11.533  16.366  70.834  1.00  0.00    -0.380 OA 
HETATM   22  O   UNL     1     -10.007  16.413  69.163  1.00  0.00    -0.252 OA 
HETATM   23  C   UNL     1     -11.170  16.007  69.725  1.00  0.00    -0.344 C  
ENDBRANCH  19  20
BRANCH  19  24
HETATM   24  C   UNL     1     -11.536  14.615  66.471  1.00  0.00    -0.344 C  
HETATM   25  C   UNL     1     -10.475  15.408  65.715  1.00  0.00    -0.355 C  
HETATM   26  O   UNL     1     -10.723  16.203  64.823  1.00  0.00    -0.648 OA 
HETATM   27  O   UNL     1      -9.215  15.084  66.088  1.00  0.00    -0.292 OA 
ENDBRANCH  19  24
ENDBRANCH  18  19
ENDBRANCH  17  18
ENDBRANCH   5  17
ENDBRANCH   3   5
TORSDOF 11
ENDMDL
MODEL      283
REMARK 921   NORMALIZED FREE ENERGY PREDICTED BY IDOCK:   -3.82 KCAL/MOL
REMARK 922        TOTAL FREE ENERGY PREDICTED BY IDOCK:   -8.02 KCAL/MOL
REMARK 923 INTER-LIGAND FREE ENERGY PREDICTED BY IDOCK:   -6.64 KCAL/MOL
REMARK 924 INTRA-LIGAND FREE ENERGY PREDICTED BY IDOCK:   -1.37 KCAL/MOL
REMARK 927      BINDING AFFINITY PREDICTED BY RF-SCORE:    0.00 PKD
ROOT
HETATM    1  O   UNL     1     -13.239  12.635  64.611  1.00  0.00    -0.828 OA 
HETATM    2  C   UNL     1     -12.180  13.097  63.907  1.00  0.00    -0.433 C  
HETATM    3  C   UNL     1     -10.843  12.746  64.556  1.00  0.00    -0.347 C  
HETATM    4  O   UNL     1     -12.290  13.762  62.887  1.00  0.00    -0.528 OA 
ENDROOT
BRANCH   3   5
HETATM    5  N   UNL     1     -10.881  11.436  65.296  1.00  0.00    -0.265 NA 
BRANCH   5   6
HETATM    6  C   UNL     1      -9.772  10.558  64.792  1.00  0.00    -0.305 C  
BRANCH   6   7
HETATM    7  C   UNL     1      -9.504   9.295  65.665  1.00  0.00    -0.256 C  
BRANCH   7   8
HETATM    8  N   UNL     1      -8.508   8.306  65.123  1.00  0.00    -0.167 NA 
BRANCH   8   9
HETATM    9  C   UNL     1      -8.468   7.132  66.085  1.00  0.00    -0.142 C  
HETATM   10  O   UNL     1      -8.602   5.750  64.122  1.00  0.00    -0.046 OA 
HETATM   11  C   UNL     1      -8.916   5.823  65.436  1.00  0.00    -0.036 C  
HETATM   12  O   UNL     1      -9.477   4.920  66.037  1.00  0.00    -0.146 OA 
ENDBRANCH   8   9
BRANCH   8  13
HETATM   13  C   UNL     1      -7.144   8.953  65.163  1.00  0.00    -0.084 C  
HETATM   14  O   UNL     1      -7.251   8.915  62.768  1.00  0.00    -0.097 OA 
HETATM   15  O   UNL     1      -5.197   8.810  63.718  1.00  0.00    -0.059 OA 
HETATM   16  C   UNL     1      -6.411   8.864  63.828  1.00  0.00    -0.087 C  
ENDBRANCH   8  13
ENDBRANCH   7   8
ENDBRANCH   6   7
ENDBRANCH   5   6
BRANCH   5  17
HETATM   17  C   UNL     1     -10.647  11.701  66.752  1.00  0.00    -0.244 C  
BRANCH  17  18
HETATM   18  C   UNL     1     -11.878  11.585  67.696  1.00  0.00    -0.118 C  
BRANCH  18  19
HETATM   19  N   UNL     1     -11.560  11.201  69.122  1.00  0.00    -0.294 NA 
BRANCH  19  20
HETATM   20  C   UNL     1     -11.752  12.442  69.975  1.00  0.00    -0.230 C  
HETATM   21  O   UNL     1     -13.339  13.039  71.716  1.00  0.00    -0.416 OA 
HETATM   22  O   UNL     1     -12.555  10.917  71.652  1.00  0.00    -0.375 OA 
HETATM   23  C   UNL     1     -12.643  12.185  71.188  1.00  0.00    -0.260 C  
ENDBRANCH  19  20
BRANCH  19  24
HETATM   24  C   UNL     1     -10.091  10.847  69.193  1.00  0.00    -0.177 C  
HETATM   25  C   UNL     1      -9.818   9.609  70.041  1.00  0.00    -0.246 C  
HETATM   26  O   UNL     1      -8.779   9.414  70.651  1.00  0.00    -0.223 OA 
HETATM   27  O   UNL     1     -10.826   8.706  69.989  1.00  0.00    -0.232 OA 
ENDBRANCH  19  24
ENDBRANCH  18  19
ENDBRANCH  17  18
ENDBRANCH   5  17
ENDBRANCH   3   5
TORSDOF 11
ENDMDL
MODEL      284
REMARK 921   NORMALIZED FREE ENERGY PREDICTED BY IDOCK:   -3.81 KCAL/MOL
REMARK 922        TOTAL FREE ENERGY PREDICTED BY IDOCK:   -8.01 KCAL/MOL
REMARK 923 INTER-LIGAND FREE ENERGY PREDICTED BY IDOCK:   -6.71 KCAL/MOL
REMARK 924 INTRA-LIGAND FREE ENERGY PREDICTED BY IDOCK:   -1.30 KCAL/MOL
REMARK 927      BINDING AFFINITY PREDICTED BY RF-SCORE:    0.00 PKD
ROOT
HETATM    1  O   UNL     1      -8.976   5.416  66.936  1.00  0.00    -0.111 OA 
HETATM    2  C   UNL     1     -10.303   5.493  66.680  1.00  0.00    -0.269 C  
HETATM    3  C   UNL     1     -11.003   6.558  67.520  1.00  0.00    -0.359 C  
HETATM    4  O   UNL     1     -10.878   4.756  65.893  1.00  0.00    -0.304 OA 
ENDROOT
BRANCH   3   5
HETATM    5  N   UNL     1     -10.117   7.733  67.831  1.00  0.00    -0.176 NA 
BRANCH   5   6
HETATM    6  C   UNL     1     -10.371   8.817  66.824  1.00  0.00    -0.258 C  
BRANCH   6   7
HETATM    7  C   UNL     1     -10.789  10.185  67.442  1.00  0.00    -0.261 C  
BRANCH   7   8
HETATM    8  N   UNL     1     -10.566  11.402  66.586  1.00  0.00    -0.247 NA 
BRANCH   8   9
HETATM    9  C   UNL     1      -9.495  12.240  67.263  1.00  0.00    -0.186 C  
HETATM   10  O   UNL     1      -7.940  11.060  65.858  1.00  0.00    -0.140 OA 
HETATM   11  C   UNL     1      -8.089  11.680  67.053  1.00  0.00    -0.164 C  
HETATM   12  O   UNL     1      -7.181  11.795  67.860  1.00  0.00    -0.082 OA 
ENDBRANCH   8   9
BRANCH   8  13
HETATM   13  C   UNL     1     -11.837  12.219  66.601  1.00  0.00    -0.289 C  
HETATM   14  O   UNL     1     -11.917  11.810  64.241  1.00  0.00    -0.280 OA 
HETATM   15  O   UNL     1     -12.859  13.728  64.996  1.00  0.00    -0.693 OA 
HETATM   16  C   UNL     1     -12.248  12.694  65.211  1.00  0.00    -0.475 C  
ENDBRANCH   8  13
ENDBRANCH   7   8
ENDBRANCH   6   7
ENDBRANCH   5   6
BRANCH   5  17
HETATM   17  C   UNL     1     -10.474   8.258  69.188  1.00  0.00    -0.206 C  
BRANCH  17  18
HETATM   18  C   UNL     1     -11.234   7.292  70.140  1.00  0.00    -0.239 C  
BRANCH  18  19
HETATM   19  N   UNL     1     -10.512   6.954  71.422  1.00  0.00    -0.209 NA 
BRANCH  19  20
HETATM   20  C   UNL     1     -11.554   6.451  72.406  1.00  0.00    -0.269 C  
HETATM   21  O   UNL     1     -11.956   4.295  73.453  1.00  0.00    -0.093 OA 
HETATM   22  O   UNL     1      -9.816   4.982  73.184  1.00  0.00    -0.149 OA 
HETATM   23  C   UNL     1     -11.156   5.127  73.054  1.00  0.00    -0.314 C  
ENDBRANCH  19  20
BRANCH  19  24
HETATM   24  C   UNL     1      -9.954   8.237  71.997  1.00  0.00    -0.257 C  
HETATM   25  C   UNL     1      -8.490   8.118  72.406  1.00  0.00    -0.179 C  
HETATM   26  O   UNL     1      -7.974   8.772  73.298  1.00  0.00    -0.409 OA 
HETATM   27  O   UNL     1      -7.795   7.260  71.622  1.00  0.00    -0.090 OA 
ENDBRANCH  19  24
ENDBRANCH  18  19
ENDBRANCH  17  18
ENDBRANCH   5  17
ENDBRANCH   3   5
TORSDOF 11
ENDMDL
MODEL      285
REMARK 921   NORMALIZED FREE ENERGY PREDICTED BY IDOCK:   -3.81 KCAL/MOL
REMARK 922        TOTAL FREE ENERGY PREDICTED BY IDOCK:   -8.00 KCAL/MOL
REMARK 923 INTER-LIGAND FREE ENERGY PREDICTED BY IDOCK:   -6.62 KCAL/MOL
REMARK 924 INTRA-LIGAND FREE ENERGY PREDICTED BY IDOCK:   -1.38 KCAL/MOL
REMARK 927      BINDING AFFINITY PREDICTED BY RF-SCORE:    0.00 PKD
ROOT
HETATM    1  O   UNL     1      -7.522  12.061  69.397  1.00  0.00     0.098 OA 
HETATM    2  C   UNL     1      -6.860  13.076  68.795  1.00  0.00    -0.102 C  
HETATM    3  C   UNL     1      -7.781  13.972  67.971  1.00  0.00    -0.149 C  
HETATM    4  O   UNL     1      -5.649  13.225  68.869  1.00  0.00    -0.071 OA 
ENDROOT
BRANCH   3   5
HETATM    5  N   UNL     1      -9.168  14.070  68.547  1.00  0.00    -0.193 NA 
BRANCH   5   6
HETATM    6  C   UNL     1      -9.442  15.498  68.919  1.00  0.00    -0.223 C  
BRANCH   6   7
HETATM    7  C   UNL     1      -8.225  16.455  68.741  1.00  0.00    -0.234 C  
BRANCH   7   8
HETATM    8  N   UNL     1      -8.321  17.458  67.623  1.00  0.00    -0.209 NA 
BRANCH   8   9
HETATM    9  C   UNL     1      -7.089  18.343  67.705  1.00  0.00    -0.209 C  
HETATM   10  O   UNL     1      -7.200  18.409  65.303  1.00  0.00    -0.504 OA 
HETATM   11  C   UNL     1      -6.363  18.466  66.366  1.00  0.00    -0.188 C  
HETATM   12  O   UNL     1      -5.158  18.624  66.255  1.00  0.00    -0.134 OA 
ENDBRANCH   8   9
BRANCH   8  13
HETATM   13  C   UNL     1      -9.515  18.343  67.896  1.00  0.00    -0.285 C  
HETATM   14  O   UNL     1     -10.267  17.696  65.713  1.00  0.00    -0.560 OA 
HETATM   15  O   UNL     1     -10.909  19.732  66.473  1.00  0.00    -0.451 OA 
HETATM   16  C   UNL     1     -10.289  18.693  66.629  1.00  0.00    -0.415 C  
ENDBRANCH   8  13
ENDBRANCH   7   8
ENDBRANCH   6   7
ENDBRANCH   5   6
BRANCH   5  17
HETATM   17  C   UNL     1     -10.154  13.659  67.497  1.00  0.00    -0.237 C  
BRANCH  17  18
HETATM   18  C   UNL     1     -10.456  12.139  67.369  1.00  0.00    -0.213 C  
BRANCH  18  19
HETATM   19  N   UNL     1     -10.110  11.525  66.033  1.00  0.00    -0.223 NA 
BRANCH  19  20
HETATM   20  C   UNL     1     -11.371  11.548  65.187  1.00  0.00    -0.086 C  
HETATM   21  O   UNL     1     -12.420  13.247  63.803  1.00  0.00    -0.666 OA 
HETATM   22  O   UNL     1     -10.162  13.087  63.789  1.00  0.00    -0.360 OA 
HETATM   23  C   UNL     1     -11.396  12.717  64.206  1.00  0.00    -0.367 C  
ENDBRANCH  19  20
BRANCH  19  24
HETATM   24  C   UNL     1      -9.765  10.070  66.263  1.00  0.00    -0.214 C  
HETATM   25  C   UNL     1      -8.766   9.528  65.247  1.00  0.00    -0.166 C  
HETATM   26  O   UNL     1      -8.711   8.359  64.899  1.00  0.00    -0.134 OA 
HETATM   27  O   UNL     1      -7.890  10.468  64.821  1.00  0.00    -0.122 OA 
ENDBRANCH  19  24
ENDBRANCH  18  19
ENDBRANCH  17  18
ENDBRANCH   5  17
ENDBRANCH   3   5
TORSDOF 11
ENDMDL
MODEL      286
REMARK 921   NORMALIZED FREE ENERGY PREDICTED BY IDOCK:   -3.80 KCAL/MOL
REMARK 922        TOTAL FREE ENERGY PREDICTED BY IDOCK:   -7.99 KCAL/MOL
REMARK 923 INTER-LIGAND FREE ENERGY PREDICTED BY IDOCK:   -7.73 KCAL/MOL
REMARK 924 INTRA-LIGAND FREE ENERGY PREDICTED BY IDOCK:   -0.26 KCAL/MOL
REMARK 927      BINDING AFFINITY PREDICTED BY RF-SCORE:    0.00 PKD
ROOT
HETATM    1  O   UNL     1     -13.154  13.289  64.650  1.00  0.00    -0.665 OA 
HETATM    2  C   UNL     1     -12.013  12.824  64.090  1.00  0.00    -0.427 C  
HETATM    3  C   UNL     1     -10.819  13.743  64.339  1.00  0.00    -0.328 C  
HETATM    4  O   UNL     1     -11.960  11.803  63.419  1.00  0.00    -0.474 OA 
ENDROOT
BRANCH   3   5
HETATM    5  N   UNL     1     -10.900  14.460  65.659  1.00  0.00    -0.304 NA 
BRANCH   5   6
HETATM    6  C   UNL     1     -10.012  13.764  66.649  1.00  0.00    -0.279 C  
BRANCH   6   7
HETATM    7  C   UNL     1     -10.774  13.056  67.810  1.00  0.00    -0.229 C  
BRANCH   7   8
HETATM    8  N   UNL     1     -10.383  11.631  68.095  1.00  0.00    -0.187 NA 
BRANCH   8   9
HETATM    9  C   UNL     1     -10.818  10.797  66.903  1.00  0.00    -0.229 C  
HETATM   10  O   UNL     1      -8.496  10.204  66.701  1.00  0.00    -0.125 OA 
HETATM   11  C   UNL     1      -9.646  10.390  66.011  1.00  0.00    -0.201 C  
HETATM   12  O   UNL     1      -9.733  10.221  64.805  1.00  0.00    -0.287 OA 
ENDBRANCH   8   9
BRANCH   8  13
HETATM   13  C   UNL     1     -11.191  11.157  69.280  1.00  0.00    -0.267 C  
HETATM   14  O   UNL     1      -9.136  10.216  70.079  1.00  0.00    -0.161 OA 
HETATM   15  O   UNL     1     -11.060   9.190  70.698  1.00  0.00    -0.240 OA 
HETATM   16  C   UNL     1     -10.482  10.068  70.079  1.00  0.00    -0.287 C  
ENDBRANCH   8  13
ENDBRANCH   7   8
ENDBRANCH   6   7
ENDBRANCH   5   6
BRANCH   5  17
HETATM   17  C   UNL     1     -10.397  15.859  65.477  1.00  0.00    -0.400 C  
BRANCH  17  18
HETATM   18  C   UNL     1      -9.169  16.284  66.332  1.00  0.00    -0.299 C  
BRANCH  18  19
HETATM   19  N   UNL     1      -9.248  17.670  66.926  1.00  0.00    -0.256 NA 
BRANCH  19  20
HETATM   20  C   UNL     1      -7.845  18.056  67.357  1.00  0.00    -0.216 C  
HETATM   21  O   UNL     1      -5.935  18.991  66.179  1.00  0.00    -0.156 OA 
HETATM   22  O   UNL     1      -8.004  19.745  65.653  1.00  0.00    -0.386 OA 
HETATM   23  C   UNL     1      -7.146  18.954  66.340  1.00  0.00    -0.231 C  
ENDBRANCH  19  20
BRANCH  19  24
HETATM   24  C   UNL     1     -10.085  17.591  68.184  1.00  0.00    -0.341 C  
HETATM   25  C   UNL     1      -9.740  16.386  69.053  1.00  0.00    -0.262 C  
HETATM   26  O   UNL     1     -10.534  15.828  69.793  1.00  0.00    -0.274 OA 
HETATM   27  O   UNL     1      -8.433  16.042  68.975  1.00  0.00    -0.218 OA 
ENDBRANCH  19  24
ENDBRANCH  18  19
ENDBRANCH  17  18
ENDBRANCH   5  17
ENDBRANCH   3   5
TORSDOF 11
ENDMDL
MODEL      287
REMARK 921   NORMALIZED FREE ENERGY PREDICTED BY IDOCK:   -3.80 KCAL/MOL
REMARK 922        TOTAL FREE ENERGY PREDICTED BY IDOCK:   -7.99 KCAL/MOL
REMARK 923 INTER-LIGAND FREE ENERGY PREDICTED BY IDOCK:   -6.25 KCAL/MOL
REMARK 924 INTRA-LIGAND FREE ENERGY PREDICTED BY IDOCK:   -1.74 KCAL/MOL
REMARK 927      BINDING AFFINITY PREDICTED BY RF-SCORE:    0.00 PKD
ROOT
HETATM    1  O   UNL     1      -9.569   2.814  68.126  1.00  0.00    -0.196 OA 
HETATM    2  C   UNL     1      -8.501   3.645  68.134  1.00  0.00    -0.093 C  
HETATM    3  C   UNL     1      -8.856   5.062  67.690  1.00  0.00    -0.103 C  
HETATM    4  O   UNL     1      -7.370   3.284  68.424  1.00  0.00    -0.050 OA 
ENDROOT
BRANCH   3   5
HETATM    5  N   UNL     1     -10.259   5.457  68.064  1.00  0.00    -0.175 NA 
BRANCH   5   6
HETATM    6  C   UNL     1     -10.291   5.828  69.518  1.00  0.00    -0.263 C  
BRANCH   6   7
HETATM    7  C   UNL     1     -11.641   6.443  69.996  1.00  0.00    -0.377 C  
BRANCH   7   8
HETATM    8  N   UNL     1     -11.615   7.176  71.310  1.00  0.00    -0.279 NA 
BRANCH   8   9
HETATM    9  C   UNL     1     -11.783   6.140  72.408  1.00  0.00    -0.272 C  
HETATM   10  O   UNL     1     -10.397   7.586  73.737  1.00  0.00    -0.323 OA 
HETATM   11  C   UNL     1     -10.758   6.299  73.530  1.00  0.00    -0.242 C  
HETATM   12  O   UNL     1     -10.323   5.371  74.193  1.00  0.00    -0.240 OA 
ENDBRANCH   8   9
BRANCH   8  13
HETATM   13  C   UNL     1     -12.828   8.074  71.365  1.00  0.00    -0.269 C  
HETATM   14  O   UNL     1     -11.287   9.878  71.025  1.00  0.00    -0.342 OA 
HETATM   15  O   UNL     1     -13.184  10.334  72.177  1.00  0.00    -0.452 OA 
HETATM   16  C   UNL     1     -12.467   9.538  71.594  1.00  0.00    -0.391 C  
ENDBRANCH   8  13
ENDBRANCH   7   8
ENDBRANCH   6   7
ENDBRANCH   5   6
BRANCH   5  17
HETATM   17  C   UNL     1     -10.649   6.661  67.262  1.00  0.00    -0.317 C  
BRANCH  17  18
HETATM   18  C   UNL     1      -9.496   7.565  66.741  1.00  0.00    -0.179 C  
BRANCH  18  19
HETATM   19  N   UNL     1      -9.471   8.965  67.309  1.00  0.00    -0.149 NA 
BRANCH  19  20
HETATM   20  C   UNL     1      -8.596   8.931  68.549  1.00  0.00    -0.133 C  
HETATM   21  O   UNL     1      -6.360   9.750  69.036  1.00  0.00    -0.041 OA 
HETATM   22  O   UNL     1      -7.714  11.015  67.736  1.00  0.00    -0.104 OA 
HETATM   23  C   UNL     1      -7.430   9.913  68.470  1.00  0.00    -0.082 C  
ENDBRANCH  19  20
BRANCH  19  24
HETATM   24  C   UNL     1     -10.871   9.306  67.771  1.00  0.00    -0.126 C  
HETATM   25  C   UNL     1     -11.291  10.723  67.397  1.00  0.00    -0.160 C  
HETATM   26  O   UNL     1     -12.089  11.390  68.037  1.00  0.00    -0.629 OA 
HETATM   27  O   UNL     1     -10.742  11.142  66.233  1.00  0.00    -0.266 OA 
ENDBRANCH  19  24
ENDBRANCH  18  19
ENDBRANCH  17  18
ENDBRANCH   5  17
ENDBRANCH   3   5
TORSDOF 11
ENDMDL
MODEL      288
REMARK 921   NORMALIZED FREE ENERGY PREDICTED BY IDOCK:   -3.79 KCAL/MOL
REMARK 922        TOTAL FREE ENERGY PREDICTED BY IDOCK:   -7.97 KCAL/MOL
REMARK 923 INTER-LIGAND FREE ENERGY PREDICTED BY IDOCK:   -6.23 KCAL/MOL
REMARK 924 INTRA-LIGAND FREE ENERGY PREDICTED BY IDOCK:   -1.74 KCAL/MOL
REMARK 927      BINDING AFFINITY PREDICTED BY RF-SCORE:    0.00 PKD
ROOT
HETATM    1  O   UNL     1      -5.394  15.793  69.728  1.00  0.00    -0.110 OA 
HETATM    2  C   UNL     1      -5.680  14.762  70.558  1.00  0.00    -0.152 C  
HETATM    3  C   UNL     1      -6.770  13.847  70.005  1.00  0.00     0.088 C  
HETATM    4  O   UNL     1      -5.152  14.613  71.650  1.00  0.00    -0.140 OA 
ENDROOT
BRANCH   3   5
HETATM    5  N   UNL     1      -6.756  13.765  68.503  1.00  0.00    -0.085 NA 
BRANCH   5   6
HETATM    6  C   UNL     1      -6.604  12.328  68.093  1.00  0.00    -0.067 C  
BRANCH   6   7
HETATM    7  C   UNL     1      -7.113  11.301  69.149  1.00  0.00    -0.122 C  
BRANCH   7   8
HETATM    8  N   UNL     1      -8.448  10.663  68.871  1.00  0.00    -0.148 NA 
BRANCH   8   9
HETATM    9  C   UNL     1      -8.584   9.477  69.810  1.00  0.00    -0.192 C  
HETATM   10  O   UNL     1     -10.904  10.092  69.960  1.00  0.00    -0.266 OA 
HETATM   11  C   UNL     1      -9.875   9.517  70.625  1.00  0.00    -0.262 C  
HETATM   12  O   UNL     1      -9.986   9.058  71.752  1.00  0.00    -0.325 OA 
ENDBRANCH   8   9
BRANCH   8  13
HETATM   13  C   UNL     1      -8.414  10.109  67.466  1.00  0.00    -0.118 C  
HETATM   14  O   UNL     1     -10.197  11.645  67.009  1.00  0.00    -0.206 OA 
HETATM   15  O   UNL     1     -10.129   9.738  65.788  1.00  0.00    -0.293 OA 
HETATM   16  C   UNL     1      -9.672  10.444  66.672  1.00  0.00    -0.190 C  
ENDBRANCH   8  13
ENDBRANCH   7   8
ENDBRANCH   6   7
ENDBRANCH   5   6
BRANCH   5  17
HETATM   17  C   UNL     1      -8.069  14.266  67.983  1.00  0.00    -0.145 C  
BRANCH  17  18
HETATM   18  C   UNL     1      -8.844  15.272  68.879  1.00  0.00    -0.209 C  
BRANCH  18  19
HETATM   19  N   UNL     1     -10.324  15.378  68.594  1.00  0.00    -0.228 NA 
BRANCH  19  20
HETATM   20  C   UNL     1     -10.498  16.422  67.505  1.00  0.00    -0.304 C  
HETATM   21  O   UNL     1     -10.566  16.307  65.079  1.00  0.00    -0.620 OA 
HETATM   22  O   UNL     1     -11.565  14.658  66.267  1.00  0.00    -0.366 OA 
HETATM   23  C   UNL     1     -10.854  15.806  66.155  1.00  0.00    -0.240 C  
ENDBRANCH  19  20
BRANCH  19  24
HETATM   24  C   UNL     1     -11.000  15.923  69.833  1.00  0.00    -0.343 C  
HETATM   25  C   UNL     1     -12.296  15.194  70.172  1.00  0.00    -0.341 C  
HETATM   26  O   UNL     1     -13.236  15.709  70.756  1.00  0.00    -0.517 OA 
HETATM   27  O   UNL     1     -12.268  13.886  69.822  1.00  0.00    -0.330 OA 
ENDBRANCH  19  24
ENDBRANCH  18  19
ENDBRANCH  17  18
ENDBRANCH   5  17
ENDBRANCH   3   5
TORSDOF 11
ENDMDL
MODEL      289
REMARK 921   NORMALIZED FREE ENERGY PREDICTED BY IDOCK:   -3.77 KCAL/MOL
REMARK 922        TOTAL FREE ENERGY PREDICTED BY IDOCK:   -7.94 KCAL/MOL
REMARK 923 INTER-LIGAND FREE ENERGY PREDICTED BY IDOCK:   -6.59 KCAL/MOL
REMARK 924 INTRA-LIGAND FREE ENERGY PREDICTED BY IDOCK:   -1.35 KCAL/MOL
REMARK 927      BINDING AFFINITY PREDICTED BY RF-SCORE:    0.00 PKD
ROOT
HETATM    1  O   UNL     1      -6.550  14.720  67.119  1.00  0.00    -0.253 OA 
HETATM    2  C   UNL     1      -6.258  13.946  68.190  1.00  0.00    -0.128 C  
HETATM    3  C   UNL     1      -7.491  13.260  68.774  1.00  0.00    -0.053 C  
HETATM    4  O   UNL     1      -5.135  13.847  68.662  1.00  0.00    -0.080 OA 
ENDROOT
BRANCH   3   5
HETATM    5  N   UNL     1      -8.526  12.934  67.731  1.00  0.00    -0.171 NA 
BRANCH   5   6
HETATM    6  C   UNL     1      -8.355  11.505  67.304  1.00  0.00    -0.154 C  
BRANCH   6   7
HETATM    7  C   UNL     1      -8.663  11.242  65.799  1.00  0.00    -0.109 C  
BRANCH   7   8
HETATM    8  N   UNL     1      -9.949  10.522  65.496  1.00  0.00    -0.262 NA 
BRANCH   8   9
HETATM    9  C   UNL     1     -11.020  11.579  65.291  1.00  0.00    -0.228 C  
HETATM   10  O   UNL     1      -9.984  11.957  63.154  1.00  0.00    -0.422 OA 
HETATM   11  C   UNL     1     -10.687  12.542  64.152  1.00  0.00    -0.391 C  
HETATM   12  O   UNL     1     -11.036  13.712  64.123  1.00  0.00    -0.354 OA 
ENDBRANCH   8   9
BRANCH   8  13
HETATM   13  C   UNL     1     -10.340   9.733  66.723  1.00  0.00    -0.218 C  
HETATM   14  O   UNL     1      -9.042   7.955  65.775  1.00  0.00    -0.134 OA 
HETATM   15  O   UNL     1     -10.780   7.377  67.111  1.00  0.00    -0.323 OA 
HETATM   16  C   UNL     1     -10.112   8.235  66.557  1.00  0.00    -0.233 C  
ENDBRANCH   8  13
ENDBRANCH   7   8
ENDBRANCH   6   7
ENDBRANCH   5   6
BRANCH   5  17
HETATM   17  C   UNL     1      -9.886  13.085  68.340  1.00  0.00    -0.203 C  
BRANCH  17  18
HETATM   18  C   UNL     1     -10.732  14.307  67.884  1.00  0.00    -0.240 C  
BRANCH  18  19
HETATM   19  N   UNL     1     -10.344  15.626  68.508  1.00  0.00    -0.216 NA 
BRANCH  19  20
HETATM   20  C   UNL     1     -11.620  16.284  69.000  1.00  0.00    -0.231 C  
HETATM   21  O   UNL     1     -13.326  15.624  70.601  1.00  0.00    -0.494 OA 
HETATM   22  O   UNL     1     -11.163  15.152  71.072  1.00  0.00    -0.314 OA 
HETATM   23  C   UNL     1     -12.146  15.650  70.286  1.00  0.00    -0.385 C  
ENDBRANCH  19  20
BRANCH  19  24
HETATM   24  C   UNL     1      -9.790  16.514  67.415  1.00  0.00    -0.253 C  
HETATM   25  C   UNL     1      -8.786  17.538  67.933  1.00  0.00    -0.247 C  
HETATM   26  O   UNL     1      -8.591  18.626  67.416  1.00  0.00    -0.265 OA 
HETATM   27  O   UNL     1      -8.073  17.084  68.991  1.00  0.00    -0.226 OA 
ENDBRANCH  19  24
ENDBRANCH  18  19
ENDBRANCH  17  18
ENDBRANCH   5  17
ENDBRANCH   3   5
TORSDOF 11
ENDMDL
MODEL      290
REMARK 921   NORMALIZED FREE ENERGY PREDICTED BY IDOCK:   -3.76 KCAL/MOL
REMARK 922        TOTAL FREE ENERGY PREDICTED BY IDOCK:   -7.92 KCAL/MOL
REMARK 923 INTER-LIGAND FREE ENERGY PREDICTED BY IDOCK:   -6.42 KCAL/MOL
REMARK 924 INTRA-LIGAND FREE ENERGY PREDICTED BY IDOCK:   -1.50 KCAL/MOL
REMARK 927      BINDING AFFINITY PREDICTED BY RF-SCORE:    0.00 PKD
ROOT
HETATM    1  O   UNL     1     -10.559   9.828  70.564  1.00  0.00    -0.277 OA 
HETATM    2  C   UNL     1     -10.766   8.948  69.557  1.00  0.00    -0.199 C  
HETATM    3  C   UNL     1     -10.827   9.623  68.189  1.00  0.00    -0.190 C  
HETATM    4  O   UNL     1     -10.931   7.750  69.735  1.00  0.00    -0.237 OA 
ENDROOT
BRANCH   3   5
HETATM    5  N   UNL     1      -9.950  10.843  68.101  1.00  0.00    -0.169 NA 
BRANCH   5   6
HETATM    6  C   UNL     1      -8.907  10.620  67.044  1.00  0.00    -0.137 C  
BRANCH   6   7
HETATM    7  C   UNL     1      -9.100   9.314  66.216  1.00  0.00    -0.171 C  
BRANCH   7   8
HETATM    8  N   UNL     1      -7.846   8.642  65.726  1.00  0.00    -0.097 NA 
BRANCH   8   9
HETATM    9  C   UNL     1      -6.670   9.472  66.210  1.00  0.00    -0.075 C  
HETATM   10  O   UNL     1      -5.737   7.387  66.959  1.00  0.00    -0.028 OA 
HETATM   11  C   UNL     1      -5.784   8.718  67.199  1.00  0.00    -0.042 C  
HETATM   12  O   UNL     1      -5.159   9.253  68.101  1.00  0.00    -0.034 OA 
ENDBRANCH   8   9
BRANCH   8  13
HETATM   13  C   UNL     1      -7.841   8.712  64.217  1.00  0.00    -0.140 C  
HETATM   14  O   UNL     1      -7.810   6.316  64.283  1.00  0.00    -0.105 OA 
HETATM   15  O   UNL     1      -6.847   7.319  62.494  1.00  0.00    -0.065 OA 
HETATM   16  C   UNL     1      -7.421   7.397  63.568  1.00  0.00    -0.104 C  
ENDBRANCH   8  13
ENDBRANCH   7   8
ENDBRANCH   6   7
ENDBRANCH   5   6
BRANCH   5  17
HETATM   17  C   UNL     1     -10.793  12.011  67.692  1.00  0.00    -0.231 C  
BRANCH  17  18
HETATM   18  C   UNL     1     -10.113  13.098  66.811  1.00  0.00    -0.253 C  
BRANCH  18  19
HETATM   19  N   UNL     1     -10.867  13.473  65.558  1.00  0.00    -0.283 NA 
BRANCH  19  20
HETATM   20  C   UNL     1     -10.065  12.954  64.378  1.00  0.00    -0.240 C  
HETATM   21  O   UNL     1     -10.096  10.870  63.128  1.00  0.00    -0.328 OA 
HETATM   22  O   UNL     1     -12.068  11.751  63.806  1.00  0.00    -0.423 OA 
HETATM   23  C   UNL     1     -10.717  11.743  63.715  1.00  0.00    -0.419 C  
ENDBRANCH  19  20
BRANCH  19  24
HETATM   24  C   UNL     1     -10.873  14.983  65.451  1.00  0.00    -0.364 C  
HETATM   25  C   UNL     1     -11.859  15.501  64.409  1.00  0.00    -0.219 C  
HETATM   26  O   UNL     1     -11.715  16.544  63.792  1.00  0.00    -1.086 OA 
HETATM   27  O   UNL     1     -12.956  14.717  64.291  1.00  0.00    -0.508 OA 
ENDBRANCH  19  24
ENDBRANCH  18  19
ENDBRANCH  17  18
ENDBRANCH   5  17
ENDBRANCH   3   5
TORSDOF 11
ENDMDL
MODEL      291
REMARK 921   NORMALIZED FREE ENERGY PREDICTED BY IDOCK:   -3.76 KCAL/MOL
REMARK 922        TOTAL FREE ENERGY PREDICTED BY IDOCK:   -7.92 KCAL/MOL
REMARK 923 INTER-LIGAND FREE ENERGY PREDICTED BY IDOCK:   -7.87 KCAL/MOL
REMARK 924 INTRA-LIGAND FREE ENERGY PREDICTED BY IDOCK:   -0.05 KCAL/MOL
REMARK 927      BINDING AFFINITY PREDICTED BY RF-SCORE:    0.00 PKD
ROOT
HETATM    1  O   UNL     1     -12.318  13.710  66.602  1.00  0.00    -0.397 OA 
HETATM    2  C   UNL     1     -12.052  12.851  65.590  1.00  0.00    -0.458 C  
HETATM    3  C   UNL     1     -10.626  12.307  65.640  1.00  0.00    -0.260 C  
HETATM    4  O   UNL     1     -12.855  12.582  64.709  1.00  0.00    -0.755 OA 
ENDROOT
BRANCH   3   5
HETATM    5  N   UNL     1     -10.102  12.172  67.044  1.00  0.00    -0.203 NA 
BRANCH   5   6
HETATM    6  C   UNL     1     -10.283  10.752  67.499  1.00  0.00    -0.196 C  
BRANCH   6   7
HETATM    7  C   UNL     1     -11.596  10.495  68.297  1.00  0.00    -0.101 C  
BRANCH   7   8
HETATM    8  N   UNL     1     -11.477   9.623  69.518  1.00  0.00    -0.037 NA 
BRANCH   8   9
HETATM    9  C   UNL     1     -11.480  10.540  70.729  1.00  0.00    -0.285 C  
HETATM   10  O   UNL     1     -13.468   9.362  71.392  1.00  0.00    -0.372 OA 
HETATM   11  C   UNL     1     -12.823  10.550  71.457  1.00  0.00    -0.463 C  
HETATM   12  O   UNL     1     -13.265  11.515  72.061  1.00  0.00    -0.509 OA 
ENDBRANCH   8   9
BRANCH   8  13
HETATM   13  C   UNL     1     -10.124   8.953  69.479  1.00  0.00    -0.198 C  
HETATM   14  O   UNL     1     -11.297   6.950  70.078  1.00  0.00    -0.298 OA 
HETATM   15  O   UNL     1      -9.139   7.129  70.744  1.00  0.00    -0.152 OA 
HETATM   16  C   UNL     1     -10.116   7.602  70.187  1.00  0.00    -0.199 C  
ENDBRANCH   8  13
ENDBRANCH   7   8
ENDBRANCH   6   7
ENDBRANCH   5   6
BRANCH   5  17
HETATM   17  C   UNL     1      -8.637  12.483  67.042  1.00  0.00    -0.188 C  
BRANCH  17  18
HETATM   18  C   UNL     1      -8.217  13.902  67.518  1.00  0.00    -0.188 C  
BRANCH  18  19
HETATM   19  N   UNL     1      -9.314  14.939  67.494  1.00  0.00    -0.190 NA 
BRANCH  19  20
HETATM   20  C   UNL     1      -9.117  15.774  66.241  1.00  0.00    -0.338 C  
HETATM   21  O   UNL     1      -7.814  17.766  65.751  1.00  0.00    -0.541 OA 
HETATM   22  O   UNL     1      -6.916  16.196  67.113  1.00  0.00    -0.180 OA 
HETATM   23  C   UNL     1      -7.906  16.698  66.338  1.00  0.00    -0.312 C  
ENDBRANCH  19  20
BRANCH  19  24
HETATM   24  C   UNL     1      -9.107  15.866  68.672  1.00  0.00    -0.206 C  
HETATM   25  C   UNL     1     -10.363  16.649  69.041  1.00  0.00    -0.317 C  
HETATM   26  O   UNL     1     -10.351  17.752  69.563  1.00  0.00    -0.168 OA 
HETATM   27  O   UNL     1     -11.501  15.958  68.796  1.00  0.00    -0.357 OA 
ENDBRANCH  19  24
ENDBRANCH  18  19
ENDBRANCH  17  18
ENDBRANCH   5  17
ENDBRANCH   3   5
TORSDOF 11
ENDMDL
MODEL      292
REMARK 921   NORMALIZED FREE ENERGY PREDICTED BY IDOCK:   -3.76 KCAL/MOL
REMARK 922        TOTAL FREE ENERGY PREDICTED BY IDOCK:   -7.91 KCAL/MOL
REMARK 923 INTER-LIGAND FREE ENERGY PREDICTED BY IDOCK:   -7.37 KCAL/MOL
REMARK 924 INTRA-LIGAND FREE ENERGY PREDICTED BY IDOCK:   -0.55 KCAL/MOL
REMARK 927      BINDING AFFINITY PREDICTED BY RF-SCORE:    0.00 PKD
ROOT
HETATM    1  O   UNL     1      -8.873  19.794  65.738  1.00  0.00    -0.375 OA 
HETATM    2  C   UNL     1      -7.769  19.061  66.015  1.00  0.00    -0.229 C  
HETATM    3  C   UNL     1      -8.105  17.681  66.576  1.00  0.00    -0.270 C  
HETATM    4  O   UNL     1      -6.631  19.482  65.873  1.00  0.00    -0.205 OA 
ENDROOT
BRANCH   3   5
HETATM    5  N   UNL     1      -9.392  17.126  66.029  1.00  0.00    -0.504 NA 
BRANCH   5   6
HETATM    6  C   UNL     1      -9.204  15.670  65.718  1.00  0.00    -0.211 C  
BRANCH   6   7
HETATM    7  C   UNL     1     -10.525  14.843  65.680  1.00  0.00    -0.349 C  
BRANCH   7   8
HETATM    8  N   UNL     1     -10.376  13.349  65.594  1.00  0.00    -0.285 NA 
BRANCH   8   9
HETATM    9  C   UNL     1     -11.736  12.781  65.227  1.00  0.00    -0.368 C  
HETATM   10  O   UNL     1     -10.759  12.303  63.083  1.00  0.00    -0.371 OA 
HETATM   11  C   UNL     1     -11.915  12.605  63.720  1.00  0.00    -0.510 C  
HETATM   12  O   UNL     1     -12.987  12.699  63.144  1.00  0.00    -0.524 OA 
ENDBRANCH   8   9
BRANCH   8  13
HETATM   13  C   UNL     1     -10.044  12.835  66.975  1.00  0.00    -0.240 C  
HETATM   14  O   UNL     1      -9.759  10.702  65.919  1.00  0.00    -0.202 OA 
HETATM   15  O   UNL     1     -10.415  10.709  68.088  1.00  0.00    -0.167 OA 
HETATM   16  C   UNL     1     -10.119  11.315  67.071  1.00  0.00    -0.206 C  
ENDBRANCH   8  13
ENDBRANCH   7   8
ENDBRANCH   6   7
ENDBRANCH   5   6
BRANCH   5  17
HETATM   17  C   UNL     1     -10.453  17.250  67.079  1.00  0.00    -0.287 C  
BRANCH  17  18
HETATM   18  C   UNL     1      -9.981  17.268  68.560  1.00  0.00    -0.320 C  
BRANCH  18  19
HETATM   19  N   UNL     1      -9.624  15.919  69.137  1.00  0.00    -0.238 NA 
BRANCH  19  20
HETATM   20  C   UNL     1     -10.484  15.715  70.371  1.00  0.00    -0.192 C  
HETATM   21  O   UNL     1     -12.883  15.562  70.726  1.00  0.00    -0.458 OA 
HETATM   22  O   UNL     1     -12.000  14.592  68.881  1.00  0.00    -0.315 OA 
HETATM   23  C   UNL     1     -11.914  15.307  70.027  1.00  0.00    -0.343 C  
ENDBRANCH  19  20
BRANCH  19  24
HETATM   24  C   UNL     1      -8.188  15.979  69.611  1.00  0.00     0.140 C  
HETATM   25  C   UNL     1      -7.466  14.641  69.491  1.00  0.00    -0.074 C  
HETATM   26  O   UNL     1      -6.549  14.292  70.218  1.00  0.00    -0.138 OA 
HETATM   27  O   UNL     1      -7.900  13.904  68.442  1.00  0.00    -0.126 OA 
ENDBRANCH  19  24
ENDBRANCH  18  19
ENDBRANCH  17  18
ENDBRANCH   5  17
ENDBRANCH   3   5
TORSDOF 11
ENDMDL
MODEL      293
REMARK 921   NORMALIZED FREE ENERGY PREDICTED BY IDOCK:   -3.74 KCAL/MOL
REMARK 922        TOTAL FREE ENERGY PREDICTED BY IDOCK:   -7.89 KCAL/MOL
REMARK 923 INTER-LIGAND FREE ENERGY PREDICTED BY IDOCK:   -8.13 KCAL/MOL
REMARK 924 INTRA-LIGAND FREE ENERGY PREDICTED BY IDOCK:    0.24 KCAL/MOL
REMARK 927      BINDING AFFINITY PREDICTED BY RF-SCORE:    0.00 PKD
ROOT
HETATM    1  O   UNL     1     -13.274  13.990  65.255  1.00  0.00    -0.782 OA 
HETATM    2  C   UNL     1     -12.727  12.815  64.865  1.00  0.00    -0.404 C  
HETATM    3  C   UNL     1     -11.341  12.584  65.461  1.00  0.00    -0.331 C  
HETATM    4  O   UNL     1     -13.271  12.048  64.084  1.00  0.00    -0.712 OA 
ENDROOT
BRANCH   3   5
HETATM    5  N   UNL     1     -11.183  13.196  66.827  1.00  0.00    -0.289 NA 
BRANCH   5   6
HETATM    6  C   UNL     1     -10.798  12.122  67.802  1.00  0.00    -0.224 C  
BRANCH   6   7
HETATM    7  C   UNL     1     -10.504  10.737  67.151  1.00  0.00    -0.237 C  
BRANCH   7   8
HETATM    8  N   UNL     1      -9.054  10.377  66.971  1.00  0.00    -0.139 NA 
BRANCH   8   9
HETATM    9  C   UNL     1      -8.994   9.234  65.973  1.00  0.00    -0.176 C  
HETATM   10  O   UNL     1     -10.657   8.180  67.352  1.00  0.00    -0.279 OA 
HETATM   11  C   UNL     1      -9.623   7.949  66.510  1.00  0.00    -0.212 C  
HETATM   12  O   UNL     1      -9.257   6.827  66.198  1.00  0.00    -0.154 OA 
ENDBRANCH   8   9
BRANCH   8  13
HETATM   13  C   UNL     1      -8.543   9.839  68.286  1.00  0.00    -0.119 C  
HETATM   14  O   UNL     1      -7.395  11.933  68.494  1.00  0.00    -0.098 OA 
HETATM   15  O   UNL     1      -6.462  10.131  69.502  1.00  0.00    -0.046 OA 
HETATM   16  C   UNL     1      -7.344  10.619  68.816  1.00  0.00    -0.100 C  
ENDBRANCH   8  13
ENDBRANCH   7   8
ENDBRANCH   6   7
ENDBRANCH   5   6
BRANCH   5  17
HETATM   17  C   UNL     1     -10.077  14.204  66.776  1.00  0.00    -0.262 C  
BRANCH  17  18
HETATM   18  C   UNL     1     -10.417  15.649  67.239  1.00  0.00    -0.292 C  
BRANCH  18  19
HETATM   19  N   UNL     1      -9.543  16.734  66.654  1.00  0.00    -0.246 NA 
BRANCH  19  20
HETATM   20  C   UNL     1      -8.219  16.693  67.396  1.00  0.00    -0.169 C  
HETATM   21  O   UNL     1      -5.904  16.548  66.670  1.00  0.00    -0.330 OA 
HETATM   22  O   UNL     1      -7.335  17.824  65.467  1.00  0.00    -0.489 OA 
HETATM   23  C   UNL     1      -7.029  16.987  66.486  1.00  0.00    -0.256 C  
ENDBRANCH  19  20
BRANCH  19  24
HETATM   24  C   UNL     1     -10.181  18.069  66.972  1.00  0.00    -0.362 C  
HETATM   25  C   UNL     1     -10.657  18.811  65.728  1.00  0.00    -0.271 C  
HETATM   26  O   UNL     1     -10.726  20.027  65.643  1.00  0.00    -0.439 OA 
HETATM   27  O   UNL     1     -11.069  17.976  64.746  1.00  0.00    -0.708 OA 
ENDBRANCH  19  24
ENDBRANCH  18  19
ENDBRANCH  17  18
ENDBRANCH   5  17
ENDBRANCH   3   5
TORSDOF 11
ENDMDL
MODEL      294
REMARK 921   NORMALIZED FREE ENERGY PREDICTED BY IDOCK:   -3.74 KCAL/MOL
REMARK 922        TOTAL FREE ENERGY PREDICTED BY IDOCK:   -7.89 KCAL/MOL
REMARK 923 INTER-LIGAND FREE ENERGY PREDICTED BY IDOCK:   -8.11 KCAL/MOL
REMARK 924 INTRA-LIGAND FREE ENERGY PREDICTED BY IDOCK:    0.22 KCAL/MOL
REMARK 927      BINDING AFFINITY PREDICTED BY RF-SCORE:    0.00 PKD
ROOT
HETATM    1  O   UNL     1      -8.381  15.204  69.421  1.00  0.00    -0.223 OA 
HETATM    2  C   UNL     1      -7.269  14.537  69.033  1.00  0.00    -0.130 C  
HETATM    3  C   UNL     1      -7.109  14.494  67.515  1.00  0.00    -0.175 C  
HETATM    4  O   UNL     1      -6.506  13.991  69.816  1.00  0.00    -0.131 OA 
ENDROOT
BRANCH   3   5
HETATM    5  N   UNL     1      -7.660  15.718  66.835  1.00  0.00    -0.223 NA 
BRANCH   5   6
HETATM    6  C   UNL     1      -9.122  15.508  66.562  1.00  0.00    -0.302 C  
BRANCH   6   7
HETATM    7  C   UNL     1      -9.555  14.013  66.492  1.00  0.00    -0.293 C  
BRANCH   7   8
HETATM    8  N   UNL     1     -11.004  13.750  66.180  1.00  0.00    -0.291 NA 
BRANCH   8   9
HETATM    9  C   UNL     1     -11.591  12.999  67.362  1.00  0.00    -0.356 C  
HETATM   10  O   UNL     1     -12.023  15.172  68.297  1.00  0.00    -0.298 OA 
HETATM   11  C   UNL     1     -11.751  13.881  68.599  1.00  0.00    -0.361 C  
HETATM   12  O   UNL     1     -11.669  13.469  69.746  1.00  0.00    -0.293 OA 
ENDBRANCH   8   9
BRANCH   8  13
HETATM   13  C   UNL     1     -11.060  12.816  64.994  1.00  0.00    -0.285 C  
HETATM   14  O   UNL     1     -12.714  14.314  64.118  1.00  0.00    -0.652 OA 
HETATM   15  O   UNL     1     -12.850  12.139  63.499  1.00  0.00    -0.768 OA 
HETATM   16  C   UNL     1     -12.307  13.023  64.140  1.00  0.00    -0.358 C  
ENDBRANCH   8  13
ENDBRANCH   7   8
ENDBRANCH   6   7
ENDBRANCH   5   6
BRANCH   5  17
HETATM   17  C   UNL     1      -7.517  16.887  67.760  1.00  0.00    -0.164 C  
BRANCH  17  18
HETATM   18  C   UNL     1      -6.306  17.832  67.520  1.00  0.00    -0.166 C  
BRANCH  18  19
HETATM   19  N   UNL     1      -6.557  18.965  66.553  1.00  0.00    -0.190 NA 
BRANCH  19  20
HETATM   20  C   UNL     1      -8.062  19.119  66.422  1.00  0.00    -0.308 C  
HETATM   21  O   UNL     1      -9.731  20.345  67.694  1.00  0.00    -0.406 OA 
HETATM   22  O   UNL     1      -7.715  21.313  67.343  1.00  0.00    -0.361 OA 
HETATM   23  C   UNL     1      -8.602  20.297  67.228  1.00  0.00    -0.347 C  
ENDBRANCH  19  20
BRANCH  19  24
HETATM   24  C   UNL     1      -6.041  18.543  65.195  1.00  0.00    -0.225 C  
HETATM   25  C   UNL     1      -5.848  19.717  64.241  1.00  0.00    -0.264 C  
HETATM   26  O   UNL     1      -5.937  19.633  63.027  1.00  0.00    -0.339 OA 
HETATM   27  O   UNL     1      -5.491  20.857  64.879  1.00  0.00    -0.200 OA 
ENDBRANCH  19  24
ENDBRANCH  18  19
ENDBRANCH  17  18
ENDBRANCH   5  17
ENDBRANCH   3   5
TORSDOF 11
ENDMDL
MODEL      295
REMARK 921   NORMALIZED FREE ENERGY PREDICTED BY IDOCK:   -3.72 KCAL/MOL
REMARK 922        TOTAL FREE ENERGY PREDICTED BY IDOCK:   -7.85 KCAL/MOL
REMARK 923 INTER-LIGAND FREE ENERGY PREDICTED BY IDOCK:   -6.65 KCAL/MOL
REMARK 924 INTRA-LIGAND FREE ENERGY PREDICTED BY IDOCK:   -1.20 KCAL/MOL
REMARK 927      BINDING AFFINITY PREDICTED BY RF-SCORE:    0.00 PKD
ROOT
HETATM    1  O   UNL     1      -6.938  11.621  69.004  1.00  0.00    -0.099 OA 
HETATM    2  C   UNL     1      -7.177  11.814  67.686  1.00  0.00    -0.111 C  
HETATM    3  C   UNL     1      -8.649  11.634  67.323  1.00  0.00    -0.154 C  
HETATM    4  O   UNL     1      -6.298  12.061  66.873  1.00  0.00    -0.147 OA 
ENDROOT
BRANCH   3   5
HETATM    5  N   UNL     1      -9.578  12.038  68.435  1.00  0.00    -0.205 NA 
BRANCH   5   6
HETATM    6  C   UNL     1     -10.459  13.154  67.954  1.00  0.00    -0.240 C  
BRANCH   6   7
HETATM    7  C   UNL     1     -11.422  13.727  69.038  1.00  0.00    -0.305 C  
BRANCH   7   8
HETATM    8  N   UNL     1     -11.131  15.121  69.522  1.00  0.00    -0.261 NA 
BRANCH   8   9
HETATM    9  C   UNL     1      -9.737  15.484  69.040  1.00  0.00    -0.237 C  
HETATM   10  O   UNL     1     -10.672  17.640  68.527  1.00  0.00    -0.311 OA 
HETATM   11  C   UNL     1      -9.724  16.741  68.172  1.00  0.00    -0.247 C  
HETATM   12  O   UNL     1      -8.928  16.937  67.266  1.00  0.00    -0.200 OA 
ENDBRANCH   8   9
BRANCH   8  13
HETATM   13  C   UNL     1     -11.078  15.087  71.031  1.00  0.00    -0.169 C  
HETATM   14  O   UNL     1     -13.373  15.775  70.950  1.00  0.00    -0.576 OA 
HETATM   15  O   UNL     1     -12.162  16.404  72.760  1.00  0.00    -0.504 OA 
HETATM   16  C   UNL     1     -12.233  15.844  71.678  1.00  0.00    -0.479 C  
ENDBRANCH   8  13
ENDBRANCH   7   8
ENDBRANCH   6   7
ENDBRANCH   5   6
BRANCH   5  17
HETATM   17  C   UNL     1     -10.447  10.868  68.783  1.00  0.00    -0.200 C  
BRANCH  17  18
HETATM   18  C   UNL     1      -9.787   9.715  69.591  1.00  0.00    -0.215 C  
BRANCH  18  19
HETATM   19  N   UNL     1     -10.095   8.323  69.092  1.00  0.00    -0.197 NA 
BRANCH  19  20
HETATM   20  C   UNL     1      -9.692   7.353  70.188  1.00  0.00    -0.175 C  
HETATM   21  O   UNL     1     -10.835   6.477  72.145  1.00  0.00    -0.218 OA 
HETATM   22  O   UNL     1     -12.020   6.754  70.236  1.00  0.00    -0.352 OA 
HETATM   23  C   UNL     1     -10.889   6.830  70.977  1.00  0.00    -0.242 C  
ENDBRANCH  19  20
BRANCH  19  24
HETATM   24  C   UNL     1      -9.197   8.042  67.908  1.00  0.00    -0.131 C  
HETATM   25  C   UNL     1      -9.764   6.983  66.969  1.00  0.00    -0.167 C  
HETATM   26  O   UNL     1      -9.080   6.244  66.279  1.00  0.00    -0.152 OA 
HETATM   27  O   UNL     1     -11.118   6.996  66.922  1.00  0.00    -0.359 OA 
ENDBRANCH  19  24
ENDBRANCH  18  19
ENDBRANCH  17  18
ENDBRANCH   5  17
ENDBRANCH   3   5
TORSDOF 11
ENDMDL
MODEL      296
REMARK 921   NORMALIZED FREE ENERGY PREDICTED BY IDOCK:   -3.71 KCAL/MOL
REMARK 922        TOTAL FREE ENERGY PREDICTED BY IDOCK:   -7.84 KCAL/MOL
REMARK 923 INTER-LIGAND FREE ENERGY PREDICTED BY IDOCK:   -6.38 KCAL/MOL
REMARK 924 INTRA-LIGAND FREE ENERGY PREDICTED BY IDOCK:   -1.46 KCAL/MOL
REMARK 927      BINDING AFFINITY PREDICTED BY RF-SCORE:    0.00 PKD
ROOT
HETATM    1  O   UNL     1      -9.997   9.704  71.109  1.00  0.00    -0.221 OA 
HETATM    2  C   UNL     1     -11.343   9.727  70.971  1.00  0.00    -0.387 C  
HETATM    3  C   UNL     1     -11.816  10.803  69.997  1.00  0.00    -0.344 C  
HETATM    4  O   UNL     1     -12.095   8.993  71.596  1.00  0.00    -0.307 OA 
ENDROOT
BRANCH   3   5
HETATM    5  N   UNL     1     -10.832  11.060  68.888  1.00  0.00    -0.202 NA 
BRANCH   5   6
HETATM    6  C   UNL     1     -10.882   9.917  67.915  1.00  0.00    -0.258 C  
BRANCH   6   7
HETATM    7  C   UNL     1      -9.489   9.317  67.556  1.00  0.00    -0.132 C  
BRANCH   7   8
HETATM    8  N   UNL     1      -9.344   7.827  67.709  1.00  0.00    -0.142 NA 
BRANCH   8   9
HETATM    9  C   UNL     1      -9.198   7.243  66.315  1.00  0.00    -0.130 C  
HETATM   10  O   UNL     1      -7.706   5.655  67.332  1.00  0.00    -0.098 OA 
HETATM   11  C   UNL     1      -7.987   6.320  66.187  1.00  0.00    -0.112 C  
HETATM   12  O   UNL     1      -7.348   6.170  65.157  1.00  0.00    -0.068 OA 
ENDBRANCH   8   9
BRANCH   8  13
HETATM   13  C   UNL     1     -10.636   7.291  68.276  1.00  0.00    -0.172 C  
HETATM   14  O   UNL     1      -9.355   6.774  70.235  1.00  0.00    -0.159 OA 
HETATM   15  O   UNL     1     -11.151   5.466  69.793  1.00  0.00    -0.152 OA 
HETATM   16  C   UNL     1     -10.419   6.393  69.490  1.00  0.00    -0.230 C  
ENDBRANCH   8  13
ENDBRANCH   7   8
ENDBRANCH   6   7
ENDBRANCH   5   6
BRANCH   5  17
HETATM   17  C   UNL     1     -11.236  12.310  68.168  1.00  0.00    -0.269 C  
BRANCH  17  18
HETATM   18  C   UNL     1     -10.193  13.462  68.116  1.00  0.00    -0.246 C  
BRANCH  18  19
HETATM   19  N   UNL     1     -10.662  14.779  68.687  1.00  0.00    -0.245 NA 
BRANCH  19  20
HETATM   20  C   UNL     1     -12.135  14.626  69.021  1.00  0.00    -0.235 C  
HETATM   21  O   UNL     1     -13.375  14.571  71.110  1.00  0.00    -0.356 OA 
HETATM   22  O   UNL     1     -11.641  16.014  70.921  1.00  0.00    -0.382 OA 
HETATM   23  C   UNL     1     -12.456  15.039  70.455  1.00  0.00    -0.371 C  
ENDBRANCH  19  20
BRANCH  19  24
HETATM   24  C   UNL     1     -10.569  15.821  67.593  1.00  0.00    -0.301 C  
HETATM   25  C   UNL     1      -9.895  17.109  68.055  1.00  0.00    -0.283 C  
HETATM   26  O   UNL     1     -10.132  18.210  67.585  1.00  0.00    -0.325 OA 
HETATM   27  O   UNL     1      -8.946  16.894  68.996  1.00  0.00    -0.252 OA 
ENDBRANCH  19  24
ENDBRANCH  18  19
ENDBRANCH  17  18
ENDBRANCH   5  17
ENDBRANCH   3   5
TORSDOF 11
ENDMDL
MODEL      297
REMARK 921   NORMALIZED FREE ENERGY PREDICTED BY IDOCK:   -3.67 KCAL/MOL
REMARK 922        TOTAL FREE ENERGY PREDICTED BY IDOCK:   -7.77 KCAL/MOL
REMARK 923 INTER-LIGAND FREE ENERGY PREDICTED BY IDOCK:   -6.41 KCAL/MOL
REMARK 924 INTRA-LIGAND FREE ENERGY PREDICTED BY IDOCK:   -1.36 KCAL/MOL
REMARK 927      BINDING AFFINITY PREDICTED BY RF-SCORE:    0.00 PKD
ROOT
HETATM    1  O   UNL     1      -6.329   8.302  69.224  1.00  0.00    -0.037 OA 
HETATM    2  C   UNL     1      -6.713   8.946  70.351  1.00  0.00    -0.047 C  
HETATM    3  C   UNL     1      -7.495  10.225  70.060  1.00  0.00    -0.132 C  
HETATM    4  O   UNL     1      -6.421   8.565  71.475  1.00  0.00    -0.052 OA 
ENDROOT
BRANCH   3   5
HETATM    5  N   UNL     1      -8.310  10.136  68.799  1.00  0.00    -0.115 NA 
BRANCH   5   6
HETATM    6  C   UNL     1      -9.556   9.345  69.077  1.00  0.00    -0.164 C  
BRANCH   6   7
HETATM    7  C   UNL     1      -9.709   8.059  68.210  1.00  0.00    -0.164 C  
BRANCH   7   8
HETATM    8  N   UNL     1     -10.114   6.806  68.937  1.00  0.00    -0.158 NA 
BRANCH   8   9
HETATM    9  C   UNL     1     -10.966   5.986  67.984  1.00  0.00    -0.245 C  
HETATM   10  O   UNL     1      -9.012   4.612  67.706  1.00  0.00    -0.107 OA 
HETATM   11  C   UNL     1     -10.133   5.063  67.095  1.00  0.00    -0.199 C  
HETATM   12  O   UNL     1     -10.449   4.739  65.961  1.00  0.00    -0.287 OA 
ENDBRANCH   8   9
BRANCH   8  13
HETATM   13  C   UNL     1     -11.006   7.206  70.089  1.00  0.00    -0.267 C  
HETATM   14  O   UNL     1      -9.221   6.453  71.500  1.00  0.00    -0.145 OA 
HETATM   15  O   UNL     1     -11.327   6.316  72.325  1.00  0.00    -0.265 OA 
HETATM   16  C   UNL     1     -10.564   6.595  71.415  1.00  0.00    -0.224 C  
ENDBRANCH   8  13
ENDBRANCH   7   8
ENDBRANCH   6   7
ENDBRANCH   5   6
BRANCH   5  17
HETATM   17  C   UNL     1      -8.713  11.519  68.389  1.00  0.00    -0.160 C  
BRANCH  17  18
HETATM   18  C   UNL     1      -9.638  11.645  67.145  1.00  0.00    -0.175 C  
BRANCH  18  19
HETATM   19  N   UNL     1     -10.872  12.492  67.346  1.00  0.00    -0.234 NA 
BRANCH  19  20
HETATM   20  C   UNL     1     -11.771  11.753  68.320  1.00  0.00    -0.310 C  
HETATM   21  O   UNL     1     -12.242  12.021  70.689  1.00  0.00    -0.374 OA 
HETATM   22  O   UNL     1     -11.985  13.879  69.423  1.00  0.00    -0.315 OA 
HETATM   23  C   UNL     1     -12.011  12.538  69.607  1.00  0.00    -0.272 C  
ENDBRANCH  19  20
BRANCH  19  24
HETATM   24  C   UNL     1     -11.614  12.556  66.029  1.00  0.00    -0.406 C  
HETATM   25  C   UNL     1     -12.252  13.917  65.771  1.00  0.00    -0.460 C  
HETATM   26  O   UNL     1     -13.259  14.083  65.102  1.00  0.00    -0.768 OA 
HETATM   27  O   UNL     1     -11.541  14.938  66.303  1.00  0.00    -0.328 OA 
ENDBRANCH  19  24
ENDBRANCH  18  19
ENDBRANCH  17  18
ENDBRANCH   5  17
ENDBRANCH   3   5
TORSDOF 11
ENDMDL
MODEL      298
REMARK 921   NORMALIZED FREE ENERGY PREDICTED BY IDOCK:   -3.66 KCAL/MOL
REMARK 922        TOTAL FREE ENERGY PREDICTED BY IDOCK:   -7.76 KCAL/MOL
REMARK 923 INTER-LIGAND FREE ENERGY PREDICTED BY IDOCK:   -6.20 KCAL/MOL
REMARK 924 INTRA-LIGAND FREE ENERGY PREDICTED BY IDOCK:   -1.56 KCAL/MOL
REMARK 927      BINDING AFFINITY PREDICTED BY RF-SCORE:    0.00 PKD
ROOT
HETATM    1  O   UNL     1      -9.327   4.038  65.865  1.00  0.00    -0.146 OA 
HETATM    2  C   UNL     1     -10.494   4.721  65.933  1.00  0.00    -0.274 C  
HETATM    3  C   UNL     1     -10.573   5.629  67.158  1.00  0.00    -0.270 C  
HETATM    4  O   UNL     1     -11.399   4.586  65.123  1.00  0.00    -0.168 OA 
ENDROOT
BRANCH   3   5
HETATM    5  N   UNL     1      -9.231   6.172  67.570  1.00  0.00    -0.113 NA 
BRANCH   5   6
HETATM    6  C   UNL     1      -9.204   7.651  67.314  1.00  0.00    -0.131 C  
BRANCH   6   7
HETATM    7  C   UNL     1     -10.562   8.247  66.836  1.00  0.00    -0.232 C  
BRANCH   7   8
HETATM    8  N   UNL     1     -10.603   9.737  66.630  1.00  0.00    -0.155 NA 
BRANCH   8   9
HETATM    9  C   UNL     1      -9.679  10.057  65.468  1.00  0.00    -0.289 C  
HETATM   10  O   UNL     1     -11.270  11.771  64.908  1.00  0.00    -0.309 OA 
HETATM   11  C   UNL     1     -10.352  10.916  64.399  1.00  0.00    -0.361 C  
HETATM   12  O   UNL     1     -10.079  10.864  63.210  1.00  0.00    -0.332 OA 
ENDBRANCH   8   9
BRANCH   8  13
HETATM   13  C   UNL     1     -10.011  10.392  67.855  1.00  0.00    -0.167 C  
HETATM   14  O   UNL     1     -12.235  11.173  68.294  1.00  0.00    -0.613 OA 
HETATM   15  O   UNL     1     -10.518  12.446  69.048  1.00  0.00    -0.135 OA 
HETATM   16  C   UNL     1     -10.921  11.462  68.448  1.00  0.00    -0.215 C  
ENDBRANCH   8  13
ENDBRANCH   7   8
ENDBRANCH   6   7
ENDBRANCH   5   6
BRANCH   5  17
HETATM   17  C   UNL     1      -9.052   5.944  69.039  1.00  0.00    -0.121 C  
BRANCH  17  18
HETATM   18  C   UNL     1      -8.635   7.172  69.897  1.00  0.00    -0.141 C  
BRANCH  18  19
HETATM   19  N   UNL     1      -9.400   7.343  71.188  1.00  0.00    -0.155 NA 
BRANCH  19  20
HETATM   20  C   UNL     1      -9.777   8.810  71.297  1.00  0.00    -0.265 C  
HETATM   21  O   UNL     1     -11.901   9.979  71.461  1.00  0.00    -0.377 OA 
HETATM   22  O   UNL     1     -11.656   8.024  72.575  1.00  0.00    -0.364 OA 
HETATM   23  C   UNL     1     -11.218   9.012  71.760  1.00  0.00    -0.378 C  
ENDBRANCH  19  20
BRANCH  19  24
HETATM   24  C   UNL     1      -8.456   7.049  72.333  1.00  0.00    -0.113 C  
HETATM   25  C   UNL     1      -8.906   5.867  73.186  1.00  0.00    -0.121 C  
HETATM   26  O   UNL     1      -8.646   5.743  74.372  1.00  0.00    -0.114 OA 
HETATM   27  O   UNL     1      -9.563   4.925  72.469  1.00  0.00    -0.140 OA 
ENDBRANCH  19  24
ENDBRANCH  18  19
ENDBRANCH  17  18
ENDBRANCH   5  17
ENDBRANCH   3   5
TORSDOF 11
ENDMDL
MODEL      299
REMARK 921   NORMALIZED FREE ENERGY PREDICTED BY IDOCK:   -3.64 KCAL/MOL
REMARK 922        TOTAL FREE ENERGY PREDICTED BY IDOCK:   -7.73 KCAL/MOL
REMARK 923 INTER-LIGAND FREE ENERGY PREDICTED BY IDOCK:   -7.01 KCAL/MOL
REMARK 924 INTRA-LIGAND FREE ENERGY PREDICTED BY IDOCK:   -0.72 KCAL/MOL
REMARK 927      BINDING AFFINITY PREDICTED BY RF-SCORE:    0.00 PKD
ROOT
HETATM    1  O   UNL     1     -11.092  18.767  64.884  1.00  0.00    -0.404 OA 
HETATM    2  C   UNL     1     -10.284  18.967  65.951  1.00  0.00    -0.286 C  
HETATM    3  C   UNL     1     -10.554  17.982  67.086  1.00  0.00    -0.325 C  
HETATM    4  O   UNL     1      -9.460  19.868  66.011  1.00  0.00    -0.396 OA 
ENDROOT
BRANCH   3   5
HETATM    5  N   UNL     1     -11.016  16.637  66.594  1.00  0.00    -0.001 NA 
BRANCH   5   6
HETATM    6  C   UNL     1      -9.816  15.821  66.207  1.00  0.00    -0.297 C  
BRANCH   6   7
HETATM    7  C   UNL     1     -10.034  14.908  64.963  1.00  0.00    -0.170 C  
BRANCH   7   8
HETATM    8  N   UNL     1     -10.549  13.520  65.234  1.00  0.00    -0.313 NA 
BRANCH   8   9
HETATM    9  C   UNL     1      -9.342  12.604  65.342  1.00  0.00     0.272 C  
HETATM   10  O   UNL     1     -10.547  11.524  67.120  1.00  0.00    -0.217 OA 
HETATM   11  C   UNL     1      -9.312  11.823  66.654  1.00  0.00    -0.198 C  
HETATM   12  O   UNL     1      -8.286  11.476  67.219  1.00  0.00    -0.141 OA 
ENDBRANCH   8   9
BRANCH   8  13
HETATM   13  C   UNL     1     -11.332  13.071  64.023  1.00  0.00    -0.410 C  
HETATM   14  O   UNL     1     -13.283  13.634  65.298  1.00  0.00    -0.724 OA 
HETATM   15  O   UNL     1     -13.491  11.992  63.750  1.00  0.00    -0.562 OA 
HETATM   16  C   UNL     1     -12.802  12.811  64.336  1.00  0.00    -0.204 C  
ENDBRANCH   8  13
ENDBRANCH   7   8
ENDBRANCH   6   7
ENDBRANCH   5   6
BRANCH   5  17
HETATM   17  C   UNL     1     -11.723  15.934  67.712  1.00  0.00     0.074 C  
BRANCH  17  18
HETATM   18  C   UNL     1     -10.956  14.778  68.415  1.00  0.00    -0.252 C  
BRANCH  18  19
HETATM   19  N   UNL     1     -10.327  15.139  69.740  1.00  0.00    -0.236 NA 
BRANCH  19  20
HETATM   20  C   UNL     1     -11.312  16.027  70.479  1.00  0.00    -0.401 C  
HETATM   21  O   UNL     1     -13.676  15.821  71.003  1.00  0.00    -0.539 OA 
HETATM   22  O   UNL     1     -12.380  13.968  71.115  1.00  0.00    -0.338 OA 
HETATM   23  C   UNL     1     -12.586  15.285  70.875  1.00  0.00    -0.412 C  
ENDBRANCH  19  20
BRANCH  19  24
HETATM   24  C   UNL     1      -9.102  15.983  69.462  1.00  0.00    -0.100 C  
HETATM   25  C   UNL     1      -7.814  15.168  69.427  1.00  0.00    -0.208 C  
HETATM   26  O   UNL     1      -6.716  15.614  69.719  1.00  0.00    -0.179 OA 
HETATM   27  O   UNL     1      -8.002  13.909  68.965  1.00  0.00    -0.043 OA 
ENDBRANCH  19  24
ENDBRANCH  18  19
ENDBRANCH  17  18
ENDBRANCH   5  17
ENDBRANCH   3   5
TORSDOF 11
ENDMDL
MODEL      300
REMARK 921   NORMALIZED FREE ENERGY PREDICTED BY IDOCK:   -3.62 KCAL/MOL
REMARK 922        TOTAL FREE ENERGY PREDICTED BY IDOCK:   -7.70 KCAL/MOL
REMARK 923 INTER-LIGAND FREE ENERGY PREDICTED BY IDOCK:   -8.85 KCAL/MOL
REMARK 924 INTRA-LIGAND FREE ENERGY PREDICTED BY IDOCK:    1.16 KCAL/MOL
REMARK 927      BINDING AFFINITY PREDICTED BY RF-SCORE:    0.00 PKD
ROOT
HETATM    1  O   UNL     1      -7.163  12.233  69.515  1.00  0.00     0.111 OA 
HETATM    2  C   UNL     1      -7.105  11.678  68.282  1.00  0.00    -0.078 C  
HETATM    3  C   UNL     1      -8.443  11.091  67.838  1.00  0.00    -0.128 C  
HETATM    4  O   UNL     1      -6.079  11.614  67.621  1.00  0.00    -0.054 OA 
ENDROOT
BRANCH   3   5
HETATM    5  N   UNL     1      -9.623  11.847  68.388  1.00  0.00    -0.206 NA 
BRANCH   5   6
HETATM    6  C   UNL     1      -9.637  13.227  67.799  1.00  0.00    -0.214 C  
BRANCH   6   7
HETATM    7  C   UNL     1      -9.604  13.262  66.241  1.00  0.00    -0.235 C  
BRANCH   7   8
HETATM    8  N   UNL     1     -10.543  14.228  65.573  1.00  0.00    -0.321 NA 
BRANCH   8   9
HETATM    9  C   UNL     1     -10.526  15.510  66.387  1.00  0.00    -0.306 C  
HETATM   10  O   UNL     1     -11.066  16.617  64.322  1.00  0.00    -1.029 OA 
HETATM   11  C   UNL     1     -10.442  16.761  65.514  1.00  0.00    -0.237 C  
HETATM   12  O   UNL     1      -9.893  17.797  65.857  1.00  0.00    -0.524 OA 
ENDBRANCH   8   9
BRANCH   8  13
HETATM   13  C   UNL     1     -11.940  13.663  65.675  1.00  0.00    -0.395 C  
HETATM   14  O   UNL     1     -11.107  11.841  64.358  1.00  0.00    -0.316 OA 
HETATM   15  O   UNL     1     -13.309  12.341  64.166  1.00  0.00    -0.731 OA 
HETATM   16  C   UNL     1     -12.210  12.572  64.643  1.00  0.00    -0.453 C  
ENDBRANCH   8  13
ENDBRANCH   7   8
ENDBRANCH   6   7
ENDBRANCH   5   6
BRANCH   5  17
HETATM   17  C   UNL     1     -10.879  11.144  67.974  1.00  0.00    -0.225 C  
BRANCH  17  18
HETATM   18  C   UNL     1     -12.040  11.105  69.007  1.00  0.00    -0.246 C  
BRANCH  18  19
HETATM   19  N   UNL     1     -11.624  11.293  70.447  1.00  0.00    -0.288 NA 
BRANCH  19  20
HETATM   20  C   UNL     1     -10.933  10.015  70.886  1.00  0.00    -0.267 C  
HETATM   21  O   UNL     1     -11.515   8.261  72.466  1.00  0.00    -0.378 OA 
HETATM   22  O   UNL     1     -13.158   9.156  71.192  1.00  0.00    -0.271 OA 
HETATM   23  C   UNL     1     -11.876   9.060  71.615  1.00  0.00    -0.360 C  
ENDBRANCH  19  20
BRANCH  19  24
HETATM   24  C   UNL     1     -12.879  11.419  71.283  1.00  0.00    -0.379 C  
HETATM   25  C   UNL     1     -13.127  12.843  71.771  1.00  0.00    -0.360 C  
HETATM   26  O   UNL     1     -13.720  13.117  72.802  1.00  0.00    -0.630 OA 
HETATM   27  O   UNL     1     -12.686  13.780  70.899  1.00  0.00    -0.333 OA 
ENDBRANCH  19  24
ENDBRANCH  18  19
ENDBRANCH  17  18
ENDBRANCH   5  17
ENDBRANCH   3   5
TORSDOF 11
ENDMDL
MODEL      301
REMARK 921   NORMALIZED FREE ENERGY PREDICTED BY IDOCK:   -3.62 KCAL/MOL
REMARK 922        TOTAL FREE ENERGY PREDICTED BY IDOCK:   -7.69 KCAL/MOL
REMARK 923 INTER-LIGAND FREE ENERGY PREDICTED BY IDOCK:   -6.74 KCAL/MOL
REMARK 924 INTRA-LIGAND FREE ENERGY PREDICTED BY IDOCK:   -0.96 KCAL/MOL
REMARK 927      BINDING AFFINITY PREDICTED BY RF-SCORE:    0.00 PKD
ROOT
HETATM    1  O   UNL     1      -8.054  10.928  69.191  1.00  0.00    -0.149 OA 
HETATM    2  C   UNL     1      -8.050  11.552  67.990  1.00  0.00    -0.136 C  
HETATM    3  C   UNL     1      -8.716  10.722  66.895  1.00  0.00    -0.141 C  
HETATM    4  O   UNL     1      -7.528  12.641  67.801  1.00  0.00    -0.106 OA 
ENDROOT
BRANCH   3   5
HETATM    5  N   UNL     1      -9.834   9.859  67.414  1.00  0.00    -0.172 NA 
BRANCH   5   6
HETATM    6  C   UNL     1     -11.131  10.601  67.270  1.00  0.00    -0.243 C  
BRANCH   6   7
HETATM    7  C   UNL     1     -11.180  11.964  68.024  1.00  0.00    -0.257 C  
BRANCH   7   8
HETATM    8  N   UNL     1     -11.614  13.159  67.219  1.00  0.00    -0.334 NA 
BRANCH   8   9
HETATM    9  C   UNL     1     -11.434  12.805  65.753  1.00  0.00    -0.348 C  
HETATM   10  O   UNL     1     -13.491  13.998  65.399  1.00  0.00    -0.679 OA 
HETATM   11  C   UNL     1     -12.716  12.987  64.942  1.00  0.00    -0.390 C  
HETATM   12  O   UNL     1     -13.008  12.314  63.966  1.00  0.00    -0.740 OA 
ENDBRANCH   8   9
BRANCH   8  13
HETATM   13  C   UNL     1     -10.659  14.290  67.518  1.00  0.00    -0.261 C  
HETATM   14  O   UNL     1     -12.321  15.046  69.072  1.00  0.00    -0.159 OA 
HETATM   15  O   UNL     1     -10.985  16.617  68.133  1.00  0.00    -0.352 OA 
HETATM   16  C   UNL     1     -11.332  15.452  68.242  1.00  0.00    -0.348 C  
ENDBRANCH   8  13
ENDBRANCH   7   8
ENDBRANCH   6   7
ENDBRANCH   5   6
BRANCH   5  17
HETATM   17  C   UNL     1      -9.907   8.616  66.581  1.00  0.00    -0.266 C  
BRANCH  17  18
HETATM   18  C   UNL     1      -9.782   7.258  67.328  1.00  0.00    -0.158 C  
BRANCH  18  19
HETATM   19  N   UNL     1      -9.836   7.347  68.835  1.00  0.00    -0.154 NA 
BRANCH  19  20
HETATM   20  C   UNL     1      -8.850   6.329  69.381  1.00  0.00    -0.127 C  
HETATM   21  O   UNL     1      -6.489   5.914  68.982  1.00  0.00    -0.044 OA 
HETATM   22  O   UNL     1      -7.207   8.058  69.075  1.00  0.00    -0.074 OA 
HETATM   23  C   UNL     1      -7.398   6.719  69.113  1.00  0.00    -0.093 C  
ENDBRANCH  19  20
BRANCH  19  24
HETATM   24  C   UNL     1     -11.212   6.903  69.280  1.00  0.00    -0.137 C  
HETATM   25  C   UNL     1     -11.504   7.243  70.737  1.00  0.00    -0.299 C  
HETATM   26  O   UNL     1     -12.257   6.600  71.451  1.00  0.00    -0.347 OA 
HETATM   27  O   UNL     1     -10.896   8.383  71.141  1.00  0.00    -0.224 OA 
ENDBRANCH  19  24
ENDBRANCH  18  19
ENDBRANCH  17  18
ENDBRANCH   5  17
ENDBRANCH   3   5
TORSDOF 11
ENDMDL
MODEL      302
REMARK 921   NORMALIZED FREE ENERGY PREDICTED BY IDOCK:   -3.60 KCAL/MOL
REMARK 922        TOTAL FREE ENERGY PREDICTED BY IDOCK:   -7.65 KCAL/MOL
REMARK 923 INTER-LIGAND FREE ENERGY PREDICTED BY IDOCK:   -6.26 KCAL/MOL
REMARK 924 INTRA-LIGAND FREE ENERGY PREDICTED BY IDOCK:   -1.39 KCAL/MOL
REMARK 927      BINDING AFFINITY PREDICTED BY RF-SCORE:    0.00 PKD
ROOT
HETATM    1  O   UNL     1      -8.541   8.244  71.470  1.00  0.00    -0.128 OA 
HETATM    2  C   UNL     1      -9.124   7.531  70.478  1.00  0.00    -0.156 C  
HETATM    3  C   UNL     1      -9.864   8.413  69.476  1.00  0.00    -0.181 C  
HETATM    4  O   UNL     1      -9.096   6.310  70.423  1.00  0.00    -0.152 OA 
ENDROOT
BRANCH   3   5
HETATM    5  N   UNL     1      -9.224   9.764  69.304  1.00  0.00    -0.179 NA 
BRANCH   5   6
HETATM    6  C   UNL     1      -8.571   9.827  67.953  1.00  0.00    -0.125 C  
BRANCH   6   7
HETATM    7  C   UNL     1      -8.178   8.438  67.364  1.00  0.00    -0.120 C  
BRANCH   7   8
HETATM    8  N   UNL     1      -8.863   8.036  66.087  1.00  0.00    -0.159 NA 
BRANCH   8   9
HETATM    9  C   UNL     1      -8.795   6.521  65.996  1.00  0.00    -0.143 C  
HETATM   10  O   UNL     1     -11.045   6.549  66.843  1.00  0.00    -0.399 OA 
HETATM   11  C   UNL     1      -9.897   5.833  66.799  1.00  0.00    -0.162 C  
HETATM   12  O   UNL     1      -9.775   4.739  67.329  1.00  0.00    -0.158 OA 
ENDBRANCH   8   9
BRANCH   8  13
HETATM   13  C   UNL     1      -8.054   8.581  64.934  1.00  0.00    -0.145 C  
HETATM   14  O   UNL     1      -9.947   9.986  64.501  1.00  0.00    -0.287 OA 
HETATM   15  O   UNL     1      -8.653   9.412  62.732  1.00  0.00    -0.192 OA 
HETATM   16  C   UNL     1      -8.906   9.341  63.923  1.00  0.00    -0.126 C  
ENDBRANCH   8  13
ENDBRANCH   7   8
ENDBRANCH   6   7
ENDBRANCH   5   6
BRANCH   5  17
HETATM   17  C   UNL     1     -10.293  10.812  69.359  1.00  0.00    -0.179 C  
BRANCH  17  18
HETATM   18  C   UNL     1      -9.982  12.173  68.674  1.00  0.00    -0.128 C  
BRANCH  18  19
HETATM   19  N   UNL     1     -11.190  12.935  68.182  1.00  0.00    -0.253 NA 
BRANCH  19  20
HETATM   20  C   UNL     1     -12.252  12.842  69.264  1.00  0.00    -0.065 C  
HETATM   21  O   UNL     1     -12.511  13.892  71.441  1.00  0.00    -0.351 OA 
HETATM   22  O   UNL     1     -11.680  15.130  69.738  1.00  0.00    -0.278 OA 
HETATM   23  C   UNL     1     -12.158  13.983  70.275  1.00  0.00    -0.355 C  
ENDBRANCH  19  20
BRANCH  19  24
HETATM   24  C   UNL     1     -11.737  12.211  66.971  1.00  0.00    -0.303 C  
HETATM   25  C   UNL     1     -12.096  13.154  65.828  1.00  0.00    -0.447 C  
HETATM   26  O   UNL     1     -12.967  12.927  65.003  1.00  0.00    -0.777 OA 
HETATM   27  O   UNL     1     -11.294  14.244  65.776  1.00  0.00    -0.315 OA 
ENDBRANCH  19  24
ENDBRANCH  18  19
ENDBRANCH  17  18
ENDBRANCH   5  17
ENDBRANCH   3   5
TORSDOF 11
ENDMDL
MODEL      303
REMARK 921   NORMALIZED FREE ENERGY PREDICTED BY IDOCK:   -3.60 KCAL/MOL
REMARK 922        TOTAL FREE ENERGY PREDICTED BY IDOCK:   -7.65 KCAL/MOL
REMARK 923 INTER-LIGAND FREE ENERGY PREDICTED BY IDOCK:   -6.14 KCAL/MOL
REMARK 924 INTRA-LIGAND FREE ENERGY PREDICTED BY IDOCK:   -1.51 KCAL/MOL
REMARK 927      BINDING AFFINITY PREDICTED BY RF-SCORE:    0.00 PKD
ROOT
HETATM    1  O   UNL     1      -8.465   9.021  64.311  1.00  0.00    -0.176 OA 
HETATM    2  C   UNL     1      -7.398   8.436  64.903  1.00  0.00    -0.087 C  
HETATM    3  C   UNL     1      -7.213   8.880  66.352  1.00  0.00    -0.084 C  
HETATM    4  O   UNL     1      -6.641   7.673  64.321  1.00  0.00    -0.051 OA 
ENDROOT
BRANCH   3   5
HETATM    5  N   UNL     1      -8.516   9.190  67.038  1.00  0.00    -0.123 NA 
BRANCH   5   6
HETATM    6  C   UNL     1      -8.553   8.479  68.360  1.00  0.00    -0.139 C  
BRANCH   6   7
HETATM    7  C   UNL     1      -9.988   8.231  68.917  1.00  0.00    -0.186 C  
BRANCH   7   8
HETATM    8  N   UNL     1     -10.216   8.589  70.360  1.00  0.00    -0.191 NA 
BRANCH   8   9
HETATM    9  C   UNL     1     -10.782   9.997  70.392  1.00  0.00    -0.307 C  
HETATM   10  O   UNL     1     -12.327   9.146  72.027  1.00  0.00    -0.360 OA 
HETATM   11  C   UNL     1     -12.162  10.062  71.044  1.00  0.00    -0.365 C  
HETATM   12  O   UNL     1     -13.025  10.870  70.737  1.00  0.00    -0.314 OA 
ENDBRANCH   8   9
BRANCH   8  13
HETATM   13  C   UNL     1      -8.870   8.642  71.043  1.00  0.00    -0.191 C  
HETATM   14  O   UNL     1      -9.877   7.284  72.743  1.00  0.00    -0.159 OA 
HETATM   15  O   UNL     1      -8.192   8.661  73.375  1.00  0.00    -0.408 OA 
HETATM   16  C   UNL     1      -8.937   8.231  72.511  1.00  0.00    -0.236 C  
ENDBRANCH   8  13
ENDBRANCH   7   8
ENDBRANCH   6   7
ENDBRANCH   5   6
BRANCH   5  17
HETATM   17  C   UNL     1      -8.584  10.664  67.294  1.00  0.00    -0.126 C  
BRANCH  17  18
HETATM   18  C   UNL     1      -9.578  11.486  66.425  1.00  0.00    -0.209 C  
BRANCH  18  19
HETATM   19  N   UNL     1      -9.996  12.814  67.009  1.00  0.00    -0.228 NA 
BRANCH  19  20
HETATM   20  C   UNL     1      -8.818  13.347  67.805  1.00  0.00    -0.199 C  
HETATM   21  O   UNL     1      -6.905  14.730  67.227  1.00  0.00    -0.255 OA 
HETATM   22  O   UNL     1      -8.912  15.221  66.301  1.00  0.00    -0.299 OA 
HETATM   23  C   UNL     1      -8.093  14.482  67.086  1.00  0.00    -0.168 C  
ENDBRANCH  19  20
BRANCH  19  24
HETATM   24  C   UNL     1     -11.111  12.557  68.000  1.00  0.00    -0.245 C  
HETATM   25  C   UNL     1     -11.930  13.806  68.311  1.00  0.00    -0.357 C  
HETATM   26  O   UNL     1     -12.504  14.000  69.370  1.00  0.00    -0.283 OA 
HETATM   27  O   UNL     1     -12.017  14.650  67.256  1.00  0.00    -0.391 OA 
ENDBRANCH  19  24
ENDBRANCH  18  19
ENDBRANCH  17  18
ENDBRANCH   5  17
ENDBRANCH   3   5
TORSDOF 11
ENDMDL
MODEL      304
REMARK 921   NORMALIZED FREE ENERGY PREDICTED BY IDOCK:   -3.59 KCAL/MOL
REMARK 922        TOTAL FREE ENERGY PREDICTED BY IDOCK:   -7.64 KCAL/MOL
REMARK 923 INTER-LIGAND FREE ENERGY PREDICTED BY IDOCK:   -6.59 KCAL/MOL
REMARK 924 INTRA-LIGAND FREE ENERGY PREDICTED BY IDOCK:   -1.05 KCAL/MOL
REMARK 927      BINDING AFFINITY PREDICTED BY RF-SCORE:    0.00 PKD
ROOT
HETATM    1  O   UNL     1      -7.518  14.489  67.322  1.00  0.00    -0.191 OA 
HETATM    2  C   UNL     1      -7.013  13.373  67.896  1.00  0.00    -0.141 C  
HETATM    3  C   UNL     1      -8.077  12.305  68.140  1.00  0.00    -0.158 C  
HETATM    4  O   UNL     1      -5.841  13.256  68.224  1.00  0.00    -0.073 OA 
ENDROOT
BRANCH   3   5
HETATM    5  N   UNL     1      -9.170  12.323  67.107  1.00  0.00    -0.190 NA 
BRANCH   5   6
HETATM    6  C   UNL     1      -8.694  11.600  65.880  1.00  0.00     0.002 C  
BRANCH   6   7
HETATM    7  C   UNL     1      -9.802  10.789  65.141  1.00  0.00    -0.277 C  
BRANCH   7   8
HETATM    8  N   UNL     1     -10.209  11.295  63.784  1.00  0.00    -0.340 NA 
BRANCH   8   9
HETATM    9  C   UNL     1      -8.953  11.363  62.933  1.00  0.00    -0.156 C  
HETATM   10  O   UNL     1      -9.257   8.998  62.616  1.00  0.00    -0.017 OA 
HETATM   11  C   UNL     1      -8.335   9.988  62.684  1.00  0.00    -0.156 C  
HETATM   12  O   UNL     1      -7.139   9.793  62.534  1.00  0.00    -0.105 OA 
ENDBRANCH   8   9
BRANCH   8  13
HETATM   13  C   UNL     1     -10.705  12.712  63.947  1.00  0.00    -0.431 C  
HETATM   14  O   UNL     1     -12.885  11.735  64.156  1.00  0.00    -0.288 OA 
HETATM   15  O   UNL     1     -12.762  13.833  63.307  1.00  0.00    -0.783 OA 
HETATM   16  C   UNL     1     -12.212  12.835  63.742  1.00  0.00    -0.489 C  
ENDBRANCH   8  13
ENDBRANCH   7   8
ENDBRANCH   6   7
ENDBRANCH   5   6
BRANCH   5  17
HETATM   17  C   UNL     1     -10.359  11.594  67.652  1.00  0.00    -0.189 C  
BRANCH  17  18
HETATM   18  C   UNL     1     -11.674  12.408  67.811  1.00  0.00    -0.350 C  
BRANCH  18  19
HETATM   19  N   UNL     1     -12.133  12.616  69.235  1.00  0.00    -0.222 NA 
BRANCH  19  20
HETATM   20  C   UNL     1     -11.540  13.930  69.712  1.00  0.00    -0.270 C  
HETATM   21  O   UNL     1     -12.493  15.911  70.749  1.00  0.00    -0.409 OA 
HETATM   22  O   UNL     1     -13.282  13.881  71.369  1.00  0.00    -0.337 OA 
HETATM   23  C   UNL     1     -12.481  14.694  70.640  1.00  0.00    -0.344 C  
ENDBRANCH  19  20
BRANCH  19  24
HETATM   24  C   UNL     1     -11.518  11.527  70.087  1.00  0.00    -0.170 C  
HETATM   25  C   UNL     1     -12.557  10.588  70.692  1.00  0.00    -0.369 C  
HETATM   26  O   UNL     1     -12.407   9.992  71.746  1.00  0.00    -0.390 OA 
HETATM   27  O   UNL     1     -13.640  10.424  69.897  1.00  0.00     0.255 OA 
ENDBRANCH  19  24
ENDBRANCH  18  19
ENDBRANCH  17  18
ENDBRANCH   5  17
ENDBRANCH   3   5
TORSDOF 11
ENDMDL
MODEL      305
REMARK 921   NORMALIZED FREE ENERGY PREDICTED BY IDOCK:   -3.57 KCAL/MOL
REMARK 922        TOTAL FREE ENERGY PREDICTED BY IDOCK:   -7.61 KCAL/MOL
REMARK 923 INTER-LIGAND FREE ENERGY PREDICTED BY IDOCK:   -7.60 KCAL/MOL
REMARK 924 INTRA-LIGAND FREE ENERGY PREDICTED BY IDOCK:   -0.01 KCAL/MOL
REMARK 927      BINDING AFFINITY PREDICTED BY RF-SCORE:    0.00 PKD
ROOT
HETATM    1  O   UNL     1     -10.847  12.153  63.363  1.00  0.00    -0.431 OA 
HETATM    2  C   UNL     1     -12.030  12.274  64.009  1.00  0.00    -0.462 C  
HETATM    3  C   UNL     1     -11.867  12.745  65.452  1.00  0.00    -0.415 C  
HETATM    4  O   UNL     1     -13.105  11.990  63.500  1.00  0.00    -0.764 OA 
ENDROOT
BRANCH   3   5
HETATM    5  N   UNL     1     -10.687  13.661  65.637  1.00  0.00    -0.278 NA 
BRANCH   5   6
HETATM    6  C   UNL     1     -11.166  14.964  66.209  1.00  0.00    -0.331 C  
BRANCH   6   7
HETATM    7  C   UNL     1     -10.206  16.167  65.962  1.00  0.00    -0.356 C  
BRANCH   7   8
HETATM    8  N   UNL     1      -9.173  16.428  67.024  1.00  0.00    -0.215 NA 
BRANCH   8   9
HETATM    9  C   UNL     1      -9.918  16.740  68.310  1.00  0.00    -0.273 C  
HETATM   10  O   UNL     1      -8.470  15.115  69.332  1.00  0.00    -0.225 OA 
HETATM   11  C   UNL     1      -9.698  15.682  69.390  1.00  0.00    -0.292 C  
HETATM   12  O   UNL     1     -10.526  15.389  70.238  1.00  0.00    -0.301 OA 
ENDBRANCH   8   9
BRANCH   8  13
HETATM   13  C   UNL     1      -8.418  17.679  66.640  1.00  0.00    -0.259 C  
HETATM   14  O   UNL     1     -10.415  18.857  67.250  1.00  0.00    -0.392 OA 
HETATM   15  O   UNL     1      -9.101  19.793  65.659  1.00  0.00    -0.323 OA 
HETATM   16  C   UNL     1      -9.336  18.880  66.433  1.00  0.00    -0.328 C  
ENDBRANCH   8  13
ENDBRANCH   7   8
ENDBRANCH   6   7
ENDBRANCH   5   6
BRANCH   5  17
HETATM   17  C   UNL     1      -9.742  13.035  66.616  1.00  0.00    -0.256 C  
BRANCH  17  18
HETATM   18  C   UNL     1     -10.364  12.122  67.711  1.00  0.00    -0.206 C  
BRANCH  18  19
HETATM   19  N   UNL     1      -9.654  10.807  67.929  1.00  0.00    -0.158 NA 
BRANCH  19  20
HETATM   20  C   UNL     1      -8.164  11.098  67.955  1.00  0.00    -0.121 C  
HETATM   21  O   UNL     1      -6.543  11.345  69.749  1.00  0.00    -0.131 OA 
HETATM   22  O   UNL     1      -8.142   9.754  69.949  1.00  0.00    -0.148 OA 
HETATM   23  C   UNL     1      -7.528  10.774  69.304  1.00  0.00    -0.135 C  
ENDBRANCH  19  20
BRANCH  19  24
HETATM   24  C   UNL     1      -9.907   9.934  66.720  1.00  0.00    -0.201 C  
HETATM   25  C   UNL     1     -10.000   8.451  67.066  1.00  0.00    -0.253 C  
HETATM   26  O   UNL     1      -9.701   7.551  66.298  1.00  0.00    -0.142 OA 
HETATM   27  O   UNL     1     -10.522   8.233  68.295  1.00  0.00    -0.205 OA 
ENDBRANCH  19  24
ENDBRANCH  18  19
ENDBRANCH  17  18
ENDBRANCH   5  17
ENDBRANCH   3   5
TORSDOF 11
ENDMDL
MODEL      306
REMARK 921   NORMALIZED FREE ENERGY PREDICTED BY IDOCK:   -3.57 KCAL/MOL
REMARK 922        TOTAL FREE ENERGY PREDICTED BY IDOCK:   -7.61 KCAL/MOL
REMARK 923 INTER-LIGAND FREE ENERGY PREDICTED BY IDOCK:   -6.26 KCAL/MOL
REMARK 924 INTRA-LIGAND FREE ENERGY PREDICTED BY IDOCK:   -1.34 KCAL/MOL
REMARK 927      BINDING AFFINITY PREDICTED BY RF-SCORE:    0.00 PKD
ROOT
HETATM    1  O   UNL     1     -11.301   6.774  67.591  1.00  0.00    -0.208 OA 
HETATM    2  C   UNL     1     -10.018   7.200  67.530  1.00  0.00    -0.167 C  
HETATM    3  C   UNL     1      -9.868   8.672  67.908  1.00  0.00    -0.173 C  
HETATM    4  O   UNL     1      -9.091   6.491  67.166  1.00  0.00    -0.118 OA 
ENDROOT
BRANCH   3   5
HETATM    5  N   UNL     1     -10.875   9.116  68.933  1.00  0.00    -0.131 NA 
BRANCH   5   6
HETATM    6  C   UNL     1     -10.148   9.632  70.141  1.00  0.00    -0.262 C  
BRANCH   6   7
HETATM    7  C   UNL     1      -9.883   8.559  71.240  1.00  0.00    -0.216 C  
BRANCH   7   8
HETATM    8  N   UNL     1     -11.084   7.807  71.743  1.00  0.00    -0.239 NA 
BRANCH   8   9
HETATM    9  C   UNL     1     -12.090   8.836  72.229  1.00  0.00    -0.353 C  
HETATM   10  O   UNL     1     -13.767   7.310  71.427  1.00  0.00    -0.389 OA 
HETATM   11  C   UNL     1     -13.485   8.616  71.646  1.00  0.00    -0.357 C  
HETATM   12  O   UNL     1     -14.281   9.514  71.422  1.00  0.00    -0.086 OA 
ENDBRANCH   8   9
BRANCH   8  13
HETATM   13  C   UNL     1     -10.658   7.007  72.952  1.00  0.00    -0.272 C  
HETATM   14  O   UNL     1     -10.528   5.143  71.450  1.00  0.00    -0.218 OA 
HETATM   15  O   UNL     1     -11.005   4.698  73.620  1.00  0.00    -0.275 OA 
HETATM   16  C   UNL     1     -10.773   5.502  72.732  1.00  0.00    -0.247 C  
ENDBRANCH   8  13
ENDBRANCH   7   8
ENDBRANCH   6   7
ENDBRANCH   5   6
BRANCH   5  17
HETATM   17  C   UNL     1     -11.685  10.237  68.357  1.00  0.00     0.189 C  
BRANCH  17  18
HETATM   18  C   UNL     1     -11.956  11.459  69.280  1.00  0.00    -0.332 C  
BRANCH  18  19
HETATM   19  N   UNL     1     -11.566  12.799  68.702  1.00  0.00    -0.292 NA 
BRANCH  19  20
HETATM   20  C   UNL     1     -10.067  12.767  68.466  1.00  0.00    -0.185 C  
HETATM   21  O   UNL     1      -8.678  11.881  66.679  1.00  0.00    -0.192 OA 
HETATM   22  O   UNL     1     -10.637  12.875  66.132  1.00  0.00    -0.266 OA 
HETATM   23  C   UNL     1      -9.709  12.441  67.018  1.00  0.00    -0.211 C  
ENDBRANCH  19  20
BRANCH  19  24
HETATM   24  C   UNL     1     -11.819  13.853  69.758  1.00  0.00    -0.329 C  
HETATM   25  C   UNL     1     -11.593  15.272  69.246  1.00  0.00    -0.332 C  
HETATM   26  O   UNL     1     -11.243  16.205  69.952  1.00  0.00    -0.328 OA 
HETATM   27  O   UNL     1     -11.893  15.410  67.933  1.00  0.00    -0.275 OA 
ENDBRANCH  19  24
ENDBRANCH  18  19
ENDBRANCH  17  18
ENDBRANCH   5  17
ENDBRANCH   3   5
TORSDOF 11
ENDMDL
MODEL      307
REMARK 921   NORMALIZED FREE ENERGY PREDICTED BY IDOCK:   -3.56 KCAL/MOL
REMARK 922        TOTAL FREE ENERGY PREDICTED BY IDOCK:   -7.59 KCAL/MOL
REMARK 923 INTER-LIGAND FREE ENERGY PREDICTED BY IDOCK:   -6.87 KCAL/MOL
REMARK 924 INTRA-LIGAND FREE ENERGY PREDICTED BY IDOCK:   -0.73 KCAL/MOL
REMARK 927      BINDING AFFINITY PREDICTED BY RF-SCORE:    0.00 PKD
ROOT
HETATM    1  O   UNL     1     -12.998   9.589  71.282  1.00  0.00    -0.334 OA 
HETATM    2  C   UNL     1     -12.896  10.938  71.332  1.00  0.00    -0.449 C  
HETATM    3  C   UNL     1     -11.869  11.487  70.346  1.00  0.00    -0.320 C  
HETATM    4  O   UNL     1     -13.528  11.631  72.117  1.00  0.00    -0.423 OA 
ENDROOT
BRANCH   3   5
HETATM    5  N   UNL     1     -11.764  10.661  69.092  1.00  0.00    -0.275 NA 
BRANCH   5   6
HETATM    6  C   UNL     1     -11.910  11.562  67.900  1.00  0.00    -0.184 C  
BRANCH   6   7
HETATM    7  C   UNL     1     -11.031  12.848  67.954  1.00  0.00    -0.241 C  
BRANCH   7   8
HETATM    8  N   UNL     1     -10.662  13.462  66.631  1.00  0.00    -0.280 NA 
BRANCH   8   9
HETATM    9  C   UNL     1      -9.918  14.753  66.924  1.00  0.00    -0.244 C  
HETATM   10  O   UNL     1      -7.976  13.363  67.196  1.00  0.00    -0.147 OA 
HETATM   11  C   UNL     1      -8.565  14.515  67.592  1.00  0.00    -0.179 C  
HETATM   12  O   UNL     1      -8.047  15.289  68.381  1.00  0.00    -0.130 OA 
ENDBRANCH   8   9
BRANCH   8  13
HETATM   13  C   UNL     1     -11.940  13.843  65.923  1.00  0.00    -0.407 C  
HETATM   14  O   UNL     1     -11.307  12.214  64.282  1.00  0.00    -0.322 OA 
HETATM   15  O   UNL     1     -12.567  13.961  63.580  1.00  0.00    -0.842 OA 
HETATM   16  C   UNL     1     -11.969  13.380  64.470  1.00  0.00    -0.407 C  
ENDBRANCH   8  13
ENDBRANCH   7   8
ENDBRANCH   6   7
ENDBRANCH   5   6
BRANCH   5  17
HETATM   17  C   UNL     1     -10.405  10.033  69.044  1.00  0.00    -0.206 C  
BRANCH  17  18
HETATM   18  C   UNL     1      -9.538  10.323  67.787  1.00  0.00    -0.152 C  
BRANCH  18  19
HETATM   19  N   UNL     1      -9.135   9.105  66.990  1.00  0.00    -0.122 NA 
BRANCH  19  20
HETATM   20  C   UNL     1      -8.509   9.600  65.698  1.00  0.00    -0.132 C  
HETATM   21  O   UNL     1      -6.397  10.683  65.175  1.00  0.00    -0.096 OA 
HETATM   22  O   UNL     1      -6.413   9.045  66.738  1.00  0.00    -0.062 OA 
HETATM   23  C   UNL     1      -7.010   9.858  65.835  1.00  0.00    -0.106 C  
ENDBRANCH  19  20
BRANCH  19  24
HETATM   24  C   UNL     1     -10.394   8.360  66.606  1.00  0.00    -0.228 C  
HETATM   25  C   UNL     1     -10.369   6.894  67.026  1.00  0.00    -0.278 C  
HETATM   26  O   UNL     1     -10.966   6.005  66.440  1.00  0.00    -0.172 OA 
HETATM   27  O   UNL     1      -9.670   6.688  68.167  1.00  0.00    -0.130 OA 
ENDBRANCH  19  24
ENDBRANCH  18  19
ENDBRANCH  17  18
ENDBRANCH   5  17
ENDBRANCH   3   5
TORSDOF 11
ENDMDL
MODEL      308
REMARK 921   NORMALIZED FREE ENERGY PREDICTED BY IDOCK:   -3.56 KCAL/MOL
REMARK 922        TOTAL FREE ENERGY PREDICTED BY IDOCK:   -7.59 KCAL/MOL
REMARK 923 INTER-LIGAND FREE ENERGY PREDICTED BY IDOCK:   -6.36 KCAL/MOL
REMARK 924 INTRA-LIGAND FREE ENERGY PREDICTED BY IDOCK:   -1.24 KCAL/MOL
REMARK 927      BINDING AFFINITY PREDICTED BY RF-SCORE:    0.00 PKD
ROOT
HETATM    1  O   UNL     1     -10.146   9.500  71.184  1.00  0.00    -0.288 OA 
HETATM    2  C   UNL     1     -10.484   8.497  70.339  1.00  0.00    -0.207 C  
HETATM    3  C   UNL     1     -10.609   8.965  68.892  1.00  0.00    -0.165 C  
HETATM    4  O   UNL     1     -10.708   7.354  70.709  1.00  0.00    -0.225 OA 
ENDROOT
BRANCH   3   5
HETATM    5  N   UNL     1      -9.669  10.092  68.559  1.00  0.00    -0.152 NA 
BRANCH   5   6
HETATM    6  C   UNL     1      -8.802   9.680  67.404  1.00  0.00    -0.128 C  
BRANCH   6   7
HETATM    7  C   UNL     1      -9.440   8.606  66.472  1.00  0.00    -0.216 C  
BRANCH   7   8
HETATM    8  N   UNL     1      -8.613   7.378  66.202  1.00  0.00    -0.140 NA 
BRANCH   8   9
HETATM    9  C   UNL     1      -8.128   7.467  64.766  1.00  0.00    -0.112 C  
HETATM   10  O   UNL     1      -5.939   7.765  65.713  1.00  0.00    -0.037 OA 
HETATM   11  C   UNL     1      -6.726   8.064  64.653  1.00  0.00    -0.059 C  
HETATM   12  O   UNL     1      -6.338   8.720  63.700  1.00  0.00    -0.083 OA 
ENDBRANCH   8   9
BRANCH   8  13
HETATM   13  C   UNL     1      -9.526   6.178  66.283  1.00  0.00    -0.113 C  
HETATM   14  O   UNL     1      -8.244   5.556  68.211  1.00  0.00    -0.096 OA 
HETATM   15  O   UNL     1      -9.191   3.885  67.009  1.00  0.00    -0.147 OA 
HETATM   16  C   UNL     1      -8.968   5.073  67.174  1.00  0.00    -0.112 C  
ENDBRANCH   8  13
ENDBRANCH   7   8
ENDBRANCH   6   7
ENDBRANCH   5   6
BRANCH   5  17
HETATM   17  C   UNL     1     -10.476  11.283  68.140  1.00  0.00    -0.189 C  
BRANCH  17  18
HETATM   18  C   UNL     1      -9.819  12.257  67.122  1.00  0.00    -0.203 C  
BRANCH  18  19
HETATM   19  N   UNL     1     -10.754  13.275  66.513  1.00  0.00    -0.283 NA 
BRANCH  19  20
HETATM   20  C   UNL     1     -11.151  12.758  65.142  1.00  0.00    -0.291 C  
HETATM   21  O   UNL     1     -13.280  12.145  64.143  1.00  0.00    -0.740 OA 
HETATM   22  O   UNL     1     -13.209  13.945  65.514  1.00  0.00    -0.698 OA 
HETATM   23  C   UNL     1     -12.649  12.889  64.878  1.00  0.00    -0.458 C  
ENDBRANCH  19  20
BRANCH  19  24
HETATM   24  C   UNL     1      -9.972  14.551  66.288  1.00  0.00    -0.305 C  
HETATM   25  C   UNL     1     -10.715  15.795  66.762  1.00  0.00    -0.293 C  
HETATM   26  O   UNL     1     -10.568  16.905  66.275  1.00  0.00    -0.284 OA 
HETATM   27  O   UNL     1     -11.505  15.556  67.835  1.00  0.00    -0.330 OA 
ENDBRANCH  19  24
ENDBRANCH  18  19
ENDBRANCH  17  18
ENDBRANCH   5  17
ENDBRANCH   3   5
TORSDOF 11
ENDMDL
MODEL      309
REMARK 921   NORMALIZED FREE ENERGY PREDICTED BY IDOCK:   -3.56 KCAL/MOL
REMARK 922        TOTAL FREE ENERGY PREDICTED BY IDOCK:   -7.59 KCAL/MOL
REMARK 923 INTER-LIGAND FREE ENERGY PREDICTED BY IDOCK:   -7.24 KCAL/MOL
REMARK 924 INTRA-LIGAND FREE ENERGY PREDICTED BY IDOCK:   -0.35 KCAL/MOL
REMARK 927      BINDING AFFINITY PREDICTED BY RF-SCORE:    0.00 PKD
ROOT
HETATM    1  O   UNL     1      -5.239  15.109  67.548  1.00  0.00    -0.321 OA 
HETATM    2  C   UNL     1      -5.835  13.896  67.470  1.00  0.00     0.096 C  
HETATM    3  C   UNL     1      -7.223  13.880  68.105  1.00  0.00    -0.120 C  
HETATM    4  O   UNL     1      -5.295  12.913  66.983  1.00  0.00    -0.336 OA 
ENDROOT
BRANCH   3   5
HETATM    5  N   UNL     1      -7.936  15.200  67.982  1.00  0.00    -0.127 NA 
BRANCH   5   6
HETATM    6  C   UNL     1      -7.735  15.737  66.594  1.00  0.00    -0.105 C  
BRANCH   6   7
HETATM    7  C   UNL     1      -8.488  17.070  66.304  1.00  0.00    -0.269 C  
BRANCH   7   8
HETATM    8  N   UNL     1      -7.794  18.336  66.726  1.00  0.00    -0.227 NA 
BRANCH   8   9
HETATM    9  C   UNL     1      -6.373  18.270  66.194  1.00  0.00    -0.217 C  
HETATM   10  O   UNL     1      -6.905  20.305  65.030  1.00  0.00    -0.311 OA 
HETATM   11  C   UNL     1      -6.152  19.181  64.988  1.00  0.00    -0.280 C  
HETATM   12  O   UNL     1      -5.363  18.943  64.088  1.00  0.00    -0.226 OA 
ENDBRANCH   8   9
BRANCH   8  13
HETATM   13  C   UNL     1      -7.699  18.333  68.233  1.00  0.00    -0.291 C  
HETATM   14  O   UNL     1      -7.585  20.721  68.053  1.00  0.00    -0.114 OA 
HETATM   15  O   UNL     1      -6.550  19.762  69.826  1.00  0.00    -0.338 OA 
HETATM   16  C   UNL     1      -7.192  19.658  68.793  1.00  0.00    -0.343 C  
ENDBRANCH   8  13
ENDBRANCH   7   8
ENDBRANCH   6   7
ENDBRANCH   5   6
BRANCH   5  17
HETATM   17  C   UNL     1      -9.402  14.974  68.191  1.00  0.00    -0.187 C  
BRANCH  17  18
HETATM   18  C   UNL     1      -9.942  13.542  67.918  1.00  0.00    -0.245 C  
BRANCH  18  19
HETATM   19  N   UNL     1     -11.389  13.471  67.492  1.00  0.00    -0.294 NA 
BRANCH  19  20
HETATM   20  C   UNL     1     -12.131  12.674  68.550  1.00  0.00    -0.085 C  
HETATM   21  O   UNL     1     -12.513  13.008  70.927  1.00  0.00    -0.367 OA 
HETATM   22  O   UNL     1     -12.573  14.812  69.560  1.00  0.00    -0.157 OA 
HETATM   23  C   UNL     1     -12.409  13.491  69.809  1.00  0.00    -0.190 C  
ENDBRANCH  19  20
BRANCH  19  24
HETATM   24  C   UNL     1     -11.460  12.668  66.212  1.00  0.00    -0.364 C  
HETATM   25  C   UNL     1     -12.640  13.060  65.328  1.00  0.00    -0.457 C  
HETATM   26  O   UNL     1     -13.199  12.296  64.558  1.00  0.00    -0.799 OA 
HETATM   27  O   UNL     1     -12.958  14.371  65.432  1.00  0.00    -0.571 OA 
ENDBRANCH  19  24
ENDBRANCH  18  19
ENDBRANCH  17  18
ENDBRANCH   5  17
ENDBRANCH   3   5
TORSDOF 11
ENDMDL
MODEL      310
REMARK 921   NORMALIZED FREE ENERGY PREDICTED BY IDOCK:   -3.56 KCAL/MOL
REMARK 922        TOTAL FREE ENERGY PREDICTED BY IDOCK:   -7.59 KCAL/MOL
REMARK 923 INTER-LIGAND FREE ENERGY PREDICTED BY IDOCK:   -6.22 KCAL/MOL
REMARK 924 INTRA-LIGAND FREE ENERGY PREDICTED BY IDOCK:   -1.37 KCAL/MOL
REMARK 927      BINDING AFFINITY PREDICTED BY RF-SCORE:    0.00 PKD
ROOT
HETATM    1  O   UNL     1      -9.232   7.065  70.404  1.00  0.00    -0.156 OA 
HETATM    2  C   UNL     1     -10.539   7.417  70.384  1.00  0.00    -0.228 C  
HETATM    3  C   UNL     1     -10.843   8.491  69.342  1.00  0.00    -0.091 C  
HETATM    4  O   UNL     1     -11.371   6.955  71.151  1.00  0.00    -0.263 OA 
ENDROOT
BRANCH   3   5
HETATM    5  N   UNL     1      -9.959   8.393  68.128  1.00  0.00    -0.184 NA 
BRANCH   5   6
HETATM    6  C   UNL     1     -10.698   7.668  67.041  1.00  0.00    -0.270 C  
BRANCH   6   7
HETATM    7  C   UNL     1     -10.833   6.132  67.269  1.00  0.00    -0.352 C  
BRANCH   7   8
HETATM    8  N   UNL     1      -9.582   5.317  67.090  1.00  0.00    -0.132 NA 
BRANCH   8   9
HETATM    9  C   UNL     1      -9.727   4.548  65.788  1.00  0.00    -0.203 C  
HETATM   10  O   UNL     1      -7.488   5.285  65.313  1.00  0.00    -0.074 OA 
HETATM   11  C   UNL     1      -8.671   4.935  64.755  1.00  0.00    -0.154 C  
HETATM   12  O   UNL     1      -8.855   4.911  63.548  1.00  0.00    -0.138 OA 
ENDBRANCH   8   9
BRANCH   8  13
HETATM   13  C   UNL     1      -9.531   4.294  68.200  1.00  0.00    -0.157 C  
HETATM   14  O   UNL     1      -7.230   4.924  68.435  1.00  0.00    -0.060 OA 
HETATM   15  O   UNL     1      -7.791   2.804  69.007  1.00  0.00    -0.046 OA 
HETATM   16  C   UNL     1      -8.106   3.901  68.575  1.00  0.00    -0.075 C  
ENDBRANCH   8  13
ENDBRANCH   7   8
ENDBRANCH   6   7
ENDBRANCH   5   6
BRANCH   5  17
HETATM   17  C   UNL     1      -9.651   9.778  67.646  1.00  0.00    -0.145 C  
BRANCH  17  18
HETATM   18  C   UNL     1     -10.862  10.714  67.370  1.00  0.00    -0.296 C  
BRANCH  18  19
HETATM   19  N   UNL     1     -10.852  11.396  66.023  1.00  0.00    -0.272 NA 
BRANCH  19  20
HETATM   20  C   UNL     1      -9.439  11.295  65.478  1.00  0.00    -0.229 C  
HETATM   21  O   UNL     1      -8.463  10.141  63.575  1.00  0.00    -0.163 OA 
HETATM   22  O   UNL     1     -10.498  11.100  63.328  1.00  0.00    -0.353 OA 
HETATM   23  C   UNL     1      -9.400  10.767  64.046  1.00  0.00    -0.252 C  
ENDBRANCH  19  20
BRANCH  19  24
HETATM   24  C   UNL     1     -11.131  12.867  66.243  1.00  0.00    -0.288 C  
HETATM   25  C   UNL     1     -12.070  13.457  65.197  1.00  0.00    -0.409 C  
HETATM   26  O   UNL     1     -12.056  14.627  64.848  1.00  0.00    -0.401 OA 
HETATM   27  O   UNL     1     -12.979  12.561  64.744  1.00  0.00    -0.827 OA 
ENDBRANCH  19  24
ENDBRANCH  18  19
ENDBRANCH  17  18
ENDBRANCH   5  17
ENDBRANCH   3   5
TORSDOF 11
ENDMDL
MODEL      311
REMARK 921   NORMALIZED FREE ENERGY PREDICTED BY IDOCK:   -3.54 KCAL/MOL
REMARK 922        TOTAL FREE ENERGY PREDICTED BY IDOCK:   -7.57 KCAL/MOL
REMARK 923 INTER-LIGAND FREE ENERGY PREDICTED BY IDOCK:   -6.86 KCAL/MOL
REMARK 924 INTRA-LIGAND FREE ENERGY PREDICTED BY IDOCK:   -0.71 KCAL/MOL
REMARK 927      BINDING AFFINITY PREDICTED BY RF-SCORE:    0.00 PKD
ROOT
HETATM    1  O   UNL     1      -6.654  13.900  69.855  1.00  0.00    -0.111 OA 
HETATM    2  C   UNL     1      -6.139  14.434  68.723  1.00  0.00    -0.088 C  
HETATM    3  C   UNL     1      -6.850  13.940  67.464  1.00  0.00    -0.130 C  
HETATM    4  O   UNL     1      -5.180  15.191  68.713  1.00  0.00    -0.090 OA 
ENDROOT
BRANCH   3   5
HETATM    5  N   UNL     1      -8.308  13.649  67.694  1.00  0.00    -0.168 NA 
BRANCH   5   6
HETATM    6  C   UNL     1      -8.447  12.266  68.261  1.00  0.00    -0.173 C  
BRANCH   6   7
HETATM    7  C   UNL     1      -9.770  11.541  67.872  1.00  0.00    -0.183 C  
BRANCH   7   8
HETATM    8  N   UNL     1     -10.151  11.579  66.417  1.00  0.00    -0.210 NA 
BRANCH   8   9
HETATM    9  C   UNL     1     -11.585  12.071  66.339  1.00  0.00    -0.313 C  
HETATM   10  O   UNL     1     -10.824  13.448  64.520  1.00  0.00    -0.365 OA 
HETATM   11  C   UNL     1     -11.723  13.360  65.529  1.00  0.00    -0.340 C  
HETATM   12  O   UNL     1     -12.568  14.214  65.744  1.00  0.00    -0.488 OA 
ENDBRANCH   8   9
BRANCH   8  13
HETATM   13  C   UNL     1     -10.145  10.161  65.898  1.00  0.00    -0.254 C  
HETATM   14  O   UNL     1      -7.929  10.643  65.120  1.00  0.00    -0.130 OA 
HETATM   15  O   UNL     1      -9.126   9.106  63.962  1.00  0.00    -0.096 OA 
HETATM   16  C   UNL     1      -9.043   9.913  64.873  1.00  0.00    -0.224 C  
ENDBRANCH   8  13
ENDBRANCH   7   8
ENDBRANCH   6   7
ENDBRANCH   5   6
BRANCH   5  17
HETATM   17  C   UNL     1      -8.841  14.626  68.697  1.00  0.00    -0.183 C  
BRANCH  17  18
HETATM   18  C   UNL     1     -10.138  15.393  68.314  1.00  0.00    -0.218 C  
BRANCH  18  19
HETATM   19  N   UNL     1      -9.921  16.737  67.662  1.00  0.00    -0.256 NA 
BRANCH  19  20
HETATM   20  C   UNL     1      -9.788  16.497  66.169  1.00  0.00    -0.332 C  
HETATM   21  O   UNL     1     -11.226  16.973  64.268  1.00  0.00    -1.186 OA 
HETATM   22  O   UNL     1     -11.099  18.499  65.935  1.00  0.00     0.058 OA 
HETATM   23  C   UNL     1     -10.783  17.318  65.353  1.00  0.00    -0.066 C  
ENDBRANCH  19  20
BRANCH  19  24
HETATM   24  C   UNL     1      -8.589  17.277  68.137  1.00  0.00    -0.242 C  
HETATM   25  C   UNL     1      -8.639  18.761  68.485  1.00  0.00    -0.344 C  
HETATM   26  O   UNL     1      -7.683  19.515  68.400  1.00  0.00    -0.315 OA 
HETATM   27  O   UNL     1      -9.843  19.144  68.972  1.00  0.00    -0.410 OA 
ENDBRANCH  19  24
ENDBRANCH  18  19
ENDBRANCH  17  18
ENDBRANCH   5  17
ENDBRANCH   3   5
TORSDOF 11
ENDMDL
MODEL      312
REMARK 921   NORMALIZED FREE ENERGY PREDICTED BY IDOCK:   -3.54 KCAL/MOL
REMARK 922        TOTAL FREE ENERGY PREDICTED BY IDOCK:   -7.56 KCAL/MOL
REMARK 923 INTER-LIGAND FREE ENERGY PREDICTED BY IDOCK:   -7.30 KCAL/MOL
REMARK 924 INTRA-LIGAND FREE ENERGY PREDICTED BY IDOCK:   -0.26 KCAL/MOL
REMARK 927      BINDING AFFINITY PREDICTED BY RF-SCORE:    0.00 PKD
ROOT
HETATM    1  O   UNL     1     -12.359  14.673  65.170  1.00  0.00    -0.342 OA 
HETATM    2  C   UNL     1     -11.625  15.763  64.846  1.00  0.00    -0.104 C  
HETATM    3  C   UNL     1     -10.763  16.258  66.004  1.00  0.00    -0.214 C  
HETATM    4  O   UNL     1     -11.686  16.314  63.756  1.00  0.00    -0.969 OA 
ENDROOT
BRANCH   3   5
HETATM    5  N   UNL     1     -10.300  15.145  66.904  1.00  0.00    -0.267 NA 
BRANCH   5   6
HETATM    6  C   UNL     1     -10.269  13.864  66.121  1.00  0.00    -0.301 C  
BRANCH   6   7
HETATM    7  C   UNL     1      -9.221  12.826  66.626  1.00  0.00    -0.212 C  
BRANCH   7   8
HETATM    8  N   UNL     1      -9.755  11.676  67.435  1.00  0.00    -0.176 NA 
BRANCH   8   9
HETATM    9  C   UNL     1     -10.156  12.226  68.792  1.00  0.00    -0.068 C  
HETATM   10  O   UNL     1     -12.271  11.150  68.404  1.00  0.00    -0.610 OA 
HETATM   11  C   UNL     1     -11.666  12.193  69.019  1.00  0.00    -0.322 C  
HETATM   12  O   UNL     1     -12.272  13.004  69.702  1.00  0.00    -0.255 OA 
ENDBRANCH   8   9
BRANCH   8  13
HETATM   13  C   UNL     1      -8.620  10.708  67.671  1.00  0.00    -0.118 C  
HETATM   14  O   UNL     1     -10.183   8.999  67.051  1.00  0.00    -0.226 OA 
HETATM   15  O   UNL     1      -8.530   8.424  68.490  1.00  0.00    -0.129 OA 
HETATM   16  C   UNL     1      -9.095   9.266  67.812  1.00  0.00    -0.126 C  
ENDBRANCH   8  13
ENDBRANCH   7   8
ENDBRANCH   6   7
ENDBRANCH   5   6
BRANCH   5  17
HETATM   17  C   UNL     1      -8.908  15.448  67.367  1.00  0.00    -0.183 C  
BRANCH  17  18
HETATM   18  C   UNL     1      -8.018  16.298  66.415  1.00  0.00    -0.264 C  
BRANCH  18  19
HETATM   19  N   UNL     1      -7.511  17.595  66.999  1.00  0.00    -0.190 NA 
BRANCH  19  20
HETATM   20  C   UNL     1      -6.302  18.013  66.181  1.00  0.00    -0.231 C  
HETATM   21  O   UNL     1      -6.042  19.131  64.039  1.00  0.00    -0.460 OA 
HETATM   22  O   UNL     1      -7.693  19.823  65.425  1.00  0.00    -0.372 OA 
HETATM   23  C   UNL     1      -6.653  19.023  65.091  1.00  0.00    -0.180 C  
ENDBRANCH  19  20
BRANCH  19  24
HETATM   24  C   UNL     1      -7.013  17.314  68.400  1.00  0.00    -0.202 C  
HETATM   25  C   UNL     1      -6.898  18.572  69.254  1.00  0.00    -0.214 C  
HETATM   26  O   UNL     1      -6.101  18.707  70.168  1.00  0.00    -0.213 OA 
HETATM   27  O   UNL     1      -7.829  19.504  68.940  1.00  0.00    -0.356 OA 
ENDBRANCH  19  24
ENDBRANCH  18  19
ENDBRANCH  17  18
ENDBRANCH   5  17
ENDBRANCH   3   5
TORSDOF 11
ENDMDL
MODEL      313
REMARK 921   NORMALIZED FREE ENERGY PREDICTED BY IDOCK:   -3.54 KCAL/MOL
REMARK 922        TOTAL FREE ENERGY PREDICTED BY IDOCK:   -7.56 KCAL/MOL
REMARK 923 INTER-LIGAND FREE ENERGY PREDICTED BY IDOCK:   -6.57 KCAL/MOL
REMARK 924 INTRA-LIGAND FREE ENERGY PREDICTED BY IDOCK:   -0.99 KCAL/MOL
REMARK 927      BINDING AFFINITY PREDICTED BY RF-SCORE:    0.00 PKD
ROOT
HETATM    1  O   UNL     1      -6.787  11.047  67.987  1.00  0.00    -0.066 OA 
HETATM    2  C   UNL     1      -6.533  10.921  66.664  1.00  0.00    -0.120 C  
HETATM    3  C   UNL     1      -7.455   9.913  65.982  1.00  0.00    -0.106 C  
HETATM    4  O   UNL     1      -5.632  11.517  66.093  1.00  0.00    -0.233 OA 
ENDROOT
BRANCH   3   5
HETATM    5  N   UNL     1      -8.823   9.858  66.605  1.00  0.00    -0.134 NA 
BRANCH   5   6
HETATM    6  C   UNL     1      -9.735  10.794  65.865  1.00  0.00    -0.224 C  
BRANCH   6   7
HETATM    7  C   UNL     1      -9.576  12.294  66.261  1.00  0.00    -0.242 C  
BRANCH   7   8
HETATM    8  N   UNL     1     -10.843  13.101  66.344  1.00  0.00    -0.285 NA 
BRANCH   8   9
HETATM    9  C   UNL     1     -10.914  13.960  65.094  1.00  0.00    -0.350 C  
HETATM   10  O   UNL     1     -13.267  13.468  65.106  1.00  0.00    -0.720 OA 
HETATM   11  C   UNL     1     -12.210  13.756  64.311  1.00  0.00    -0.400 C  
HETATM   12  O   UNL     1     -12.300  13.864  63.099  1.00  0.00    -0.696 OA 
ENDBRANCH   8   9
BRANCH   8  13
HETATM   13  C   UNL     1     -10.717  14.044  67.517  1.00  0.00    -0.268 C  
HETATM   14  O   UNL     1     -11.860  12.352  68.773  1.00  0.00    -0.314 OA 
HETATM   15  O   UNL     1     -12.129  14.501  69.439  1.00  0.00    -0.308 OA 
HETATM   16  C   UNL     1     -11.656  13.685  68.665  1.00  0.00    -0.329 C  
ENDBRANCH   8  13
ENDBRANCH   7   8
ENDBRANCH   6   7
ENDBRANCH   5   6
BRANCH   5  17
HETATM   17  C   UNL     1      -9.361   8.468  66.464  1.00  0.00    -0.203 C  
BRANCH  17  18
HETATM   18  C   UNL     1      -8.363   7.298  66.703  1.00  0.00    -0.121 C  
BRANCH  18  19
HETATM   19  N   UNL     1      -8.805   6.277  67.724  1.00  0.00    -0.113 NA 
BRANCH  19  20
HETATM   20  C   UNL     1      -8.862   6.980  69.069  1.00  0.00    -0.134 C  
HETATM   21  O   UNL     1     -10.582   8.265  70.208  1.00  0.00    -0.218 OA 
HETATM   22  O   UNL     1     -11.204   6.437  69.026  1.00  0.00    -0.347 OA 
HETATM   23  C   UNL     1     -10.289   7.319  69.492  1.00  0.00    -0.225 C  
ENDBRANCH  19  20
BRANCH  19  24
HETATM   24  C   UNL     1      -7.724   5.224  67.829  1.00  0.00    -0.091 C  
HETATM   25  C   UNL     1      -8.275   3.833  68.122  1.00  0.00    -0.083 C  
HETATM   26  O   UNL     1      -7.660   2.967  68.724  1.00  0.00    -0.048 OA 
HETATM   27  O   UNL     1      -9.498   3.629  67.578  1.00  0.00    -0.191 OA 
ENDBRANCH  19  24
ENDBRANCH  18  19
ENDBRANCH  17  18
ENDBRANCH   5  17
ENDBRANCH   3   5
TORSDOF 11
ENDMDL
MODEL      314
REMARK 921   NORMALIZED FREE ENERGY PREDICTED BY IDOCK:   -3.53 KCAL/MOL
REMARK 922        TOTAL FREE ENERGY PREDICTED BY IDOCK:   -7.53 KCAL/MOL
REMARK 923 INTER-LIGAND FREE ENERGY PREDICTED BY IDOCK:   -6.61 KCAL/MOL
REMARK 924 INTRA-LIGAND FREE ENERGY PREDICTED BY IDOCK:   -0.92 KCAL/MOL
REMARK 927      BINDING AFFINITY PREDICTED BY RF-SCORE:    0.00 PKD
ROOT
HETATM    1  O   UNL     1      -5.146  15.067  67.573  1.00  0.00    -0.322 OA 
HETATM    2  C   UNL     1      -5.995  14.013  67.567  1.00  0.00     0.082 C  
HETATM    3  C   UNL     1      -7.321  14.323  68.258  1.00  0.00    -0.124 C  
HETATM    4  O   UNL     1      -5.707  12.921  67.100  1.00  0.00    -0.347 OA 
ENDROOT
BRANCH   3   5
HETATM    5  N   UNL     1      -7.734  15.762  68.111  1.00  0.00    -0.125 NA 
BRANCH   5   6
HETATM    6  C   UNL     1      -7.823  16.098  66.650  1.00  0.00    -0.253 C  
BRANCH   6   7
HETATM    7  C   UNL     1      -8.609  17.407  66.337  1.00  0.00    -0.247 C  
BRANCH   7   8
HETATM    8  N   UNL     1      -7.894  18.700  66.618  1.00  0.00    -0.246 NA 
BRANCH   8   9
HETATM    9  C   UNL     1      -8.938  19.804  66.607  1.00  0.00    -0.368 C  
HETATM   10  O   UNL     1      -8.894  19.621  69.004  1.00  0.00    -0.299 OA 
HETATM   11  C   UNL     1      -9.671  19.933  67.941  1.00  0.00    -0.389 C  
HETATM   12  O   UNL     1     -10.830  20.304  68.050  1.00  0.00    -0.072 OA 
ENDBRANCH   8   9
BRANCH   8  13
HETATM   13  C   UNL     1      -6.957  18.972  65.465  1.00  0.00    -0.198 C  
HETATM   14  O   UNL     1      -5.978  20.636  66.885  1.00  0.00    -0.179 OA 
HETATM   15  O   UNL     1      -5.870  20.984  64.648  1.00  0.00    -0.244 OA 
HETATM   16  C   UNL     1      -6.233  20.308  65.596  1.00  0.00    -0.221 C  
ENDBRANCH   8  13
ENDBRANCH   7   8
ENDBRANCH   6   7
ENDBRANCH   5   6
BRANCH   5  17
HETATM   17  C   UNL     1      -9.092  15.937  68.717  1.00  0.00    -0.219 C  
BRANCH  17  18
HETATM   18  C   UNL     1      -9.926  14.647  68.963  1.00  0.00    -0.193 C  
BRANCH  18  19
HETATM   19  N   UNL     1     -11.424  14.837  68.942  1.00  0.00    -0.282 NA 
BRANCH  19  20
HETATM   20  C   UNL     1     -11.782  15.447  67.598  1.00  0.00    -0.111 C  
HETATM   21  O   UNL     1     -11.732  14.606  65.318  1.00  0.00    -0.353 OA 
HETATM   22  O   UNL     1     -12.391  13.207  66.971  1.00  0.00    -0.282 OA 
HETATM   23  C   UNL     1     -11.944  14.396  66.503  1.00  0.00    -0.386 C  
ENDBRANCH  19  20
BRANCH  19  24
HETATM   24  C   UNL     1     -11.779  15.864  69.995  1.00  0.00    -0.334 C  
HETATM   25  C   UNL     1     -12.868  15.384  70.949  1.00  0.00    -0.476 C  
HETATM   26  O   UNL     1     -13.652  16.126  71.519  1.00  0.00    -0.095 OA 
HETATM   27  O   UNL     1     -12.827  14.047  71.161  1.00  0.00    -0.329 OA 
ENDBRANCH  19  24
ENDBRANCH  18  19
ENDBRANCH  17  18
ENDBRANCH   5  17
ENDBRANCH   3   5
TORSDOF 11
ENDMDL
MODEL      315
REMARK 921   NORMALIZED FREE ENERGY PREDICTED BY IDOCK:   -3.52 KCAL/MOL
REMARK 922        TOTAL FREE ENERGY PREDICTED BY IDOCK:   -7.53 KCAL/MOL
REMARK 923 INTER-LIGAND FREE ENERGY PREDICTED BY IDOCK:   -6.03 KCAL/MOL
REMARK 924 INTRA-LIGAND FREE ENERGY PREDICTED BY IDOCK:   -1.50 KCAL/MOL
REMARK 927      BINDING AFFINITY PREDICTED BY RF-SCORE:    0.00 PKD
ROOT
HETATM    1  O   UNL     1     -12.272  12.336  70.213  1.00  0.00    -0.319 OA 
HETATM    2  C   UNL     1     -12.496  11.269  71.015  1.00  0.00    -0.400 C  
HETATM    3  C   UNL     1     -11.855   9.990  70.485  1.00  0.00    -0.303 C  
HETATM    4  O   UNL     1     -13.178  11.322  72.028  1.00  0.00    -0.506 OA 
ENDROOT
BRANCH   3   5
HETATM    5  N   UNL     1     -10.579  10.246  69.729  1.00  0.00    -0.258 NA 
BRANCH   5   6
HETATM    6  C   UNL     1      -9.440   9.590  70.456  1.00  0.00    -0.246 C  
BRANCH   6   7
HETATM    7  C   UNL     1      -9.877   8.645  71.616  1.00  0.00    -0.281 C  
BRANCH   7   8
HETATM    8  N   UNL     1      -9.421   7.214  71.520  1.00  0.00    -0.157 NA 
BRANCH   8   9
HETATM    9  C   UNL     1      -9.800   6.532  72.823  1.00  0.00    -0.169 C  
HETATM   10  O   UNL     1     -10.193   4.579  71.477  1.00  0.00    -0.184 OA 
HETATM   11  C   UNL     1     -10.566   5.229  72.604  1.00  0.00    -0.228 C  
HETATM   12  O   UNL     1     -11.411   4.796  73.372  1.00  0.00    -0.331 OA 
ENDBRANCH   8   9
BRANCH   8  13
HETATM   13  C   UNL     1      -7.912   7.213  71.447  1.00  0.00    -0.102 C  
HETATM   14  O   UNL     1      -8.200   6.448  69.193  1.00  0.00    -0.110 OA 
HETATM   15  O   UNL     1      -6.310   5.817  70.271  1.00  0.00    -0.029 OA 
HETATM   16  C   UNL     1      -7.381   6.400  70.270  1.00  0.00    -0.089 C  
ENDBRANCH   8  13
ENDBRANCH   7   8
ENDBRANCH   6   7
ENDBRANCH   5   6
BRANCH   5  17
HETATM   17  C   UNL     1     -10.692   9.624  68.372  1.00  0.00    -0.209 C  
BRANCH  17  18
HETATM   18  C   UNL     1     -10.995  10.578  67.182  1.00  0.00    -0.228 C  
BRANCH  18  19
HETATM   19  N   UNL     1      -9.871  11.515  66.807  1.00  0.00    -0.200 NA 
BRANCH  19  20
HETATM   20  C   UNL     1     -10.451  12.561  65.872  1.00  0.00    -0.265 C  
HETATM   21  O   UNL     1     -11.676  14.629  66.234  1.00  0.00    -0.370 OA 
HETATM   22  O   UNL     1      -9.982  14.115  67.646  1.00  0.00    -0.228 OA 
HETATM   23  C   UNL     1     -10.791  13.865  66.590  1.00  0.00    -0.289 C  
ENDBRANCH  19  20
BRANCH  19  24
HETATM   24  C   UNL     1      -8.855  10.730  66.008  1.00  0.00    -0.180 C  
HETATM   25  C   UNL     1      -7.445  10.824  66.582  1.00  0.00    -0.135 C  
HETATM   26  O   UNL     1      -6.428  10.734  65.913  1.00  0.00    -0.125 OA 
HETATM   27  O   UNL     1      -7.436  10.946  67.930  1.00  0.00    -0.087 OA 
ENDBRANCH  19  24
ENDBRANCH  18  19
ENDBRANCH  17  18
ENDBRANCH   5  17
ENDBRANCH   3   5
TORSDOF 11
ENDMDL
MODEL      316
REMARK 921   NORMALIZED FREE ENERGY PREDICTED BY IDOCK:   -3.52 KCAL/MOL
REMARK 922        TOTAL FREE ENERGY PREDICTED BY IDOCK:   -7.53 KCAL/MOL
REMARK 923 INTER-LIGAND FREE ENERGY PREDICTED BY IDOCK:   -6.61 KCAL/MOL
REMARK 924 INTRA-LIGAND FREE ENERGY PREDICTED BY IDOCK:   -0.92 KCAL/MOL
REMARK 927      BINDING AFFINITY PREDICTED BY RF-SCORE:    0.00 PKD
ROOT
HETATM    1  O   UNL     1     -13.181  10.287  70.719  1.00  0.00    -0.385 OA 
HETATM    2  C   UNL     1     -12.940  11.608  70.885  1.00  0.00    -0.056 C  
HETATM    3  C   UNL     1     -11.985  12.169  69.834  1.00  0.00    -0.309 C  
HETATM    4  O   UNL     1     -13.404  12.265  71.805  1.00  0.00    -0.410 OA 
ENDROOT
BRANCH   3   5
HETATM    5  N   UNL     1     -12.110  11.476  68.503  1.00  0.00    -0.535 NA 
BRANCH   5   6
HETATM    6  C   UNL     1     -11.663  12.415  67.420  1.00  0.00    -0.347 C  
BRANCH   6   7
HETATM    7  C   UNL     1     -11.434  13.882  67.894  1.00  0.00    -0.318 C  
BRANCH   7   8
HETATM    8  N   UNL     1     -10.183  14.557  67.400  1.00  0.00    -0.240 NA 
BRANCH   8   9
HETATM    9  C   UNL     1     -10.425  14.953  65.954  1.00  0.00    -0.315 C  
HETATM   10  O   UNL     1      -9.414  17.052  66.549  1.00  0.00    -0.254 OA 
HETATM   11  C   UNL     1     -10.316  16.460  65.731  1.00  0.00    -0.369 C  
HETATM   12  O   UNL     1     -10.951  17.074  64.887  1.00  0.00    -0.678 OA 
ENDBRANCH   8   9
BRANCH   8  13
HETATM   13  C   UNL     1      -9.074  13.531  67.394  1.00  0.00    -0.219 C  
HETATM   14  O   UNL     1      -7.722  15.249  68.378  1.00  0.00    -0.118 OA 
HETATM   15  O   UNL     1      -6.667  13.692  67.113  1.00  0.00    -0.164 OA 
HETATM   16  C   UNL     1      -7.695  14.155  67.581  1.00  0.00    -0.174 C  
ENDBRANCH   8  13
ENDBRANCH   7   8
ENDBRANCH   6   7
ENDBRANCH   5   6
BRANCH   5  17
HETATM   17  C   UNL     1     -11.204  10.283  68.497  1.00  0.00    -0.214 C  
BRANCH  17  18
HETATM   18  C   UNL     1      -9.695  10.542  68.772  1.00  0.00    -0.184 C  
BRANCH  18  19
HETATM   19  N   UNL     1      -8.811   9.319  68.703  1.00  0.00    -0.131 NA 
BRANCH  19  20
HETATM   20  C   UNL     1      -7.896   9.357  69.915  1.00  0.00    -0.126 C  
HETATM   21  O   UNL     1      -8.272   9.067  72.298  1.00  0.00    -0.354 OA 
HETATM   22  O   UNL     1      -9.412   7.745  70.857  1.00  0.00    -0.159 OA 
HETATM   23  C   UNL     1      -8.539   8.736  71.153  1.00  0.00    -0.195 C  
ENDBRANCH  19  20
BRANCH  19  24
HETATM   24  C   UNL     1      -7.925   9.451  67.484  1.00  0.00    -0.102 C  
HETATM   25  C   UNL     1      -7.359   8.116  67.013  1.00  0.00    -0.088 C  
HETATM   26  O   UNL     1      -6.295   7.993  66.428  1.00  0.00    -0.045 OA 
HETATM   27  O   UNL     1      -8.200   7.080  67.245  1.00  0.00    -0.116 OA 
ENDBRANCH  19  24
ENDBRANCH  18  19
ENDBRANCH  17  18
ENDBRANCH   5  17
ENDBRANCH   3   5
TORSDOF 11
ENDMDL
MODEL      317
REMARK 921   NORMALIZED FREE ENERGY PREDICTED BY IDOCK:   -3.50 KCAL/MOL
REMARK 922        TOTAL FREE ENERGY PREDICTED BY IDOCK:   -7.49 KCAL/MOL
REMARK 923 INTER-LIGAND FREE ENERGY PREDICTED BY IDOCK:   -5.97 KCAL/MOL
REMARK 924 INTRA-LIGAND FREE ENERGY PREDICTED BY IDOCK:   -1.52 KCAL/MOL
REMARK 927      BINDING AFFINITY PREDICTED BY RF-SCORE:    0.00 PKD
ROOT
HETATM    1  O   UNL     1     -10.147   5.620  69.904  1.00  0.00    -0.184 OA 
HETATM    2  C   UNL     1     -11.072   6.607  69.865  1.00  0.00    -0.348 C  
HETATM    3  C   UNL     1     -10.693   7.730  68.903  1.00  0.00    -0.085 C  
HETATM    4  O   UNL     1     -12.077   6.614  70.561  1.00  0.00    -0.390 OA 
ENDROOT
BRANCH   3   5
HETATM    5  N   UNL     1      -9.903   7.243  67.719  1.00  0.00    -0.143 NA 
BRANCH   5   6
HETATM    6  C   UNL     1     -10.841   6.608  66.733  1.00  0.00    -0.252 C  
BRANCH   6   7
HETATM    7  C   UNL     1     -10.573   5.095  66.472  1.00  0.00    -0.260 C  
BRANCH   7   8
HETATM    8  N   UNL     1      -9.693   4.765  65.297  1.00  0.00    -0.129 NA 
BRANCH   8   9
HETATM    9  C   UNL     1      -9.982   3.326  64.908  1.00  0.00    -0.003 C  
HETATM   10  O   UNL     1     -10.323   4.184  62.688  1.00  0.00    -0.177 OA 
HETATM   11  C   UNL     1     -10.685   3.211  63.557  1.00  0.00    -0.246 C  
HETATM   12  O   UNL     1     -11.473   2.323  63.270  1.00  0.00    -0.338 OA 
ENDBRANCH   8   9
BRANCH   8  13
HETATM   13  C   UNL     1      -8.258   4.814  65.765  1.00  0.00    -0.112 C  
HETATM   14  O   UNL     1      -8.010   6.648  64.242  1.00  0.00    -0.118 OA 
HETATM   15  O   UNL     1      -6.172   5.391  64.663  1.00  0.00    -0.022 OA 
HETATM   16  C   UNL     1      -7.360   5.615  64.828  1.00  0.00    -0.068 C  
ENDBRANCH   8  13
ENDBRANCH   7   8
ENDBRANCH   6   7
ENDBRANCH   5   6
BRANCH   5  17
HETATM   17  C   UNL     1      -9.252   8.419  67.059  1.00  0.00    -0.151 C  
BRANCH  17  18
HETATM   18  C   UNL     1     -10.129   9.257  66.086  1.00  0.00    -0.233 C  
BRANCH  18  19
HETATM   19  N   UNL     1     -10.114  10.748  66.330  1.00  0.00    -0.225 NA 
BRANCH  19  20
HETATM   20  C   UNL     1     -10.829  11.402  65.161  1.00  0.00    -0.238 C  
HETATM   21  O   UNL     1     -12.937  12.593  64.951  1.00  0.00    -0.830 OA 
HETATM   22  O   UNL     1     -11.683  12.935  66.805  1.00  0.00    -0.346 OA 
HETATM   23  C   UNL     1     -11.937  12.351  65.610  1.00  0.00    -0.386 C  
ENDBRANCH  19  20
BRANCH  19  24
HETATM   24  C   UNL     1      -8.675  11.214  66.277  1.00  0.00    -0.182 C  
HETATM   25  C   UNL     1      -8.315  12.161  67.418  1.00  0.00    -0.174 C  
HETATM   26  O   UNL     1      -7.460  13.028  67.342  1.00  0.00    -0.155 OA 
HETATM   27  O   UNL     1      -8.996  11.890  68.557  1.00  0.00    -0.176 OA 
ENDBRANCH  19  24
ENDBRANCH  18  19
ENDBRANCH  17  18
ENDBRANCH   5  17
ENDBRANCH   3   5
TORSDOF 11
ENDMDL
MODEL      318
REMARK 921   NORMALIZED FREE ENERGY PREDICTED BY IDOCK:   -3.49 KCAL/MOL
REMARK 922        TOTAL FREE ENERGY PREDICTED BY IDOCK:   -7.47 KCAL/MOL
REMARK 923 INTER-LIGAND FREE ENERGY PREDICTED BY IDOCK:   -6.18 KCAL/MOL
REMARK 924 INTRA-LIGAND FREE ENERGY PREDICTED BY IDOCK:   -1.29 KCAL/MOL
REMARK 927      BINDING AFFINITY PREDICTED BY RF-SCORE:    0.00 PKD
ROOT
HETATM    1  O   UNL     1     -12.138  12.455  69.778  1.00  0.00    -0.285 OA 
HETATM    2  C   UNL     1     -12.351  11.516  70.730  1.00  0.00    -0.375 C  
HETATM    3  C   UNL     1     -11.723  10.170  70.379  1.00  0.00    -0.308 C  
HETATM    4  O   UNL     1     -13.014  11.719  71.736  1.00  0.00    -0.423 OA 
ENDROOT
BRANCH   3   5
HETATM    5  N   UNL     1     -10.460  10.307  69.572  1.00  0.00    -0.229 NA 
BRANCH   5   6
HETATM    6  C   UNL     1      -9.366   9.526  70.240  1.00  0.00    -0.259 C  
BRANCH   6   7
HETATM    7  C   UNL     1      -9.824   8.719  71.493  1.00  0.00    -0.301 C  
BRANCH   7   8
HETATM    8  N   UNL     1      -9.603   7.232  71.448  1.00  0.00    -0.161 NA 
BRANCH   8   9
HETATM    9  C   UNL     1      -9.320   6.861  70.003  1.00  0.00    -0.158 C  
HETATM   10  O   UNL     1      -7.211   6.040  70.814  1.00  0.00    -0.072 OA 
HETATM   11  C   UNL     1      -7.840   6.581  69.745  1.00  0.00    -0.115 C  
HETATM   12  O   UNL     1      -7.280   6.795  68.682  1.00  0.00    -0.080 OA 
ENDBRANCH   8   9
BRANCH   8  13
HETATM   13  C   UNL     1     -10.901   6.558  71.828  1.00  0.00    -0.238 C  
HETATM   14  O   UNL     1      -9.986   6.442  74.041  1.00  0.00    -0.220 OA 
HETATM   15  O   UNL     1     -11.465   4.833  73.441  1.00  0.00    -0.338 OA 
HETATM   16  C   UNL     1     -10.816   5.828  73.164  1.00  0.00    -0.276 C  
ENDBRANCH   8  13
ENDBRANCH   7   8
ENDBRANCH   6   7
ENDBRANCH   5   6
BRANCH   5  17
HETATM   17  C   UNL     1     -10.693   9.724  68.213  1.00  0.00    -0.233 C  
BRANCH  17  18
HETATM   18  C   UNL     1     -10.939  10.725  67.048  1.00  0.00    -0.227 C  
BRANCH  18  19
HETATM   19  N   UNL     1      -9.758  11.596  66.689  1.00  0.00    -0.198 NA 
BRANCH  19  20
HETATM   20  C   UNL     1     -10.301  12.814  65.964  1.00  0.00    -0.276 C  
HETATM   21  O   UNL     1     -11.596  14.742  66.679  1.00  0.00    -0.360 OA 
HETATM   22  O   UNL     1      -9.985  13.951  68.059  1.00  0.00    -0.227 OA 
HETATM   23  C   UNL     1     -10.718  13.928  66.921  1.00  0.00    -0.284 C  
ENDBRANCH  19  20
BRANCH  19  24
HETATM   24  C   UNL     1      -8.906  10.839  65.694  1.00  0.00    -0.190 C  
HETATM   25  C   UNL     1      -7.469  10.645  66.168  1.00  0.00    -0.138 C  
HETATM   26  O   UNL     1      -6.511  10.542  65.418  1.00  0.00    -0.122 OA 
HETATM   27  O   UNL     1      -7.374  10.522  67.512  1.00  0.00    -0.090 OA 
ENDBRANCH  19  24
ENDBRANCH  18  19
ENDBRANCH  17  18
ENDBRANCH   5  17
ENDBRANCH   3   5
TORSDOF 11
ENDMDL
MODEL      319
REMARK 921   NORMALIZED FREE ENERGY PREDICTED BY IDOCK:   -3.48 KCAL/MOL
REMARK 922        TOTAL FREE ENERGY PREDICTED BY IDOCK:   -7.46 KCAL/MOL
REMARK 923 INTER-LIGAND FREE ENERGY PREDICTED BY IDOCK:   -7.35 KCAL/MOL
REMARK 924 INTRA-LIGAND FREE ENERGY PREDICTED BY IDOCK:   -0.11 KCAL/MOL
REMARK 927      BINDING AFFINITY PREDICTED BY RF-SCORE:    0.00 PKD
ROOT
HETATM    1  O   UNL     1      -6.236  12.303  66.720  1.00  0.00    -0.185 OA 
HETATM    2  C   UNL     1      -6.660  12.171  67.998  1.00  0.00    -0.069 C  
HETATM    3  C   UNL     1      -8.181  12.218  68.121  1.00  0.00    -0.168 C  
HETATM    4  O   UNL     1      -5.901  12.072  68.951  1.00  0.00    -0.051 OA 
ENDROOT
BRANCH   3   5
HETATM    5  N   UNL     1      -8.882  11.648  66.918  1.00  0.00    -0.183 NA 
BRANCH   5   6
HETATM    6  C   UNL     1      -9.302  10.239  67.220  1.00  0.00    -0.149 C  
BRANCH   6   7
HETATM    7  C   UNL     1     -10.748  10.106  67.786  1.00  0.00    -0.277 C  
BRANCH   7   8
HETATM    8  N   UNL     1     -10.881   9.455  69.136  1.00  0.00    -0.196 NA 
BRANCH   8   9
HETATM    9  C   UNL     1     -11.221  10.549  70.133  1.00  0.00    -0.315 C  
HETATM   10  O   UNL     1     -12.519   8.868  71.260  1.00  0.00    -0.305 OA 
HETATM   11  C   UNL     1     -12.422  10.194  71.009  1.00  0.00    -0.375 C  
HETATM   12  O   UNL     1     -13.203  11.016  71.461  1.00  0.00    -0.388 OA 
ENDBRANCH   8   9
BRANCH   8  13
HETATM   13  C   UNL     1      -9.525   8.913  69.525  1.00  0.00    -0.159 C  
HETATM   14  O   UNL     1     -10.569   6.756  69.469  1.00  0.00    -0.207 OA 
HETATM   15  O   UNL     1      -8.819   7.028  70.882  1.00  0.00    -0.146 OA 
HETATM   16  C   UNL     1      -9.593   7.486  70.058  1.00  0.00    -0.164 C  
ENDBRANCH   8  13
ENDBRANCH   7   8
ENDBRANCH   6   7
ENDBRANCH   5   6
BRANCH   5  17
HETATM   17  C   UNL     1     -10.112  12.459  66.649  1.00  0.00    -0.221 C  
BRANCH  17  18
HETATM   18  C   UNL     1      -9.974  14.005  66.751  1.00  0.00    -0.268 C  
BRANCH  18  19
HETATM   19  N   UNL     1     -11.275  14.770  66.712  1.00  0.00    -0.339 NA 
BRANCH  19  20
HETATM   20  C   UNL     1     -11.494  15.213  65.276  1.00  0.00    -0.266 C  
HETATM   21  O   UNL     1     -12.482  14.140  63.332  1.00  0.00    -0.797 OA 
HETATM   22  O   UNL     1     -13.445  13.809  65.354  1.00  0.00    -0.620 OA 
HETATM   23  C   UNL     1     -12.499  14.331  64.538  1.00  0.00    -0.333 C  
ENDBRANCH  19  20
BRANCH  19  24
HETATM   24  C   UNL     1     -11.102  16.028  67.534  1.00  0.00    -0.207 C  
HETATM   25  C   UNL     1      -9.803  16.765  67.226  1.00  0.00    -0.260 C  
HETATM   26  O   UNL     1      -9.204  17.459  68.032  1.00  0.00    -0.253 OA 
HETATM   27  O   UNL     1      -9.418  16.631  65.935  1.00  0.00    -0.447 OA 
ENDBRANCH  19  24
ENDBRANCH  18  19
ENDBRANCH  17  18
ENDBRANCH   5  17
ENDBRANCH   3   5
TORSDOF 11
ENDMDL
MODEL      320
REMARK 921   NORMALIZED FREE ENERGY PREDICTED BY IDOCK:   -3.48 KCAL/MOL
REMARK 922        TOTAL FREE ENERGY PREDICTED BY IDOCK:   -7.46 KCAL/MOL
REMARK 923 INTER-LIGAND FREE ENERGY PREDICTED BY IDOCK:   -6.99 KCAL/MOL
REMARK 924 INTRA-LIGAND FREE ENERGY PREDICTED BY IDOCK:   -0.47 KCAL/MOL
REMARK 927      BINDING AFFINITY PREDICTED BY RF-SCORE:    0.00 PKD
ROOT
HETATM    1  O   UNL     1      -8.710  15.387  67.236  1.00  0.00    -0.175 OA 
HETATM    2  C   UNL     1      -7.641  14.626  67.566  1.00  0.00    -0.194 C  
HETATM    3  C   UNL     1      -8.032  13.206  67.967  1.00  0.00    -0.156 C  
HETATM    4  O   UNL     1      -6.494  15.050  67.585  1.00  0.00    -0.157 OA 
ENDROOT
BRANCH   3   5
HETATM    5  N   UNL     1      -9.251  12.708  67.239  1.00  0.00    -0.188 NA 
BRANCH   5   6
HETATM    6  C   UNL     1      -8.874  11.510  66.416  1.00  0.00    -0.193 C  
BRANCH   6   7
HETATM    7  C   UNL     1     -10.062  10.862  65.643  1.00  0.00    -0.261 C  
BRANCH   7   8
HETATM    8  N   UNL     1     -10.302  11.363  64.245  1.00  0.00    -0.299 NA 
BRANCH   8   9
HETATM    9  C   UNL     1      -8.943  11.583  63.604  1.00  0.00     0.208 C  
HETATM   10  O   UNL     1      -9.416   9.592  62.341  1.00  0.00    -0.158 OA 
HETATM   11  C   UNL     1      -8.426  10.341  62.879  1.00  0.00    -0.180 C  
HETATM   12  O   UNL     1      -7.243  10.058  62.769  1.00  0.00    -0.118 OA 
ENDBRANCH   8   9
BRANCH   8  13
HETATM   13  C   UNL     1     -10.965  12.716  64.345  1.00  0.00    -0.351 C  
HETATM   14  O   UNL     1     -12.961  11.594  63.637  1.00  0.00    -0.442 OA 
HETATM   15  O   UNL     1     -12.753  13.785  63.096  1.00  0.00    -0.743 OA 
HETATM   16  C   UNL     1     -12.299  12.775  63.608  1.00  0.00    -0.463 C  
ENDBRANCH   8  13
ENDBRANCH   7   8
ENDBRANCH   6   7
ENDBRANCH   5   6
BRANCH   5  17
HETATM   17  C   UNL     1     -10.273  12.284  68.249  1.00  0.00    -0.220 C  
BRANCH  17  18
HETATM   18  C   UNL     1     -11.317  13.350  68.687  1.00  0.00    -0.286 C  
BRANCH  18  19
HETATM   19  N   UNL     1     -11.896  13.153  70.068  1.00  0.00    -0.315 NA 
BRANCH  19  20
HETATM   20  C   UNL     1     -12.639  11.828  70.058  1.00  0.00     0.061 C  
HETATM   21  O   UNL     1     -13.059  10.140  71.755  1.00  0.00    -0.403 OA 
HETATM   22  O   UNL     1     -13.131  12.320  72.360  1.00  0.00    -0.319 OA 
HETATM   23  C   UNL     1     -12.948  11.321  71.465  1.00  0.00    -0.415 C  
ENDBRANCH  19  20
BRANCH  19  24
HETATM   24  C   UNL     1     -12.931  14.231  70.298  1.00  0.00    -0.038 C  
HETATM   25  C   UNL     1     -12.526  15.222  71.385  1.00  0.00    -0.361 C  
HETATM   26  O   UNL     1     -13.319  15.830  72.085  1.00  0.00    -0.458 OA 
HETATM   27  O   UNL     1     -11.187  15.415  71.444  1.00  0.00    -0.367 OA 
ENDBRANCH  19  24
ENDBRANCH  18  19
ENDBRANCH  17  18
ENDBRANCH   5  17
ENDBRANCH   3   5
TORSDOF 11
ENDMDL
MODEL      321
REMARK 921   NORMALIZED FREE ENERGY PREDICTED BY IDOCK:   -3.45 KCAL/MOL
REMARK 922        TOTAL FREE ENERGY PREDICTED BY IDOCK:   -7.42 KCAL/MOL
REMARK 923 INTER-LIGAND FREE ENERGY PREDICTED BY IDOCK:   -7.22 KCAL/MOL
REMARK 924 INTRA-LIGAND FREE ENERGY PREDICTED BY IDOCK:   -0.20 KCAL/MOL
REMARK 927      BINDING AFFINITY PREDICTED BY RF-SCORE:    0.00 PKD
ROOT
HETATM    1  O   UNL     1     -11.672  14.386  68.553  1.00  0.00    -0.302 OA 
HETATM    2  C   UNL     1     -11.606  14.544  67.211  1.00  0.00    -0.385 C  
HETATM    3  C   UNL     1     -10.368  15.321  66.770  1.00  0.00    -0.279 C  
HETATM    4  O   UNL     1     -12.471  14.146  66.444  1.00  0.00    -0.461 OA 
ENDROOT
BRANCH   3   5
HETATM    5  N   UNL     1      -9.184  15.090  67.669  1.00  0.00    -0.181 NA 
BRANCH   5   6
HETATM    6  C   UNL     1      -9.335  15.934  68.902  1.00  0.00    -0.233 C  
BRANCH   6   7
HETATM    7  C   UNL     1      -9.352  17.469  68.632  1.00  0.00    -0.277 C  
BRANCH   7   8
HETATM    8  N   UNL     1      -8.064  18.078  68.149  1.00  0.00    -0.264 NA 
BRANCH   8   9
HETATM    9  C   UNL     1      -7.921  19.429  68.828  1.00  0.00    -0.356 C  
HETATM   10  O   UNL     1      -5.563  18.961  68.861  1.00  0.00    -0.195 OA 
HETATM   11  C   UNL     1      -6.563  19.607  69.505  1.00  0.00    -0.348 C  
HETATM   12  O   UNL     1      -6.383  20.281  70.507  1.00  0.00    -0.439 OA 
ENDBRANCH   8   9
BRANCH   8  13
HETATM   13  C   UNL     1      -8.203  18.344  66.668  1.00  0.00    -0.266 C  
HETATM   14  O   UNL     1      -6.373  16.818  66.404  1.00  0.00    -0.257 OA 
HETATM   15  O   UNL     1      -6.604  18.444  64.844  1.00  0.00    -0.422 OA 
HETATM   16  C   UNL     1      -6.975  17.908  65.875  1.00  0.00    -0.278 C  
ENDBRANCH   8  13
ENDBRANCH   7   8
ENDBRANCH   6   7
ENDBRANCH   5   6
BRANCH   5  17
HETATM   17  C   UNL     1      -9.168  13.651  68.083  1.00  0.00    -0.204 C  
BRANCH  17  18
HETATM   18  C   UNL     1      -8.549  12.635  67.082  1.00  0.00    -0.199 C  
BRANCH  18  19
HETATM   19  N   UNL     1      -9.150  11.250  67.117  1.00  0.00    -0.156 NA 
BRANCH  19  20
HETATM   20  C   UNL     1     -10.189  11.182  66.013  1.00  0.00    -0.250 C  
HETATM   21  O   UNL     1     -10.045  11.124  63.588  1.00  0.00    -0.309 OA 
HETATM   22  O   UNL     1      -8.514   9.967  64.788  1.00  0.00    -0.153 OA 
HETATM   23  C   UNL     1      -9.589  10.782  64.668  1.00  0.00    -0.268 C  
ENDBRANCH  19  20
BRANCH  19  24
HETATM   24  C   UNL     1      -9.893  11.097  68.426  1.00  0.00    -0.185 C  
HETATM   25  C   UNL     1      -9.201  10.145  69.396  1.00  0.00    -0.214 C  
HETATM   26  O   UNL     1      -9.786   9.485  70.239  1.00  0.00    -0.231 OA 
HETATM   27  O   UNL     1      -7.853  10.164  69.274  1.00  0.00    -0.108 OA 
ENDBRANCH  19  24
ENDBRANCH  18  19
ENDBRANCH  17  18
ENDBRANCH   5  17
ENDBRANCH   3   5
TORSDOF 11
ENDMDL
MODEL      322
REMARK 921   NORMALIZED FREE ENERGY PREDICTED BY IDOCK:   -3.45 KCAL/MOL
REMARK 922        TOTAL FREE ENERGY PREDICTED BY IDOCK:   -7.41 KCAL/MOL
REMARK 923 INTER-LIGAND FREE ENERGY PREDICTED BY IDOCK:   -7.73 KCAL/MOL
REMARK 924 INTRA-LIGAND FREE ENERGY PREDICTED BY IDOCK:    0.31 KCAL/MOL
REMARK 927      BINDING AFFINITY PREDICTED BY RF-SCORE:    0.00 PKD
ROOT
HETATM    1  O   UNL     1      -6.976  14.445  70.052  1.00  0.00    -0.092 OA 
HETATM    2  C   UNL     1      -6.275  14.670  68.917  1.00  0.00    -0.087 C  
HETATM    3  C   UNL     1      -6.979  14.134  67.674  1.00  0.00    -0.184 C  
HETATM    4  O   UNL     1      -5.175  15.205  68.902  1.00  0.00    -0.093 OA 
ENDROOT
BRANCH   3   5
HETATM    5  N   UNL     1      -8.479  14.186  67.784  1.00  0.00    -0.165 NA 
BRANCH   5   6
HETATM    6  C   UNL     1      -8.996  12.808  68.076  1.00  0.00    -0.196 C  
BRANCH   6   7
HETATM    7  C   UNL     1     -10.513  12.612  67.775  1.00  0.00    -0.221 C  
BRANCH   7   8
HETATM    8  N   UNL     1     -10.905  12.562  66.323  1.00  0.00    -0.262 NA 
BRANCH   8   9
HETATM    9  C   UNL     1      -9.623  12.507  65.511  1.00  0.00    -0.043 C  
HETATM   10  O   UNL     1     -10.386  10.343  64.790  1.00  0.00    -0.320 OA 
HETATM   11  C   UNL     1      -9.287  11.093  65.037  1.00  0.00    -0.207 C  
HETATM   12  O   UNL     1      -8.149  10.682  64.871  1.00  0.00    -0.127 OA 
ENDBRANCH   8   9
BRANCH   8  13
HETATM   13  C   UNL     1     -11.585  13.867  65.981  1.00  0.00    -0.349 C  
HETATM   14  O   UNL     1     -12.912  12.572  64.462  1.00  0.00    -0.752 OA 
HETATM   15  O   UNL     1     -12.554  14.747  63.936  1.00  0.00    -0.834 OA 
HETATM   16  C   UNL     1     -12.375  13.796  64.678  1.00  0.00    -0.372 C  
ENDBRANCH   8  13
ENDBRANCH   7   8
ENDBRANCH   6   7
ENDBRANCH   5   6
BRANCH   5  17
HETATM   17  C   UNL     1      -8.845  15.080  68.929  1.00  0.00    -0.201 C  
BRANCH  17  18
HETATM   18  C   UNL     1      -9.929  16.162  68.662  1.00  0.00    -0.228 C  
BRANCH  18  19
HETATM   19  N   UNL     1      -9.410  17.468  68.110  1.00  0.00    -0.268 NA 
BRANCH  19  20
HETATM   20  C   UNL     1      -9.376  17.336  66.598  1.00  0.00    -0.260 C  
HETATM   21  O   UNL     1     -11.014  17.744  64.850  1.00  0.00    -0.866 OA 
HETATM   22  O   UNL     1     -10.928  19.172  66.604  1.00  0.00    -0.331 OA 
HETATM   23  C   UNL     1     -10.525  18.076  65.919  1.00  0.00    -0.264 C  
ENDBRANCH  19  20
BRANCH  19  24
HETATM   24  C   UNL     1      -7.977  17.631  68.567  1.00  0.00    -0.283 C  
HETATM   25  C   UNL     1      -7.517  19.085  68.573  1.00  0.00    -0.317 C  
HETATM   26  O   UNL     1      -6.360  19.437  68.407  1.00  0.00    -0.230 OA 
HETATM   27  O   UNL     1      -8.519  19.950  68.860  1.00  0.00    -0.172 OA 
ENDBRANCH  19  24
ENDBRANCH  18  19
ENDBRANCH  17  18
ENDBRANCH   5  17
ENDBRANCH   3   5
TORSDOF 11
ENDMDL
MODEL      323
REMARK 921   NORMALIZED FREE ENERGY PREDICTED BY IDOCK:   -3.45 KCAL/MOL
REMARK 922        TOTAL FREE ENERGY PREDICTED BY IDOCK:   -7.40 KCAL/MOL
REMARK 923 INTER-LIGAND FREE ENERGY PREDICTED BY IDOCK:   -7.36 KCAL/MOL
REMARK 924 INTRA-LIGAND FREE ENERGY PREDICTED BY IDOCK:   -0.05 KCAL/MOL
REMARK 927      BINDING AFFINITY PREDICTED BY RF-SCORE:    0.00 PKD
ROOT
HETATM    1  O   UNL     1      -8.946   9.760  70.611  1.00  0.00    -0.140 OA 
HETATM    2  C   UNL     1     -10.070   9.155  71.060  1.00  0.00    -0.303 C  
HETATM    3  C   UNL     1     -11.315   9.571  70.281  1.00  0.00    -0.236 C  
HETATM    4  O   UNL     1     -10.086   8.393  72.017  1.00  0.00    -0.238 OA 
ENDROOT
BRANCH   3   5
HETATM    5  N   UNL     1     -11.022   9.883  68.838  1.00  0.00    -0.207 NA 
BRANCH   5   6
HETATM    6  C   UNL     1     -10.526  11.297  68.735  1.00  0.00    -0.208 C  
BRANCH   6   7
HETATM    7  C   UNL     1     -11.616  12.333  68.326  1.00  0.00    -0.331 C  
BRANCH   7   8
HETATM    8  N   UNL     1     -11.275  13.245  67.178  1.00  0.00    -0.289 NA 
BRANCH   8   9
HETATM    9  C   UNL     1     -11.403  12.431  65.902  1.00  0.00    -0.356 C  
HETATM   10  O   UNL     1     -13.017  14.081  65.227  1.00  0.00    -0.743 OA 
HETATM   11  C   UNL     1     -12.658  12.782  65.105  1.00  0.00    -0.444 C  
HETATM   12  O   UNL     1     -13.268  11.987  64.406  1.00  0.00    -0.669 OA 
ENDBRANCH   8   9
BRANCH   8  13
HETATM   13  C   UNL     1      -9.820  13.630  67.308  1.00  0.00    -0.241 C  
HETATM   14  O   UNL     1     -10.607  15.894  67.350  1.00  0.00    -0.305 OA 
HETATM   15  O   UNL     1      -8.530  15.530  66.520  1.00  0.00    -0.270 OA 
HETATM   16  C   UNL     1      -9.570  15.101  66.992  1.00  0.00    -0.226 C  
ENDBRANCH   8  13
ENDBRANCH   7   8
ENDBRANCH   6   7
ENDBRANCH   5   6
BRANCH   5  17
HETATM   17  C   UNL     1      -9.938   8.967  68.359  1.00  0.00    -0.180 C  
BRANCH  17  18
HETATM   18  C   UNL     1     -10.334   7.900  67.299  1.00  0.00    -0.307 C  
BRANCH  18  19
HETATM   19  N   UNL     1     -10.008   6.473  67.671  1.00  0.00    -0.123 NA 
BRANCH  19  20
HETATM   20  C   UNL     1     -10.755   5.574  66.703  1.00  0.00    -0.261 C  
HETATM   21  O   UNL     1     -10.068   4.271  64.769  1.00  0.00    -0.188 OA 
HETATM   22  O   UNL     1      -8.688   4.352  66.561  1.00  0.00    -0.112 OA 
HETATM   23  C   UNL     1      -9.818   4.682  65.892  1.00  0.00    -0.220 C  
ENDBRANCH  19  20
BRANCH  19  24
HETATM   24  C   UNL     1     -10.582   6.207  69.045  1.00  0.00    -0.279 C  
HETATM   25  C   UNL     1      -9.747   5.223  69.858  1.00  0.00    -0.193 C  
HETATM   26  O   UNL     1     -10.204   4.486  70.717  1.00  0.00    -0.194 OA 
HETATM   27  O   UNL     1      -8.425   5.304  69.579  1.00  0.00    -0.093 OA 
ENDBRANCH  19  24
ENDBRANCH  18  19
ENDBRANCH  17  18
ENDBRANCH   5  17
ENDBRANCH   3   5
TORSDOF 11
ENDMDL
MODEL      324
REMARK 921   NORMALIZED FREE ENERGY PREDICTED BY IDOCK:   -3.43 KCAL/MOL
REMARK 922        TOTAL FREE ENERGY PREDICTED BY IDOCK:   -7.38 KCAL/MOL
REMARK 923 INTER-LIGAND FREE ENERGY PREDICTED BY IDOCK:   -7.40 KCAL/MOL
REMARK 924 INTRA-LIGAND FREE ENERGY PREDICTED BY IDOCK:    0.02 KCAL/MOL
REMARK 927      BINDING AFFINITY PREDICTED BY RF-SCORE:    0.00 PKD
ROOT
HETATM    1  O   UNL     1      -7.818   9.404  67.035  1.00  0.00    -0.098 OA 
HETATM    2  C   UNL     1      -8.401   8.712  66.029  1.00  0.00    -0.131 C  
HETATM    3  C   UNL     1      -9.920   8.640  66.168  1.00  0.00    -0.134 C  
HETATM    4  O   UNL     1      -7.771   8.167  65.135  1.00  0.00    -0.094 OA 
ENDROOT
BRANCH   3   5
HETATM    5  N   UNL     1     -10.504   9.861  66.826  1.00  0.00    -0.216 NA 
BRANCH   5   6
HETATM    6  C   UNL     1     -10.112   9.870  68.275  1.00  0.00    -0.161 C  
BRANCH   6   7
HETATM    7  C   UNL     1     -10.481   8.569  69.050  1.00  0.00    -0.200 C  
BRANCH   7   8
HETATM    8  N   UNL     1     -10.415   8.642  70.551  1.00  0.00    -0.200 NA 
BRANCH   8   9
HETATM    9  C   UNL     1     -11.244   9.840  70.981  1.00  0.00    -0.381 C  
HETATM   10  O   UNL     1     -12.237   8.350  72.586  1.00  0.00    -0.380 OA 
HETATM   11  C   UNL     1     -12.457   9.446  71.822  1.00  0.00    -0.391 C  
HETATM   12  O   UNL     1     -13.510  10.063  71.832  1.00  0.00    -0.391 OA 
ENDBRANCH   8   9
BRANCH   8  13
HETATM   13  C   UNL     1      -8.985   8.936  70.938  1.00  0.00    -0.222 C  
HETATM   14  O   UNL     1      -9.252   7.189  72.558  1.00  0.00    -0.137 OA 
HETATM   15  O   UNL     1      -7.786   8.845  73.048  1.00  0.00    -0.371 OA 
HETATM   16  C   UNL     1      -8.612   8.353  72.297  1.00  0.00    -0.197 C  
ENDBRANCH   8  13
ENDBRANCH   7   8
ENDBRANCH   6   7
ENDBRANCH   5   6
BRANCH   5  17
HETATM   17  C   UNL     1      -9.927  11.080  66.174  1.00  0.00    -0.231 C  
BRANCH  17  18
HETATM   18  C   UNL     1     -10.931  12.166  65.694  1.00  0.00    -0.295 C  
BRANCH  18  19
HETATM   19  N   UNL     1     -10.604  13.577  66.122  1.00  0.00    -0.286 NA 
BRANCH  19  20
HETATM   20  C   UNL     1     -10.422  14.399  64.859  1.00  0.00    -0.423 C  
HETATM   21  O   UNL     1     -11.451  16.440  64.033  1.00  0.00    -1.048 OA 
HETATM   22  O   UNL     1     -10.990  16.281  66.244  1.00  0.00    -0.162 OA 
HETATM   23  C   UNL     1     -11.021  15.798  64.979  1.00  0.00    -0.417 C  
ENDBRANCH  19  20
BRANCH  19  24
HETATM   24  C   UNL     1      -9.264  13.553  66.824  1.00  0.00    -0.240 C  
HETATM   25  C   UNL     1      -9.313  14.172  68.217  1.00  0.00    -0.203 C  
HETATM   26  O   UNL     1      -8.362  14.715  68.757  1.00  0.00    -0.159 OA 
HETATM   27  O   UNL     1     -10.506  13.989  68.830  1.00  0.00    -0.236 OA 
ENDBRANCH  19  24
ENDBRANCH  18  19
ENDBRANCH  17  18
ENDBRANCH   5  17
ENDBRANCH   3   5
TORSDOF 11
ENDMDL
MODEL      325
REMARK 921   NORMALIZED FREE ENERGY PREDICTED BY IDOCK:   -3.41 KCAL/MOL
REMARK 922        TOTAL FREE ENERGY PREDICTED BY IDOCK:   -7.34 KCAL/MOL
REMARK 923 INTER-LIGAND FREE ENERGY PREDICTED BY IDOCK:   -5.93 KCAL/MOL
REMARK 924 INTRA-LIGAND FREE ENERGY PREDICTED BY IDOCK:   -1.41 KCAL/MOL
REMARK 927      BINDING AFFINITY PREDICTED BY RF-SCORE:    0.00 PKD
ROOT
HETATM    1  O   UNL     1     -11.929   9.608  70.450  1.00  0.00    -0.216 OA 
HETATM    2  C   UNL     1     -10.613   9.342  70.620  1.00  0.00    -0.262 C  
HETATM    3  C   UNL     1      -9.948   8.824  69.347  1.00  0.00    -0.196 C  
HETATM    4  O   UNL     1     -10.037   9.460  71.692  1.00  0.00    -0.256 OA 
ENDROOT
BRANCH   3   5
HETATM    5  N   UNL     1     -10.555   9.399  68.096  1.00  0.00    -0.225 NA 
BRANCH   5   6
HETATM    6  C   UNL     1      -9.779  10.620  67.693  1.00  0.00    -0.165 C  
BRANCH   6   7
HETATM    7  C   UNL     1     -10.482  11.970  68.028  1.00  0.00    -0.207 C  
BRANCH   7   8
HETATM    8  N   UNL     1     -10.883  12.824  66.856  1.00  0.00    -0.250 NA 
BRANCH   8   9
HETATM    9  C   UNL     1     -11.917  13.818  67.356  1.00  0.00    -0.388 C  
HETATM   10  O   UNL     1     -10.257  15.497  66.900  1.00  0.00    -0.267 OA 
HETATM   11  C   UNL     1     -11.310  15.180  67.689  1.00  0.00    -0.321 C  
HETATM   12  O   UNL     1     -11.738  15.924  68.558  1.00  0.00    -0.383 OA 
ENDBRANCH   8   9
BRANCH   8  13
HETATM   13  C   UNL     1     -11.579  11.936  65.852  1.00  0.00    -0.224 C  
HETATM   14  O   UNL     1     -10.547  13.315  64.184  1.00  0.00    -0.416 OA 
HETATM   15  O   UNL     1     -12.523  12.342  63.652  1.00  0.00    -0.562 OA 
HETATM   16  C   UNL     1     -11.632  12.553  64.458  1.00  0.00    -0.348 C  
ENDBRANCH   8  13
ENDBRANCH   7   8
ENDBRANCH   6   7
ENDBRANCH   5   6
BRANCH   5  17
HETATM   17  C   UNL     1     -10.444   8.386  66.999  1.00  0.00    -0.305 C  
BRANCH  17  18
HETATM   18  C   UNL     1      -9.068   8.268  66.285  1.00  0.00    -0.188 C  
BRANCH  18  19
HETATM   19  N   UNL     1      -8.337   6.966  66.510  1.00  0.00    -0.116 NA 
BRANCH  19  20
HETATM   20  C   UNL     1      -6.850   7.269  66.453  1.00  0.00    -0.061 C  
HETATM   21  O   UNL     1      -5.208   7.887  68.134  1.00  0.00    -0.029 OA 
HETATM   22  O   UNL     1      -6.785   6.356  68.677  1.00  0.00    -0.056 OA 
HETATM   23  C   UNL     1      -6.192   7.230  67.830  1.00  0.00    -0.046 C  
ENDBRANCH  19  20
BRANCH  19  24
HETATM   24  C   UNL     1      -8.641   6.052  65.344  1.00  0.00    -0.124 C  
HETATM   25  C   UNL     1      -8.575   4.574  65.714  1.00  0.00    -0.116 C  
HETATM   26  O   UNL     1      -8.284   3.685  64.929  1.00  0.00    -0.092 OA 
HETATM   27  O   UNL     1      -8.947   4.337  66.994  1.00  0.00    -0.113 OA 
ENDBRANCH  19  24
ENDBRANCH  18  19
ENDBRANCH  17  18
ENDBRANCH   5  17
ENDBRANCH   3   5
TORSDOF 11
ENDMDL
MODEL      326
REMARK 921   NORMALIZED FREE ENERGY PREDICTED BY IDOCK:   -3.40 KCAL/MOL
REMARK 922        TOTAL FREE ENERGY PREDICTED BY IDOCK:   -7.32 KCAL/MOL
REMARK 923 INTER-LIGAND FREE ENERGY PREDICTED BY IDOCK:   -6.84 KCAL/MOL
REMARK 924 INTRA-LIGAND FREE ENERGY PREDICTED BY IDOCK:   -0.48 KCAL/MOL
REMARK 927      BINDING AFFINITY PREDICTED BY RF-SCORE:    0.00 PKD
ROOT
HETATM    1  O   UNL     1     -10.966   9.463  67.081  1.00  0.00    -0.154 OA 
HETATM    2  C   UNL     1     -10.363   8.265  67.264  1.00  0.00    -0.302 C  
HETATM    3  C   UNL     1      -8.876   8.399  67.584  1.00  0.00    -0.136 C  
HETATM    4  O   UNL     1     -10.941   7.195  67.139  1.00  0.00    -0.342 OA 
ENDROOT
BRANCH   3   5
HETATM    5  N   UNL     1      -8.555   9.652  68.353  1.00  0.00    -0.119 NA 
BRANCH   5   6
HETATM    6  C   UNL     1      -8.609  10.826  67.418  1.00  0.00    -0.126 C  
BRANCH   6   7
HETATM    7  C   UNL     1      -9.089  12.153  68.079  1.00  0.00    -0.190 C  
BRANCH   7   8
HETATM    8  N   UNL     1     -10.301  12.804  67.469  1.00  0.00    -0.218 NA 
BRANCH   8   9
HETATM    9  C   UNL     1     -10.026  12.967  65.984  1.00  0.00    -0.276 C  
HETATM   10  O   UNL     1     -12.305  12.270  65.669  1.00  0.00    -0.619 OA 
HETATM   11  C   UNL     1     -11.071  12.274  65.112  1.00  0.00    -0.317 C  
HETATM   12  O   UNL     1     -10.835  11.794  64.015  1.00  0.00    -0.322 OA 
ENDBRANCH   8   9
BRANCH   8  13
HETATM   13  C   UNL     1     -10.421  14.194  68.048  1.00  0.00    -0.240 C  
HETATM   14  O   UNL     1     -12.085  13.254  69.495  1.00  0.00    -0.303 OA 
HETATM   15  O   UNL     1     -12.282  15.451  68.973  1.00  0.00    -0.257 OA 
HETATM   16  C   UNL     1     -11.699  14.385  68.859  1.00  0.00    -0.322 C  
ENDBRANCH   8  13
ENDBRANCH   7   8
ENDBRANCH   6   7
ENDBRANCH   5   6
BRANCH   5  17
HETATM   17  C   UNL     1      -9.596   9.845  69.412  1.00  0.00    -0.215 C  
BRANCH  17  18
HETATM   18  C   UNL     1      -9.361   9.125  70.771  1.00  0.00    -0.264 C  
BRANCH  18  19
HETATM   19  N   UNL     1     -10.543   8.346  71.297  1.00  0.00    -0.213 NA 
BRANCH  19  20
HETATM   20  C   UNL     1     -10.466   6.953  70.698  1.00  0.00    -0.210 C  
HETATM   21  O   UNL     1      -9.732   4.803  71.563  1.00  0.00    -0.156 OA 
HETATM   22  O   UNL     1     -10.880   6.186  72.939  1.00  0.00    -0.236 OA 
HETATM   23  C   UNL     1     -10.298   5.868  71.759  1.00  0.00    -0.216 C  
ENDBRANCH  19  20
BRANCH  19  24
HETATM   24  C   UNL     1     -11.802   8.985  70.755  1.00  0.00    -0.206 C  
HETATM   25  C   UNL     1     -12.958   8.960  71.750  1.00  0.00    -0.367 C  
HETATM   26  O   UNL     1     -14.135   8.932  71.429  1.00  0.00    -0.360 OA 
HETATM   27  O   UNL     1     -12.543   9.047  73.036  1.00  0.00    -0.157 OA 
ENDBRANCH  19  24
ENDBRANCH  18  19
ENDBRANCH  17  18
ENDBRANCH   5  17
ENDBRANCH   3   5
TORSDOF 11
ENDMDL
MODEL      327
REMARK 921   NORMALIZED FREE ENERGY PREDICTED BY IDOCK:   -3.39 KCAL/MOL
REMARK 922        TOTAL FREE ENERGY PREDICTED BY IDOCK:   -7.32 KCAL/MOL
REMARK 923 INTER-LIGAND FREE ENERGY PREDICTED BY IDOCK:   -8.39 KCAL/MOL
REMARK 924 INTRA-LIGAND FREE ENERGY PREDICTED BY IDOCK:    1.07 KCAL/MOL
REMARK 927      BINDING AFFINITY PREDICTED BY RF-SCORE:    0.00 PKD
ROOT
HETATM    1  O   UNL     1      -6.781  11.569  68.651  1.00  0.00    -0.062 OA 
HETATM    2  C   UNL     1      -7.509  10.890  67.735  1.00  0.00    -0.094 C  
HETATM    3  C   UNL     1      -8.986  11.279  67.752  1.00  0.00    -0.141 C  
HETATM    4  O   UNL     1      -7.039  10.027  67.008  1.00  0.00    -0.087 OA 
ENDROOT
BRANCH   3   5
HETATM    5  N   UNL     1      -9.206  12.718  68.133  1.00  0.00    -0.210 NA 
BRANCH   5   6
HETATM    6  C   UNL     1      -9.067  13.574  66.907  1.00  0.00    -0.239 C  
BRANCH   6   7
HETATM    7  C   UNL     1      -9.607  12.919  65.600  1.00  0.00    -0.021 C  
BRANCH   7   8
HETATM    8  N   UNL     1     -10.599  13.726  64.808  1.00  0.00    -0.410 NA 
BRANCH   8   9
HETATM    9  C   UNL     1     -10.636  15.117  65.414  1.00  0.00    -0.391 C  
HETATM   10  O   UNL     1     -12.365  15.576  63.807  1.00  0.00    -0.606 OA 
HETATM   11  C   UNL     1     -11.359  16.128  64.526  1.00  0.00    -0.267 C  
HETATM   12  O   UNL     1     -11.084  17.317  64.480  1.00  0.00    -1.082 OA 
ENDBRANCH   8   9
BRANCH   8  13
HETATM   13  C   UNL     1     -11.965  13.118  65.020  1.00  0.00    -0.383 C  
HETATM   14  O   UNL     1     -11.228  11.383  63.539  1.00  0.00    -0.391 OA 
HETATM   15  O   UNL     1     -13.449  11.831  63.592  1.00  0.00    -0.425 OA 
HETATM   16  C   UNL     1     -12.313  12.069  63.968  1.00  0.00    -0.401 C  
ENDBRANCH   8  13
ENDBRANCH   7   8
ENDBRANCH   6   7
ENDBRANCH   5   6
BRANCH   5  17
HETATM   17  C   UNL     1     -10.601  12.868  68.657  1.00  0.00    -0.234 C  
BRANCH  17  18
HETATM   18  C   UNL     1     -10.823  13.919  69.781  1.00  0.00     0.164 C  
BRANCH  18  19
HETATM   19  N   UNL     1     -12.038  14.800  69.606  1.00  0.00    -0.311 NA 
BRANCH  19  20
HETATM   20  C   UNL     1     -11.657  15.904  68.637  1.00  0.00    -0.380 C  
HETATM   21  O   UNL     1     -10.103  17.769  68.759  1.00  0.00    -0.358 OA 
HETATM   22  O   UNL     1      -9.491  15.791  69.675  1.00  0.00    -0.276 OA 
HETATM   23  C   UNL     1     -10.358  16.605  69.029  1.00  0.00    -0.317 C  
ENDBRANCH  19  20
BRANCH  19  24
HETATM   24  C   UNL     1     -12.326  15.465  70.934  1.00  0.00    -0.398 C  
HETATM   25  C   UNL     1     -13.658  15.033  71.538  1.00  0.00    -0.452 C  
HETATM   26  O   UNL     1     -14.333  15.734  72.275  1.00  0.00    -0.494 OA 
HETATM   27  O   UNL     1     -13.982  13.755  71.232  1.00  0.00    -0.126 OA 
ENDBRANCH  19  24
ENDBRANCH  18  19
ENDBRANCH  17  18
ENDBRANCH   5  17
ENDBRANCH   3   5
TORSDOF 11
ENDMDL
MODEL      328
REMARK 921   NORMALIZED FREE ENERGY PREDICTED BY IDOCK:   -3.39 KCAL/MOL
REMARK 922        TOTAL FREE ENERGY PREDICTED BY IDOCK:   -7.31 KCAL/MOL
REMARK 923 INTER-LIGAND FREE ENERGY PREDICTED BY IDOCK:   -5.84 KCAL/MOL
REMARK 924 INTRA-LIGAND FREE ENERGY PREDICTED BY IDOCK:   -1.47 KCAL/MOL
REMARK 927      BINDING AFFINITY PREDICTED BY RF-SCORE:    0.00 PKD
ROOT
HETATM    1  O   UNL     1      -6.965   8.721  68.082  1.00  0.00    -0.072 OA 
HETATM    2  C   UNL     1      -6.780   9.751  68.941  1.00  0.00    -0.050 C  
HETATM    3  C   UNL     1      -7.347  11.067  68.413  1.00  0.00    -0.096 C  
HETATM    4  O   UNL     1      -6.182   9.642  70.002  1.00  0.00    -0.046 OA 
ENDROOT
BRANCH   3   5
HETATM    5  N   UNL     1      -8.565  10.873  67.551  1.00  0.00    -0.126 NA 
BRANCH   5   6
HETATM    6  C   UNL     1      -9.775  10.766  68.432  1.00  0.00    -0.174 C  
BRANCH   6   7
HETATM    7  C   UNL     1     -10.584   9.444  68.257  1.00  0.00    -0.210 C  
BRANCH   7   8
HETATM    8  N   UNL     1     -11.047   8.771  69.520  1.00  0.00    -0.064 NA 
BRANCH   8   9
HETATM    9  C   UNL     1     -11.158   9.845  70.589  1.00  0.00    -0.340 C  
HETATM   10  O   UNL     1     -13.281   8.847  71.116  1.00  0.00    -0.229 OA 
HETATM   11  C   UNL     1     -12.583  10.006  71.116  1.00  0.00    -0.381 C  
HETATM   12  O   UNL     1     -13.045  11.061  71.521  1.00  0.00    -0.418 OA 
ENDBRANCH   8   9
BRANCH   8  13
HETATM   13  C   UNL     1      -9.961   7.820  69.964  1.00  0.00    -0.187 C  
HETATM   14  O   UNL     1     -11.181   6.146  68.758  1.00  0.00    -0.367 OA 
HETATM   15  O   UNL     1      -9.955   5.460  70.535  1.00  0.00    -0.191 OA 
HETATM   16  C   UNL     1     -10.364   6.357  69.817  1.00  0.00    -0.200 C  
ENDBRANCH   8  13
ENDBRANCH   7   8
ENDBRANCH   6   7
ENDBRANCH   5   6
BRANCH   5  17
HETATM   17  C   UNL     1      -8.727  12.075  66.672  1.00  0.00    -0.171 C  
BRANCH  17  18
HETATM   18  C   UNL     1      -9.743  13.157  67.137  1.00  0.00    -0.235 C  
BRANCH  18  19
HETATM   19  N   UNL     1      -9.215  14.572  67.147  1.00  0.00    -0.213 NA 
BRANCH  19  20
HETATM   20  C   UNL     1      -8.660  14.835  68.535  1.00  0.00    -0.168 C  
HETATM   21  O   UNL     1      -6.503  14.420  69.575  1.00  0.00    -0.116 OA 
HETATM   22  O   UNL     1      -6.548  15.106  67.418  1.00  0.00    -0.243 OA 
HETATM   23  C   UNL     1      -7.137  14.745  68.583  1.00  0.00    -0.112 C  
ENDBRANCH  19  20
BRANCH  19  24
HETATM   24  C   UNL     1     -10.389  15.509  66.962  1.00  0.00    -0.279 C  
HETATM   25  C   UNL     1      -9.965  16.931  66.613  1.00  0.00    -0.296 C  
HETATM   26  O   UNL     1     -10.612  17.926  66.897  1.00  0.00    -0.338 OA 
HETATM   27  O   UNL     1      -8.824  16.973  65.884  1.00  0.00    -0.518 OA 
ENDBRANCH  19  24
ENDBRANCH  18  19
ENDBRANCH  17  18
ENDBRANCH   5  17
ENDBRANCH   3   5
TORSDOF 11
ENDMDL
MODEL      329
REMARK 921   NORMALIZED FREE ENERGY PREDICTED BY IDOCK:   -3.37 KCAL/MOL
REMARK 922        TOTAL FREE ENERGY PREDICTED BY IDOCK:   -7.28 KCAL/MOL
REMARK 923 INTER-LIGAND FREE ENERGY PREDICTED BY IDOCK:   -7.47 KCAL/MOL
REMARK 924 INTRA-LIGAND FREE ENERGY PREDICTED BY IDOCK:    0.19 KCAL/MOL
REMARK 927      BINDING AFFINITY PREDICTED BY RF-SCORE:    0.00 PKD
ROOT
HETATM    1  O   UNL     1      -7.087  10.857  68.572  1.00  0.00    -0.068 OA 
HETATM    2  C   UNL     1      -7.010  10.414  67.296  1.00  0.00    -0.086 C  
HETATM    3  C   UNL     1      -8.254   9.641  66.865  1.00  0.00    -0.113 C  
HETATM    4  O   UNL     1      -6.029  10.579  66.586  1.00  0.00    -0.060 OA 
ENDROOT
BRANCH   3   5
HETATM    5  N   UNL     1      -9.509  10.138  67.531  1.00  0.00    -0.151 NA 
BRANCH   5   6
HETATM    6  C   UNL     1     -10.422  10.711  66.485  1.00  0.00    -0.224 C  
BRANCH   6   7
HETATM    7  C   UNL     1      -9.981  12.102  65.938  1.00  0.00    -0.245 C  
BRANCH   7   8
HETATM    8  N   UNL     1     -11.044  13.165  65.876  1.00  0.00    -0.277 NA 
BRANCH   8   9
HETATM    9  C   UNL     1     -12.283  12.528  65.271  1.00  0.00    -0.433 C  
HETATM   10  O   UNL     1     -10.904  12.098  63.349  1.00  0.00    -0.431 OA 
HETATM   11  C   UNL     1     -12.171  12.342  63.759  1.00  0.00    -0.546 C  
HETATM   12  O   UNL     1     -13.121  12.381  62.993  1.00  0.00    -0.442 OA 
ENDBRANCH   8   9
BRANCH   8  13
HETATM   13  C   UNL     1     -10.581  14.229  64.909  1.00  0.00    -0.431 C  
HETATM   14  O   UNL     1     -10.251  15.597  66.850  1.00  0.00    -0.268 OA 
HETATM   15  O   UNL     1     -10.744  16.652  64.906  1.00  0.00    -0.710 OA 
HETATM   16  C   UNL     1     -10.560  15.621  65.532  1.00  0.00    -0.404 C  
ENDBRANCH   8  13
ENDBRANCH   7   8
ENDBRANCH   6   7
ENDBRANCH   5   6
BRANCH   5  17
HETATM   17  C   UNL     1     -10.202   8.978  68.176  1.00  0.00    -0.204 C  
BRANCH  17  18
HETATM   18  C   UNL     1      -9.385   8.157  69.214  1.00  0.00    -0.151 C  
BRANCH  18  19
HETATM   19  N   UNL     1     -10.209   7.414  70.238  1.00  0.00    -0.198 NA 
BRANCH  19  20
HETATM   20  C   UNL     1     -10.617   6.092  69.613  1.00  0.00    -0.300 C  
HETATM   21  O   UNL     1      -9.840   3.806  69.888  1.00  0.00    -0.179 OA 
HETATM   22  O   UNL     1      -9.975   5.128  71.720  1.00  0.00    -0.173 OA 
HETATM   23  C   UNL     1     -10.093   4.889  70.393  1.00  0.00    -0.245 C  
ENDBRANCH  19  20
BRANCH  19  24
HETATM   24  C   UNL     1     -11.483   8.198  70.470  1.00  0.00    -0.178 C  
HETATM   25  C   UNL     1     -12.010   8.066  71.895  1.00  0.00    -0.314 C  
HETATM   26  O   UNL     1     -13.190   8.152  72.197  1.00  0.00    -0.299 OA 
HETATM   27  O   UNL     1     -11.021   7.916  72.808  1.00  0.00    -0.344 OA 
ENDBRANCH  19  24
ENDBRANCH  18  19
ENDBRANCH  17  18
ENDBRANCH   5  17
ENDBRANCH   3   5
TORSDOF 11
ENDMDL
MODEL      330
REMARK 921   NORMALIZED FREE ENERGY PREDICTED BY IDOCK:   -3.33 KCAL/MOL
REMARK 922        TOTAL FREE ENERGY PREDICTED BY IDOCK:   -7.21 KCAL/MOL
REMARK 923 INTER-LIGAND FREE ENERGY PREDICTED BY IDOCK:   -5.54 KCAL/MOL
REMARK 924 INTRA-LIGAND FREE ENERGY PREDICTED BY IDOCK:   -1.67 KCAL/MOL
REMARK 927      BINDING AFFINITY PREDICTED BY RF-SCORE:    0.00 PKD
ROOT
HETATM    1  O   UNL     1      -7.516  10.303  69.986  1.00  0.00    -0.163 OA 
HETATM    2  C   UNL     1      -8.046   9.320  70.750  1.00  0.00    -0.156 C  
HETATM    3  C   UNL     1      -9.545   9.141  70.523  1.00  0.00    -0.243 C  
HETATM    4  O   UNL     1      -7.397   8.679  71.564  1.00  0.00    -0.091 OA 
ENDROOT
BRANCH   3   5
HETATM    5  N   UNL     1      -9.963   9.456  69.112  1.00  0.00    -0.175 NA 
BRANCH   5   6
HETATM    6  C   UNL     1     -10.382   8.184  68.431  1.00  0.00    -0.199 C  
BRANCH   6   7
HETATM    7  C   UNL     1     -10.669   6.999  69.402  1.00  0.00    -0.238 C  
BRANCH   7   8
HETATM    8  N   UNL     1      -9.909   5.726  69.146  1.00  0.00    -0.152 NA 
BRANCH   8   9
HETATM    9  C   UNL     1      -8.934   5.544  70.297  1.00  0.00    -0.137 C  
HETATM   10  O   UNL     1      -9.278   3.186  69.977  1.00  0.00    -0.121 OA 
HETATM   11  C   UNL     1      -8.983   4.138  70.892  1.00  0.00    -0.095 C  
HETATM   12  O   UNL     1      -8.756   3.885  72.065  1.00  0.00    -0.097 OA 
ENDBRANCH   8   9
BRANCH   8  13
HETATM   13  C   UNL     1      -9.082   5.922  67.898  1.00  0.00    -0.109 C  
HETATM   14  O   UNL     1     -10.731   4.567  66.807  1.00  0.00     0.050 OA 
HETATM   15  O   UNL     1      -8.625   4.515  65.972  1.00  0.00    -0.113 OA 
HETATM   16  C   UNL     1      -9.424   4.918  66.802  1.00  0.00    -0.148 C  
ENDBRANCH   8  13
ENDBRANCH   7   8
ENDBRANCH   6   7
ENDBRANCH   5   6
BRANCH   5  17
HETATM   17  C   UNL     1     -11.143  10.377  69.155  1.00  0.00    -0.246 C  
BRANCH  17  18
HETATM   18  C   UNL     1     -10.908  11.846  68.701  1.00  0.00    -0.235 C  
BRANCH  18  19
HETATM   19  N   UNL     1     -10.913  12.065  67.206  1.00  0.00    -0.248 NA 
BRANCH  19  20
HETATM   20  C   UNL     1      -9.464  12.124  66.756  1.00  0.00    -0.212 C  
HETATM   21  O   UNL     1      -7.879  10.439  66.010  1.00  0.00    -0.130 OA 
HETATM   22  O   UNL     1     -10.037  10.259  65.349  1.00  0.00    -0.293 OA 
HETATM   23  C   UNL     1      -9.027  10.857  66.024  1.00  0.00    -0.186 C  
ENDBRANCH  19  20
BRANCH  19  24
HETATM   24  C   UNL     1     -11.509  13.428  66.936  1.00  0.00    -0.342 C  
HETATM   25  C   UNL     1     -12.139  13.538  65.551  1.00  0.00    -0.419 C  
HETATM   26  O   UNL     1     -12.221  14.579  64.919  1.00  0.00    -0.412 OA 
HETATM   27  O   UNL     1     -12.668  12.368  65.123  1.00  0.00    -0.630 OA 
ENDBRANCH  19  24
ENDBRANCH  18  19
ENDBRANCH  17  18
ENDBRANCH   5  17
ENDBRANCH   3   5
TORSDOF 11
ENDMDL
MODEL      331
REMARK 921   NORMALIZED FREE ENERGY PREDICTED BY IDOCK:   -3.33 KCAL/MOL
REMARK 922        TOTAL FREE ENERGY PREDICTED BY IDOCK:   -7.21 KCAL/MOL
REMARK 923 INTER-LIGAND FREE ENERGY PREDICTED BY IDOCK:   -5.90 KCAL/MOL
REMARK 924 INTRA-LIGAND FREE ENERGY PREDICTED BY IDOCK:   -1.31 KCAL/MOL
REMARK 927      BINDING AFFINITY PREDICTED BY RF-SCORE:    0.00 PKD
ROOT
HETATM    1  O   UNL     1     -13.128   9.713  70.757  1.00  0.00    -0.214 OA 
HETATM    2  C   UNL     1     -12.862  11.001  71.077  1.00  0.00    -0.346 C  
HETATM    3  C   UNL     1     -11.771  11.612  70.201  1.00  0.00    -0.296 C  
HETATM    4  O   UNL     1     -13.408  11.590  71.999  1.00  0.00    -0.476 OA 
ENDROOT
BRANCH   3   5
HETATM    5  N   UNL     1     -11.763  11.052  68.804  1.00  0.00    -0.361 NA 
BRANCH   5   6
HETATM    6  C   UNL     1     -11.906  12.181  67.825  1.00  0.00    -0.257 C  
BRANCH   6   7
HETATM    7  C   UNL     1     -12.115  13.579  68.481  1.00  0.00    -0.268 C  
BRANCH   7   8
HETATM    8  N   UNL     1     -11.077  14.624  68.174  1.00  0.00    -0.264 NA 
BRANCH   8   9
HETATM    9  C   UNL     1      -9.737  14.077  68.634  1.00  0.00    -0.179 C  
HETATM   10  O   UNL     1      -9.016  14.435  66.368  1.00  0.00    -0.205 OA 
HETATM   11  C   UNL     1      -8.837  13.669  67.469  1.00  0.00    -0.205 C  
HETATM   12  O   UNL     1      -8.018  12.764  67.523  1.00  0.00    -0.154 OA 
ENDBRANCH   8   9
BRANCH   8  13
HETATM   13  C   UNL     1     -11.372  15.835  69.027  1.00  0.00    -0.354 C  
HETATM   14  O   UNL     1     -10.340  17.101  67.272  1.00  0.00    -0.310 OA 
HETATM   15  O   UNL     1     -10.216  17.943  69.372  1.00  0.00    -0.241 OA 
HETATM   16  C   UNL     1     -10.568  17.062  68.606  1.00  0.00    -0.362 C  
ENDBRANCH   8  13
ENDBRANCH   7   8
ENDBRANCH   6   7
ENDBRANCH   5   6
BRANCH   5  17
HETATM   17  C   UNL     1     -10.444  10.384  68.563  1.00  0.00    -0.186 C  
BRANCH  17  18
HETATM   18  C   UNL     1     -10.478   8.966  67.925  1.00  0.00    -0.223 C  
BRANCH  18  19
HETATM   19  N   UNL     1      -9.155   8.239  67.904  1.00  0.00    -0.133 NA 
BRANCH  19  20
HETATM   20  C   UNL     1      -8.833   7.932  66.453  1.00  0.00    -0.158 C  
HETATM   21  O   UNL     1      -7.605   9.124  64.727  1.00  0.00    -0.103 OA 
HETATM   22  O   UNL     1      -6.814   9.177  66.848  1.00  0.00    -0.078 OA 
HETATM   23  C   UNL     1      -7.711   8.810  65.903  1.00  0.00    -0.094 C  
ENDBRANCH  19  20
BRANCH  19  24
HETATM   24  C   UNL     1      -9.342   6.909  68.601  1.00  0.00    -0.135 C  
HETATM   25  C   UNL     1      -8.273   6.634  69.653  1.00  0.00    -0.127 C  
HETATM   26  O   UNL     1      -7.901   5.516  69.973  1.00  0.00    -0.079 OA 
HETATM   27  O   UNL     1      -7.829   7.762  70.255  1.00  0.00    -0.088 OA 
ENDBRANCH  19  24
ENDBRANCH  18  19
ENDBRANCH  17  18
ENDBRANCH   5  17
ENDBRANCH   3   5
TORSDOF 11
ENDMDL
MODEL      332
REMARK 921   NORMALIZED FREE ENERGY PREDICTED BY IDOCK:   -3.32 KCAL/MOL
REMARK 922        TOTAL FREE ENERGY PREDICTED BY IDOCK:   -7.20 KCAL/MOL
REMARK 923 INTER-LIGAND FREE ENERGY PREDICTED BY IDOCK:   -5.97 KCAL/MOL
REMARK 924 INTRA-LIGAND FREE ENERGY PREDICTED BY IDOCK:   -1.23 KCAL/MOL
REMARK 927      BINDING AFFINITY PREDICTED BY RF-SCORE:    0.00 PKD
ROOT
HETATM    1  O   UNL     1      -6.809  14.977  67.021  1.00  0.00    -0.213 OA 
HETATM    2  C   UNL     1      -6.180  14.580  68.152  1.00  0.00    -0.142 C  
HETATM    3  C   UNL     1      -6.916  13.451  68.870  1.00  0.00    -0.102 C  
HETATM    4  O   UNL     1      -5.157  15.103  68.570  1.00  0.00    -0.090 OA 
ENDROOT
BRANCH   3   5
HETATM    5  N   UNL     1      -7.647  12.537  67.924  1.00  0.00    -0.119 NA 
BRANCH   5   6
HETATM    6  C   UNL     1      -7.411  11.114  68.340  1.00  0.00    -0.102 C  
BRANCH   6   7
HETATM    7  C   UNL     1      -6.674  10.246  67.276  1.00  0.00    -0.073 C  
BRANCH   7   8
HETATM    8  N   UNL     1      -7.125   8.816  67.150  1.00  0.00    -0.075 NA 
BRANCH   8   9
HETATM    9  C   UNL     1      -6.974   8.423  65.691  1.00  0.00    -0.067 C  
HETATM   10  O   UNL     1      -5.865   6.458  66.523  1.00  0.00    -0.019 OA 
HETATM   11  C   UNL     1      -5.936   7.321  65.483  1.00  0.00    -0.037 C  
HETATM   12  O   UNL     1      -5.255   7.207  64.476  1.00  0.00    -0.027 OA 
ENDBRANCH   8   9
BRANCH   8  13
HETATM   13  C   UNL     1      -8.601   8.766  67.468  1.00  0.00    -0.127 C  
HETATM   14  O   UNL     1      -7.953   7.570  69.443  1.00  0.00    -0.118 OA 
HETATM   15  O   UNL     1     -10.002   7.126  68.584  1.00  0.00    -0.152 OA 
HETATM   16  C   UNL     1      -8.939   7.722  68.528  1.00  0.00    -0.133 C  
ENDBRANCH   8  13
ENDBRANCH   7   8
ENDBRANCH   6   7
ENDBRANCH   5   6
BRANCH   5  17
HETATM   17  C   UNL     1      -9.115  12.820  68.022  1.00  0.00    -0.207 C  
BRANCH  17  18
HETATM   18  C   UNL     1      -9.886  13.016  66.686  1.00  0.00    -0.252 C  
BRANCH  18  19
HETATM   19  N   UNL     1     -10.515  14.377  66.501  1.00  0.00    -0.285 NA 
BRANCH  19  20
HETATM   20  C   UNL     1     -11.821  14.377  67.275  1.00  0.00    -0.405 C  
HETATM   21  O   UNL     1     -12.410  14.982  69.554  1.00  0.00    -0.252 OA 
HETATM   22  O   UNL     1     -10.883  16.247  68.461  1.00  0.00    -0.294 OA 
HETATM   23  C   UNL     1     -11.743  15.205  68.555  1.00  0.00    -0.325 C  
ENDBRANCH  19  20
BRANCH  19  24
HETATM   24  C   UNL     1     -10.873  14.530  65.039  1.00  0.00    -0.412 C  
HETATM   25  C   UNL     1     -11.058  15.985  64.622  1.00  0.00    -0.332 C  
HETATM   26  O   UNL     1     -11.795  16.349  63.720  1.00  0.00    -1.002 OA 
HETATM   27  O   UNL     1     -10.259  16.833  65.312  1.00  0.00    -0.607 OA 
ENDBRANCH  19  24
ENDBRANCH  18  19
ENDBRANCH  17  18
ENDBRANCH   5  17
ENDBRANCH   3   5
TORSDOF 11
ENDMDL
MODEL      333
REMARK 921   NORMALIZED FREE ENERGY PREDICTED BY IDOCK:   -3.32 KCAL/MOL
REMARK 922        TOTAL FREE ENERGY PREDICTED BY IDOCK:   -7.20 KCAL/MOL
REMARK 923 INTER-LIGAND FREE ENERGY PREDICTED BY IDOCK:   -6.88 KCAL/MOL
REMARK 924 INTRA-LIGAND FREE ENERGY PREDICTED BY IDOCK:   -0.32 KCAL/MOL
REMARK 927      BINDING AFFINITY PREDICTED BY RF-SCORE:    0.00 PKD
ROOT
HETATM    1  O   UNL     1     -13.773   7.322  71.231  1.00  0.00    -0.361 OA 
HETATM    2  C   UNL     1     -13.497   8.231  72.195  1.00  0.00    -0.269 C  
HETATM    3  C   UNL     1     -12.044   8.172  72.660  1.00  0.00    -0.252 C  
HETATM    4  O   UNL     1     -14.336   8.983  72.669  1.00  0.00    -0.603 OA 
ENDROOT
BRANCH   3   5
HETATM    5  N   UNL     1     -11.097   7.763  71.565  1.00  0.00    -0.234 NA 
BRANCH   5   6
HETATM    6  C   UNL     1     -11.438   6.370  71.119  1.00  0.00    -0.323 C  
BRANCH   6   7
HETATM    7  C   UNL     1     -10.916   6.005  69.696  1.00  0.00    -0.400 C  
BRANCH   7   8
HETATM    8  N   UNL     1      -9.535   5.414  69.621  1.00  0.00    -0.137 NA 
BRANCH   8   9
HETATM    9  C   UNL     1      -8.760   6.208  68.585  1.00  0.00    -0.112 C  
HETATM   10  O   UNL     1      -7.591   7.165  70.456  1.00  0.00    -0.086 OA 
HETATM   11  C   UNL     1      -8.013   7.395  69.191  1.00  0.00    -0.118 C  
HETATM   12  O   UNL     1      -7.793   8.439  68.596  1.00  0.00    -0.111 OA 
ENDBRANCH   8   9
BRANCH   8  13
HETATM   13  C   UNL     1      -9.662   4.005  69.090  1.00  0.00    -0.107 C  
HETATM   14  O   UNL     1      -8.339   3.362  70.983  1.00  0.00    -0.064 OA 
HETATM   15  O   UNL     1      -8.181   2.081  69.121  1.00  0.00    -0.048 OA 
HETATM   16  C   UNL     1      -8.639   3.052  69.700  1.00  0.00    -0.066 C  
ENDBRANCH   8  13
ENDBRANCH   7   8
ENDBRANCH   6   7
ENDBRANCH   5   6
BRANCH   5  17
HETATM   17  C   UNL     1     -11.280   8.688  70.401  1.00  0.00    -0.218 C  
BRANCH  17  18
HETATM   18  C   UNL     1     -10.535  10.052  70.460  1.00  0.00    -0.198 C  
BRANCH  18  19
HETATM   19  N   UNL     1     -11.323  11.237  69.956  1.00  0.00    -0.248 NA 
BRANCH  19  20
HETATM   20  C   UNL     1     -12.642  11.254  70.709  1.00  0.00    -0.332 C  
HETATM   21  O   UNL     1     -13.558  12.697  72.437  1.00  0.00    -0.550 OA 
HETATM   22  O   UNL     1     -12.341  13.639  70.776  1.00  0.00    -0.344 OA 
HETATM   23  C   UNL     1     -12.894  12.583  71.417  1.00  0.00    -0.260 C  
ENDBRANCH  19  20
BRANCH  19  24
HETATM   24  C   UNL     1     -11.656  10.992  68.501  1.00  0.00    -0.310 C  
HETATM   25  C   UNL     1     -11.534  12.247  67.643  1.00  0.00    -0.336 C  
HETATM   26  O   UNL     1     -12.186  12.449  66.631  1.00  0.00    -0.562 OA 
HETATM   27  O   UNL     1     -10.567  13.088  68.080  1.00  0.00    -0.231 OA 
ENDBRANCH  19  24
ENDBRANCH  18  19
ENDBRANCH  17  18
ENDBRANCH   5  17
ENDBRANCH   3   5
TORSDOF 11
ENDMDL
MODEL      334
REMARK 921   NORMALIZED FREE ENERGY PREDICTED BY IDOCK:   -3.31 KCAL/MOL
REMARK 922        TOTAL FREE ENERGY PREDICTED BY IDOCK:   -7.18 KCAL/MOL
REMARK 923 INTER-LIGAND FREE ENERGY PREDICTED BY IDOCK:   -5.54 KCAL/MOL
REMARK 924 INTRA-LIGAND FREE ENERGY PREDICTED BY IDOCK:   -1.64 KCAL/MOL
REMARK 927      BINDING AFFINITY PREDICTED BY RF-SCORE:    0.00 PKD
ROOT
HETATM    1  O   UNL     1     -10.070   5.720  70.656  1.00  0.00    -0.184 OA 
HETATM    2  C   UNL     1     -11.118   6.566  70.523  1.00  0.00    -0.319 C  
HETATM    3  C   UNL     1     -10.865   7.658  69.486  1.00  0.00    -0.165 C  
HETATM    4  O   UNL     1     -12.135   6.486  71.196  1.00  0.00    -0.350 OA 
ENDROOT
BRANCH   3   5
HETATM    5  N   UNL     1      -9.980   7.198  68.359  1.00  0.00    -0.153 NA 
BRANCH   5   6
HETATM    6  C   UNL     1     -10.803   6.410  67.382  1.00  0.00    -0.375 C  
BRANCH   6   7
HETATM    7  C   UNL     1     -10.244   4.989  67.069  1.00  0.00    -0.208 C  
BRANCH   7   8
HETATM    8  N   UNL     1      -9.363   4.870  65.855  1.00  0.00    -0.153 NA 
BRANCH   8   9
HETATM    9  C   UNL     1      -9.405   3.419  65.407  1.00  0.00    -0.153 C  
HETATM   10  O   UNL     1      -9.560   4.300  63.175  1.00  0.00    -0.146 OA 
HETATM   11  C   UNL     1      -9.902   3.260  63.972  1.00  0.00    -0.165 C  
HETATM   12  O   UNL     1     -10.521   2.288  63.567  1.00  0.00    -0.160 OA 
ENDBRANCH   8   9
BRANCH   8  13
HETATM   13  C   UNL     1      -7.943   5.156  66.282  1.00  0.00    -0.104 C  
HETATM   14  O   UNL     1      -7.971   6.867  64.604  1.00  0.00    -0.119 OA 
HETATM   15  O   UNL     1      -5.971   5.917  65.086  1.00  0.00    -0.024 OA 
HETATM   16  C   UNL     1      -7.177   5.989  65.259  1.00  0.00    -0.070 C  
ENDBRANCH   8  13
ENDBRANCH   7   8
ENDBRANCH   6   7
ENDBRANCH   5   6
BRANCH   5  17
HETATM   17  C   UNL     1      -9.438   8.403  67.653  1.00  0.00    -0.149 C  
BRANCH  17  18
HETATM   18  C   UNL     1     -10.270   8.957  66.462  1.00  0.00    -0.249 C  
BRANCH  18  19
HETATM   19  N   UNL     1     -10.117  10.437  66.204  1.00  0.00    -0.232 NA 
BRANCH  19  20
HETATM   20  C   UNL     1      -8.656  10.687  65.874  1.00  0.00    -0.172 C  
HETATM   21  O   UNL     1      -7.242  10.075  63.995  1.00  0.00    -0.128 OA 
HETATM   22  O   UNL     1      -9.383  10.683  63.582  1.00  0.00    -0.232 OA 
HETATM   23  C   UNL     1      -8.336  10.432  64.404  1.00  0.00    -0.142 C  
ENDBRANCH  19  20
BRANCH  19  24
HETATM   24  C   UNL     1     -10.403  11.168  67.498  1.00  0.00    -0.196 C  
HETATM   25  C   UNL     1     -11.298  12.387  67.306  1.00  0.00    -0.323 C  
HETATM   26  O   UNL     1     -11.269  13.376  68.022  1.00  0.00    -0.246 OA 
HETATM   27  O   UNL     1     -12.188  12.230  66.298  1.00  0.00    -0.628 OA 
ENDBRANCH  19  24
ENDBRANCH  18  19
ENDBRANCH  17  18
ENDBRANCH   5  17
ENDBRANCH   3   5
TORSDOF 11
ENDMDL
MODEL      335
REMARK 921   NORMALIZED FREE ENERGY PREDICTED BY IDOCK:   -3.30 KCAL/MOL
REMARK 922        TOTAL FREE ENERGY PREDICTED BY IDOCK:   -7.17 KCAL/MOL
REMARK 923 INTER-LIGAND FREE ENERGY PREDICTED BY IDOCK:   -6.84 KCAL/MOL
REMARK 924 INTRA-LIGAND FREE ENERGY PREDICTED BY IDOCK:   -0.32 KCAL/MOL
REMARK 927      BINDING AFFINITY PREDICTED BY RF-SCORE:    0.00 PKD
ROOT
HETATM    1  O   UNL     1     -10.907   9.141  67.319  1.00  0.00    -0.233 OA 
HETATM    2  C   UNL     1     -10.318   8.011  66.861  1.00  0.00    -0.338 C  
HETATM    3  C   UNL     1      -8.889   8.247  66.378  1.00  0.00    -0.152 C  
HETATM    4  O   UNL     1     -10.890   6.932  66.801  1.00  0.00    -0.321 OA 
ENDROOT
BRANCH   3   5
HETATM    5  N   UNL     1      -8.187   9.336  67.144  1.00  0.00    -0.116 NA 
BRANCH   5   6
HETATM    6  C   UNL     1      -8.514  10.662  66.520  1.00  0.00    -0.144 C  
BRANCH   6   7
HETATM    7  C   UNL     1      -8.913  11.771  67.539  1.00  0.00    -0.168 C  
BRANCH   7   8
HETATM    8  N   UNL     1     -10.255  12.419  67.332  1.00  0.00    -0.207 NA 
BRANCH   8   9
HETATM    9  C   UNL     1     -10.192  13.178  66.018  1.00  0.00    -0.286 C  
HETATM   10  O   UNL     1     -12.419  12.353  65.642  1.00  0.00    -0.640 OA 
HETATM   11  C   UNL     1     -11.274  12.741  65.033  1.00  0.00    -0.298 C  
HETATM   12  O   UNL     1     -11.139  12.759  63.819  1.00  0.00    -0.410 OA 
ENDBRANCH   8   9
BRANCH   8  13
HETATM   13  C   UNL     1     -10.448  13.445  68.423  1.00  0.00    -0.250 C  
HETATM   14  O   UNL     1     -11.967  11.865  69.395  1.00  0.00    -0.306 OA 
HETATM   15  O   UNL     1     -12.348  14.061  69.804  1.00  0.00    -0.336 OA 
HETATM   16  C   UNL     1     -11.695  13.185  69.262  1.00  0.00    -0.321 C  
ENDBRANCH   8  13
ENDBRANCH   7   8
ENDBRANCH   6   7
ENDBRANCH   5   6
BRANCH   5  17
HETATM   17  C   UNL     1      -8.697   9.339  68.552  1.00  0.00    -0.128 C  
BRANCH  17  18
HETATM   18  C   UNL     1      -7.973   8.409  69.567  1.00  0.00    -0.111 C  
BRANCH  18  19
HETATM   19  N   UNL     1      -8.870   7.443  70.305  1.00  0.00    -0.146 NA 
BRANCH  19  20
HETATM   20  C   UNL     1      -8.266   7.233  71.682  1.00  0.00    -0.104 C  
HETATM   21  O   UNL     1      -8.200   8.586  73.699  1.00  0.00    -0.383 OA 
HETATM   22  O   UNL     1     -10.100   8.575  72.468  1.00  0.00    -0.298 OA 
HETATM   23  C   UNL     1      -8.822   8.205  72.720  1.00  0.00    -0.231 C  
ENDBRANCH  19  20
BRANCH  19  24
HETATM   24  C   UNL     1      -8.806   6.110  69.593  1.00  0.00    -0.134 C  
HETATM   25  C   UNL     1     -10.002   5.215  69.899  1.00  0.00    -0.246 C  
HETATM   26  O   UNL     1      -9.964   3.995  69.884  1.00  0.00    -0.186 OA 
HETATM   27  O   UNL     1     -11.139   5.917  70.118  1.00  0.00    -0.348 OA 
ENDBRANCH  19  24
ENDBRANCH  18  19
ENDBRANCH  17  18
ENDBRANCH   5  17
ENDBRANCH   3   5
TORSDOF 11
ENDMDL
MODEL      336
REMARK 921   NORMALIZED FREE ENERGY PREDICTED BY IDOCK:   -3.29 KCAL/MOL
REMARK 922        TOTAL FREE ENERGY PREDICTED BY IDOCK:   -7.15 KCAL/MOL
REMARK 923 INTER-LIGAND FREE ENERGY PREDICTED BY IDOCK:   -7.37 KCAL/MOL
REMARK 924 INTRA-LIGAND FREE ENERGY PREDICTED BY IDOCK:    0.22 KCAL/MOL
REMARK 927      BINDING AFFINITY PREDICTED BY RF-SCORE:    0.00 PKD
ROOT
HETATM    1  O   UNL     1      -7.362   9.887  67.583  1.00  0.00    -0.088 OA 
HETATM    2  C   UNL     1      -7.835  10.408  66.427  1.00  0.00    -0.128 C  
HETATM    3  C   UNL     1      -9.351  10.589  66.441  1.00  0.00    -0.168 C  
HETATM    4  O   UNL     1      -7.125  10.661  65.464  1.00  0.00    -0.128 OA 
ENDROOT
BRANCH   3   5
HETATM    5  N   UNL     1      -9.889  10.901  67.811  1.00  0.00    -0.173 NA 
BRANCH   5   6
HETATM    6  C   UNL     1     -10.735  12.139  67.732  1.00  0.00    -0.209 C  
BRANCH   6   7
HETATM    7  C   UNL     1      -9.951  13.431  67.348  1.00  0.00    -0.230 C  
BRANCH   7   8
HETATM    8  N   UNL     1     -10.284  14.673  68.129  1.00  0.00    -0.227 NA 
BRANCH   8   9
HETATM    9  C   UNL     1     -11.724  14.541  68.593  1.00  0.00    -0.329 C  
HETATM   10  O   UNL     1     -11.020  15.765  70.539  1.00  0.00    -0.317 OA 
HETATM   11  C   UNL     1     -11.892  14.836  70.083  1.00  0.00    -0.307 C  
HETATM   12  O   UNL     1     -12.739  14.314  70.791  1.00  0.00    -0.326 OA 
ENDBRANCH   8   9
BRANCH   8  13
HETATM   13  C   UNL     1     -10.235  15.846  67.178  1.00  0.00    -0.278 C  
HETATM   14  O   UNL     1     -11.976  14.717  65.977  1.00  0.00    -0.337 OA 
HETATM   15  O   UNL     1     -10.592  16.058  64.786  1.00  0.00    -0.600 OA 
HETATM   16  C   UNL     1     -10.919  15.553  65.847  1.00  0.00    -0.264 C  
ENDBRANCH   8  13
ENDBRANCH   7   8
ENDBRANCH   6   7
ENDBRANCH   5   6
BRANCH   5  17
HETATM   17  C   UNL     1     -10.757   9.765  68.256  1.00  0.00    -0.233 C  
BRANCH  17  18
HETATM   18  C   UNL     1     -10.154   8.783  69.300  1.00  0.00    -0.204 C  
BRANCH  18  19
HETATM   19  N   UNL     1     -11.059   8.443  70.460  1.00  0.00    -0.254 NA 
BRANCH  19  20
HETATM   20  C   UNL     1     -11.280   9.722  71.248  1.00  0.00    -0.347 C  
HETATM   21  O   UNL     1     -13.217  11.144  71.611  1.00  0.00    -0.418 OA 
HETATM   22  O   UNL     1     -13.518   8.901  71.564  1.00  0.00    -0.353 OA 
HETATM   23  C   UNL     1     -12.759  10.019  71.478  1.00  0.00    -0.429 C  
ENDBRANCH  19  20
BRANCH  19  24
HETATM   24  C   UNL     1     -10.312   7.494  71.371  1.00  0.00    -0.194 C  
HETATM   25  C   UNL     1     -10.799   6.053  71.256  1.00  0.00    -0.272 C  
HETATM   26  O   UNL     1     -10.747   5.239  72.164  1.00  0.00    -0.219 OA 
HETATM   27  O   UNL     1     -11.231   5.745  70.010  1.00  0.00    -0.335 OA 
ENDBRANCH  19  24
ENDBRANCH  18  19
ENDBRANCH  17  18
ENDBRANCH   5  17
ENDBRANCH   3   5
TORSDOF 11
ENDMDL
MODEL      337
REMARK 921   NORMALIZED FREE ENERGY PREDICTED BY IDOCK:   -3.28 KCAL/MOL
REMARK 922        TOTAL FREE ENERGY PREDICTED BY IDOCK:   -7.14 KCAL/MOL
REMARK 923 INTER-LIGAND FREE ENERGY PREDICTED BY IDOCK:   -5.69 KCAL/MOL
REMARK 924 INTRA-LIGAND FREE ENERGY PREDICTED BY IDOCK:   -1.44 KCAL/MOL
REMARK 927      BINDING AFFINITY PREDICTED BY RF-SCORE:    0.00 PKD
ROOT
HETATM    1  O   UNL     1      -9.601   2.833  68.982  1.00  0.00    -0.134 OA 
HETATM    2  C   UNL     1      -8.563   3.653  68.697  1.00  0.00    -0.091 C  
HETATM    3  C   UNL     1      -8.980   4.862  67.863  1.00  0.00    -0.109 C  
HETATM    4  O   UNL     1      -7.411   3.420  69.035  1.00  0.00    -0.049 OA 
ENDROOT
BRANCH   3   5
HETATM    5  N   UNL     1     -10.382   5.319  68.158  1.00  0.00    -0.148 NA 
BRANCH   5   6
HETATM    6  C   UNL     1     -10.454   5.787  69.583  1.00  0.00    -0.293 C  
BRANCH   6   7
HETATM    7  C   UNL     1     -11.148   7.170  69.771  1.00  0.00    -0.210 C  
BRANCH   7   8
HETATM    8  N   UNL     1     -11.425   7.592  71.189  1.00  0.00    -0.267 NA 
BRANCH   8   9
HETATM    9  C   UNL     1     -10.978   6.456  72.093  1.00  0.00    -0.251 C  
HETATM   10  O   UNL     1      -9.837   8.153  73.358  1.00  0.00    -0.237 OA 
HETATM   11  C   UNL     1      -9.811   6.849  72.997  1.00  0.00    -0.179 C  
HETATM   12  O   UNL     1      -8.953   6.069  73.382  1.00  0.00    -0.130 OA 
ENDBRANCH   8   9
BRANCH   8  13
HETATM   13  C   UNL     1     -12.922   7.718  71.350  1.00  0.00    -0.288 C  
HETATM   14  O   UNL     1     -12.494  10.023  71.853  1.00  0.00    -0.385 OA 
HETATM   15  O   UNL     1     -14.326   9.076  72.793  1.00  0.00    -0.596 OA 
HETATM   16  C   UNL     1     -13.328   8.985  72.097  1.00  0.00    -0.455 C  
ENDBRANCH   8  13
ENDBRANCH   7   8
ENDBRANCH   6   7
ENDBRANCH   5   6
BRANCH   5  17
HETATM   17  C   UNL     1     -10.708   6.476  67.265  1.00  0.00    -0.356 C  
BRANCH  17  18
HETATM   18  C   UNL     1      -9.532   7.098  66.459  1.00  0.00    -0.156 C  
BRANCH  18  19
HETATM   19  N   UNL     1      -9.033   8.427  66.973  1.00  0.00    -0.138 NA 
BRANCH  19  20
HETATM   20  C   UNL     1      -9.059   9.399  65.806  1.00  0.00    -0.200 C  
HETATM   21  O   UNL     1     -10.558  11.203  65.170  1.00  0.00    -0.284 OA 
HETATM   22  O   UNL     1     -10.071  10.926  67.364  1.00  0.00    -0.182 OA 
HETATM   23  C   UNL     1      -9.983  10.588  66.055  1.00  0.00    -0.237 C  
ENDBRANCH  19  20
BRANCH  19  24
HETATM   24  C   UNL     1      -7.582   8.260  67.369  1.00  0.00    -0.098 C  
HETATM   25  C   UNL     1      -7.202   9.082  68.595  1.00  0.00    -0.072 C  
HETATM   26  O   UNL     1      -6.080   9.513  68.807  1.00  0.00    -0.043 OA 
HETATM   27  O   UNL     1      -8.227   9.224  69.469  1.00  0.00    -0.106 OA 
ENDBRANCH  19  24
ENDBRANCH  18  19
ENDBRANCH  17  18
ENDBRANCH   5  17
ENDBRANCH   3   5
TORSDOF 11
ENDMDL
MODEL      338
REMARK 921   NORMALIZED FREE ENERGY PREDICTED BY IDOCK:   -3.28 KCAL/MOL
REMARK 922        TOTAL FREE ENERGY PREDICTED BY IDOCK:   -7.13 KCAL/MOL
REMARK 923 INTER-LIGAND FREE ENERGY PREDICTED BY IDOCK:   -5.84 KCAL/MOL
REMARK 924 INTRA-LIGAND FREE ENERGY PREDICTED BY IDOCK:   -1.29 KCAL/MOL
REMARK 927      BINDING AFFINITY PREDICTED BY RF-SCORE:    0.00 PKD
ROOT
HETATM    1  O   UNL     1     -12.887   8.557  71.415  1.00  0.00    -0.310 OA 
HETATM    2  C   UNL     1     -12.510   9.857  71.415  1.00  0.00    -0.398 C  
HETATM    3  C   UNL     1     -11.175  10.082  70.710  1.00  0.00    -0.352 C  
HETATM    4  O   UNL     1     -13.151  10.742  71.963  1.00  0.00    -0.483 OA 
ENDROOT
BRANCH   3   5
HETATM    5  N   UNL     1     -10.943   9.118  69.577  1.00  0.00    -0.177 NA 
BRANCH   5   6
HETATM    6  C   UNL     1     -10.971   9.873  68.280  1.00  0.00    -0.196 C  
BRANCH   6   7
HETATM    7  C   UNL     1     -10.152  11.199  68.289  1.00  0.00    -0.185 C  
BRANCH   7   8
HETATM    8  N   UNL     1     -10.753  12.362  67.548  1.00  0.00    -0.224 NA 
BRANCH   8   9
HETATM    9  C   UNL     1     -10.289  12.267  66.105  1.00  0.00    -0.242 C  
HETATM   10  O   UNL     1     -12.571  12.756  65.527  1.00  0.00    -0.611 OA 
HETATM   11  C   UNL     1     -11.448  12.117  65.122  1.00  0.00    -0.323 C  
HETATM   12  O   UNL     1     -11.373  11.508  64.066  1.00  0.00    -0.368 OA 
ENDBRANCH   8   9
BRANCH   8  13
HETATM   13  C   UNL     1     -10.162  13.630  68.116  1.00  0.00    -0.247 C  
HETATM   14  O   UNL     1     -12.402  14.166  68.781  1.00  0.00    -0.272 OA 
HETATM   15  O   UNL     1     -11.004  15.896  68.346  1.00  0.00    -0.297 OA 
HETATM   16  C   UNL     1     -11.215  14.696  68.400  1.00  0.00    -0.274 C  
ENDBRANCH   8  13
ENDBRANCH   7   8
ENDBRANCH   6   7
ENDBRANCH   5   6
BRANCH   5  17
HETATM   17  C   UNL     1      -9.585   8.507  69.738  1.00  0.00    -0.170 C  
BRANCH  17  18
HETATM   18  C   UNL     1      -9.253   7.282  68.840  1.00  0.00    -0.141 C  
BRANCH  18  19
HETATM   19  N   UNL     1      -7.804   6.856  68.846  1.00  0.00    -0.110 NA 
BRANCH  19  20
HETATM   20  C   UNL     1      -7.561   6.072  67.568  1.00  0.00    -0.090 C  
HETATM   21  O   UNL     1      -7.518   6.686  65.217  1.00  0.00    -0.073 OA 
HETATM   22  O   UNL     1      -6.634   8.125  66.725  1.00  0.00    -0.055 OA 
HETATM   23  C   UNL     1      -7.259   6.976  66.375  1.00  0.00    -0.075 C  
ENDBRANCH  19  20
BRANCH  19  24
HETATM   24  C   UNL     1      -7.605   5.891  69.994  1.00  0.00    -0.087 C  
HETATM   25  C   UNL     1      -6.323   6.154  70.776  1.00  0.00    -0.040 C  
HETATM   26  O   UNL     1      -5.696   5.292  71.371  1.00  0.00    -0.012 OA 
HETATM   27  O   UNL     1      -5.987   7.466  70.806  1.00  0.00    -0.034 OA 
ENDBRANCH  19  24
ENDBRANCH  18  19
ENDBRANCH  17  18
ENDBRANCH   5  17
ENDBRANCH   3   5
TORSDOF 11
ENDMDL
MODEL      339
REMARK 921   NORMALIZED FREE ENERGY PREDICTED BY IDOCK:   -3.28 KCAL/MOL
REMARK 922        TOTAL FREE ENERGY PREDICTED BY IDOCK:   -7.13 KCAL/MOL
REMARK 923 INTER-LIGAND FREE ENERGY PREDICTED BY IDOCK:   -7.07 KCAL/MOL
REMARK 924 INTRA-LIGAND FREE ENERGY PREDICTED BY IDOCK:   -0.06 KCAL/MOL
REMARK 927      BINDING AFFINITY PREDICTED BY RF-SCORE:    0.00 PKD
ROOT
HETATM    1  O   UNL     1      -8.507  10.175  69.987  1.00  0.00    -0.160 OA 
HETATM    2  C   UNL     1      -9.567   9.492  70.479  1.00  0.00    -0.251 C  
HETATM    3  C   UNL     1     -10.727   9.414  69.489  1.00  0.00    -0.222 C  
HETATM    4  O   UNL     1      -9.602   9.029  71.610  1.00  0.00    -0.288 OA 
ENDROOT
BRANCH   3   5
HETATM    5  N   UNL     1     -10.270   9.381  68.056  1.00  0.00    -0.192 NA 
BRANCH   5   6
HETATM    6  C   UNL     1     -10.219  10.785  67.526  1.00  0.00    -0.196 C  
BRANCH   6   7
HETATM    7  C   UNL     1     -11.399  11.691  67.992  1.00  0.00    -0.296 C  
BRANCH   7   8
HETATM    8  N   UNL     1     -11.635  12.944  67.193  1.00  0.00    -0.343 NA 
BRANCH   8   9
HETATM    9  C   UNL     1     -11.536  12.569  65.725  1.00  0.00    -0.392 C  
HETATM   10  O   UNL     1     -13.348  14.114  65.393  1.00  0.00    -0.705 OA 
HETATM   11  C   UNL     1     -12.772  12.981  64.927  1.00  0.00    -0.390 C  
HETATM   12  O   UNL     1     -13.190  12.375  63.953  1.00  0.00    -0.718 OA 
ENDBRANCH   8   9
BRANCH   8  13
HETATM   13  C   UNL     1     -10.500  13.898  67.480  1.00  0.00    -0.248 C  
HETATM   14  O   UNL     1     -12.157  15.276  68.528  1.00  0.00    -0.250 OA 
HETATM   15  O   UNL     1     -10.361  16.318  67.621  1.00  0.00    -0.270 OA 
HETATM   16  C   UNL     1     -10.984  15.295  67.853  1.00  0.00    -0.306 C  
ENDBRANCH   8  13
ENDBRANCH   7   8
ENDBRANCH   6   7
ENDBRANCH   5   6
BRANCH   5  17
HETATM   17  C   UNL     1      -8.887   8.809  68.006  1.00  0.00    -0.141 C  
BRANCH  17  18
HETATM   18  C   UNL     1      -8.583   7.796  66.866  1.00  0.00    -0.130 C  
BRANCH  18  19
HETATM   19  N   UNL     1      -9.199   6.428  67.040  1.00  0.00    -0.125 NA 
BRANCH  19  20
HETATM   20  C   UNL     1      -8.623   5.835  68.313  1.00  0.00    -0.112 C  
HETATM   21  O   UNL     1      -9.290   5.932  70.648  1.00  0.00    -0.156 OA 
HETATM   22  O   UNL     1     -10.905   5.766  69.071  1.00  0.00    -0.290 OA 
HETATM   23  C   UNL     1      -9.616   5.865  69.473  1.00  0.00    -0.140 C  
ENDBRANCH  19  20
BRANCH  19  24
HETATM   24  C   UNL     1      -8.725   5.555  65.899  1.00  0.00    -0.145 C  
HETATM   25  C   UNL     1      -9.694   4.422  65.576  1.00  0.00    -0.200 C  
HETATM   26  O   UNL     1      -9.357   3.350  65.100  1.00  0.00    -0.147 OA 
HETATM   27  O   UNL     1     -10.986   4.757  65.804  1.00  0.00    -0.255 OA 
ENDBRANCH  19  24
ENDBRANCH  18  19
ENDBRANCH  17  18
ENDBRANCH   5  17
ENDBRANCH   3   5
TORSDOF 11
ENDMDL
MODEL      340
REMARK 921   NORMALIZED FREE ENERGY PREDICTED BY IDOCK:   -3.27 KCAL/MOL
REMARK 922        TOTAL FREE ENERGY PREDICTED BY IDOCK:   -7.11 KCAL/MOL
REMARK 923 INTER-LIGAND FREE ENERGY PREDICTED BY IDOCK:   -5.87 KCAL/MOL
REMARK 924 INTRA-LIGAND FREE ENERGY PREDICTED BY IDOCK:   -1.24 KCAL/MOL
REMARK 927      BINDING AFFINITY PREDICTED BY RF-SCORE:    0.00 PKD
ROOT
HETATM    1  O   UNL     1      -8.962   3.338  68.761  1.00  0.00    -0.104 OA 
HETATM    2  C   UNL     1      -8.203   4.338  68.254  1.00  0.00    -0.088 C  
HETATM    3  C   UNL     1      -9.040   5.497  67.719  1.00  0.00    -0.107 C  
HETATM    4  O   UNL     1      -6.983   4.290  68.194  1.00  0.00    -0.053 OA 
ENDROOT
BRANCH   3   5
HETATM    5  N   UNL     1     -10.324   5.690  68.479  1.00  0.00    -0.195 NA 
BRANCH   5   6
HETATM    6  C   UNL     1     -10.002   6.129  69.878  1.00  0.00    -0.172 C  
BRANCH   6   7
HETATM    7  C   UNL     1     -10.715   7.442  70.321  1.00  0.00    -0.237 C  
BRANCH   7   8
HETATM    8  N   UNL     1     -10.663   7.769  71.789  1.00  0.00    -0.218 NA 
BRANCH   8   9
HETATM    9  C   UNL     1     -11.879   8.622  72.104  1.00  0.00    -0.377 C  
HETATM   10  O   UNL     1     -13.150   6.604  71.798  1.00  0.00    -0.294 OA 
HETATM   11  C   UNL     1     -13.190   7.953  71.694  1.00  0.00    -0.334 C  
HETATM   12  O   UNL     1     -14.185   8.563  71.334  1.00  0.00    -0.388 OA 
ENDBRANCH   8   9
BRANCH   8  13
HETATM   13  C   UNL     1      -9.447   8.633  72.029  1.00  0.00    -0.300 C  
HETATM   14  O   UNL     1      -8.506   6.701  73.092  1.00  0.00    -0.117 OA 
HETATM   15  O   UNL     1      -7.809   8.731  73.819  1.00  0.00    -0.409 OA 
HETATM   16  C   UNL     1      -8.515   8.055  73.089  1.00  0.00    -0.208 C  
ENDBRANCH   8  13
ENDBRANCH   7   8
ENDBRANCH   6   7
ENDBRANCH   5   6
BRANCH   5  17
HETATM   17  C   UNL     1     -11.116   6.775  67.816  1.00  0.00    -0.201 C  
BRANCH  17  18
HETATM   18  C   UNL     1     -10.367   7.664  66.783  1.00  0.00    -0.273 C  
BRANCH  18  19
HETATM   19  N   UNL     1      -9.703   8.894  67.356  1.00  0.00    -0.166 NA 
BRANCH  19  20
HETATM   20  C   UNL     1     -10.567  10.086  66.983  1.00  0.00    -0.212 C  
HETATM   21  O   UNL     1     -12.163  11.442  68.216  1.00  0.00    -0.588 OA 
HETATM   22  O   UNL     1     -10.285  10.751  69.276  1.00  0.00    -0.218 OA 
HETATM   23  C   UNL     1     -11.111  10.821  68.205  1.00  0.00    -0.271 C  
ENDBRANCH  19  20
BRANCH  19  24
HETATM   24  C   UNL     1      -8.377   9.080  66.653  1.00  0.00    -0.118 C  
HETATM   25  C   UNL     1      -7.201   9.180  67.618  1.00  0.00    -0.083 C  
HETATM   26  O   UNL     1      -6.175   9.800  67.385  1.00  0.00    -0.058 OA 
HETATM   27  O   UNL     1      -7.381   8.444  68.741  1.00  0.00    -0.083 OA 
ENDBRANCH  19  24
ENDBRANCH  18  19
ENDBRANCH  17  18
ENDBRANCH   5  17
ENDBRANCH   3   5
TORSDOF 11
ENDMDL
MODEL      341
REMARK 921   NORMALIZED FREE ENERGY PREDICTED BY IDOCK:   -3.25 KCAL/MOL
REMARK 922        TOTAL FREE ENERGY PREDICTED BY IDOCK:   -7.08 KCAL/MOL
REMARK 923 INTER-LIGAND FREE ENERGY PREDICTED BY IDOCK:   -8.42 KCAL/MOL
REMARK 924 INTRA-LIGAND FREE ENERGY PREDICTED BY IDOCK:    1.33 KCAL/MOL
REMARK 927      BINDING AFFINITY PREDICTED BY RF-SCORE:    0.00 PKD
ROOT
HETATM    1  O   UNL     1      -7.515  14.905  69.780  1.00  0.00    -0.172 OA 
HETATM    2  C   UNL     1      -6.627  14.859  68.759  1.00  0.00    -0.087 C  
HETATM    3  C   UNL     1      -7.278  15.111  67.401  1.00  0.00    -0.199 C  
HETATM    4  O   UNL     1      -5.443  14.598  68.910  1.00  0.00    -0.085 OA 
ENDROOT
BRANCH   3   5
HETATM    5  N   UNL     1      -8.451  16.051  67.482  1.00  0.00    -0.160 NA 
BRANCH   5   6
HETATM    6  C   UNL     1      -9.562  15.382  68.237  1.00  0.00    -0.205 C  
BRANCH   6   7
HETATM    7  C   UNL     1     -10.915  15.314  67.466  1.00  0.00    -0.315 C  
BRANCH   7   8
HETATM    8  N   UNL     1     -11.316  13.965  66.936  1.00  0.00    -0.316 NA 
BRANCH   8   9
HETATM    9  C   UNL     1     -12.563  14.164  66.092  1.00  0.00    -0.321 C  
HETATM   10  O   UNL     1     -11.256  13.283  64.276  1.00  0.00    -0.363 OA 
HETATM   11  C   UNL     1     -12.273  14.118  64.593  1.00  0.00    -0.445 C  
HETATM   12  O   UNL     1     -12.902  14.746  63.756  1.00  0.00    -0.671 OA 
ENDBRANCH   8   9
BRANCH   8  13
HETATM   13  C   UNL     1     -11.715  13.104  68.112  1.00  0.00    -0.355 C  
HETATM   14  O   UNL     1     -10.456  11.368  67.041  1.00  0.00    -0.217 OA 
HETATM   15  O   UNL     1     -12.196  10.736  68.347  1.00  0.00    -0.470 OA 
HETATM   16  C   UNL     1     -11.515  11.616  67.846  1.00  0.00    -0.311 C  
ENDBRANCH   8  13
ENDBRANCH   7   8
ENDBRANCH   6   7
ENDBRANCH   5   6
BRANCH   5  17
HETATM   17  C   UNL     1      -8.034  17.273  68.240  1.00  0.00    -0.244 C  
BRANCH  17  18
HETATM   18  C   UNL     1      -9.086  18.411  68.377  1.00  0.00    -0.320 C  
BRANCH  18  19
HETATM   19  N   UNL     1      -8.738  19.697  67.665  1.00  0.00    -0.313 NA 
BRANCH  19  20
HETATM   20  C   UNL     1     -10.035  20.287  67.141  1.00  0.00    -0.453 C  
HETATM   21  O   UNL     1     -11.182  20.160  65.003  1.00  0.00    -0.170 OA 
HETATM   22  O   UNL     1     -10.156  18.301  65.790  1.00  0.00    -0.560 OA 
HETATM   23  C   UNL     1     -10.514  19.605  65.862  1.00  0.00    -0.493 C  
ENDBRANCH  19  20
BRANCH  19  24
HETATM   24  C   UNL     1      -7.898  19.348  66.455  1.00  0.00    -0.288 C  
HETATM   25  C   UNL     1      -7.030  20.507  65.980  1.00  0.00    -0.189 C  
HETATM   26  O   UNL     1      -6.678  20.668  64.822  1.00  0.00    -0.284 OA 
HETATM   27  O   UNL     1      -6.623  21.307  66.994  1.00  0.00    -0.413 OA 
ENDBRANCH  19  24
ENDBRANCH  18  19
ENDBRANCH  17  18
ENDBRANCH   5  17
ENDBRANCH   3   5
TORSDOF 11
ENDMDL
MODEL      342
REMARK 921   NORMALIZED FREE ENERGY PREDICTED BY IDOCK:   -3.24 KCAL/MOL
REMARK 922        TOTAL FREE ENERGY PREDICTED BY IDOCK:   -7.07 KCAL/MOL
REMARK 923 INTER-LIGAND FREE ENERGY PREDICTED BY IDOCK:   -7.29 KCAL/MOL
REMARK 924 INTRA-LIGAND FREE ENERGY PREDICTED BY IDOCK:    0.22 KCAL/MOL
REMARK 927      BINDING AFFINITY PREDICTED BY RF-SCORE:    0.00 PKD
ROOT
HETATM    1  O   UNL     1     -12.865  13.798  65.994  1.00  0.00    -0.402 OA 
HETATM    2  C   UNL     1     -12.048  14.363  65.075  1.00  0.00    -0.415 C  
HETATM    3  C   UNL     1     -10.633  14.585  65.604  1.00  0.00    -0.332 C  
HETATM    4  O   UNL     1     -12.421  14.699  63.961  1.00  0.00    -0.796 OA 
ENDROOT
BRANCH   3   5
HETATM    5  N   UNL     1     -10.213  13.542  66.604  1.00  0.00    -0.270 NA 
BRANCH   5   6
HETATM    6  C   UNL     1      -8.960  12.874  66.117  1.00  0.00     0.179 C  
BRANCH   6   7
HETATM    7  C   UNL     1      -8.928  11.331  66.334  1.00  0.00    -0.188 C  
BRANCH   7   8
HETATM    8  N   UNL     1     -10.193  10.583  66.009  1.00  0.00    -0.254 NA 
BRANCH   8   9
HETATM    9  C   UNL     1     -10.186   9.307  66.833  1.00  0.00    -0.256 C  
HETATM   10  O   UNL     1     -11.305  10.604  68.520  1.00  0.00    -0.268 OA 
HETATM   11  C   UNL     1     -10.469   9.560  68.313  1.00  0.00    -0.223 C  
HETATM   12  O   UNL     1     -10.015   8.881  69.220  1.00  0.00    -0.182 OA 
ENDBRANCH   8   9
BRANCH   8  13
HETATM   13  C   UNL     1     -10.127  10.170  64.558  1.00  0.00    -0.088 C  
HETATM   14  O   UNL     1      -8.349   8.713  65.238  1.00  0.00    -0.149 OA 
HETATM   15  O   UNL     1      -8.303   9.486  63.108  1.00  0.00    -0.154 OA 
HETATM   16  C   UNL     1      -8.829   9.451  64.209  1.00  0.00    -0.184 C  
ENDBRANCH   8  13
ENDBRANCH   7   8
ENDBRANCH   6   7
ENDBRANCH   5   6
BRANCH   5  17
HETATM   17  C   UNL     1      -9.911  14.220  67.906  1.00  0.00    -0.226 C  
BRANCH  17  18
HETATM   18  C   UNL     1     -11.021  14.186  68.994  1.00  0.00    -0.261 C  
BRANCH  18  19
HETATM   19  N   UNL     1     -11.412  15.532  69.555  1.00  0.00    -0.307 NA 
BRANCH  19  20
HETATM   20  C   UNL     1     -12.830  15.405  70.083  1.00  0.00    -0.158 C  
HETATM   21  O   UNL     1     -13.755  14.925  72.278  1.00  0.00    -0.381 OA 
HETATM   22  O   UNL     1     -11.921  16.245  72.145  1.00  0.00    -0.504 OA 
HETATM   23  C   UNL     1     -12.895  15.474  71.607  1.00  0.00    -0.446 C  
ENDBRANCH  19  20
BRANCH  19  24
HETATM   24  C   UNL     1     -11.461  16.519  68.408  1.00  0.00    -0.104 C  
HETATM   25  C   UNL     1     -10.407  17.615  68.522  1.00  0.00    -0.370 C  
HETATM   26  O   UNL     1     -10.538  18.739  68.065  1.00  0.00    -0.367 OA 
HETATM   27  O   UNL     1      -9.270  17.187  69.122  1.00  0.00    -0.182 OA 
ENDBRANCH  19  24
ENDBRANCH  18  19
ENDBRANCH  17  18
ENDBRANCH   5  17
ENDBRANCH   3   5
TORSDOF 11
ENDMDL
MODEL      343
REMARK 921   NORMALIZED FREE ENERGY PREDICTED BY IDOCK:   -3.23 KCAL/MOL
REMARK 922        TOTAL FREE ENERGY PREDICTED BY IDOCK:   -7.06 KCAL/MOL
REMARK 923 INTER-LIGAND FREE ENERGY PREDICTED BY IDOCK:   -5.87 KCAL/MOL
REMARK 924 INTRA-LIGAND FREE ENERGY PREDICTED BY IDOCK:   -1.19 KCAL/MOL
REMARK 927      BINDING AFFINITY PREDICTED BY RF-SCORE:    0.00 PKD
ROOT
HETATM    1  O   UNL     1      -6.589  10.136  67.942  1.00  0.00    -0.065 OA 
HETATM    2  C   UNL     1      -6.853  10.993  66.928  1.00  0.00    -0.121 C  
HETATM    3  C   UNL     1      -8.340  11.316  66.802  1.00  0.00    -0.156 C  
HETATM    4  O   UNL     1      -5.995  11.421  66.169  1.00  0.00    -0.114 OA 
ENDROOT
BRANCH   3   5
HETATM    5  N   UNL     1      -9.053  11.304  68.127  1.00  0.00    -0.160 NA 
BRANCH   5   6
HETATM    6  C   UNL     1      -9.800  12.596  68.292  1.00  0.00    -0.227 C  
BRANCH   6   7
HETATM    7  C   UNL     1      -9.281  13.759  67.393  1.00  0.00    -0.221 C  
BRANCH   7   8
HETATM    8  N   UNL     1      -9.460  15.152  67.932  1.00  0.00    -0.193 NA 
BRANCH   8   9
HETATM    9  C   UNL     1      -8.075  15.756  68.090  1.00  0.00    -0.140 C  
HETATM   10  O   UNL     1      -8.556  16.941  66.054  1.00  0.00    -0.469 OA 
HETATM   11  C   UNL     1      -7.566  16.405  66.804  1.00  0.00    -0.255 C  
HETATM   12  O   UNL     1      -6.387  16.463  66.489  1.00  0.00    -0.262 OA 
ENDBRANCH   8   9
BRANCH   8  13
HETATM   13  C   UNL     1     -10.051  15.041  69.317  1.00  0.00    -0.233 C  
HETATM   14  O   UNL     1     -11.822  16.422  68.478  1.00  0.00    -0.156 OA 
HETATM   15  O   UNL     1     -11.354  16.561  70.691  1.00  0.00    -0.312 OA 
HETATM   16  C   UNL     1     -11.118  16.097  69.588  1.00  0.00    -0.344 C  
ENDBRANCH   8  13
ENDBRANCH   7   8
ENDBRANCH   6   7
ENDBRANCH   5   6
BRANCH   5  17
HETATM   17  C   UNL     1     -10.046  10.183  68.127  1.00  0.00    -0.152 C  
BRANCH  17  18
HETATM   18  C   UNL     1     -10.732   9.848  69.482  1.00  0.00    -0.242 C  
BRANCH  18  19
HETATM   19  N   UNL     1     -10.427   8.476  70.035  1.00  0.00    -0.219 NA 
BRANCH  19  20
HETATM   20  C   UNL     1      -8.950   8.453  70.390  1.00  0.00    -0.148 C  
HETATM   21  O   UNL     1      -7.710   9.003  72.406  1.00  0.00    -0.346 OA 
HETATM   22  O   UNL     1      -9.701   7.947  72.618  1.00  0.00    -0.193 OA 
HETATM   23  C   UNL     1      -8.709   8.519  71.896  1.00  0.00    -0.203 C  
ENDBRANCH  19  20
BRANCH  19  24
HETATM   24  C   UNL     1     -10.624   7.470  68.923  1.00  0.00    -0.169 C  
HETATM   25  C   UNL     1     -10.700   6.033  69.428  1.00  0.00    -0.334 C  
HETATM   26  O   UNL     1     -10.360   5.060  68.774  1.00  0.00    -0.139 OA 
HETATM   27  O   UNL     1     -11.258   5.940  70.658  1.00  0.00    -0.294 OA 
ENDBRANCH  19  24
ENDBRANCH  18  19
ENDBRANCH  17  18
ENDBRANCH   5  17
ENDBRANCH   3   5
TORSDOF 11
ENDMDL
MODEL      344
REMARK 921   NORMALIZED FREE ENERGY PREDICTED BY IDOCK:   -3.21 KCAL/MOL
REMARK 922        TOTAL FREE ENERGY PREDICTED BY IDOCK:   -7.01 KCAL/MOL
REMARK 923 INTER-LIGAND FREE ENERGY PREDICTED BY IDOCK:   -7.31 KCAL/MOL
REMARK 924 INTRA-LIGAND FREE ENERGY PREDICTED BY IDOCK:    0.30 KCAL/MOL
REMARK 927      BINDING AFFINITY PREDICTED BY RF-SCORE:    0.00 PKD
ROOT
HETATM    1  O   UNL     1     -12.633  12.573  65.451  1.00  0.00    -0.656 OA 
HETATM    2  C   UNL     1     -11.741  12.286  64.474  1.00  0.00    -0.353 C  
HETATM    3  C   UNL     1     -10.304  12.237  64.987  1.00  0.00    -0.291 C  
HETATM    4  O   UNL     1     -12.054  12.131  63.303  1.00  0.00    -0.475 OA 
ENDROOT
BRANCH   3   5
HETATM    5  N   UNL     1     -10.208  11.757  66.410  1.00  0.00    -0.210 NA 
BRANCH   5   6
HETATM    6  C   UNL     1      -9.453  10.459  66.437  1.00  0.00    -0.169 C  
BRANCH   6   7
HETATM    7  C   UNL     1      -8.860  10.089  67.830  1.00  0.00    -0.125 C  
BRANCH   7   8
HETATM    8  N   UNL     1      -9.676   9.151  68.677  1.00  0.00    -0.152 NA 
BRANCH   8   9
HETATM    9  C   UNL     1     -10.599   8.387  67.744  1.00  0.00    -0.171 C  
HETATM   10  O   UNL     1      -9.632   6.405  68.703  1.00  0.00    -0.122 OA 
HETATM   11  C   UNL     1     -10.194   6.922  67.586  1.00  0.00    -0.185 C  
HETATM   12  O   UNL     1     -10.379   6.269  66.570  1.00  0.00    -0.170 OA 
ENDBRANCH   8   9
BRANCH   8  13
HETATM   13  C   UNL     1     -10.555   9.986  69.578  1.00  0.00    -0.244 C  
HETATM   14  O   UNL     1      -9.207   9.149  71.374  1.00  0.00    -0.238 OA 
HETATM   15  O   UNL     1     -11.354   9.694  71.852  1.00  0.00    -0.267 OA 
HETATM   16  C   UNL     1     -10.446   9.584  71.045  1.00  0.00    -0.306 C  
ENDBRANCH   8  13
ENDBRANCH   7   8
ENDBRANCH   6   7
ENDBRANCH   5   6
BRANCH   5  17
HETATM   17  C   UNL     1      -9.439  12.765  67.207  1.00  0.00    -0.204 C  
BRANCH  17  18
HETATM   18  C   UNL     1     -10.257  13.897  67.890  1.00  0.00    -0.241 C  
BRANCH  18  19
HETATM   19  N   UNL     1      -9.703  15.290  67.708  1.00  0.00    -0.214 NA 
BRANCH  19  20
HETATM   20  C   UNL     1      -9.587  15.912  69.088  1.00  0.00    -0.253 C  
HETATM   21  O   UNL     1     -11.212  16.474  70.806  1.00  0.00    -0.304 OA 
HETATM   22  O   UNL     1     -11.497  14.557  69.637  1.00  0.00    -0.262 OA 
HETATM   23  C   UNL     1     -10.844  15.707  69.930  1.00  0.00    -0.318 C  
ENDBRANCH  19  20
BRANCH  19  24
HETATM   24  C   UNL     1     -10.728  16.104  66.948  1.00  0.00    -0.247 C  
HETATM   25  C   UNL     1     -10.311  16.390  65.509  1.00  0.00    -0.313 C  
HETATM   26  O   UNL     1     -10.661  17.374  64.879  1.00  0.00    -0.691 OA 
HETATM   27  O   UNL     1      -9.566  15.394  64.972  1.00  0.00    -0.130 OA 
ENDBRANCH  19  24
ENDBRANCH  18  19
ENDBRANCH  17  18
ENDBRANCH   5  17
ENDBRANCH   3   5
TORSDOF 11
ENDMDL
MODEL      345
REMARK 921   NORMALIZED FREE ENERGY PREDICTED BY IDOCK:   -3.20 KCAL/MOL
REMARK 922        TOTAL FREE ENERGY PREDICTED BY IDOCK:   -7.01 KCAL/MOL
REMARK 923 INTER-LIGAND FREE ENERGY PREDICTED BY IDOCK:   -6.88 KCAL/MOL
REMARK 924 INTRA-LIGAND FREE ENERGY PREDICTED BY IDOCK:   -0.12 KCAL/MOL
REMARK 927      BINDING AFFINITY PREDICTED BY RF-SCORE:    0.00 PKD
ROOT
HETATM    1  O   UNL     1      -7.417  14.835  69.803  1.00  0.00    -0.140 OA 
HETATM    2  C   UNL     1      -6.467  14.290  69.008  1.00  0.00    -0.100 C  
HETATM    3  C   UNL     1      -6.758  14.488  67.523  1.00  0.00    -0.116 C  
HETATM    4  O   UNL     1      -5.506  13.669  69.439  1.00  0.00    -0.082 OA 
ENDROOT
BRANCH   3   5
HETATM    5  N   UNL     1      -7.487  15.773  67.237  1.00  0.00    -0.197 NA 
BRANCH   5   6
HETATM    6  C   UNL     1      -8.947  15.582  67.528  1.00  0.00    -0.189 C  
BRANCH   6   7
HETATM    7  C   UNL     1      -9.785  15.082  66.313  1.00  0.00    -0.291 C  
BRANCH   7   8
HETATM    8  N   UNL     1     -10.157  13.624  66.312  1.00  0.00    -0.292 NA 
BRANCH   8   9
HETATM    9  C   UNL     1     -11.071  13.392  65.122  1.00  0.00    -0.301 C  
HETATM   10  O   UNL     1     -10.093  11.198  65.026  1.00  0.00    -0.248 OA 
HETATM   11  C   UNL     1     -10.655  12.182  64.287  1.00  0.00    -0.345 C  
HETATM   12  O   UNL     1     -10.831  12.091  63.082  1.00  0.00    -0.356 OA 
ENDBRANCH   8   9
BRANCH   8  13
HETATM   13  C   UNL     1     -10.976  13.353  67.553  1.00  0.00    -0.267 C  
HETATM   14  O   UNL     1      -9.077  12.105  68.317  1.00  0.00    -0.193 OA 
HETATM   15  O   UNL     1     -11.115  11.460  69.067  1.00  0.00    -0.210 OA 
HETATM   16  C   UNL     1     -10.426  12.195  68.379  1.00  0.00    -0.231 C  
ENDBRANCH   8  13
ENDBRANCH   7   8
ENDBRANCH   6   7
ENDBRANCH   5   6
BRANCH   5  17
HETATM   17  C   UNL     1      -6.960  16.837  68.150  1.00  0.00    -0.157 C  
BRANCH  17  18
HETATM   18  C   UNL     1      -6.565  18.193  67.500  1.00  0.00    -0.189 C  
BRANCH  18  19
HETATM   19  N   UNL     1      -7.664  18.875  66.720  1.00  0.00    -0.233 NA 
BRANCH  19  20
HETATM   20  C   UNL     1      -7.163  20.262  66.355  1.00  0.00    -0.264 C  
HETATM   21  O   UNL     1      -5.261  21.065  65.075  1.00  0.00    -0.190 OA 
HETATM   22  O   UNL     1      -6.350  19.219  64.346  1.00  0.00    -0.443 OA 
HETATM   23  C   UNL     1      -6.147  20.236  65.217  1.00  0.00    -0.229 C  
ENDBRANCH  19  20
BRANCH  19  24
HETATM   24  C   UNL     1      -8.844  19.067  67.646  1.00  0.00    -0.289 C  
HETATM   25  C   UNL     1     -10.170  19.190  66.903  1.00  0.00    -0.395 C  
HETATM   26  O   UNL     1     -11.131  19.818  67.318  1.00  0.00    -0.363 OA 
HETATM   27  O   UNL     1     -10.199  18.463  65.760  1.00  0.00    -0.571 OA 
ENDBRANCH  19  24
ENDBRANCH  18  19
ENDBRANCH  17  18
ENDBRANCH   5  17
ENDBRANCH   3   5
TORSDOF 11
ENDMDL
MODEL      346
REMARK 921   NORMALIZED FREE ENERGY PREDICTED BY IDOCK:   -3.20 KCAL/MOL
REMARK 922        TOTAL FREE ENERGY PREDICTED BY IDOCK:   -7.00 KCAL/MOL
REMARK 923 INTER-LIGAND FREE ENERGY PREDICTED BY IDOCK:   -5.58 KCAL/MOL
REMARK 924 INTRA-LIGAND FREE ENERGY PREDICTED BY IDOCK:   -1.42 KCAL/MOL
REMARK 927      BINDING AFFINITY PREDICTED BY RF-SCORE:    0.00 PKD
ROOT
HETATM    1  O   UNL     1      -9.099   9.306  71.277  1.00  0.00    -0.264 OA 
HETATM    2  C   UNL     1     -10.446   9.313  71.146  1.00  0.00    -0.331 C  
HETATM    3  C   UNL     1     -10.931  10.317  70.103  1.00  0.00    -0.314 C  
HETATM    4  O   UNL     1     -11.190   8.620  71.825  1.00  0.00    -0.280 OA 
ENDROOT
BRANCH   3   5
HETATM    5  N   UNL     1      -9.955  10.501  68.973  1.00  0.00    -0.202 NA 
BRANCH   5   6
HETATM    6  C   UNL     1     -10.097   9.356  68.013  1.00  0.00    -0.191 C  
BRANCH   6   7
HETATM    7  C   UNL     1      -8.885   8.377  67.995  1.00  0.00    -0.142 C  
BRANCH   7   8
HETATM    8  N   UNL     1      -9.207   6.911  68.093  1.00  0.00    -0.127 NA 
BRANCH   8   9
HETATM    9  C   UNL     1      -8.440   6.359  69.282  1.00  0.00    -0.126 C  
HETATM   10  O   UNL     1     -10.490   5.243  69.859  1.00  0.00    -0.297 OA 
HETATM   11  C   UNL     1      -9.358   5.788  70.362  1.00  0.00    -0.157 C  
HETATM   12  O   UNL     1      -9.095   5.793  71.554  1.00  0.00    -0.139 OA 
ENDBRANCH   8   9
BRANCH   8  13
HETATM   13  C   UNL     1      -8.657   6.231  66.862  1.00  0.00    -0.113 C  
HETATM   14  O   UNL     1     -10.907   5.501  66.476  1.00  0.00    -0.288 OA 
HETATM   15  O   UNL     1      -9.238   4.180  65.699  1.00  0.00    -0.132 OA 
HETATM   16  C   UNL     1      -9.605   5.178  66.297  1.00  0.00    -0.164 C  
ENDBRANCH   8  13
ENDBRANCH   7   8
ENDBRANCH   6   7
ENDBRANCH   5   6
BRANCH   5  17
HETATM   17  C   UNL     1     -10.294  11.768  68.249  1.00  0.00    -0.206 C  
BRANCH  17  18
HETATM   18  C   UNL     1      -9.174  12.842  68.144  1.00  0.00    -0.212 C  
BRANCH  18  19
HETATM   19  N   UNL     1      -9.607  14.254  68.458  1.00  0.00    -0.220 NA 
BRANCH  19  20
HETATM   20  C   UNL     1      -8.436  14.944  69.135  1.00  0.00    -0.152 C  
HETATM   21  O   UNL     1      -6.598  16.305  68.313  1.00  0.00    -0.121 OA 
HETATM   22  O   UNL     1      -8.644  16.576  67.381  1.00  0.00    -0.174 OA 
HETATM   23  C   UNL     1      -7.777  15.991  68.242  1.00  0.00    -0.142 C  
ENDBRANCH  19  20
BRANCH  19  24
HETATM   24  C   UNL     1     -10.722  14.185  69.478  1.00  0.00    -0.018 C  
HETATM   25  C   UNL     1     -11.523  15.479  69.573  1.00  0.00    -0.333 C  
HETATM   26  O   UNL     1     -12.091  15.859  70.584  1.00  0.00    -0.382 OA 
HETATM   27  O   UNL     1     -11.601  16.134  68.390  1.00  0.00    -0.355 OA 
ENDBRANCH  19  24
ENDBRANCH  18  19
ENDBRANCH  17  18
ENDBRANCH   5  17
ENDBRANCH   3   5
TORSDOF 11
ENDMDL
MODEL      347
REMARK 921   NORMALIZED FREE ENERGY PREDICTED BY IDOCK:   -3.19 KCAL/MOL
REMARK 922        TOTAL FREE ENERGY PREDICTED BY IDOCK:   -6.99 KCAL/MOL
REMARK 923 INTER-LIGAND FREE ENERGY PREDICTED BY IDOCK:   -5.73 KCAL/MOL
REMARK 924 INTRA-LIGAND FREE ENERGY PREDICTED BY IDOCK:   -1.25 KCAL/MOL
REMARK 927      BINDING AFFINITY PREDICTED BY RF-SCORE:    0.00 PKD
ROOT
HETATM    1  O   UNL     1     -10.859   4.265  64.678  1.00  0.00    -0.229 OA 
HETATM    2  C   UNL     1      -9.660   3.806  65.107  1.00  0.00    -0.177 C  
HETATM    3  C   UNL     1      -8.837   4.881  65.812  1.00  0.00    -0.135 C  
HETATM    4  O   UNL     1      -9.266   2.666  64.907  1.00  0.00    -0.136 OA 
ENDROOT
BRANCH   3   5
HETATM    5  N   UNL     1      -9.688   5.881  66.546  1.00  0.00    -0.156 NA 
BRANCH   5   6
HETATM    6  C   UNL     1     -10.017   5.338  67.907  1.00  0.00    -0.160 C  
BRANCH   6   7
HETATM    7  C   UNL     1     -11.033   6.199  68.716  1.00  0.00    -0.348 C  
BRANCH   7   8
HETATM    8  N   UNL     1     -10.727   6.399  70.175  1.00  0.00    -0.247 NA 
BRANCH   8   9
HETATM    9  C   UNL     1     -10.266   5.062  70.727  1.00  0.00    -0.229 C  
HETATM   10  O   UNL     1      -8.930   6.355  72.252  1.00  0.00    -0.139 OA 
HETATM   11  C   UNL     1      -9.006   5.181  71.583  1.00  0.00    -0.134 C  
HETATM   12  O   UNL     1      -8.161   4.304  71.681  1.00  0.00    -0.088 OA 
ENDBRANCH   8   9
BRANCH   8  13
HETATM   13  C   UNL     1     -12.020   6.741  70.877  1.00  0.00    -0.383 C  
HETATM   14  O   UNL     1     -11.228   9.003  70.855  1.00  0.00    -0.257 OA 
HETATM   15  O   UNL     1     -12.614   8.404  72.544  1.00  0.00    -0.345 OA 
HETATM   16  C   UNL     1     -11.986   8.114  71.540  1.00  0.00    -0.298 C  
ENDBRANCH   8  13
ENDBRANCH   7   8
ENDBRANCH   6   7
ENDBRANCH   5   6
BRANCH   5  17
HETATM   17  C   UNL     1      -8.903   7.145  66.720  1.00  0.00    -0.130 C  
BRANCH  17  18
HETATM   18  C   UNL     1      -8.888   8.136  65.522  1.00  0.00    -0.089 C  
BRANCH  18  19
HETATM   19  N   UNL     1      -9.280   9.555  65.858  1.00  0.00    -0.188 NA 
BRANCH  19  20
HETATM   20  C   UNL     1      -9.321  10.331  64.553  1.00  0.00    -0.276 C  
HETATM   21  O   UNL     1     -11.094  11.474  63.346  1.00  0.00    -0.391 OA 
HETATM   22  O   UNL     1     -11.061  11.615  65.605  1.00  0.00    -0.300 OA 
HETATM   23  C   UNL     1     -10.582  11.180  64.416  1.00  0.00    -0.343 C  
ENDBRANCH  19  20
BRANCH  19  24
HETATM   24  C   UNL     1      -8.173  10.161  66.691  1.00  0.00    -0.123 C  
HETATM   25  C   UNL     1      -8.695  10.981  67.867  1.00  0.00    -0.133 C  
HETATM   26  O   UNL     1      -8.101  11.930  68.355  1.00  0.00    -0.147 OA 
HETATM   27  O   UNL     1      -9.858  10.501  68.365  1.00  0.00    -0.152 OA 
ENDBRANCH  19  24
ENDBRANCH  18  19
ENDBRANCH  17  18
ENDBRANCH   5  17
ENDBRANCH   3   5
TORSDOF 11
ENDMDL
MODEL      348
REMARK 921   NORMALIZED FREE ENERGY PREDICTED BY IDOCK:   -3.19 KCAL/MOL
REMARK 922        TOTAL FREE ENERGY PREDICTED BY IDOCK:   -6.98 KCAL/MOL
REMARK 923 INTER-LIGAND FREE ENERGY PREDICTED BY IDOCK:   -7.06 KCAL/MOL
REMARK 924 INTRA-LIGAND FREE ENERGY PREDICTED BY IDOCK:    0.07 KCAL/MOL
REMARK 927      BINDING AFFINITY PREDICTED BY RF-SCORE:    0.00 PKD
ROOT
HETATM    1  O   UNL     1      -9.296   9.778  70.414  1.00  0.00    -0.242 OA 
HETATM    2  C   UNL     1     -10.508   9.368  69.971  1.00  0.00    -0.234 C  
HETATM    3  C   UNL     1     -10.833   9.894  68.576  1.00  0.00    -0.217 C  
HETATM    4  O   UNL     1     -11.272   8.688  70.640  1.00  0.00    -0.251 OA 
ENDROOT
BRANCH   3   5
HETATM    5  N   UNL     1      -9.611  10.057  67.714  1.00  0.00    -0.147 NA 
BRANCH   5   6
HETATM    6  C   UNL     1      -9.333  11.521  67.531  1.00  0.00    -0.166 C  
BRANCH   6   7
HETATM    7  C   UNL     1      -9.823  12.104  66.171  1.00  0.00    -0.237 C  
BRANCH   7   8
HETATM    8  N   UNL     1     -10.495  13.449  66.223  1.00  0.00    -0.284 NA 
BRANCH   8   9
HETATM    9  C   UNL     1     -10.707  13.903  64.790  1.00  0.00    -0.423 C  
HETATM   10  O   UNL     1     -13.050  13.912  65.330  1.00  0.00    -0.777 OA 
HETATM   11  C   UNL     1     -12.155  13.741  64.329  1.00  0.00    -0.440 C  
HETATM   12  O   UNL     1     -12.483  13.508  63.176  1.00  0.00    -0.759 OA 
ENDBRANCH   8   9
BRANCH   8  13
HETATM   13  C   UNL     1      -9.530  14.425  66.854  1.00  0.00    -0.258 C  
HETATM   14  O   UNL     1     -11.445  15.306  67.996  1.00  0.00    -0.335 OA 
HETATM   15  O   UNL     1      -9.739  16.736  67.571  1.00  0.00    -0.245 OA 
HETATM   16  C   UNL     1     -10.232  15.624  67.484  1.00  0.00    -0.263 C  
ENDBRANCH   8  13
ENDBRANCH   7   8
ENDBRANCH   6   7
ENDBRANCH   5   6
BRANCH   5  17
HETATM   17  C   UNL     1      -8.442   9.440  68.417  1.00  0.00    -0.120 C  
BRANCH  17  18
HETATM   18  C   UNL     1      -7.688   8.303  67.669  1.00  0.00    -0.099 C  
BRANCH  18  19
HETATM   19  N   UNL     1      -8.550   7.436  66.782  1.00  0.00    -0.123 NA 
BRANCH  19  20
HETATM   20  C   UNL     1      -9.015   6.258  67.619  1.00  0.00    -0.115 C  
HETATM   21  O   UNL     1     -11.051   5.795  68.862  1.00  0.00    -0.265 OA 
HETATM   22  O   UNL     1     -11.220   6.855  66.868  1.00  0.00    -0.353 OA 
HETATM   23  C   UNL     1     -10.520   6.279  67.874  1.00  0.00    -0.230 C  
ENDBRANCH  19  20
BRANCH  19  24
HETATM   24  C   UNL     1      -7.672   6.873  65.686  1.00  0.00    -0.102 C  
HETATM   25  C   UNL     1      -7.931   7.518  64.328  1.00  0.00    -0.109 C  
HETATM   26  O   UNL     1      -7.760   6.952  63.260  1.00  0.00    -0.100 OA 
HETATM   27  O   UNL     1      -8.301   8.816  64.427  1.00  0.00    -0.163 OA 
ENDBRANCH  19  24
ENDBRANCH  18  19
ENDBRANCH  17  18
ENDBRANCH   5  17
ENDBRANCH   3   5
TORSDOF 11
ENDMDL
MODEL      349
REMARK 921   NORMALIZED FREE ENERGY PREDICTED BY IDOCK:   -3.18 KCAL/MOL
REMARK 922        TOTAL FREE ENERGY PREDICTED BY IDOCK:   -6.96 KCAL/MOL
REMARK 923 INTER-LIGAND FREE ENERGY PREDICTED BY IDOCK:   -5.87 KCAL/MOL
REMARK 924 INTRA-LIGAND FREE ENERGY PREDICTED BY IDOCK:   -1.09 KCAL/MOL
REMARK 927      BINDING AFFINITY PREDICTED BY RF-SCORE:    0.00 PKD
ROOT
HETATM    1  O   UNL     1      -5.878  14.028  67.379  1.00  0.00    -0.352 OA 
HETATM    2  C   UNL     1      -6.085  13.662  68.666  1.00  0.00    -0.087 C  
HETATM    3  C   UNL     1      -7.450  13.013  68.881  1.00  0.00     0.014 C  
HETATM    4  O   UNL     1      -5.281  13.874  69.562  1.00  0.00    -0.083 OA 
ENDROOT
BRANCH   3   5
HETATM    5  N   UNL     1      -7.925  12.242  67.679  1.00  0.00    -0.149 NA 
BRANCH   5   6
HETATM    6  C   UNL     1      -7.923  10.777  68.007  1.00  0.00    -0.108 C  
BRANCH   6   7
HETATM    7  C   UNL     1      -6.800   9.961  67.300  1.00  0.00    -0.083 C  
BRANCH   7   8
HETATM    8  N   UNL     1      -7.250   8.931  66.299  1.00  0.00    -0.085 NA 
BRANCH   8   9
HETATM    9  C   UNL     1      -6.399   7.692  66.512  1.00  0.00    -0.046 C  
HETATM   10  O   UNL     1      -8.476   6.482  66.496  1.00  0.00    -0.112 OA 
HETATM   11  C   UNL     1      -7.215   6.491  66.988  1.00  0.00    -0.078 C  
HETATM   12  O   UNL     1      -6.778   5.613  67.714  1.00  0.00    -0.055 OA 
ENDBRANCH   8   9
BRANCH   8  13
HETATM   13  C   UNL     1      -6.927   9.453  64.919  1.00  0.00    -0.097 C  
HETATM   14  O   UNL     1      -9.293   9.745  64.669  1.00  0.00    -0.260 OA 
HETATM   15  O   UNL     1      -8.090   9.347  62.790  1.00  0.00    -0.128 OA 
HETATM   16  C   UNL     1      -8.144   9.485  64.001  1.00  0.00    -0.152 C  
ENDBRANCH   8  13
ENDBRANCH   7   8
ENDBRANCH   6   7
ENDBRANCH   5   6
BRANCH   5  17
HETATM   17  C   UNL     1      -9.332  12.654  67.370  1.00  0.00    -0.189 C  
BRANCH  17  18
HETATM   18  C   UNL     1      -9.556  13.478  66.070  1.00  0.00    -0.161 C  
BRANCH  18  19
HETATM   19  N   UNL     1     -10.088  14.876  66.279  1.00  0.00    -0.269 NA 
BRANCH  19  20
HETATM   20  C   UNL     1     -10.770  15.296  64.990  1.00  0.00    -0.439 C  
HETATM   21  O   UNL     1     -12.485  14.277  63.601  1.00  0.00    -0.816 OA 
HETATM   22  O   UNL     1     -12.678  14.113  65.851  1.00  0.00    -0.487 OA 
HETATM   23  C   UNL     1     -12.048  14.505  64.719  1.00  0.00    -0.445 C  
ENDBRANCH  19  20
BRANCH  19  24
HETATM   24  C   UNL     1      -8.906  15.801  66.469  1.00  0.00    -0.310 C  
HETATM   25  C   UNL     1      -9.316  17.258  66.660  1.00  0.00    -0.260 C  
HETATM   26  O   UNL     1      -8.623  18.210  66.340  1.00  0.00    -0.299 OA 
HETATM   27  O   UNL     1     -10.505  17.388  67.294  1.00  0.00    -0.335 OA 
ENDBRANCH  19  24
ENDBRANCH  18  19
ENDBRANCH  17  18
ENDBRANCH   5  17
ENDBRANCH   3   5
TORSDOF 11
ENDMDL
MODEL      350
REMARK 921   NORMALIZED FREE ENERGY PREDICTED BY IDOCK:   -3.18 KCAL/MOL
REMARK 922        TOTAL FREE ENERGY PREDICTED BY IDOCK:   -6.96 KCAL/MOL
REMARK 923 INTER-LIGAND FREE ENERGY PREDICTED BY IDOCK:   -5.25 KCAL/MOL
REMARK 924 INTRA-LIGAND FREE ENERGY PREDICTED BY IDOCK:   -1.71 KCAL/MOL
REMARK 927      BINDING AFFINITY PREDICTED BY RF-SCORE:    0.00 PKD
ROOT
HETATM    1  O   UNL     1     -11.594  12.176  68.643  1.00  0.00    -0.273 OA 
HETATM    2  C   UNL     1     -11.868  11.743  69.896  1.00  0.00    -0.348 C  
HETATM    3  C   UNL     1     -11.407  10.308  70.136  1.00  0.00    -0.316 C  
HETATM    4  O   UNL     1     -12.461  12.418  70.724  1.00  0.00    -0.349 OA 
ENDROOT
BRANCH   3   5
HETATM    5  N   UNL     1     -10.173   9.952  69.353  1.00  0.00    -0.202 NA 
BRANCH   5   6
HETATM    6  C   UNL     1      -9.137   9.407  70.293  1.00  0.00    -0.245 C  
BRANCH   6   7
HETATM    7  C   UNL     1      -9.699   8.945  71.672  1.00  0.00    -0.309 C  
BRANCH   7   8
HETATM    8  N   UNL     1      -9.445   7.512  72.051  1.00  0.00    -0.139 NA 
BRANCH   8   9
HETATM    9  C   UNL     1      -8.563   6.909  70.972  1.00  0.00    -0.135 C  
HETATM   10  O   UNL     1      -7.507   5.700  72.762  1.00  0.00    -0.093 OA 
HETATM   11  C   UNL     1      -7.310   6.244  71.539  1.00  0.00    -0.088 C  
HETATM   12  O   UNL     1      -6.244   6.181  70.947  1.00  0.00    -0.036 OA 
ENDBRANCH   8   9
BRANCH   8  13
HETATM   13  C   UNL     1     -10.764   6.778  72.001  1.00  0.00    -0.218 C  
HETATM   14  O   UNL     1     -10.409   6.344  74.331  1.00  0.00    -0.332 OA 
HETATM   15  O   UNL     1     -11.624   4.828  73.165  1.00  0.00    -0.305 OA 
HETATM   16  C   UNL     1     -10.973   5.859  73.200  1.00  0.00    -0.253 C  
ENDBRANCH   8  13
ENDBRANCH   7   8
ENDBRANCH   6   7
ENDBRANCH   5   6
BRANCH   5  17
HETATM   17  C   UNL     1     -10.523   8.881  68.366  1.00  0.00    -0.187 C  
BRANCH  17  18
HETATM   18  C   UNL     1     -10.386   9.238  66.859  1.00  0.00    -0.246 C  
BRANCH  18  19
HETATM   19  N   UNL     1      -9.042   8.926  66.244  1.00  0.00    -0.176 NA 
BRANCH  19  20
HETATM   20  C   UNL     1      -8.445   7.772  67.030  1.00  0.00    -0.124 C  
HETATM   21  O   UNL     1      -8.484   5.360  66.742  1.00  0.00    -0.108 OA 
HETATM   22  O   UNL     1      -8.295   6.664  64.901  1.00  0.00    -0.120 OA 
HETATM   23  C   UNL     1      -8.426   6.469  66.235  1.00  0.00    -0.129 C  
ENDBRANCH  19  20
BRANCH  19  24
HETATM   24  C   UNL     1      -8.139  10.119  66.466  1.00  0.00    -0.121 C  
HETATM   25  C   UNL     1      -7.056  10.252  65.400  1.00  0.00    -0.139 C  
HETATM   26  O   UNL     1      -5.965  10.764  65.594  1.00  0.00    -0.133 OA 
HETATM   27  O   UNL     1      -7.460   9.807  64.186  1.00  0.00    -0.123 OA 
ENDBRANCH  19  24
ENDBRANCH  18  19
ENDBRANCH  17  18
ENDBRANCH   5  17
ENDBRANCH   3   5
TORSDOF 11
ENDMDL
MODEL      351
REMARK 921   NORMALIZED FREE ENERGY PREDICTED BY IDOCK:   -3.17 KCAL/MOL
REMARK 922        TOTAL FREE ENERGY PREDICTED BY IDOCK:   -6.96 KCAL/MOL
REMARK 923 INTER-LIGAND FREE ENERGY PREDICTED BY IDOCK:   -6.56 KCAL/MOL
REMARK 924 INTRA-LIGAND FREE ENERGY PREDICTED BY IDOCK:   -0.40 KCAL/MOL
REMARK 927      BINDING AFFINITY PREDICTED BY RF-SCORE:    0.00 PKD
ROOT
HETATM    1  O   UNL     1      -7.285   8.707  65.638  1.00  0.00    -0.081 OA 
HETATM    2  C   UNL     1      -8.314   9.367  65.056  1.00  0.00    -0.150 C  
HETATM    3  C   UNL     1      -9.415   9.731  66.048  1.00  0.00    -0.211 C  
HETATM    4  O   UNL     1      -8.370   9.600  63.857  1.00  0.00    -0.146 OA 
ENDROOT
BRANCH   3   5
HETATM    5  N   UNL     1      -8.888  10.006  67.430  1.00  0.00    -0.128 NA 
BRANCH   5   6
HETATM    6  C   UNL     1      -8.968  11.481  67.699  1.00  0.00    -0.160 C  
BRANCH   6   7
HETATM    7  C   UNL     1      -9.587  12.315  66.537  1.00  0.00    -0.238 C  
BRANCH   7   8
HETATM    8  N   UNL     1     -10.057  13.701  66.884  1.00  0.00    -0.255 NA 
BRANCH   8   9
HETATM    9  C   UNL     1      -8.874  14.636  66.708  1.00  0.00    -0.241 C  
HETATM   10  O   UNL     1     -10.424  16.403  67.216  1.00  0.00    -0.299 OA 
HETATM   11  C   UNL     1      -9.296  16.094  66.534  1.00  0.00    -0.268 C  
HETATM   12  O   UNL     1      -8.675  16.911  65.873  1.00  0.00    -0.516 OA 
ENDBRANCH   8   9
BRANCH   8  13
HETATM   13  C   UNL     1     -10.413  13.716  68.352  1.00  0.00    -0.246 C  
HETATM   14  O   UNL     1     -12.383  12.513  67.704  1.00  0.00    -0.295 OA 
HETATM   15  O   UNL     1     -12.524  13.825  69.547  1.00  0.00    -0.271 OA 
HETATM   16  C   UNL     1     -11.881  13.391  68.605  1.00  0.00    -0.362 C  
ENDBRANCH   8  13
ENDBRANCH   7   8
ENDBRANCH   6   7
ENDBRANCH   5   6
BRANCH   5  17
HETATM   17  C   UNL     1      -9.755   9.298  68.425  1.00  0.00    -0.154 C  
BRANCH  17  18
HETATM   18  C   UNL     1     -10.111  10.071  69.727  1.00  0.00    -0.248 C  
BRANCH  18  19
HETATM   19  N   UNL     1     -10.345   9.206  70.943  1.00  0.00    -0.255 NA 
BRANCH  19  20
HETATM   20  C   UNL     1      -9.046   8.475  71.232  1.00  0.00    -0.196 C  
HETATM   21  O   UNL     1      -7.713   8.173  73.241  1.00  0.00    -0.148 OA 
HETATM   22  O   UNL     1      -9.969   8.122  73.424  1.00  0.00    -0.224 OA 
HETATM   23  C   UNL     1      -8.817   8.257  72.725  1.00  0.00    -0.239 C  
ENDBRANCH  19  20
BRANCH  19  24
HETATM   24  C   UNL     1     -11.367   8.152  70.576  1.00  0.00    -0.221 C  
HETATM   25  C   UNL     1     -12.616   8.206  71.449  1.00  0.00    -0.283 C  
HETATM   26  O   UNL     1     -13.314   7.238  71.705  1.00  0.00    -0.370 OA 
HETATM   27  O   UNL     1     -12.918   9.463  71.853  1.00  0.00    -0.354 OA 
ENDBRANCH  19  24
ENDBRANCH  18  19
ENDBRANCH  17  18
ENDBRANCH   5  17
ENDBRANCH   3   5
TORSDOF 11
ENDMDL
MODEL      352
REMARK 921   NORMALIZED FREE ENERGY PREDICTED BY IDOCK:   -3.17 KCAL/MOL
REMARK 922        TOTAL FREE ENERGY PREDICTED BY IDOCK:   -6.95 KCAL/MOL
REMARK 923 INTER-LIGAND FREE ENERGY PREDICTED BY IDOCK:   -7.31 KCAL/MOL
REMARK 924 INTRA-LIGAND FREE ENERGY PREDICTED BY IDOCK:    0.36 KCAL/MOL
REMARK 927      BINDING AFFINITY PREDICTED BY RF-SCORE:    0.00 PKD
ROOT
HETATM    1  O   UNL     1     -12.873  12.780  65.190  1.00  0.00    -0.726 OA 
HETATM    2  C   UNL     1     -12.390  12.116  64.114  1.00  0.00    -0.409 C  
HETATM    3  C   UNL     1     -10.922  11.728  64.273  1.00  0.00    -0.359 C  
HETATM    4  O   UNL     1     -13.050  11.897  63.109  1.00  0.00    -0.605 OA 
ENDROOT
BRANCH   3   5
HETATM    5  N   UNL     1     -10.545  11.442  65.701  1.00  0.00    -0.260 NA 
BRANCH   5   6
HETATM    6  C   UNL     1      -9.640  10.244  65.737  1.00  0.00    -0.224 C  
BRANCH   6   7
HETATM    7  C   UNL     1      -8.501  10.330  66.797  1.00  0.00    -0.123 C  
BRANCH   7   8
HETATM    8  N   UNL     1      -8.705   9.544  68.064  1.00  0.00    -0.120 NA 
BRANCH   8   9
HETATM    9  C   UNL     1      -9.500  10.420  69.016  1.00  0.00    -0.197 C  
HETATM   10  O   UNL     1     -11.035   8.573  69.147  1.00  0.00    -0.090 OA 
HETATM   11  C   UNL     1     -10.930   9.920  69.220  1.00  0.00    -0.211 C  
HETATM   12  O   UNL     1     -11.881  10.650  69.452  1.00  0.00    -0.283 OA 
ENDBRANCH   8   9
BRANCH   8  13
HETATM   13  C   UNL     1      -7.351   9.324  68.697  1.00  0.00    -0.076 C  
HETATM   14  O   UNL     1      -7.808   6.985  68.442  1.00  0.00    -0.117 OA 
HETATM   15  O   UNL     1      -6.462   7.600  70.157  1.00  0.00    -0.034 OA 
HETATM   16  C   UNL     1      -7.162   7.898  69.204  1.00  0.00    -0.081 C  
ENDBRANCH   8  13
ENDBRANCH   7   8
ENDBRANCH   6   7
ENDBRANCH   5   6
BRANCH   5  17
HETATM   17  C   UNL     1      -9.792  12.617  66.243  1.00  0.00    -0.262 C  
BRANCH  17  18
HETATM   18  C   UNL     1     -10.547  13.539  67.243  1.00  0.00    -0.263 C  
BRANCH  18  19
HETATM   19  N   UNL     1     -10.110  14.984  67.240  1.00  0.00    -0.235 NA 
BRANCH  19  20
HETATM   20  C   UNL     1     -10.063  15.443  68.687  1.00  0.00    -0.212 C  
HETATM   21  O   UNL     1     -11.773  16.090  70.288  1.00  0.00    -0.338 OA 
HETATM   22  O   UNL     1     -12.204  14.366  68.886  1.00  0.00    -0.281 OA 
HETATM   23  C   UNL     1     -11.426  15.362  69.371  1.00  0.00    -0.324 C  
ENDBRANCH  19  20
BRANCH  19  24
HETATM   24  C   UNL     1     -11.190  15.797  66.560  1.00  0.00     0.023 C  
HETATM   25  C   UNL     1     -10.837  16.171  65.124  1.00  0.00    -0.361 C  
HETATM   26  O   UNL     1     -11.245  17.173  64.559  1.00  0.00    -1.104 OA 
HETATM   27  O   UNL     1     -10.077  15.233  64.510  1.00  0.00    -0.040 OA 
ENDBRANCH  19  24
ENDBRANCH  18  19
ENDBRANCH  17  18
ENDBRANCH   5  17
ENDBRANCH   3   5
TORSDOF 11
ENDMDL
MODEL      353
REMARK 921   NORMALIZED FREE ENERGY PREDICTED BY IDOCK:   -3.17 KCAL/MOL
REMARK 922        TOTAL FREE ENERGY PREDICTED BY IDOCK:   -6.94 KCAL/MOL
REMARK 923 INTER-LIGAND FREE ENERGY PREDICTED BY IDOCK:   -7.06 KCAL/MOL
REMARK 924 INTRA-LIGAND FREE ENERGY PREDICTED BY IDOCK:    0.11 KCAL/MOL
REMARK 927      BINDING AFFINITY PREDICTED BY RF-SCORE:    0.00 PKD
ROOT
HETATM    1  O   UNL     1      -7.352  10.090  68.736  1.00  0.00    -0.074 OA 
HETATM    2  C   UNL     1      -7.815   9.542  67.588  1.00  0.00    -0.102 C  
HETATM    3  C   UNL     1      -9.318   9.275  67.628  1.00  0.00    -0.128 C  
HETATM    4  O   UNL     1      -7.094   9.251  66.645  1.00  0.00    -0.080 OA 
ENDROOT
BRANCH   3   5
HETATM    5  N   UNL     1     -10.066  10.275  68.468  1.00  0.00    -0.159 NA 
BRANCH   5   6
HETATM    6  C   UNL     1      -9.751  10.030  69.915  1.00  0.00    -0.203 C  
BRANCH   6   7
HETATM    7  C   UNL     1     -10.830   9.205  70.678  1.00  0.00    -0.264 C  
BRANCH   7   8
HETATM    8  N   UNL     1     -10.332   8.038  71.487  1.00  0.00    -0.204 NA 
BRANCH   8   9
HETATM    9  C   UNL     1      -8.852   8.264  71.740  1.00  0.00    -0.173 C  
HETATM   10  O   UNL     1      -9.292   7.453  73.960  1.00  0.00    -0.250 OA 
HETATM   11  C   UNL     1      -8.504   8.274  73.227  1.00  0.00    -0.199 C  
HETATM   12  O   UNL     1      -7.595   8.929  73.711  1.00  0.00    -0.400 OA 
ENDBRANCH   8   9
BRANCH   8  13
HETATM   13  C   UNL     1     -10.447   6.798  70.632  1.00  0.00    -0.215 C  
HETATM   14  O   UNL     1     -11.516   5.802  72.533  1.00  0.00    -0.293 OA 
HETATM   15  O   UNL     1     -10.383   4.424  71.135  1.00  0.00    -0.109 OA 
HETATM   16  C   UNL     1     -10.746   5.545  71.448  1.00  0.00    -0.221 C  
ENDBRANCH   8  13
ENDBRANCH   7   8
ENDBRANCH   6   7
ENDBRANCH   5   6
BRANCH   5  17
HETATM   17  C   UNL     1      -9.595  11.651  68.109  1.00  0.00    -0.190 C  
BRANCH  17  18
HETATM   18  C   UNL     1      -9.991  12.189  66.705  1.00  0.00    -0.203 C  
BRANCH  18  19
HETATM   19  N   UNL     1     -11.003  13.311  66.709  1.00  0.00    -0.284 NA 
BRANCH  19  20
HETATM   20  C   UNL     1     -12.013  13.002  67.800  1.00  0.00    -0.295 C  
HETATM   21  O   UNL     1     -12.333  13.835  70.060  1.00  0.00    -0.330 OA 
HETATM   22  O   UNL     1     -11.709  15.297  68.449  1.00  0.00    -0.342 OA 
HETATM   23  C   UNL     1     -12.029  14.061  68.899  1.00  0.00    -0.352 C  
ENDBRANCH  19  20
BRANCH  19  24
HETATM   24  C   UNL     1     -11.753  13.268  65.396  1.00  0.00    -0.343 C  
HETATM   25  C   UNL     1     -11.737  14.602  64.658  1.00  0.00    -0.426 C  
HETATM   26  O   UNL     1     -12.619  14.975  63.901  1.00  0.00    -0.813 OA 
HETATM   27  O   UNL     1     -10.599  15.305  64.872  1.00  0.00    -0.407 OA 
ENDBRANCH  19  24
ENDBRANCH  18  19
ENDBRANCH  17  18
ENDBRANCH   5  17
ENDBRANCH   3   5
TORSDOF 11
ENDMDL
MODEL      354
REMARK 921   NORMALIZED FREE ENERGY PREDICTED BY IDOCK:   -3.15 KCAL/MOL
REMARK 922        TOTAL FREE ENERGY PREDICTED BY IDOCK:   -6.91 KCAL/MOL
REMARK 923 INTER-LIGAND FREE ENERGY PREDICTED BY IDOCK:   -6.83 KCAL/MOL
REMARK 924 INTRA-LIGAND FREE ENERGY PREDICTED BY IDOCK:   -0.08 KCAL/MOL
REMARK 927      BINDING AFFINITY PREDICTED BY RF-SCORE:    0.00 PKD
ROOT
HETATM    1  O   UNL     1     -10.366   8.267  66.873  1.00  0.00    -0.298 OA 
HETATM    2  C   UNL     1      -9.032   8.085  67.008  1.00  0.00    -0.138 C  
HETATM    3  C   UNL     1      -8.273   9.398  67.182  1.00  0.00    -0.113 C  
HETATM    4  O   UNL     1      -8.494   6.988  66.950  1.00  0.00    -0.115 OA 
ENDROOT
BRANCH   3   5
HETATM    5  N   UNL     1      -9.077  10.445  67.904  1.00  0.00    -0.131 NA 
BRANCH   5   6
HETATM    6  C   UNL     1      -9.008  10.183  69.380  1.00  0.00    -0.191 C  
BRANCH   6   7
HETATM    7  C   UNL     1     -10.395   9.990  70.065  1.00  0.00    -0.272 C  
BRANCH   7   8
HETATM    8  N   UNL     1     -10.464   8.955  71.155  1.00  0.00    -0.242 NA 
BRANCH   8   9
HETATM    9  C   UNL     1      -9.128   8.234  71.178  1.00  0.00    -0.162 C  
HETATM   10  O   UNL     1      -9.478   8.039  73.549  1.00  0.00    -0.273 OA 
HETATM   11  C   UNL     1      -8.535   8.137  72.583  1.00  0.00    -0.190 C  
HETATM   12  O   UNL     1      -7.337   8.123  72.819  1.00  0.00    -0.108 OA 
ENDBRANCH   8   9
BRANCH   8  13
HETATM   13  C   UNL     1     -11.506   7.935  70.761  1.00  0.00    -0.263 C  
HETATM   14  O   UNL     1     -13.074   9.374  71.865  1.00  0.00    -0.361 OA 
HETATM   15  O   UNL     1     -13.551   7.159  71.817  1.00  0.00    -0.354 OA 
HETATM   16  C   UNL     1     -12.804   8.086  71.548  1.00  0.00    -0.311 C  
ENDBRANCH   8  13
ENDBRANCH   7   8
ENDBRANCH   6   7
ENDBRANCH   5   6
BRANCH   5  17
HETATM   17  C   UNL     1      -8.469  11.788  67.635  1.00  0.00    -0.149 C  
BRANCH  17  18
HETATM   18  C   UNL     1      -9.404  12.879  67.042  1.00  0.00    -0.235 C  
BRANCH  18  19
HETATM   19  N   UNL     1     -10.728  12.375  66.516  1.00  0.00    -0.232 NA 
BRANCH  19  20
HETATM   20  C   UNL     1     -10.840  12.829  65.071  1.00  0.00    -0.292 C  
HETATM   21  O   UNL     1      -9.769  12.114  63.010  1.00  0.00    -0.347 OA 
HETATM   22  O   UNL     1     -10.354  10.538  64.526  1.00  0.00    -0.348 OA 
HETATM   23  C   UNL     1     -10.251  11.816  64.092  1.00  0.00    -0.322 C  
ENDBRANCH  19  20
BRANCH  19  24
HETATM   24  C   UNL     1     -11.830  13.075  67.280  1.00  0.00    -0.363 C  
HETATM   25  C   UNL     1     -11.590  14.574  67.431  1.00  0.00    -0.385 C  
HETATM   26  O   UNL     1     -12.007  15.242  68.364  1.00  0.00    -0.303 OA 
HETATM   27  O   UNL     1     -10.925  15.106  66.379  1.00  0.00    -0.331 OA 
ENDBRANCH  19  24
ENDBRANCH  18  19
ENDBRANCH  17  18
ENDBRANCH   5  17
ENDBRANCH   3   5
TORSDOF 11
ENDMDL
MODEL      355
REMARK 921   NORMALIZED FREE ENERGY PREDICTED BY IDOCK:   -3.14 KCAL/MOL
REMARK 922        TOTAL FREE ENERGY PREDICTED BY IDOCK:   -6.90 KCAL/MOL
REMARK 923 INTER-LIGAND FREE ENERGY PREDICTED BY IDOCK:   -5.82 KCAL/MOL
REMARK 924 INTRA-LIGAND FREE ENERGY PREDICTED BY IDOCK:   -1.08 KCAL/MOL
REMARK 927      BINDING AFFINITY PREDICTED BY RF-SCORE:    0.00 PKD
ROOT
HETATM    1  O   UNL     1     -10.332   9.257  71.618  1.00  0.00    -0.340 OA 
HETATM    2  C   UNL     1     -10.919   8.432  70.719  1.00  0.00    -0.247 C  
HETATM    3  C   UNL     1     -10.859   8.978  69.294  1.00  0.00    -0.113 C  
HETATM    4  O   UNL     1     -11.474   7.388  71.028  1.00  0.00    -0.268 OA 
ENDROOT
BRANCH   3   5
HETATM    5  N   UNL     1      -9.624   9.797  69.034  1.00  0.00    -0.169 NA 
BRANCH   5   6
HETATM    6  C   UNL     1      -8.593   8.929  68.372  1.00  0.00    -0.134 C  
BRANCH   6   7
HETATM    7  C   UNL     1      -7.891   7.919  69.330  1.00  0.00    -0.115 C  
BRANCH   7   8
HETATM    8  N   UNL     1      -8.229   6.466  69.135  1.00  0.00    -0.111 NA 
BRANCH   8   9
HETATM    9  C   UNL     1      -7.681   5.711  70.333  1.00  0.00    -0.094 C  
HETATM   10  O   UNL     1      -9.801   4.576  70.360  1.00  0.00    -0.206 OA 
HETATM   11  C   UNL     1      -8.773   5.001  71.132  1.00  0.00    -0.128 C  
HETATM   12  O   UNL     1      -8.722   4.809  72.336  1.00  0.00    -0.118 OA 
ENDBRANCH   8   9
BRANCH   8  13
HETATM   13  C   UNL     1      -7.476   5.973  67.923  1.00  0.00    -0.085 C  
HETATM   14  O   UNL     1      -9.626   5.803  66.876  1.00  0.00    -0.129 OA 
HETATM   15  O   UNL     1      -8.011   4.377  66.172  1.00  0.00    -0.098 OA 
HETATM   16  C   UNL     1      -8.380   5.275  66.912  1.00  0.00    -0.107 C  
ENDBRANCH   8  13
ENDBRANCH   7   8
ENDBRANCH   6   7
ENDBRANCH   5   6
BRANCH   5  17
HETATM   17  C   UNL     1      -9.975  10.910  68.096  1.00  0.00    -0.174 C  
BRANCH  17  18
HETATM   18  C   UNL     1     -10.199  12.316  68.722  1.00  0.00    -0.102 C  
BRANCH  18  19
HETATM   19  N   UNL     1     -11.644  12.724  68.883  1.00  0.00    -0.295 NA 
BRANCH  19  20
HETATM   20  C   UNL     1     -11.886  13.900  67.953  1.00  0.00    -0.378 C  
HETATM   21  O   UNL     1     -11.561  14.235  65.568  1.00  0.00    -0.324 OA 
HETATM   22  O   UNL     1     -12.326  12.228  66.282  1.00  0.00    -0.556 OA 
HETATM   23  C   UNL     1     -11.886  13.492  66.482  1.00  0.00    -0.399 C  
ENDBRANCH  19  20
BRANCH  19  24
HETATM   24  C   UNL     1     -11.830  13.238  70.294  1.00  0.00    -0.234 C  
HETATM   25  C   UNL     1     -12.876  12.454  71.079  1.00  0.00    -0.155 C  
HETATM   26  O   UNL     1     -13.550  12.927  71.980  1.00  0.00    -0.478 OA 
HETATM   27  O   UNL     1     -12.930  11.149  70.722  1.00  0.00    -0.262 OA 
ENDBRANCH  19  24
ENDBRANCH  18  19
ENDBRANCH  17  18
ENDBRANCH   5  17
ENDBRANCH   3   5
TORSDOF 11
ENDMDL
MODEL      356
REMARK 921   NORMALIZED FREE ENERGY PREDICTED BY IDOCK:   -3.13 KCAL/MOL
REMARK 922        TOTAL FREE ENERGY PREDICTED BY IDOCK:   -6.89 KCAL/MOL
REMARK 923 INTER-LIGAND FREE ENERGY PREDICTED BY IDOCK:   -7.01 KCAL/MOL
REMARK 924 INTRA-LIGAND FREE ENERGY PREDICTED BY IDOCK:    0.12 KCAL/MOL
REMARK 927      BINDING AFFINITY PREDICTED BY RF-SCORE:    0.00 PKD
ROOT
HETATM    1  O   UNL     1      -9.480  10.441  69.809  1.00  0.00    -0.154 OA 
HETATM    2  C   UNL     1     -10.666   9.941  70.226  1.00  0.00    -0.310 C  
HETATM    3  C   UNL     1     -11.859  10.640  69.579  1.00  0.00    -0.273 C  
HETATM    4  O   UNL     1     -10.765   9.057  71.065  1.00  0.00    -0.226 OA 
ENDROOT
BRANCH   3   5
HETATM    5  N   UNL     1     -11.569  11.117  68.181  1.00  0.00    -0.477 NA 
BRANCH   5   6
HETATM    6  C   UNL     1     -11.444  12.613  68.192  1.00  0.00    -0.313 C  
BRANCH   6   7
HETATM    7  C   UNL     1     -11.635  13.284  66.798  1.00  0.00    -0.365 C  
BRANCH   7   8
HETATM    8  N   UNL     1     -10.672  14.386  66.449  1.00  0.00    -0.301 NA 
BRANCH   8   9
HETATM    9  C   UNL     1     -10.901  14.740  64.990  1.00  0.00    -0.425 C  
HETATM   10  O   UNL     1     -10.314  16.983  65.628  1.00  0.00    -0.542 OA 
HETATM   11  C   UNL     1     -11.049  16.244  64.765  1.00  0.00    -0.281 C  
HETATM   12  O   UNL     1     -11.736  16.738  63.884  1.00  0.00    -1.076 OA 
ENDBRANCH   8   9
BRANCH   8  13
HETATM   13  C   UNL     1      -9.272  13.829  66.551  1.00  0.00    -0.192 C  
HETATM   14  O   UNL     1      -8.936  15.468  68.268  1.00  0.00    -0.179 OA 
HETATM   15  O   UNL     1      -7.121  14.831  67.070  1.00  0.00    -0.144 OA 
HETATM   16  C   UNL     1      -8.319  14.763  67.291  1.00  0.00    -0.212 C  
ENDBRANCH   8  13
ENDBRANCH   7   8
ENDBRANCH   6   7
ENDBRANCH   5   6
BRANCH   5  17
HETATM   17  C   UNL     1     -10.260  10.538  67.739  1.00  0.00    -0.190 C  
BRANCH  17  18
HETATM   18  C   UNL     1     -10.260   9.724  66.414  1.00  0.00    -0.217 C  
BRANCH  18  19
HETATM   19  N   UNL     1      -9.053   8.841  66.203  1.00  0.00    -0.188 NA 
BRANCH  19  20
HETATM   20  C   UNL     1      -8.661   8.958  64.741  1.00  0.00    -0.158 C  
HETATM   21  O   UNL     1      -6.852  10.099  63.585  1.00  0.00    -0.130 OA 
HETATM   22  O   UNL     1      -6.406   9.099  65.566  1.00  0.00    -0.065 OA 
HETATM   23  C   UNL     1      -7.232   9.463  64.557  1.00  0.00    -0.105 C  
ENDBRANCH  19  20
BRANCH  19  24
HETATM   24  C   UNL     1      -9.478   7.407  66.426  1.00  0.00    -0.134 C  
HETATM   25  C   UNL     1      -8.680   6.714  67.526  1.00  0.00    -0.118 C  
HETATM   26  O   UNL     1      -8.465   5.513  67.561  1.00  0.00    -0.107 OA 
HETATM   27  O   UNL     1      -8.293   7.564  68.506  1.00  0.00    -0.124 OA 
ENDBRANCH  19  24
ENDBRANCH  18  19
ENDBRANCH  17  18
ENDBRANCH   5  17
ENDBRANCH   3   5
TORSDOF 11
ENDMDL
MODEL      357
REMARK 921   NORMALIZED FREE ENERGY PREDICTED BY IDOCK:   -3.13 KCAL/MOL
REMARK 922        TOTAL FREE ENERGY PREDICTED BY IDOCK:   -6.89 KCAL/MOL
REMARK 923 INTER-LIGAND FREE ENERGY PREDICTED BY IDOCK:   -5.30 KCAL/MOL
REMARK 924 INTRA-LIGAND FREE ENERGY PREDICTED BY IDOCK:   -1.59 KCAL/MOL
REMARK 927      BINDING AFFINITY PREDICTED BY RF-SCORE:    0.00 PKD
ROOT
HETATM    1  O   UNL     1     -10.656   5.442  70.168  1.00  0.00    -0.296 OA 
HETATM    2  C   UNL     1     -11.378   6.587  70.175  1.00  0.00    -0.402 C  
HETATM    3  C   UNL     1     -10.761   7.677  69.303  1.00  0.00    -0.161 C  
HETATM    4  O   UNL     1     -12.389   6.739  70.846  1.00  0.00    -0.381 OA 
ENDROOT
BRANCH   3   5
HETATM    5  N   UNL     1     -10.033   7.125  68.107  1.00  0.00    -0.147 NA 
BRANCH   5   6
HETATM    6  C   UNL     1     -11.038   6.685  67.083  1.00  0.00    -0.357 C  
BRANCH   6   7
HETATM    7  C   UNL     1     -10.785   5.260  66.503  1.00  0.00    -0.221 C  
BRANCH   7   8
HETATM    8  N   UNL     1      -9.370   4.753  66.570  1.00  0.00    -0.135 NA 
BRANCH   8   9
HETATM    9  C   UNL     1      -9.026   4.194  65.200  1.00  0.00    -0.135 C  
HETATM   10  O   UNL     1      -7.031   5.526  65.357  1.00  0.00    -0.061 OA 
HETATM   11  C   UNL     1      -7.929   4.992  64.497  1.00  0.00    -0.106 C  
HETATM   12  O   UNL     1      -7.848   5.120  63.285  1.00  0.00    -0.071 OA 
ENDBRANCH   8   9
BRANCH   8  13
HETATM   13  C   UNL     1      -9.338   3.593  67.537  1.00  0.00    -0.202 C  
HETATM   14  O   UNL     1      -7.695   4.866  68.732  1.00  0.00    -0.075 OA 
HETATM   15  O   UNL     1      -7.578   2.609  68.890  1.00  0.00    -0.047 OA 
HETATM   16  C   UNL     1      -8.106   3.611  68.436  1.00  0.00    -0.070 C  
ENDBRANCH   8  13
ENDBRANCH   7   8
ENDBRANCH   6   7
ENDBRANCH   5   6
BRANCH   5  17
HETATM   17  C   UNL     1      -9.197   8.215  67.509  1.00  0.00    -0.137 C  
BRANCH  17  18
HETATM   18  C   UNL     1      -9.910   9.197  66.537  1.00  0.00    -0.264 C  
BRANCH  18  19
HETATM   19  N   UNL     1      -9.514  10.647  66.685  1.00  0.00    -0.165 NA 
BRANCH  19  20
HETATM   20  C   UNL     1     -10.237  11.424  65.600  1.00  0.00    -0.251 C  
HETATM   21  O   UNL     1     -12.214  12.838  65.596  1.00  0.00    -0.451 OA 
HETATM   22  O   UNL     1     -10.799  12.964  67.359  1.00  0.00    -0.244 OA 
HETATM   23  C   UNL     1     -11.201  12.463  66.167  1.00  0.00    -0.322 C  
ENDBRANCH  19  20
BRANCH  19  24
HETATM   24  C   UNL     1      -8.034  10.759  66.389  1.00  0.00    -0.151 C  
HETATM   25  C   UNL     1      -7.330  11.794  67.259  1.00  0.00    -0.141 C  
HETATM   26  O   UNL     1      -6.338  12.416  66.914  1.00  0.00    -0.169 OA 
HETATM   27  O   UNL     1      -7.878  11.900  68.493  1.00  0.00    -0.134 OA 
ENDBRANCH  19  24
ENDBRANCH  18  19
ENDBRANCH  17  18
ENDBRANCH   5  17
ENDBRANCH   3   5
TORSDOF 11
ENDMDL
MODEL      358
REMARK 921   NORMALIZED FREE ENERGY PREDICTED BY IDOCK:   -3.13 KCAL/MOL
REMARK 922        TOTAL FREE ENERGY PREDICTED BY IDOCK:   -6.88 KCAL/MOL
REMARK 923 INTER-LIGAND FREE ENERGY PREDICTED BY IDOCK:   -6.94 KCAL/MOL
REMARK 924 INTRA-LIGAND FREE ENERGY PREDICTED BY IDOCK:    0.06 KCAL/MOL
REMARK 927      BINDING AFFINITY PREDICTED BY RF-SCORE:    0.00 PKD
ROOT
HETATM    1  O   UNL     1     -13.722   7.312  71.190  1.00  0.00    -0.317 OA 
HETATM    2  C   UNL     1     -13.489   8.240  72.147  1.00  0.00    -0.269 C  
HETATM    3  C   UNL     1     -12.040   8.239  72.628  1.00  0.00    -0.263 C  
HETATM    4  O   UNL     1     -14.360   8.966  72.605  1.00  0.00    -0.613 OA 
ENDROOT
BRANCH   3   5
HETATM    5  N   UNL     1     -11.067   7.854  71.546  1.00  0.00    -0.237 NA 
BRANCH   5   6
HETATM    6  C   UNL     1     -11.351   6.445  71.113  1.00  0.00    -0.319 C  
BRANCH   6   7
HETATM    7  C   UNL     1     -10.812   6.087  69.694  1.00  0.00    -0.369 C  
BRANCH   7   8
HETATM    8  N   UNL     1      -9.373   5.655  69.615  1.00  0.00    -0.135 NA 
BRANCH   8   9
HETATM    9  C   UNL     1      -9.113   4.735  70.795  1.00  0.00    -0.130 C  
HETATM   10  O   UNL     1      -8.951   2.980  69.160  1.00  0.00    -0.093 OA 
HETATM   11  C   UNL     1      -9.287   3.259  70.441  1.00  0.00    -0.167 C  
HETATM   12  O   UNL     1      -9.665   2.408  71.230  1.00  0.00    -0.150 OA 
ENDBRANCH   8   9
BRANCH   8  13
HETATM   13  C   UNL     1      -8.510   6.878  69.813  1.00  0.00    -0.133 C  
HETATM   14  O   UNL     1      -7.405   6.207  67.794  1.00  0.00    -0.080 OA 
HETATM   15  O   UNL     1      -6.185   7.367  69.311  1.00  0.00    -0.030 OA 
HETATM   16  C   UNL     1      -7.234   6.840  68.979  1.00  0.00    -0.091 C  
ENDBRANCH   8  13
ENDBRANCH   7   8
ENDBRANCH   6   7
ENDBRANCH   5   6
BRANCH   5  17
HETATM   17  C   UNL     1     -11.273   8.759  70.371  1.00  0.00    -0.223 C  
BRANCH  17  18
HETATM   18  C   UNL     1     -10.462  10.085  70.352  1.00  0.00    -0.240 C  
BRANCH  18  19
HETATM   19  N   UNL     1     -11.201  11.283  69.804  1.00  0.00    -0.247 NA 
BRANCH  19  20
HETATM   20  C   UNL     1     -12.523  11.374  70.547  1.00  0.00    -0.293 C  
HETATM   21  O   UNL     1     -13.369  12.864  72.270  1.00  0.00    -0.534 OA 
HETATM   22  O   UNL     1     -12.086  13.737  70.622  1.00  0.00    -0.335 OA 
HETATM   23  C   UNL     1     -12.705  12.713  71.256  1.00  0.00    -0.257 C  
ENDBRANCH  19  20
BRANCH  19  24
HETATM   24  C   UNL     1     -11.534  11.004  68.355  1.00  0.00    -0.308 C  
HETATM   25  C   UNL     1     -11.320  12.214  67.452  1.00  0.00    -0.326 C  
HETATM   26  O   UNL     1     -11.947  12.419  66.425  1.00  0.00    -0.559 OA 
HETATM   27  O   UNL     1     -10.305  13.006  67.870  1.00  0.00    -0.221 OA 
ENDBRANCH  19  24
ENDBRANCH  18  19
ENDBRANCH  17  18
ENDBRANCH   5  17
ENDBRANCH   3   5
TORSDOF 11
ENDMDL
MODEL      359
REMARK 921   NORMALIZED FREE ENERGY PREDICTED BY IDOCK:   -3.13 KCAL/MOL
REMARK 922        TOTAL FREE ENERGY PREDICTED BY IDOCK:   -6.88 KCAL/MOL
REMARK 923 INTER-LIGAND FREE ENERGY PREDICTED BY IDOCK:   -5.76 KCAL/MOL
REMARK 924 INTRA-LIGAND FREE ENERGY PREDICTED BY IDOCK:   -1.11 KCAL/MOL
REMARK 927      BINDING AFFINITY PREDICTED BY RF-SCORE:    0.00 PKD
ROOT
HETATM    1  O   UNL     1      -6.026   9.391  69.787  1.00  0.00    -0.035 OA 
HETATM    2  C   UNL     1      -6.339   8.840  68.591  1.00  0.00    -0.053 C  
HETATM    3  C   UNL     1      -7.845   8.690  68.389  1.00  0.00    -0.105 C  
HETATM    4  O   UNL     1      -5.501   8.463  67.785  1.00  0.00    -0.034 OA 
ENDROOT
BRANCH   3   5
HETATM    5  N   UNL     1      -8.636   9.772  69.073  1.00  0.00    -0.137 NA 
BRANCH   5   6
HETATM    6  C   UNL     1      -8.492  11.048  68.294  1.00  0.00    -0.138 C  
BRANCH   6   7
HETATM    7  C   UNL     1      -9.246  11.058  66.930  1.00  0.00    -0.155 C  
BRANCH   7   8
HETATM    8  N   UNL     1     -10.462  11.940  66.844  1.00  0.00    -0.217 NA 
BRANCH   8   9
HETATM    9  C   UNL     1     -10.339  12.755  65.568  1.00  0.00    -0.284 C  
HETATM   10  O   UNL     1     -10.983  10.737  64.430  1.00  0.00    -0.124 OA 
HETATM   11  C   UNL     1     -10.271  11.882  64.316  1.00  0.00    -0.311 C  
HETATM   12  O   UNL     1      -9.661  12.188  63.303  1.00  0.00    -0.370 OA 
ENDBRANCH   8   9
BRANCH   8  13
HETATM   13  C   UNL     1     -10.409  12.916  67.995  1.00  0.00    -0.227 C  
HETATM   14  O   UNL     1     -12.442  11.882  68.732  1.00  0.00    -0.138 OA 
HETATM   15  O   UNL     1     -12.123  14.057  69.283  1.00  0.00    -0.333 OA 
HETATM   16  C   UNL     1     -11.744  13.042  68.722  1.00  0.00    -0.324 C  
ENDBRANCH   8  13
ENDBRANCH   7   8
ENDBRANCH   6   7
ENDBRANCH   5   6
BRANCH   5  17
HETATM   17  C   UNL     1     -10.082   9.382  69.074  1.00  0.00    -0.194 C  
BRANCH  17  18
HETATM   18  C   UNL     1     -10.451   8.043  69.774  1.00  0.00    -0.227 C  
BRANCH  18  19
HETATM   19  N   UNL     1     -10.836   8.164  71.229  1.00  0.00    -0.232 NA 
BRANCH  19  20
HETATM   20  C   UNL     1     -11.257   9.603  71.465  1.00  0.00    -0.307 C  
HETATM   21  O   UNL     1     -13.408  10.736  71.449  1.00  0.00    -0.310 OA 
HETATM   22  O   UNL     1     -13.291   8.653  72.329  1.00  0.00    -0.370 OA 
HETATM   23  C   UNL     1     -12.756   9.739  71.723  1.00  0.00    -0.426 C  
ENDBRANCH  19  20
BRANCH  19  24
HETATM   24  C   UNL     1      -9.594   7.931  72.061  1.00  0.00    -0.186 C  
HETATM   25  C   UNL     1      -9.756   6.796  73.066  1.00  0.00    -0.162 C  
HETATM   26  O   UNL     1      -9.160   6.734  74.130  1.00  0.00    -0.164 OA 
HETATM   27  O   UNL     1     -10.579   5.817  72.622  1.00  0.00    -0.201 OA 
ENDBRANCH  19  24
ENDBRANCH  18  19
ENDBRANCH  17  18
ENDBRANCH   5  17
ENDBRANCH   3   5
TORSDOF 11
ENDMDL
MODEL      360
REMARK 921   NORMALIZED FREE ENERGY PREDICTED BY IDOCK:   -3.12 KCAL/MOL
REMARK 922        TOTAL FREE ENERGY PREDICTED BY IDOCK:   -6.88 KCAL/MOL
REMARK 923 INTER-LIGAND FREE ENERGY PREDICTED BY IDOCK:   -6.96 KCAL/MOL
REMARK 924 INTRA-LIGAND FREE ENERGY PREDICTED BY IDOCK:    0.09 KCAL/MOL
REMARK 927      BINDING AFFINITY PREDICTED BY RF-SCORE:    0.00 PKD
ROOT
HETATM    1  O   UNL     1     -12.760  13.825  64.677  1.00  0.00    -0.644 OA 
HETATM    2  C   UNL     1     -12.246  12.586  64.496  1.00  0.00    -0.453 C  
HETATM    3  C   UNL     1     -11.146  12.252  65.501  1.00  0.00    -0.307 C  
HETATM    4  O   UNL     1     -12.597  11.838  63.594  1.00  0.00    -0.470 OA 
ENDROOT
BRANCH   3   5
HETATM    5  N   UNL     1     -11.358  12.910  66.838  1.00  0.00    -0.296 NA 
BRANCH   5   6
HETATM    6  C   UNL     1     -11.683  11.855  67.855  1.00  0.00    -0.298 C  
BRANCH   6   7
HETATM    7  C   UNL     1     -10.620  11.701  68.984  1.00  0.00    -0.153 C  
BRANCH   7   8
HETATM    8  N   UNL     1     -10.023  10.331  69.157  1.00  0.00    -0.211 NA 
BRANCH   8   9
HETATM    9  C   UNL     1      -8.664  10.342  68.479  1.00  0.00    -0.135 C  
HETATM   10  O   UNL     1      -7.820   9.475  70.556  1.00  0.00    -0.154 OA 
HETATM   11  C   UNL     1      -7.509  10.222  69.471  1.00  0.00    -0.142 C  
HETATM   12  O   UNL     1      -6.408  10.723  69.302  1.00  0.00    -0.050 OA 
ENDBRANCH   8   9
BRANCH   8  13
HETATM   13  C   UNL     1     -10.884   9.350  68.398  1.00  0.00    -0.109 C  
HETATM   14  O   UNL     1     -10.236   7.759  70.070  1.00  0.00    -0.202 OA 
HETATM   15  O   UNL     1     -10.725   6.958  68.008  1.00  0.00    -0.211 OA 
HETATM   16  C   UNL     1     -10.595   7.900  68.773  1.00  0.00    -0.127 C  
ENDBRANCH   8  13
ENDBRANCH   7   8
ENDBRANCH   6   7
ENDBRANCH   5   6
BRANCH   5  17
HETATM   17  C   UNL     1     -10.085  13.584  67.248  1.00  0.00    -0.235 C  
BRANCH  17  18
HETATM   18  C   UNL     1      -9.984  15.115  66.994  1.00  0.00    -0.241 C  
BRANCH  18  19
HETATM   19  N   UNL     1      -9.248  15.895  68.058  1.00  0.00    -0.192 NA 
BRANCH  19  20
HETATM   20  C   UNL     1      -9.571  15.250  69.394  1.00  0.00    -0.244 C  
HETATM   21  O   UNL     1     -11.054  15.854  71.222  1.00  0.00    -0.295 OA 
HETATM   22  O   UNL     1     -11.756  16.212  69.100  1.00  0.00    -0.327 OA 
HETATM   23  C   UNL     1     -10.848  15.807  70.019  1.00  0.00    -0.342 C  
ENDBRANCH  19  20
BRANCH  19  24
HETATM   24  C   UNL     1      -9.827  17.292  68.096  1.00  0.00    -0.290 C  
HETATM   25  C   UNL     1      -8.767  18.380  67.956  1.00  0.00    -0.287 C  
HETATM   26  O   UNL     1      -8.868  19.498  68.435  1.00  0.00    -0.336 OA 
HETATM   27  O   UNL     1      -7.727  17.999  67.177  1.00  0.00    -0.210 OA 
ENDBRANCH  19  24
ENDBRANCH  18  19
ENDBRANCH  17  18
ENDBRANCH   5  17
ENDBRANCH   3   5
TORSDOF 11
ENDMDL
MODEL      361
REMARK 921   NORMALIZED FREE ENERGY PREDICTED BY IDOCK:   -3.12 KCAL/MOL
REMARK 922        TOTAL FREE ENERGY PREDICTED BY IDOCK:   -6.87 KCAL/MOL
REMARK 923 INTER-LIGAND FREE ENERGY PREDICTED BY IDOCK:   -6.66 KCAL/MOL
REMARK 924 INTRA-LIGAND FREE ENERGY PREDICTED BY IDOCK:   -0.21 KCAL/MOL
REMARK 927      BINDING AFFINITY PREDICTED BY RF-SCORE:    0.00 PKD
ROOT
HETATM    1  O   UNL     1     -12.999  12.875  65.087  1.00  0.00    -0.758 OA 
HETATM    2  C   UNL     1     -12.407  12.330  64.000  1.00  0.00    -0.475 C  
HETATM    3  C   UNL     1     -10.910  12.106  64.195  1.00  0.00    -0.360 C  
HETATM    4  O   UNL     1     -13.004  12.088  62.960  1.00  0.00    -0.540 OA 
ENDROOT
BRANCH   3   5
HETATM    5  N   UNL     1     -10.548  11.791  65.621  1.00  0.00    -0.260 NA 
BRANCH   5   6
HETATM    6  C   UNL     1      -9.690  10.559  65.647  1.00  0.00    -0.234 C  
BRANCH   6   7
HETATM    7  C   UNL     1      -8.533  10.603  66.691  1.00  0.00    -0.137 C  
BRANCH   7   8
HETATM    8  N   UNL     1      -8.636   9.641  67.844  1.00  0.00    -0.122 NA 
BRANCH   8   9
HETATM    9  C   UNL     1      -9.418  10.337  68.944  1.00  0.00    -0.188 C  
HETATM   10  O   UNL     1     -10.676   8.294  69.094  1.00  0.00    -0.196 OA 
HETATM   11  C   UNL     1     -10.737   9.635  69.263  1.00  0.00    -0.226 C  
HETATM   12  O   UNL     1     -11.740  10.211  69.654  1.00  0.00    -0.195 OA 
ENDBRANCH   8   9
BRANCH   8  13
HETATM   13  C   UNL     1      -7.242   9.407  68.378  1.00  0.00    -0.076 C  
HETATM   14  O   UNL     1      -7.642   7.092  67.900  1.00  0.00    -0.105 OA 
HETATM   15  O   UNL     1      -6.220   7.573  69.598  1.00  0.00    -0.030 OA 
HETATM   16  C   UNL     1      -6.982   7.943  68.720  1.00  0.00    -0.066 C  
ENDBRANCH   8  13
ENDBRANCH   7   8
ENDBRANCH   6   7
ENDBRANCH   5   6
BRANCH   5  17
HETATM   17  C   UNL     1      -9.753  12.931  66.178  1.00  0.00    -0.248 C  
BRANCH  17  18
HETATM   18  C   UNL     1     -10.492  13.904  67.140  1.00  0.00    -0.269 C  
BRANCH  18  19
HETATM   19  N   UNL     1     -10.038  13.853  68.579  1.00  0.00    -0.236 NA 
BRANCH  19  20
HETATM   20  C   UNL     1     -11.285  13.859  69.445  1.00  0.00    -0.224 C  
HETATM   21  O   UNL     1     -12.607  15.631  70.454  1.00  0.00    -0.426 OA 
HETATM   22  O   UNL     1     -11.772  15.957  68.376  1.00  0.00    -0.358 OA 
HETATM   23  C   UNL     1     -11.950  15.232  69.505  1.00  0.00    -0.330 C  
ENDBRANCH  19  20
BRANCH  19  24
HETATM   24  C   UNL     1      -9.293  15.135  68.880  1.00  0.00    -0.207 C  
HETATM   25  C   UNL     1      -7.823  14.904  69.213  1.00  0.00    -0.158 C  
HETATM   26  O   UNL     1      -7.165  15.630  69.941  1.00  0.00    -0.134 OA 
HETATM   27  O   UNL     1      -7.297  13.844  68.553  1.00  0.00    -0.102 OA 
ENDBRANCH  19  24
ENDBRANCH  18  19
ENDBRANCH  17  18
ENDBRANCH   5  17
ENDBRANCH   3   5
TORSDOF 11
ENDMDL
MODEL      362
REMARK 921   NORMALIZED FREE ENERGY PREDICTED BY IDOCK:   -3.12 KCAL/MOL
REMARK 922        TOTAL FREE ENERGY PREDICTED BY IDOCK:   -6.86 KCAL/MOL
REMARK 923 INTER-LIGAND FREE ENERGY PREDICTED BY IDOCK:   -5.64 KCAL/MOL
REMARK 924 INTRA-LIGAND FREE ENERGY PREDICTED BY IDOCK:   -1.22 KCAL/MOL
REMARK 927      BINDING AFFINITY PREDICTED BY RF-SCORE:    0.00 PKD
ROOT
HETATM    1  O   UNL     1      -9.716   4.848  67.589  1.00  0.00    -0.144 OA 
HETATM    2  C   UNL     1      -8.596   5.490  67.996  1.00  0.00    -0.100 C  
HETATM    3  C   UNL     1      -8.609   6.975  67.642  1.00  0.00    -0.122 C  
HETATM    4  O   UNL     1      -7.661   4.927  68.544  1.00  0.00    -0.076 OA 
ENDROOT
BRANCH   3   5
HETATM    5  N   UNL     1      -9.993   7.566  67.653  1.00  0.00    -0.160 NA 
BRANCH   5   6
HETATM    6  C   UNL     1     -10.191   8.324  68.934  1.00  0.00    -0.210 C  
BRANCH   6   7
HETATM    7  C   UNL     1      -8.914   8.431  69.821  1.00  0.00    -0.146 C  
BRANCH   7   8
HETATM    8  N   UNL     1      -8.981   7.770  71.172  1.00  0.00    -0.136 NA 
BRANCH   8   9
HETATM    9  C   UNL     1      -7.615   7.168  71.447  1.00  0.00    -0.088 C  
HETATM   10  O   UNL     1      -7.389   8.891  73.109  1.00  0.00    -0.355 OA 
HETATM   11  C   UNL     1      -6.708   8.104  72.243  1.00  0.00    -0.077 C  
HETATM   12  O   UNL     1      -5.492   8.131  72.136  1.00  0.00    -0.035 OA 
ENDBRANCH   8   9
BRANCH   8  13
HETATM   13  C   UNL     1      -9.957   6.621  71.078  1.00  0.00    -0.183 C  
HETATM   14  O   UNL     1     -11.223   7.793  72.742  1.00  0.00    -0.354 OA 
HETATM   15  O   UNL     1     -11.401   5.534  72.699  1.00  0.00    -0.282 OA 
HETATM   16  C   UNL     1     -10.916   6.564  72.262  1.00  0.00    -0.249 C  
ENDBRANCH   8  13
ENDBRANCH   7   8
ENDBRANCH   6   7
ENDBRANCH   5   6
BRANCH   5  17
HETATM   17  C   UNL     1     -10.113   8.529  66.512  1.00  0.00    -0.258 C  
BRANCH  17  18
HETATM   18  C   UNL     1      -9.158   9.756  66.522  1.00  0.00    -0.153 C  
BRANCH  18  19
HETATM   19  N   UNL     1      -9.841  11.103  66.524  1.00  0.00    -0.203 NA 
BRANCH  19  20
HETATM   20  C   UNL     1     -11.279  10.877  66.958  1.00  0.00    -0.137 C  
HETATM   21  O   UNL     1     -12.407  10.980  69.108  1.00  0.00    -0.451 OA 
HETATM   22  O   UNL     1     -10.812  12.520  68.651  1.00  0.00    -0.235 OA 
HETATM   23  C   UNL     1     -11.564  11.435  68.350  1.00  0.00    -0.315 C  
ENDBRANCH  19  20
BRANCH  19  24
HETATM   24  C   UNL     1      -9.891  11.603  65.097  1.00  0.00    -0.249 C  
HETATM   25  C   UNL     1     -10.307  13.067  64.994  1.00  0.00    -0.318 C  
HETATM   26  O   UNL     1     -10.887  13.546  64.033  1.00  0.00    -0.308 OA 
HETATM   27  O   UNL     1      -9.897  13.803  66.053  1.00  0.00    -0.297 OA 
ENDBRANCH  19  24
ENDBRANCH  18  19
ENDBRANCH  17  18
ENDBRANCH   5  17
ENDBRANCH   3   5
TORSDOF 11
ENDMDL
MODEL      363
REMARK 921   NORMALIZED FREE ENERGY PREDICTED BY IDOCK:   -3.12 KCAL/MOL
REMARK 922        TOTAL FREE ENERGY PREDICTED BY IDOCK:   -6.86 KCAL/MOL
REMARK 923 INTER-LIGAND FREE ENERGY PREDICTED BY IDOCK:   -5.87 KCAL/MOL
REMARK 924 INTRA-LIGAND FREE ENERGY PREDICTED BY IDOCK:   -0.99 KCAL/MOL
REMARK 927      BINDING AFFINITY PREDICTED BY RF-SCORE:    0.00 PKD
ROOT
HETATM    1  O   UNL     1      -5.898  14.017  67.377  1.00  0.00    -0.352 OA 
HETATM    2  C   UNL     1      -6.028  13.758  68.699  1.00  0.00    -0.087 C  
HETATM    3  C   UNL     1      -7.400  13.188  69.054  1.00  0.00     0.050 C  
HETATM    4  O   UNL     1      -5.156  13.998  69.521  1.00  0.00    -0.084 OA 
ENDROOT
BRANCH   3   5
HETATM    5  N   UNL     1      -7.989  12.353  67.950  1.00  0.00    -0.142 NA 
BRANCH   5   6
HETATM    6  C   UNL     1      -8.033  10.919  68.393  1.00  0.00    -0.127 C  
BRANCH   6   7
HETATM    7  C   UNL     1      -7.062   9.977  67.619  1.00  0.00    -0.087 C  
BRANCH   7   8
HETATM    8  N   UNL     1      -7.695   8.850  66.849  1.00  0.00    -0.097 NA 
BRANCH   8   9
HETATM    9  C   UNL     1      -9.127   9.258  66.548  1.00  0.00    -0.154 C  
HETATM   10  O   UNL     1      -8.653   8.589  64.288  1.00  0.00    -0.108 OA 
HETATM   11  C   UNL     1      -9.389   9.428  65.053  1.00  0.00    -0.191 C  
HETATM   12  O   UNL     1     -10.195  10.218  64.587  1.00  0.00    -0.322 OA 
ENDBRANCH   8   9
BRANCH   8  13
HETATM   13  C   UNL     1      -7.764   7.647  67.759  1.00  0.00    -0.122 C  
HETATM   14  O   UNL     1      -6.061   6.710  66.355  1.00  0.00    -0.031 OA 
HETATM   15  O   UNL     1      -7.469   5.265  67.387  1.00  0.00    -0.081 OA 
HETATM   16  C   UNL     1      -7.116   6.408  67.148  1.00  0.00    -0.073 C  
ENDBRANCH   8  13
ENDBRANCH   7   8
ENDBRANCH   6   7
ENDBRANCH   5   6
BRANCH   5  17
HETATM   17  C   UNL     1      -9.392  12.811  67.697  1.00  0.00    -0.191 C  
BRANCH  17  18
HETATM   18  C   UNL     1      -9.679  13.479  66.323  1.00  0.00    -0.277 C  
BRANCH  18  19
HETATM   19  N   UNL     1     -10.089  14.931  66.387  1.00  0.00    -0.273 NA 
BRANCH  19  20
HETATM   20  C   UNL     1     -10.920  15.220  65.150  1.00  0.00    -0.416 C  
HETATM   21  O   UNL     1     -12.722  14.030  64.036  1.00  0.00    -0.654 OA 
HETATM   22  O   UNL     1     -12.672  14.040  66.299  1.00  0.00    -0.414 OA 
HETATM   23  C   UNL     1     -12.181  14.363  65.079  1.00  0.00    -0.414 C  
ENDBRANCH  19  20
BRANCH  19  24
HETATM   24  C   UNL     1      -8.837  15.774  66.279  1.00  0.00    -0.343 C  
HETATM   25  C   UNL     1      -9.128  17.271  66.258  1.00  0.00    -0.215 C  
HETATM   26  O   UNL     1      -8.423  18.096  65.700  1.00  0.00    -0.357 OA 
HETATM   27  O   UNL     1     -10.218  17.603  66.989  1.00  0.00    -0.309 OA 
ENDBRANCH  19  24
ENDBRANCH  18  19
ENDBRANCH  17  18
ENDBRANCH   5  17
ENDBRANCH   3   5
TORSDOF 11
ENDMDL
MODEL      364
REMARK 921   NORMALIZED FREE ENERGY PREDICTED BY IDOCK:   -3.11 KCAL/MOL
REMARK 922        TOTAL FREE ENERGY PREDICTED BY IDOCK:   -6.85 KCAL/MOL
REMARK 923 INTER-LIGAND FREE ENERGY PREDICTED BY IDOCK:   -6.02 KCAL/MOL
REMARK 924 INTRA-LIGAND FREE ENERGY PREDICTED BY IDOCK:   -0.83 KCAL/MOL
REMARK 927      BINDING AFFINITY PREDICTED BY RF-SCORE:    0.00 PKD
ROOT
HETATM    1  O   UNL     1      -8.508   9.384  71.294  1.00  0.00    -0.302 OA 
HETATM    2  C   UNL     1      -9.840   9.150  71.351  1.00  0.00    -0.284 C  
HETATM    3  C   UNL     1     -10.622   9.942  70.306  1.00  0.00    -0.301 C  
HETATM    4  O   UNL     1     -10.358   8.417  72.181  1.00  0.00    -0.271 OA 
ENDROOT
BRANCH   3   5
HETATM    5  N   UNL     1      -9.841  10.168  69.040  1.00  0.00    -0.194 NA 
BRANCH   5   6
HETATM    6  C   UNL     1     -10.175   9.082  68.059  1.00  0.00    -0.212 C  
BRANCH   6   7
HETATM    7  C   UNL     1      -9.040   8.764  67.039  1.00  0.00    -0.133 C  
BRANCH   7   8
HETATM    8  N   UNL     1      -8.232   7.522  67.303  1.00  0.00    -0.114 NA 
BRANCH   8   9
HETATM    9  C   UNL     1      -9.202   6.438  67.740  1.00  0.00    -0.112 C  
HETATM   10  O   UNL     1      -7.835   4.945  66.442  1.00  0.00    -0.097 OA 
HETATM   11  C   UNL     1      -9.092   5.173  66.890  1.00  0.00    -0.116 C  
HETATM   12  O   UNL     1     -10.028   4.425  66.656  1.00  0.00    -0.216 OA 
ENDBRANCH   8   9
BRANCH   8  13
HETATM   13  C   UNL     1      -7.326   7.800  68.480  1.00  0.00    -0.091 C  
HETATM   14  O   UNL     1      -5.522   7.319  66.976  1.00  0.00    -0.021 OA 
HETATM   15  O   UNL     1      -5.185   6.891  69.175  1.00  0.00    -0.013 OA 
HETATM   16  C   UNL     1      -5.912   7.268  68.271  1.00  0.00    -0.030 C  
ENDBRANCH   8  13
ENDBRANCH   7   8
ENDBRANCH   6   7
ENDBRANCH   5   6
BRANCH   5  17
HETATM   17  C   UNL     1     -10.254  11.481  68.449  1.00  0.00    -0.205 C  
BRANCH  17  18
HETATM   18  C   UNL     1      -9.701  11.823  67.036  1.00  0.00    -0.185 C  
BRANCH  18  19
HETATM   19  N   UNL     1     -10.215  13.113  66.441  1.00  0.00    -0.279 NA 
BRANCH  19  20
HETATM   20  C   UNL     1      -9.578  14.252  67.217  1.00  0.00    -0.232 C  
HETATM   21  O   UNL     1      -8.087  16.067  66.593  1.00  0.00    -0.241 OA 
HETATM   22  O   UNL     1      -9.729  15.474  65.151  1.00  0.00    -0.267 OA 
HETATM   23  C   UNL     1      -9.032  15.347  66.305  1.00  0.00    -0.306 C  
ENDBRANCH  19  20
BRANCH  19  24
HETATM   24  C   UNL     1     -11.704  13.186  66.701  1.00  0.00    -0.375 C  
HETATM   25  C   UNL     1     -12.522  13.366  65.427  1.00  0.00    -0.494 C  
HETATM   26  O   UNL     1     -13.603  13.931  65.383  1.00  0.00    -0.571 OA 
HETATM   27  O   UNL     1     -11.957  12.764  64.353  1.00  0.00    -0.355 OA 
ENDBRANCH  19  24
ENDBRANCH  18  19
ENDBRANCH  17  18
ENDBRANCH   5  17
ENDBRANCH   3   5
TORSDOF 11
ENDMDL
MODEL      365
REMARK 921   NORMALIZED FREE ENERGY PREDICTED BY IDOCK:   -3.10 KCAL/MOL
REMARK 922        TOTAL FREE ENERGY PREDICTED BY IDOCK:   -6.84 KCAL/MOL
REMARK 923 INTER-LIGAND FREE ENERGY PREDICTED BY IDOCK:   -6.98 KCAL/MOL
REMARK 924 INTRA-LIGAND FREE ENERGY PREDICTED BY IDOCK:    0.14 KCAL/MOL
REMARK 927      BINDING AFFINITY PREDICTED BY RF-SCORE:    0.00 PKD
ROOT
HETATM    1  O   UNL     1      -6.323  13.400  66.862  1.00  0.00     0.077 OA 
HETATM    2  C   UNL     1      -6.182  12.814  68.073  1.00  0.00    -0.103 C  
HETATM    3  C   UNL     1      -7.237  13.274  69.076  1.00  0.00    -0.007 C  
HETATM    4  O   UNL     1      -5.277  12.036  68.342  1.00  0.00    -0.049 OA 
ENDROOT
BRANCH   3   5
HETATM    5  N   UNL     1      -8.554  13.604  68.427  1.00  0.00    -0.169 NA 
BRANCH   5   6
HETATM    6  C   UNL     1      -8.378  14.810  67.550  1.00  0.00    -0.183 C  
BRANCH   6   7
HETATM    7  C   UNL     1      -8.637  16.170  68.266  1.00  0.00    -0.182 C  
BRANCH   7   8
HETATM    8  N   UNL     1     -10.000  16.778  68.074  1.00  0.00    -0.263 NA 
BRANCH   8   9
HETATM    9  C   UNL     1     -10.930  15.666  67.621  1.00  0.00    -0.315 C  
HETATM   10  O   UNL     1     -12.064  16.006  69.714  1.00  0.00    -0.275 OA 
HETATM   11  C   UNL     1     -11.759  15.088  68.767  1.00  0.00    -0.334 C  
HETATM   12  O   UNL     1     -12.136  13.928  68.820  1.00  0.00    -0.354 OA 
ENDBRANCH   8   9
BRANCH   8  13
HETATM   13  C   UNL     1      -9.911  17.766  66.936  1.00  0.00    -0.312 C  
HETATM   14  O   UNL     1     -10.236  19.452  68.609  1.00  0.00    -0.421 OA 
HETATM   15  O   UNL     1     -10.968  19.912  66.515  1.00  0.00    -0.359 OA 
HETATM   16  C   UNL     1     -10.450  19.144  67.309  1.00  0.00    -0.456 C  
ENDBRANCH   8  13
ENDBRANCH   7   8
ENDBRANCH   6   7
ENDBRANCH   5   6
BRANCH   5  17
HETATM   17  C   UNL     1      -8.966  12.451  67.564  1.00  0.00    -0.183 C  
BRANCH  17  18
HETATM   18  C   UNL     1      -9.316  12.768  66.083  1.00  0.00    -0.106 C  
BRANCH  18  19
HETATM   19  N   UNL     1     -10.094  11.692  65.362  1.00  0.00    -0.248 NA 
BRANCH  19  20
HETATM   20  C   UNL     1      -9.090  10.663  64.873  1.00  0.00    -0.204 C  
HETATM   21  O   UNL     1      -8.213   8.606  65.825  1.00  0.00    -0.113 OA 
HETATM   22  O   UNL     1     -10.405   9.085  66.123  1.00  0.00    -0.212 OA 
HETATM   23  C   UNL     1      -9.163   9.356  65.659  1.00  0.00    -0.226 C  
ENDBRANCH  19  20
BRANCH  19  24
HETATM   24  C   UNL     1     -10.717  12.312  64.131  1.00  0.00    -0.372 C  
HETATM   25  C   UNL     1     -12.240  12.243  64.137  1.00  0.00    -0.446 C  
HETATM   26  O   UNL     1     -12.926  12.195  63.128  1.00  0.00    -0.659 OA 
HETATM   27  O   UNL     1     -12.763  12.317  65.384  1.00  0.00    -0.500 OA 
ENDBRANCH  19  24
ENDBRANCH  18  19
ENDBRANCH  17  18
ENDBRANCH   5  17
ENDBRANCH   3   5
TORSDOF 11
ENDMDL
MODEL      366
REMARK 921   NORMALIZED FREE ENERGY PREDICTED BY IDOCK:   -3.08 KCAL/MOL
REMARK 922        TOTAL FREE ENERGY PREDICTED BY IDOCK:   -6.81 KCAL/MOL
REMARK 923 INTER-LIGAND FREE ENERGY PREDICTED BY IDOCK:   -6.23 KCAL/MOL
REMARK 924 INTRA-LIGAND FREE ENERGY PREDICTED BY IDOCK:   -0.58 KCAL/MOL
REMARK 927      BINDING AFFINITY PREDICTED BY RF-SCORE:    0.00 PKD
ROOT
HETATM    1  O   UNL     1      -5.147  15.107  67.556  1.00  0.00    -0.317 OA 
HETATM    2  C   UNL     1      -6.010  14.065  67.537  1.00  0.00     0.082 C  
HETATM    3  C   UNL     1      -7.295  14.352  68.310  1.00  0.00    -0.122 C  
HETATM    4  O   UNL     1      -5.762  12.996  66.997  1.00  0.00    -0.298 OA 
ENDROOT
BRANCH   3   5
HETATM    5  N   UNL     1      -7.694  15.802  68.262  1.00  0.00    -0.129 NA 
BRANCH   5   6
HETATM    6  C   UNL     1      -7.841  16.220  66.828  1.00  0.00    -0.265 C  
BRANCH   6   7
HETATM    7  C   UNL     1      -8.545  17.596  66.628  1.00  0.00    -0.257 C  
BRANCH   7   8
HETATM    8  N   UNL     1      -7.698  18.820  66.847  1.00  0.00    -0.231 NA 
BRANCH   8   9
HETATM    9  C   UNL     1      -6.336  18.541  66.235  1.00  0.00    -0.193 C  
HETATM   10  O   UNL     1      -7.088  19.887  64.391  1.00  0.00    -0.055 OA 
HETATM   11  C   UNL     1      -6.286  18.855  64.741  1.00  0.00    -0.171 C  
HETATM   12  O   UNL     1      -5.580  18.260  63.942  1.00  0.00     0.136 OA 
ENDBRANCH   8   9
BRANCH   8  13
HETATM   13  C   UNL     1      -7.487  18.978  68.334  1.00  0.00    -0.300 C  
HETATM   14  O   UNL     1      -6.634  21.154  67.802  1.00  0.00    -0.342 OA 
HETATM   15  O   UNL     1      -5.818  20.143  69.659  1.00  0.00    -0.281 OA 
HETATM   16  C   UNL     1      -6.541  20.124  68.676  1.00  0.00    -0.299 C  
ENDBRANCH   8  13
ENDBRANCH   7   8
ENDBRANCH   6   7
ENDBRANCH   5   6
BRANCH   5  17
HETATM   17  C   UNL     1      -9.022  15.957  68.936  1.00  0.00    -0.228 C  
BRANCH  17  18
HETATM   18  C   UNL     1      -9.855  14.663  69.161  1.00  0.00    -0.124 C  
BRANCH  18  19
HETATM   19  N   UNL     1     -11.351  14.862  69.207  1.00  0.00    -0.279 NA 
BRANCH  19  20
HETATM   20  C   UNL     1     -11.750  15.574  67.927  1.00  0.00    -0.138 C  
HETATM   21  O   UNL     1     -11.741  14.925  65.585  1.00  0.00    -0.305 OA 
HETATM   22  O   UNL     1     -12.337  13.382  67.131  1.00  0.00    -0.295 OA 
HETATM   23  C   UNL     1     -11.921  14.614  66.753  1.00  0.00    -0.276 C  
ENDBRANCH  19  20
BRANCH  19  24
HETATM   24  C   UNL     1     -11.661  15.808  70.347  1.00  0.00    -0.370 C  
HETATM   25  C   UNL     1     -12.695  15.250  71.319  1.00  0.00    -0.401 C  
HETATM   26  O   UNL     1     -13.456  15.940  71.977  1.00  0.00    -0.424 OA 
HETATM   27  O   UNL     1     -12.632  13.902  71.433  1.00  0.00    -0.344 OA 
ENDBRANCH  19  24
ENDBRANCH  18  19
ENDBRANCH  17  18
ENDBRANCH   5  17
ENDBRANCH   3   5
TORSDOF 11
ENDMDL
MODEL      367
REMARK 921   NORMALIZED FREE ENERGY PREDICTED BY IDOCK:   -3.07 KCAL/MOL
REMARK 922        TOTAL FREE ENERGY PREDICTED BY IDOCK:   -6.79 KCAL/MOL
REMARK 923 INTER-LIGAND FREE ENERGY PREDICTED BY IDOCK:   -6.81 KCAL/MOL
REMARK 924 INTRA-LIGAND FREE ENERGY PREDICTED BY IDOCK:    0.02 KCAL/MOL
REMARK 927      BINDING AFFINITY PREDICTED BY RF-SCORE:    0.00 PKD
ROOT
HETATM    1  O   UNL     1     -10.045   8.334  72.019  1.00  0.00    -0.212 OA 
HETATM    2  C   UNL     1     -11.341   8.692  71.864  1.00  0.00    -0.347 C  
HETATM    3  C   UNL     1     -11.526   9.801  70.832  1.00  0.00    -0.369 C  
HETATM    4  O   UNL     1     -12.254   8.207  72.517  1.00  0.00    -0.344 OA 
ENDROOT
BRANCH   3   5
HETATM    5  N   UNL     1     -10.511   9.742  69.723  1.00  0.00    -0.231 NA 
BRANCH   5   6
HETATM    6  C   UNL     1     -10.568  11.022  68.940  1.00  0.00    -0.207 C  
BRANCH   6   7
HETATM    7  C   UNL     1     -11.782  11.128  67.968  1.00  0.00    -0.212 C  
BRANCH   7   8
HETATM    8  N   UNL     1     -11.468  11.491  66.542  1.00  0.00    -0.417 NA 
BRANCH   8   9
HETATM    9  C   UNL     1     -10.070  10.978  66.244  1.00  0.00    -0.235 C  
HETATM   10  O   UNL     1     -10.743  11.017  63.936  1.00  0.00    -0.369 OA 
HETATM   11  C   UNL     1      -9.943  10.398  64.836  1.00  0.00    -0.339 C  
HETATM   12  O   UNL     1      -9.185   9.490  64.537  1.00  0.00    -0.238 OA 
ENDBRANCH   8   9
BRANCH   8  13
HETATM   13  C   UNL     1     -11.411  12.997  66.449  1.00  0.00    -0.341 C  
HETATM   14  O   UNL     1     -13.294  12.798  64.978  1.00  0.00    -0.678 OA 
HETATM   15  O   UNL     1     -11.914  14.568  64.666  1.00  0.00    -0.425 OA 
HETATM   16  C   UNL     1     -12.199  13.543  65.262  1.00  0.00    -0.441 C  
ENDBRANCH   8  13
ENDBRANCH   7   8
ENDBRANCH   6   7
ENDBRANCH   5   6
BRANCH   5  17
HETATM   17  C   UNL     1      -9.146   9.620  70.328  1.00  0.00    -0.225 C  
BRANCH  17  18
HETATM   18  C   UNL     1      -7.995   9.165  69.386  1.00  0.00    -0.097 C  
BRANCH  18  19
HETATM   19  N   UNL     1      -8.280   7.922  68.577  1.00  0.00    -0.126 NA 
BRANCH  19  20
HETATM   20  C   UNL     1      -7.695   6.746  69.339  1.00  0.00    -0.105 C  
HETATM   21  O   UNL     1      -8.549   5.311  71.105  1.00  0.00    -0.120 OA 
HETATM   22  O   UNL     1      -9.963   5.955  69.459  1.00  0.00    -0.165 OA 
HETATM   23  C   UNL     1      -8.760   5.940  70.079  1.00  0.00    -0.133 C  
ENDBRANCH  19  20
BRANCH  19  24
HETATM   24  C   UNL     1      -7.513   8.025  67.277  1.00  0.00    -0.093 C  
HETATM   25  C   UNL     1      -7.982   7.020  66.230  1.00  0.00    -0.114 C  
HETATM   26  O   UNL     1      -7.265   6.561  65.355  1.00  0.00    -0.069 OA 
HETATM   27  O   UNL     1      -9.304   6.745  66.323  1.00  0.00    -0.161 OA 
ENDBRANCH  19  24
ENDBRANCH  18  19
ENDBRANCH  17  18
ENDBRANCH   5  17
ENDBRANCH   3   5
TORSDOF 11
ENDMDL
MODEL      368
REMARK 921   NORMALIZED FREE ENERGY PREDICTED BY IDOCK:   -3.07 KCAL/MOL
REMARK 922        TOTAL FREE ENERGY PREDICTED BY IDOCK:   -6.78 KCAL/MOL
REMARK 923 INTER-LIGAND FREE ENERGY PREDICTED BY IDOCK:   -6.53 KCAL/MOL
REMARK 924 INTRA-LIGAND FREE ENERGY PREDICTED BY IDOCK:   -0.25 KCAL/MOL
REMARK 927      BINDING AFFINITY PREDICTED BY RF-SCORE:    0.00 PKD
ROOT
HETATM    1  O   UNL     1      -8.519  10.389  69.802  1.00  0.00    -0.122 OA 
HETATM    2  C   UNL     1      -9.240   9.479  70.498  1.00  0.00    -0.225 C  
HETATM    3  C   UNL     1     -10.464   8.986  69.730  1.00  0.00    -0.218 C  
HETATM    4  O   UNL     1      -8.962   9.130  71.636  1.00  0.00    -0.336 OA 
ENDROOT
BRANCH   3   5
HETATM    5  N   UNL     1     -10.245   8.955  68.241  1.00  0.00    -0.195 NA 
BRANCH   5   6
HETATM    6  C   UNL     1     -10.111  10.363  67.738  1.00  0.00    -0.181 C  
BRANCH   6   7
HETATM    7  C   UNL     1     -11.429  11.193  67.789  1.00  0.00    -0.272 C  
BRANCH   7   8
HETATM    8  N   UNL     1     -11.448  12.468  66.991  1.00  0.00    -0.334 NA 
BRANCH   8   9
HETATM    9  C   UNL     1     -11.338  12.085  65.525  1.00  0.00    -0.328 C  
HETATM   10  O   UNL     1     -13.013  13.767  65.145  1.00  0.00    -0.738 OA 
HETATM   11  C   UNL     1     -12.514  12.592  64.693  1.00  0.00    -0.466 C  
HETATM   12  O   UNL     1     -12.951  12.019  63.707  1.00  0.00    -0.709 OA 
ENDBRANCH   8   9
BRANCH   8  13
HETATM   13  C   UNL     1     -10.202  13.250  67.335  1.00  0.00    -0.229 C  
HETATM   14  O   UNL     1     -11.694  15.045  67.883  1.00  0.00    -0.338 OA 
HETATM   15  O   UNL     1      -9.618  15.601  67.164  1.00  0.00    -0.215 OA 
HETATM   16  C   UNL     1     -10.455  14.751  67.423  1.00  0.00    -0.256 C  
ENDBRANCH   8  13
ENDBRANCH   7   8
ENDBRANCH   6   7
ENDBRANCH   5   6
BRANCH   5  17
HETATM   17  C   UNL     1      -8.965   8.230  67.960  1.00  0.00    -0.138 C  
BRANCH  17  18
HETATM   18  C   UNL     1      -7.998   8.880  66.930  1.00  0.00    -0.101 C  
BRANCH  18  19
HETATM   19  N   UNL     1      -7.997   8.245  65.560  1.00  0.00    -0.113 NA 
BRANCH  19  20
HETATM   20  C   UNL     1      -9.024   8.984  64.720  1.00  0.00    -0.095 C  
HETATM   21  O   UNL     1      -8.920  10.973  63.328  1.00  0.00    -0.205 OA 
HETATM   22  O   UNL     1      -7.162   9.546  63.305  1.00  0.00    -0.101 OA 
HETATM   23  C   UNL     1      -8.382   9.953  63.730  1.00  0.00    -0.168 C  
ENDBRANCH  19  20
BRANCH  19  24
HETATM   24  C   UNL     1      -8.494   6.823  65.704  1.00  0.00    -0.138 C  
HETATM   25  C   UNL     1      -8.062   5.922  64.552  1.00  0.00    -0.132 C  
HETATM   26  O   UNL     1      -8.696   4.951  64.170  1.00  0.00    -0.143 OA 
HETATM   27  O   UNL     1      -6.857   6.267  64.041  1.00  0.00    -0.037 OA 
ENDBRANCH  19  24
ENDBRANCH  18  19
ENDBRANCH  17  18
ENDBRANCH   5  17
ENDBRANCH   3   5
TORSDOF 11
ENDMDL
MODEL      369
REMARK 921   NORMALIZED FREE ENERGY PREDICTED BY IDOCK:   -3.07 KCAL/MOL
REMARK 922        TOTAL FREE ENERGY PREDICTED BY IDOCK:   -6.78 KCAL/MOL
REMARK 923 INTER-LIGAND FREE ENERGY PREDICTED BY IDOCK:   -5.30 KCAL/MOL
REMARK 924 INTRA-LIGAND FREE ENERGY PREDICTED BY IDOCK:   -1.47 KCAL/MOL
REMARK 927      BINDING AFFINITY PREDICTED BY RF-SCORE:    0.00 PKD
ROOT
HETATM    1  O   UNL     1      -9.669   9.915  70.713  1.00  0.00    -0.099 OA 
HETATM    2  C   UNL     1     -11.017   9.965  70.829  1.00  0.00    -0.337 C  
HETATM    3  C   UNL     1     -11.667  10.836  69.757  1.00  0.00    -0.324 C  
HETATM    4  O   UNL     1     -11.635   9.407  71.724  1.00  0.00    -0.377 OA 
ENDROOT
BRANCH   3   5
HETATM    5  N   UNL     1     -10.915  10.818  68.454  1.00  0.00    -0.228 NA 
BRANCH   5   6
HETATM    6  C   UNL     1     -11.132   9.494  67.782  1.00  0.00     0.034 C  
BRANCH   6   7
HETATM    7  C   UNL     1      -9.821   8.746  67.394  1.00  0.00    -0.194 C  
BRANCH   7   8
HETATM    8  N   UNL     1      -9.677   7.338  67.906  1.00  0.00    -0.138 NA 
BRANCH   8   9
HETATM    9  C   UNL     1      -9.737   6.413  66.704  1.00  0.00    -0.153 C  
HETATM   10  O   UNL     1      -7.954   5.205  67.773  1.00  0.00    -0.094 OA 
HETATM   11  C   UNL     1      -8.494   5.533  66.576  1.00  0.00    -0.113 C  
HETATM   12  O   UNL     1      -8.043   5.140  65.512  1.00  0.00    -0.109 OA 
ENDBRANCH   8   9
BRANCH   8  13
HETATM   13  C   UNL     1     -10.886   7.029  68.758  1.00  0.00    -0.157 C  
HETATM   14  O   UNL     1      -9.325   6.758  70.558  1.00  0.00    -0.162 OA 
HETATM   15  O   UNL     1     -11.245   5.558  70.656  1.00  0.00    -0.141 OA 
HETATM   16  C   UNL     1     -10.520   6.347  70.072  1.00  0.00    -0.215 C  
ENDBRANCH   8  13
ENDBRANCH   7   8
ENDBRANCH   6   7
ENDBRANCH   5   6
BRANCH   5  17
HETATM   17  C   UNL     1     -11.465  11.893  67.568  1.00  0.00    -0.326 C  
BRANCH  17  18
HETATM   18  C   UNL     1     -10.442  12.885  66.944  1.00  0.00    -0.246 C  
BRANCH  18  19
HETATM   19  N   UNL     1     -10.311  14.208  67.661  1.00  0.00    -0.240 NA 
BRANCH  19  20
HETATM   20  C   UNL     1      -9.095  14.111  68.565  1.00  0.00    -0.176 C  
HETATM   21  O   UNL     1      -6.768  14.764  68.307  1.00  0.00    -0.095 OA 
HETATM   22  O   UNL     1      -8.372  16.125  67.468  1.00  0.00    -0.153 OA 
HETATM   23  C   UNL     1      -7.948  15.005  68.101  1.00  0.00    -0.131 C  
ENDBRANCH  19  20
BRANCH  19  24
HETATM   24  C   UNL     1     -11.514  14.370  68.565  1.00  0.00    -0.297 C  
HETATM   25  C   UNL     1     -11.711  15.805  69.040  1.00  0.00    -0.396 C  
HETATM   26  O   UNL     1     -12.238  16.108  70.098  1.00  0.00    -0.181 OA 
HETATM   27  O   UNL     1     -11.306  16.719  68.127  1.00  0.00    -0.255 OA 
ENDBRANCH  19  24
ENDBRANCH  18  19
ENDBRANCH  17  18
ENDBRANCH   5  17
ENDBRANCH   3   5
TORSDOF 11
ENDMDL
MODEL      370
REMARK 921   NORMALIZED FREE ENERGY PREDICTED BY IDOCK:   -3.06 KCAL/MOL
REMARK 922        TOTAL FREE ENERGY PREDICTED BY IDOCK:   -6.77 KCAL/MOL
REMARK 923 INTER-LIGAND FREE ENERGY PREDICTED BY IDOCK:   -6.38 KCAL/MOL
REMARK 924 INTRA-LIGAND FREE ENERGY PREDICTED BY IDOCK:   -0.38 KCAL/MOL
REMARK 927      BINDING AFFINITY PREDICTED BY RF-SCORE:    0.00 PKD
ROOT
HETATM    1  O   UNL     1      -9.244   8.949  72.002  1.00  0.00    -0.348 OA 
HETATM    2  C   UNL     1     -10.272   8.327  72.626  1.00  0.00    -0.298 C  
HETATM    3  C   UNL     1     -11.615   8.588  71.949  1.00  0.00    -0.341 C  
HETATM    4  O   UNL     1     -10.138   7.668  73.646  1.00  0.00    -0.321 OA 
ENDROOT
BRANCH   3   5
HETATM    5  N   UNL     1     -11.493   8.767  70.460  1.00  0.00    -0.238 NA 
BRANCH   5   6
HETATM    6  C   UNL     1     -11.150  10.199  70.167  1.00  0.00    -0.315 C  
BRANCH   6   7
HETATM    7  C   UNL     1     -11.756  10.748  68.840  1.00  0.00    -0.267 C  
BRANCH   7   8
HETATM    8  N   UNL     1     -11.048  11.919  68.215  1.00  0.00    -0.221 NA 
BRANCH   8   9
HETATM    9  C   UNL     1      -9.566  11.757  68.505  1.00  0.00    -0.170 C  
HETATM   10  O   UNL     1      -9.219  12.720  66.329  1.00  0.00    -0.194 OA 
HETATM   11  C   UNL     1      -8.704  11.870  67.248  1.00  0.00    -0.171 C  
HETATM   12  O   UNL     1      -7.647  11.279  67.090  1.00  0.00    -0.121 OA 
ENDBRANCH   8   9
BRANCH   8  13
HETATM   13  C   UNL     1     -11.500  13.170  68.929  1.00  0.00    -0.298 C  
HETATM   14  O   UNL     1     -12.368  13.857  66.802  1.00  0.00    -0.422 OA 
HETATM   15  O   UNL     1     -11.722  15.487  68.237  1.00  0.00    -0.360 OA 
HETATM   16  C   UNL     1     -11.846  14.304  67.969  1.00  0.00    -0.344 C  
ENDBRANCH   8  13
ENDBRANCH   7   8
ENDBRANCH   6   7
ENDBRANCH   5   6
BRANCH   5  17
HETATM   17  C   UNL     1     -10.376   7.904  69.962  1.00  0.00    -0.221 C  
BRANCH  17  18
HETATM   18  C   UNL     1     -10.771   6.576  69.254  1.00  0.00    -0.280 C  
BRANCH  18  19
HETATM   19  N   UNL     1     -10.002   6.268  67.991  1.00  0.00    -0.130 NA 
BRANCH  19  20
HETATM   20  C   UNL     1     -10.637   7.073  66.871  1.00  0.00    -0.301 C  
HETATM   21  O   UNL     1     -10.205   9.281  65.952  1.00  0.00    -0.245 OA 
HETATM   22  O   UNL     1      -8.441   8.006  66.571  1.00  0.00    -0.125 OA 
HETATM   23  C   UNL     1      -9.765   8.245  66.426  1.00  0.00    -0.230 C  
ENDBRANCH  19  20
BRANCH  19  24
HETATM   24  C   UNL     1     -10.220   4.809  67.657  1.00  0.00    -0.036 C  
HETATM   25  C   UNL     1      -9.066   4.202  66.866  1.00  0.00    -0.142 C  
HETATM   26  O   UNL     1      -9.190   3.277  66.079  1.00  0.00    -0.153 OA 
HETATM   27  O   UNL     1      -7.869   4.748  67.184  1.00  0.00    -0.093 OA 
ENDBRANCH  19  24
ENDBRANCH  18  19
ENDBRANCH  17  18
ENDBRANCH   5  17
ENDBRANCH   3   5
TORSDOF 11
ENDMDL
MODEL      371
REMARK 921   NORMALIZED FREE ENERGY PREDICTED BY IDOCK:   -3.06 KCAL/MOL
REMARK 922        TOTAL FREE ENERGY PREDICTED BY IDOCK:   -6.77 KCAL/MOL
REMARK 923 INTER-LIGAND FREE ENERGY PREDICTED BY IDOCK:   -6.88 KCAL/MOL
REMARK 924 INTRA-LIGAND FREE ENERGY PREDICTED BY IDOCK:    0.11 KCAL/MOL
REMARK 927      BINDING AFFINITY PREDICTED BY RF-SCORE:    0.00 PKD
ROOT
HETATM    1  O   UNL     1     -11.635  14.586  68.481  1.00  0.00    -0.282 OA 
HETATM    2  C   UNL     1     -11.601  14.818  67.148  1.00  0.00    -0.359 C  
HETATM    3  C   UNL     1     -10.357  15.591  66.716  1.00  0.00    -0.288 C  
HETATM    4  O   UNL     1     -12.496  14.482  66.386  1.00  0.00    -0.315 OA 
ENDROOT
BRANCH   3   5
HETATM    5  N   UNL     1      -9.155  15.284  67.568  1.00  0.00    -0.182 NA 
BRANCH   5   6
HETATM    6  C   UNL     1      -9.200  16.139  68.801  1.00  0.00    -0.224 C  
BRANCH   6   7
HETATM    7  C   UNL     1      -9.248  17.672  68.521  1.00  0.00    -0.281 C  
BRANCH   7   8
HETATM    8  N   UNL     1      -7.957  18.314  68.092  1.00  0.00    -0.275 NA 
BRANCH   8   9
HETATM    9  C   UNL     1      -7.813  19.606  68.877  1.00  0.00    -0.264 C  
HETATM   10  O   UNL     1      -5.452  19.152  68.842  1.00  0.00    -0.193 OA 
HETATM   11  C   UNL     1      -6.447  19.737  69.549  1.00  0.00    -0.348 C  
HETATM   12  O   UNL     1      -6.257  20.327  70.601  1.00  0.00    -0.450 OA 
ENDBRANCH   8   9
BRANCH   8  13
HETATM   13  C   UNL     1      -8.091  18.698  66.637  1.00  0.00    -0.271 C  
HETATM   14  O   UNL     1      -6.437  17.013  66.224  1.00  0.00    -0.198 OA 
HETATM   15  O   UNL     1      -6.520  18.763  64.787  1.00  0.00    -0.506 OA 
HETATM   16  C   UNL     1      -6.929  18.195  65.786  1.00  0.00    -0.244 C  
ENDBRANCH   8  13
ENDBRANCH   7   8
ENDBRANCH   6   7
ENDBRANCH   5   6
BRANCH   5  17
HETATM   17  C   UNL     1      -9.217  13.848  67.987  1.00  0.00    -0.193 C  
BRANCH  17  18
HETATM   18  C   UNL     1      -8.432  12.825  67.119  1.00  0.00    -0.181 C  
BRANCH  18  19
HETATM   19  N   UNL     1      -9.053  11.452  67.024  1.00  0.00    -0.164 NA 
BRANCH  19  20
HETATM   20  C   UNL     1      -9.746  11.179  68.347  1.00  0.00    -0.191 C  
HETATM   21  O   UNL     1     -11.968  11.671  69.200  1.00  0.00    -0.323 OA 
HETATM   22  O   UNL     1     -11.757  11.043  67.036  1.00  0.00    -0.399 OA 
HETATM   23  C   UNL     1     -11.261  11.342  68.260  1.00  0.00    -0.263 C  
ENDBRANCH  19  20
BRANCH  19  24
HETATM   24  C   UNL     1      -7.935  10.440  66.900  1.00  0.00    -0.114 C  
HETATM   25  C   UNL     1      -8.182   9.412  65.801  1.00  0.00    -0.116 C  
HETATM   26  O   UNL     1      -7.744   8.273  65.821  1.00  0.00    -0.085 OA 
HETATM   27  O   UNL     1      -8.880   9.919  64.758  1.00  0.00    -0.171 OA 
ENDBRANCH  19  24
ENDBRANCH  18  19
ENDBRANCH  17  18
ENDBRANCH   5  17
ENDBRANCH   3   5
TORSDOF 11
ENDMDL
MODEL      372
REMARK 921   NORMALIZED FREE ENERGY PREDICTED BY IDOCK:   -3.05 KCAL/MOL
REMARK 922        TOTAL FREE ENERGY PREDICTED BY IDOCK:   -6.76 KCAL/MOL
REMARK 923 INTER-LIGAND FREE ENERGY PREDICTED BY IDOCK:   -6.99 KCAL/MOL
REMARK 924 INTRA-LIGAND FREE ENERGY PREDICTED BY IDOCK:    0.23 KCAL/MOL
REMARK 927      BINDING AFFINITY PREDICTED BY RF-SCORE:    0.00 PKD
ROOT
HETATM    1  O   UNL     1      -9.156   9.438  71.254  1.00  0.00    -0.277 OA 
HETATM    2  C   UNL     1      -8.289   9.615  70.230  1.00  0.00    -0.186 C  
HETATM    3  C   UNL     1      -8.733   8.905  68.953  1.00  0.00    -0.136 C  
HETATM    4  O   UNL     1      -7.243  10.238  70.336  1.00  0.00    -0.257 OA 
ENDROOT
BRANCH   3   5
HETATM    5  N   UNL     1     -10.230   8.839  68.812  1.00  0.00    -0.203 NA 
BRANCH   5   6
HETATM    6  C   UNL     1     -10.623   9.433  67.491  1.00  0.00    -0.267 C  
BRANCH   6   7
HETATM    7  C   UNL     1     -11.147  10.898  67.574  1.00  0.00    -0.310 C  
BRANCH   7   8
HETATM    8  N   UNL     1     -11.146  11.683  66.291  1.00  0.00    -0.304 NA 
BRANCH   8   9
HETATM    9  C   UNL     1      -9.867  11.334  65.550  1.00  0.00    -0.231 C  
HETATM   10  O   UNL     1     -11.226  11.346  63.566  1.00  0.00    -0.391 OA 
HETATM   11  C   UNL     1     -10.128  10.801  64.142  1.00  0.00    -0.353 C  
HETATM   12  O   UNL     1      -9.414   9.988  63.576  1.00  0.00    -0.285 OA 
ENDBRANCH   8   9
BRANCH   8  13
HETATM   13  C   UNL     1     -11.062  13.150  66.644  1.00  0.00    -0.292 C  
HETATM   14  O   UNL     1     -12.928  13.430  65.165  1.00  0.00    -0.710 OA 
HETATM   15  O   UNL     1     -11.513  15.185  65.399  1.00  0.00    -0.324 OA 
HETATM   16  C   UNL     1     -11.825  14.036  65.665  1.00  0.00    -0.377 C  
ENDBRANCH   8  13
ENDBRANCH   7   8
ENDBRANCH   6   7
ENDBRANCH   5   6
BRANCH   5  17
HETATM   17  C   UNL     1     -10.651   7.402  68.827  1.00  0.00    -0.168 C  
BRANCH  17  18
HETATM   18  C   UNL     1      -9.731   6.405  69.588  1.00  0.00    -0.152 C  
BRANCH  18  19
HETATM   19  N   UNL     1     -10.449   5.281  70.296  1.00  0.00    -0.281 NA 
BRANCH  19  20
HETATM   20  C   UNL     1     -10.264   5.497  71.787  1.00  0.00    -0.202 C  
HETATM   21  O   UNL     1     -11.041   7.203  73.334  1.00  0.00    -0.289 OA 
HETATM   22  O   UNL     1     -12.449   6.500  71.707  1.00  0.00    -0.345 OA 
HETATM   23  C   UNL     1     -11.263   6.499  72.361  1.00  0.00    -0.275 C  
ENDBRANCH  19  20
BRANCH  19  24
HETATM   24  C   UNL     1      -9.744   3.987  69.952  1.00  0.00    -0.193 C  
HETATM   25  C   UNL     1      -8.228   4.138  69.876  1.00  0.00    -0.057 C  
HETATM   26  O   UNL     1      -7.507   3.452  69.170  1.00  0.00    -0.049 OA 
HETATM   27  O   UNL     1      -7.752   5.070  70.736  1.00  0.00    -0.074 OA 
ENDBRANCH  19  24
ENDBRANCH  18  19
ENDBRANCH  17  18
ENDBRANCH   5  17
ENDBRANCH   3   5
TORSDOF 11
ENDMDL
MODEL      373
REMARK 921   NORMALIZED FREE ENERGY PREDICTED BY IDOCK:   -3.03 KCAL/MOL
REMARK 922        TOTAL FREE ENERGY PREDICTED BY IDOCK:   -6.73 KCAL/MOL
REMARK 923 INTER-LIGAND FREE ENERGY PREDICTED BY IDOCK:   -5.15 KCAL/MOL
REMARK 924 INTRA-LIGAND FREE ENERGY PREDICTED BY IDOCK:   -1.58 KCAL/MOL
REMARK 927      BINDING AFFINITY PREDICTED BY RF-SCORE:    0.00 PKD
ROOT
HETATM    1  O   UNL     1      -9.467   5.915  70.225  1.00  0.00    -0.157 OA 
HETATM    2  C   UNL     1     -10.636   6.569  70.422  1.00  0.00    -0.233 C  
HETATM    3  C   UNL     1     -10.824   7.739  69.459  1.00  0.00    -0.153 C  
HETATM    4  O   UNL     1     -11.427   6.277  71.306  1.00  0.00    -0.298 OA 
ENDROOT
BRANCH   3   5
HETATM    5  N   UNL     1     -10.187   7.499  68.117  1.00  0.00    -0.183 NA 
BRANCH   5   6
HETATM    6  C   UNL     1     -11.131   6.704  67.263  1.00  0.00    -0.345 C  
BRANCH   6   7
HETATM    7  C   UNL     1     -10.519   5.399  66.670  1.00  0.00    -0.298 C  
BRANCH   7   8
HETATM    8  N   UNL     1      -9.035   5.409  66.424  1.00  0.00    -0.127 NA 
BRANCH   8   9
HETATM    9  C   UNL     1      -8.807   4.871  65.022  1.00  0.00    -0.154 C  
HETATM   10  O   UNL     1      -7.317   6.738  64.743  1.00  0.00    -0.077 OA 
HETATM   11  C   UNL     1      -8.159   5.899  64.095  1.00  0.00    -0.110 C  
HETATM   12  O   UNL     1      -8.353   5.950  62.891  1.00  0.00    -0.106 OA 
ENDBRANCH   8   9
BRANCH   8  13
HETATM   13  C   UNL     1      -8.400   4.426  67.379  1.00  0.00    -0.100 C  
HETATM   14  O   UNL     1      -7.026   6.263  68.075  1.00  0.00    -0.074 OA 
HETATM   15  O   UNL     1      -6.148   4.181  68.255  1.00  0.00    -0.029 OA 
HETATM   16  C   UNL     1      -7.065   4.918  67.928  1.00  0.00    -0.062 C  
ENDBRANCH   8  13
ENDBRANCH   7   8
ENDBRANCH   6   7
ENDBRANCH   5   6
BRANCH   5  17
HETATM   17  C   UNL     1      -9.952   8.822  67.455  1.00  0.00    -0.208 C  
BRANCH  17  18
HETATM   18  C   UNL     1     -11.025   9.924  67.681  1.00  0.00    -0.200 C  
BRANCH  18  19
HETATM   19  N   UNL     1     -10.522  11.344  67.560  1.00  0.00    -0.195 NA 
BRANCH  19  20
HETATM   20  C   UNL     1      -9.514  11.560  68.674  1.00  0.00    -0.141 C  
HETATM   21  O   UNL     1      -7.114  11.940  68.701  1.00  0.00    -0.089 OA 
HETATM   22  O   UNL     1      -8.344  12.924  67.075  1.00  0.00    -0.174 OA 
HETATM   23  C   UNL     1      -8.194  12.135  68.165  1.00  0.00    -0.164 C  
ENDBRANCH  19  20
BRANCH  19  24
HETATM   24  C   UNL     1     -11.683  12.275  67.835  1.00  0.00    -0.347 C  
HETATM   25  C   UNL     1     -11.988  13.205  66.666  1.00  0.00    -0.389 C  
HETATM   26  O   UNL     1     -12.482  14.315  66.787  1.00  0.00    -0.376 OA 
HETATM   27  O   UNL     1     -11.722  12.641  65.464  1.00  0.00    -0.359 OA 
ENDBRANCH  19  24
ENDBRANCH  18  19
ENDBRANCH  17  18
ENDBRANCH   5  17
ENDBRANCH   3   5
TORSDOF 11
ENDMDL
MODEL      374
REMARK 921   NORMALIZED FREE ENERGY PREDICTED BY IDOCK:   -3.00 KCAL/MOL
REMARK 922        TOTAL FREE ENERGY PREDICTED BY IDOCK:   -6.68 KCAL/MOL
REMARK 923 INTER-LIGAND FREE ENERGY PREDICTED BY IDOCK:   -5.21 KCAL/MOL
REMARK 924 INTRA-LIGAND FREE ENERGY PREDICTED BY IDOCK:   -1.47 KCAL/MOL
REMARK 927      BINDING AFFINITY PREDICTED BY RF-SCORE:    0.00 PKD
ROOT
HETATM    1  O   UNL     1      -9.429   9.639  70.555  1.00  0.00    -0.256 OA 
HETATM    2  C   UNL     1     -10.771   9.813  70.524  1.00  0.00    -0.317 C  
HETATM    3  C   UNL     1     -11.242  10.528  69.261  1.00  0.00    -0.262 C  
HETATM    4  O   UNL     1     -11.513   9.473  71.434  1.00  0.00    -0.342 OA 
ENDROOT
BRANCH   3   5
HETATM    5  N   UNL     1     -10.386  10.221  68.062  1.00  0.00    -0.170 NA 
BRANCH   5   6
HETATM    6  C   UNL     1     -10.762   8.869  67.526  1.00  0.00    -0.152 C  
BRANCH   6   7
HETATM    7  C   UNL     1      -9.611   8.130  66.780  1.00  0.00    -0.217 C  
BRANCH   7   8
HETATM    8  N   UNL     1      -9.306   6.730  67.239  1.00  0.00    -0.131 NA 
BRANCH   8   9
HETATM    9  C   UNL     1      -9.101   6.784  68.743  1.00  0.00    -0.132 C  
HETATM   10  O   UNL     1     -10.385   4.752  68.809  1.00  0.00    -0.070 OA 
HETATM   11  C   UNL     1     -10.061   5.869  69.501  1.00  0.00    -0.203 C  
HETATM   12  O   UNL     1     -10.480   6.100  70.625  1.00  0.00    -0.213 OA 
ENDBRANCH   8   9
BRANCH   8  13
HETATM   13  C   UNL     1      -7.986   6.319  66.630  1.00  0.00    -0.108 C  
HETATM   14  O   UNL     1      -9.217   4.536  65.605  1.00  0.00    -0.134 OA 
HETATM   15  O   UNL     1      -7.026   4.166  66.049  1.00  0.00    -0.062 OA 
HETATM   16  C   UNL     1      -8.005   4.892  66.092  1.00  0.00    -0.107 C  
ENDBRANCH   8  13
ENDBRANCH   7   8
ENDBRANCH   6   7
ENDBRANCH   5   6
BRANCH   5  17
HETATM   17  C   UNL     1     -10.661  11.241  67.001  1.00  0.00    -0.260 C  
BRANCH  17  18
HETATM   18  C   UNL     1      -9.430  11.937  66.355  1.00  0.00    -0.228 C  
BRANCH  18  19
HETATM   19  N   UNL     1      -9.090  13.296  66.921  1.00  0.00    -0.237 NA 
BRANCH  19  20
HETATM   20  C   UNL     1      -8.437  13.069  68.273  1.00  0.00    -0.159 C  
HETATM   21  O   UNL     1      -6.251  12.255  68.955  1.00  0.00    -0.067 OA 
HETATM   22  O   UNL     1      -6.383  13.609  67.145  1.00  0.00    -0.216 OA 
HETATM   23  C   UNL     1      -6.922  12.911  68.172  1.00  0.00    -0.102 C  
ENDBRANCH  19  20
BRANCH  19  24
HETATM   24  C   UNL     1     -10.386  14.031  67.180  1.00  0.00    -0.265 C  
HETATM   25  C   UNL     1     -10.192  15.533  67.356  1.00  0.00    -0.255 C  
HETATM   26  O   UNL     1     -10.919  16.241  68.034  1.00  0.00    -0.334 OA 
HETATM   27  O   UNL     1      -9.166  16.019  66.618  1.00  0.00    -0.213 OA 
ENDBRANCH  19  24
ENDBRANCH  18  19
ENDBRANCH  17  18
ENDBRANCH   5  17
ENDBRANCH   3   5
TORSDOF 11
ENDMDL
MODEL      375
REMARK 921   NORMALIZED FREE ENERGY PREDICTED BY IDOCK:   -3.00 KCAL/MOL
REMARK 922        TOTAL FREE ENERGY PREDICTED BY IDOCK:   -6.66 KCAL/MOL
REMARK 923 INTER-LIGAND FREE ENERGY PREDICTED BY IDOCK:   -6.74 KCAL/MOL
REMARK 924 INTRA-LIGAND FREE ENERGY PREDICTED BY IDOCK:    0.08 KCAL/MOL
REMARK 927      BINDING AFFINITY PREDICTED BY RF-SCORE:    0.00 PKD
ROOT
HETATM    1  O   UNL     1      -6.127  13.057  66.974  1.00  0.00    -0.245 OA 
HETATM    2  C   UNL     1      -6.003  12.568  68.230  1.00  0.00    -0.061 C  
HETATM    3  C   UNL     1      -7.027  13.160  69.195  1.00  0.00    -0.028 C  
HETATM    4  O   UNL     1      -5.135  11.773  68.559  1.00  0.00    -0.043 OA 
ENDROOT
BRANCH   3   5
HETATM    5  N   UNL     1      -8.332  13.498  68.526  1.00  0.00    -0.135 NA 
BRANCH   5   6
HETATM    6  C   UNL     1      -8.140  14.711  67.663  1.00  0.00    -0.173 C  
BRANCH   6   7
HETATM    7  C   UNL     1      -8.461  16.062  68.372  1.00  0.00    -0.180 C  
BRANCH   7   8
HETATM    8  N   UNL     1      -9.839  16.623  68.148  1.00  0.00    -0.244 NA 
BRANCH   8   9
HETATM    9  C   UNL     1     -10.683  15.518  67.539  1.00  0.00    -0.300 C  
HETATM   10  O   UNL     1     -12.059  15.735  69.499  1.00  0.00    -0.353 OA 
HETATM   11  C   UNL     1     -11.625  14.870  68.552  1.00  0.00    -0.323 C  
HETATM   12  O   UNL     1     -11.977  13.702  68.508  1.00  0.00    -0.356 OA 
ENDBRANCH   8   9
BRANCH   8  13
HETATM   13  C   UNL     1      -9.731  17.715  67.109  1.00  0.00    -0.291 C  
HETATM   14  O   UNL     1     -10.261  19.222  68.897  1.00  0.00    -0.392 OA 
HETATM   15  O   UNL     1     -10.879  19.834  66.805  1.00  0.00    -0.472 OA 
HETATM   16  C   UNL     1     -10.371  19.024  67.563  1.00  0.00    -0.422 C  
ENDBRANCH   8  13
ENDBRANCH   7   8
ENDBRANCH   6   7
ENDBRANCH   5   6
BRANCH   5  17
HETATM   17  C   UNL     1      -8.731  12.353  67.646  1.00  0.00    -0.178 C  
BRANCH  17  18
HETATM   18  C   UNL     1      -9.322  12.707  66.252  1.00  0.00    -0.160 C  
BRANCH  18  19
HETATM   19  N   UNL     1      -9.949  11.552  65.508  1.00  0.00    -0.232 NA 
BRANCH  19  20
HETATM   20  C   UNL     1     -11.444  11.608  65.769  1.00  0.00    -0.108 C  
HETATM   21  O   UNL     1     -13.314  12.575  64.555  1.00  0.00    -0.780 OA 
HETATM   22  O   UNL     1     -11.658  11.583  63.374  1.00  0.00    -0.363 OA 
HETATM   23  C   UNL     1     -12.241  11.992  64.525  1.00  0.00    -0.241 C  
ENDBRANCH  19  20
BRANCH  19  24
HETATM   24  C   UNL     1      -9.446  10.268  66.130  1.00  0.00    -0.181 C  
HETATM   25  C   UNL     1      -8.659   9.402  65.151  1.00  0.00    -0.167 C  
HETATM   26  O   UNL     1      -8.590   8.185  65.218  1.00  0.00    -0.160 OA 
HETATM   27  O   UNL     1      -7.980  10.132  64.236  1.00  0.00    -0.154 OA 
ENDBRANCH  19  24
ENDBRANCH  18  19
ENDBRANCH  17  18
ENDBRANCH   5  17
ENDBRANCH   3   5
TORSDOF 11
ENDMDL
MODEL      376
REMARK 921   NORMALIZED FREE ENERGY PREDICTED BY IDOCK:   -2.99 KCAL/MOL
REMARK 922        TOTAL FREE ENERGY PREDICTED BY IDOCK:   -6.65 KCAL/MOL
REMARK 923 INTER-LIGAND FREE ENERGY PREDICTED BY IDOCK:   -5.17 KCAL/MOL
REMARK 924 INTRA-LIGAND FREE ENERGY PREDICTED BY IDOCK:   -1.48 KCAL/MOL
REMARK 927      BINDING AFFINITY PREDICTED BY RF-SCORE:    0.00 PKD
ROOT
HETATM    1  O   UNL     1      -8.572   8.157  71.346  1.00  0.00    -0.119 OA 
HETATM    2  C   UNL     1      -9.316   7.462  70.454  1.00  0.00    -0.161 C  
HETATM    3  C   UNL     1      -9.998   8.362  69.428  1.00  0.00    -0.191 C  
HETATM    4  O   UNL     1      -9.458   6.248  70.500  1.00  0.00    -0.160 OA 
ENDROOT
BRANCH   3   5
HETATM    5  N   UNL     1      -9.194   9.593  69.105  1.00  0.00    -0.160 NA 
BRANCH   5   6
HETATM    6  C   UNL     1      -8.669   9.479  67.703  1.00  0.00    -0.122 C  
BRANCH   6   7
HETATM    7  C   UNL     1      -8.973   8.116  67.011  1.00  0.00    -0.141 C  
BRANCH   7   8
HETATM    8  N   UNL     1      -7.794   7.214  66.763  1.00  0.00    -0.101 NA 
BRANCH   8   9
HETATM    9  C   UNL     1      -7.494   7.264  65.275  1.00  0.00    -0.089 C  
HETATM   10  O   UNL     1      -5.633   8.661  65.881  1.00  0.00    -0.044 OA 
HETATM   11  C   UNL     1      -6.532   8.393  64.906  1.00  0.00    -0.064 C  
HETATM   12  O   UNL     1      -6.549   8.981  63.836  1.00  0.00    -0.087 OA 
ENDBRANCH   8   9
BRANCH   8  13
HETATM   13  C   UNL     1      -8.218   5.799  67.078  1.00  0.00    -0.101 C  
HETATM   14  O   UNL     1      -6.575   5.884  68.822  1.00  0.00    -0.050 OA 
HETATM   15  O   UNL     1      -7.025   3.857  67.915  1.00  0.00    -0.053 OA 
HETATM   16  C   UNL     1      -7.208   5.063  67.951  1.00  0.00    -0.067 C  
ENDBRANCH   8  13
ENDBRANCH   7   8
ENDBRANCH   6   7
ENDBRANCH   5   6
BRANCH   5  17
HETATM   17  C   UNL     1     -10.095  10.787  69.175  1.00  0.00    -0.205 C  
BRANCH  17  18
HETATM   18  C   UNL     1      -9.695  12.024  68.321  1.00  0.00    -0.205 C  
BRANCH  18  19
HETATM   19  N   UNL     1     -10.849  12.866  67.830  1.00  0.00    -0.224 NA 
BRANCH  19  20
HETATM   20  C   UNL     1     -11.725  13.174  69.031  1.00  0.00    -0.321 C  
HETATM   21  O   UNL     1     -11.427  14.568  70.999  1.00  0.00    -0.230 OA 
HETATM   22  O   UNL     1     -10.644  15.322  69.013  1.00  0.00    -0.227 OA 
HETATM   23  C   UNL     1     -11.250  14.403  69.802  1.00  0.00    -0.205 C  
ENDBRANCH  19  20
BRANCH  19  24
HETATM   24  C   UNL     1     -11.679  12.018  66.891  1.00  0.00    -0.266 C  
HETATM   25  C   UNL     1     -11.944  12.699  65.553  1.00  0.00    -0.456 C  
HETATM   26  O   UNL     1     -12.931  12.493  64.865  1.00  0.00    -0.821 OA 
HETATM   27  O   UNL     1     -10.928  13.506  65.166  1.00  0.00    -0.299 OA 
ENDBRANCH  19  24
ENDBRANCH  18  19
ENDBRANCH  17  18
ENDBRANCH   5  17
ENDBRANCH   3   5
TORSDOF 11
ENDMDL
MODEL      377
REMARK 921   NORMALIZED FREE ENERGY PREDICTED BY IDOCK:   -2.94 KCAL/MOL
REMARK 922        TOTAL FREE ENERGY PREDICTED BY IDOCK:   -6.57 KCAL/MOL
REMARK 923 INTER-LIGAND FREE ENERGY PREDICTED BY IDOCK:   -5.94 KCAL/MOL
REMARK 924 INTRA-LIGAND FREE ENERGY PREDICTED BY IDOCK:   -0.63 KCAL/MOL
REMARK 927      BINDING AFFINITY PREDICTED BY RF-SCORE:    0.00 PKD
ROOT
HETATM    1  O   UNL     1      -7.342   8.621  65.580  1.00  0.00    -0.082 OA 
HETATM    2  C   UNL     1      -8.418   9.192  64.991  1.00  0.00    -0.171 C  
HETATM    3  C   UNL     1      -9.568   9.426  65.969  1.00  0.00    -0.261 C  
HETATM    4  O   UNL     1      -8.475   9.448  63.797  1.00  0.00    -0.172 OA 
ENDROOT
BRANCH   3   5
HETATM    5  N   UNL     1      -9.094   9.718  67.367  1.00  0.00    -0.134 NA 
BRANCH   5   6
HETATM    6  C   UNL     1      -9.178  11.196  67.613  1.00  0.00    -0.151 C  
BRANCH   6   7
HETATM    7  C   UNL     1      -9.916  11.994  66.496  1.00  0.00    -0.204 C  
BRANCH   7   8
HETATM    8  N   UNL     1     -10.517  13.312  66.900  1.00  0.00    -0.260 NA 
BRANCH   8   9
HETATM    9  C   UNL     1      -9.563  14.402  66.445  1.00  0.00    -0.299 C  
HETATM   10  O   UNL     1     -11.401  15.911  66.800  1.00  0.00    -0.057 OA 
HETATM   11  C   UNL     1     -10.282  15.696  66.069  1.00  0.00    -0.335 C  
HETATM   12  O   UNL     1      -9.885  16.475  65.217  1.00  0.00    -0.488 OA 
ENDBRANCH   8   9
BRANCH   8  13
HETATM   13  C   UNL     1     -10.553  13.362  68.410  1.00  0.00    -0.248 C  
HETATM   14  O   UNL     1     -12.457  11.916  68.235  1.00  0.00    -0.153 OA 
HETATM   15  O   UNL     1     -12.361  13.296  70.030  1.00  0.00    -0.281 OA 
HETATM   16  C   UNL     1     -11.885  12.888  68.983  1.00  0.00    -0.306 C  
ENDBRANCH   8  13
ENDBRANCH   7   8
ENDBRANCH   6   7
ENDBRANCH   5   6
BRANCH   5  17
HETATM   17  C   UNL     1     -10.004   9.026  68.336  1.00  0.00    -0.180 C  
BRANCH  17  18
HETATM   18  C   UNL     1     -10.203   9.703  69.722  1.00  0.00    -0.237 C  
BRANCH  18  19
HETATM   19  N   UNL     1     -10.617   8.772  70.837  1.00  0.00    -0.207 NA 
BRANCH  19  20
HETATM   20  C   UNL     1     -12.059   9.096  71.182  1.00  0.00    -0.299 C  
HETATM   21  O   UNL     1     -14.069   7.745  71.387  1.00  0.00    -0.389 OA 
HETATM   22  O   UNL     1     -12.113   6.891  72.140  1.00  0.00    -0.291 OA 
HETATM   23  C   UNL     1     -12.865   7.854  71.557  1.00  0.00    -0.317 C  
ENDBRANCH  19  20
BRANCH  19  24
HETATM   24  C   UNL     1      -9.790   9.110  72.058  1.00  0.00     0.075 C  
HETATM   25  C   UNL     1      -8.967   7.930  72.565  1.00  0.00    -0.174 C  
HETATM   26  O   UNL     1      -8.643   7.774  73.731  1.00  0.00    -0.200 OA 
HETATM   27  O   UNL     1      -8.567   7.105  71.569  1.00  0.00    -0.116 OA 
ENDBRANCH  19  24
ENDBRANCH  18  19
ENDBRANCH  17  18
ENDBRANCH   5  17
ENDBRANCH   3   5
TORSDOF 11
ENDMDL
MODEL      378
REMARK 921   NORMALIZED FREE ENERGY PREDICTED BY IDOCK:   -2.94 KCAL/MOL
REMARK 922        TOTAL FREE ENERGY PREDICTED BY IDOCK:   -6.56 KCAL/MOL
REMARK 923 INTER-LIGAND FREE ENERGY PREDICTED BY IDOCK:   -6.55 KCAL/MOL
REMARK 924 INTRA-LIGAND FREE ENERGY PREDICTED BY IDOCK:   -0.02 KCAL/MOL
REMARK 927      BINDING AFFINITY PREDICTED BY RF-SCORE:    0.00 PKD
ROOT
HETATM    1  O   UNL     1     -10.913  11.702  69.829  1.00  0.00    -0.108 OA 
HETATM    2  C   UNL     1     -11.900  11.807  68.909  1.00  0.00    -0.320 C  
HETATM    3  C   UNL     1     -11.735  13.026  68.005  1.00  0.00    -0.355 C  
HETATM    4  O   UNL     1     -12.843  11.031  68.844  1.00  0.00    -0.004 OA 
ENDROOT
BRANCH   3   5
HETATM    5  N   UNL     1     -10.293  13.384  67.766  1.00  0.00    -0.237 NA 
BRANCH   5   6
HETATM    6  C   UNL     1      -9.871  14.411  68.776  1.00  0.00    -0.214 C  
BRANCH   6   7
HETATM    7  C   UNL     1      -9.749  15.858  68.211  1.00  0.00    -0.209 C  
BRANCH   7   8
HETATM    8  N   UNL     1      -9.505  15.980  66.731  1.00  0.00    -0.221 NA 
BRANCH   8   9
HETATM    9  C   UNL     1      -8.354  16.952  66.542  1.00  0.00    -0.280 C  
HETATM   10  O   UNL     1      -6.935  15.110  67.153  1.00  0.00    -0.229 OA 
HETATM   11  C   UNL     1      -7.056  16.458  67.177  1.00  0.00    -0.200 C  
HETATM   12  O   UNL     1      -6.198  17.195  67.639  1.00  0.00    -0.133 OA 
ENDBRANCH   8   9
BRANCH   8  13
HETATM   13  C   UNL     1     -10.726  16.618  66.111  1.00  0.00    -0.132 C  
HETATM   14  O   UNL     1     -10.689  14.777  64.576  1.00  0.00    -0.316 OA 
HETATM   15  O   UNL     1     -11.562  16.732  63.834  1.00  0.00    -1.122 OA 
HETATM   16  C   UNL     1     -11.026  16.081  64.715  1.00  0.00    -0.356 C  
ENDBRANCH   8  13
ENDBRANCH   7   8
ENDBRANCH   6   7
ENDBRANCH   5   6
BRANCH   5  17
HETATM   17  C   UNL     1      -9.455  12.158  67.962  1.00  0.00    -0.201 C  
BRANCH  17  18
HETATM   18  C   UNL     1      -8.338  11.892  66.913  1.00  0.00    -0.169 C  
BRANCH  18  19
HETATM   19  N   UNL     1      -8.608  10.748  65.964  1.00  0.00    -0.173 NA 
BRANCH  19  20
HETATM   20  C   UNL     1     -10.027  10.915  65.451  1.00  0.00    -0.263 C  
HETATM   21  O   UNL     1     -10.960  11.484  63.280  1.00  0.00    -0.351 OA 
HETATM   22  O   UNL     1      -9.144  10.134  63.354  1.00  0.00    -0.231 OA 
HETATM   23  C   UNL     1     -10.103  10.900  63.926  1.00  0.00    -0.361 C  
ENDBRANCH  19  20
BRANCH  19  24
HETATM   24  C   UNL     1      -8.580   9.463  66.762  1.00  0.00    -0.127 C  
HETATM   25  C   UNL     1      -7.548   8.466  66.248  1.00  0.00    -0.086 C  
HETATM   26  O   UNL     1      -7.655   7.255  66.356  1.00  0.00    -0.088 OA 
HETATM   27  O   UNL     1      -6.455   9.068  65.721  1.00  0.00    -0.062 OA 
ENDBRANCH  19  24
ENDBRANCH  18  19
ENDBRANCH  17  18
ENDBRANCH   5  17
ENDBRANCH   3   5
TORSDOF 11
ENDMDL
MODEL      379
REMARK 921   NORMALIZED FREE ENERGY PREDICTED BY IDOCK:   -2.91 KCAL/MOL
REMARK 922        TOTAL FREE ENERGY PREDICTED BY IDOCK:   -6.52 KCAL/MOL
REMARK 923 INTER-LIGAND FREE ENERGY PREDICTED BY IDOCK:   -5.17 KCAL/MOL
REMARK 924 INTRA-LIGAND FREE ENERGY PREDICTED BY IDOCK:   -1.35 KCAL/MOL
REMARK 927      BINDING AFFINITY PREDICTED BY RF-SCORE:    0.00 PKD
ROOT
HETATM    1  O   UNL     1     -11.242   8.092  71.459  1.00  0.00    -0.245 OA 
HETATM    2  C   UNL     1     -11.573   6.786  71.331  1.00  0.00    -0.305 C  
HETATM    3  C   UNL     1     -11.457   6.289  69.892  1.00  0.00    -0.389 C  
HETATM    4  O   UNL     1     -11.966   6.098  72.262  1.00  0.00    -0.318 OA 
ENDROOT
BRANCH   3   5
HETATM    5  N   UNL     1     -10.365   6.981  69.122  1.00  0.00    -0.194 NA 
BRANCH   5   6
HETATM    6  C   UNL     1      -9.254   6.005  68.866  1.00  0.00    -0.124 C  
BRANCH   6   7
HETATM    7  C   UNL     1      -9.664   4.508  69.016  1.00  0.00    -0.165 C  
BRANCH   7   8
HETATM    8  N   UNL     1      -8.860   3.688  69.988  1.00  0.00    -0.078 NA 
BRANCH   8   9
HETATM    9  C   UNL     1      -8.587   2.348  69.329  1.00  0.00    -0.072 C  
HETATM   10  O   UNL     1      -6.347   3.164  69.013  1.00  0.00    -0.028 OA 
HETATM   11  C   UNL     1      -7.301   2.349  68.504  1.00  0.00    -0.047 C  
HETATM   12  O   UNL     1      -7.131   1.670  67.504  1.00  0.00    -0.038 OA 
ENDBRANCH   8   9
BRANCH   8  13
HETATM   13  C   UNL     1      -9.729   3.415  71.193  1.00  0.00    -0.152 C  
HETATM   14  O   UNL     1      -8.527   5.204  72.242  1.00  0.00    -0.122 OA 
HETATM   15  O   UNL     1      -9.343   3.572  73.586  1.00  0.00    -0.096 OA 
HETATM   16  C   UNL     1      -9.175   4.038  72.471  1.00  0.00    -0.114 C  
ENDBRANCH   8  13
ENDBRANCH   7   8
ENDBRANCH   6   7
ENDBRANCH   5   6
BRANCH   5  17
HETATM   17  C   UNL     1     -10.916   7.424  67.801  1.00  0.00    -0.029 C  
BRANCH  17  18
HETATM   18  C   UNL     1      -9.932   8.135  66.829  1.00  0.00    -0.279 C  
BRANCH  18  19
HETATM   19  N   UNL     1     -10.278   9.568  66.499  1.00  0.00    -0.253 NA 
BRANCH  19  20
HETATM   20  C   UNL     1      -8.972  10.298  66.243  1.00  0.00    -0.153 C  
HETATM   21  O   UNL     1      -7.373  10.266  64.413  1.00  0.00    -0.139 OA 
HETATM   22  O   UNL     1      -9.580  10.152  63.921  1.00  0.00    -0.291 OA 
HETATM   23  C   UNL     1      -8.537  10.225  64.781  1.00  0.00    -0.184 C  
ENDBRANCH  19  20
BRANCH  19  24
HETATM   24  C   UNL     1     -10.894  10.194  67.731  1.00  0.00    -0.292 C  
HETATM   25  C   UNL     1     -11.410  11.608  67.484  1.00  0.00    -0.298 C  
HETATM   26  O   UNL     1     -11.474  12.472  68.343  1.00  0.00    -0.264 OA 
HETATM   27  O   UNL     1     -11.864  11.786  66.221  1.00  0.00    -0.501 OA 
ENDBRANCH  19  24
ENDBRANCH  18  19
ENDBRANCH  17  18
ENDBRANCH   5  17
ENDBRANCH   3   5
TORSDOF 11
ENDMDL
MODEL      380
REMARK 921   NORMALIZED FREE ENERGY PREDICTED BY IDOCK:   -2.89 KCAL/MOL
REMARK 922        TOTAL FREE ENERGY PREDICTED BY IDOCK:   -6.49 KCAL/MOL
REMARK 923 INTER-LIGAND FREE ENERGY PREDICTED BY IDOCK:   -6.64 KCAL/MOL
REMARK 924 INTRA-LIGAND FREE ENERGY PREDICTED BY IDOCK:    0.15 KCAL/MOL
REMARK 927      BINDING AFFINITY PREDICTED BY RF-SCORE:    0.00 PKD
ROOT
HETATM    1  O   UNL     1     -10.896  12.697  69.118  1.00  0.00    -0.186 OA 
HETATM    2  C   UNL     1     -11.765  12.054  68.304  1.00  0.00    -0.334 C  
HETATM    3  C   UNL     1     -11.696  12.548  66.861  1.00  0.00    -0.377 C  
HETATM    4  O   UNL     1     -12.549  11.202  68.697  1.00  0.00    -0.318 OA 
ENDROOT
BRANCH   3   5
HETATM    5  N   UNL     1     -10.316  12.999  66.464  1.00  0.00    -0.269 NA 
BRANCH   5   6
HETATM    6  C   UNL     1      -9.959  12.376  65.146  1.00  0.00    -0.198 C  
BRANCH   6   7
HETATM    7  C   UNL     1     -10.165  10.833  65.086  1.00  0.00    -0.298 C  
BRANCH   7   8
HETATM    8  N   UNL     1      -8.921   9.989  65.149  1.00  0.00    -0.177 NA 
BRANCH   8   9
HETATM    9  C   UNL     1      -8.021  10.591  66.214  1.00  0.00    -0.144 C  
HETATM   10  O   UNL     1      -8.674   8.715  67.570  1.00  0.00    -0.133 OA 
HETATM   11  C   UNL     1      -8.283  10.011  67.603  1.00  0.00    -0.114 C  
HETATM   12  O   UNL     1      -8.134  10.634  68.642  1.00  0.00    -0.116 OA 
ENDBRANCH   8   9
BRANCH   8  13
HETATM   13  C   UNL     1      -8.197  10.132  63.831  1.00  0.00    -0.164 C  
HETATM   14  O   UNL     1      -8.273   7.738  63.733  1.00  0.00    -0.094 OA 
HETATM   15  O   UNL     1      -6.545   8.766  62.689  1.00  0.00    -0.095 OA 
HETATM   16  C   UNL     1      -7.558   8.827  63.366  1.00  0.00    -0.114 C  
ENDBRANCH   8  13
ENDBRANCH   7   8
ENDBRANCH   6   7
ENDBRANCH   5   6
BRANCH   5  17
HETATM   17  C   UNL     1     -10.327  14.487  66.295  1.00  0.00    -0.294 C  
BRANCH  17  18
HETATM   18  C   UNL     1      -8.948  15.204  66.264  1.00  0.00    -0.239 C  
BRANCH  18  19
HETATM   19  N   UNL     1      -9.007  16.704  66.094  1.00  0.00    -0.417 NA 
BRANCH  19  20
HETATM   20  C   UNL     1      -7.630  17.249  66.427  1.00  0.00    -0.314 C  
HETATM   21  O   UNL     1      -6.619  18.098  68.467  1.00  0.00    -0.204 OA 
HETATM   22  O   UNL     1      -8.010  16.318  68.611  1.00  0.00    -0.189 OA 
HETATM   23  C   UNL     1      -7.365  17.293  67.929  1.00  0.00    -0.184 C  
ENDBRANCH  19  20
BRANCH  19  24
HETATM   24  C   UNL     1      -9.957  17.254  67.136  1.00  0.00    -0.282 C  
HETATM   25  C   UNL     1     -10.594  18.576  66.721  1.00  0.00    -0.354 C  
HETATM   26  O   UNL     1     -10.961  19.434  67.507  1.00  0.00    -0.464 OA 
HETATM   27  O   UNL     1     -10.781  18.669  65.383  1.00  0.00    -0.572 OA 
ENDBRANCH  19  24
ENDBRANCH  18  19
ENDBRANCH  17  18
ENDBRANCH   5  17
ENDBRANCH   3   5
TORSDOF 11
ENDMDL
MODEL      381
REMARK 921   NORMALIZED FREE ENERGY PREDICTED BY IDOCK:   -2.84 KCAL/MOL
REMARK 922        TOTAL FREE ENERGY PREDICTED BY IDOCK:   -6.41 KCAL/MOL
REMARK 923 INTER-LIGAND FREE ENERGY PREDICTED BY IDOCK:   -6.54 KCAL/MOL
REMARK 924 INTRA-LIGAND FREE ENERGY PREDICTED BY IDOCK:    0.13 KCAL/MOL
REMARK 927      BINDING AFFINITY PREDICTED BY RF-SCORE:    0.00 PKD
ROOT
HETATM    1  O   UNL     1      -9.368   9.249  71.702  1.00  0.00    -0.301 OA 
HETATM    2  C   UNL     1     -10.527   8.575  71.885  1.00  0.00    -0.317 C  
HETATM    3  C   UNL     1     -11.490   8.729  70.710  1.00  0.00    -0.270 C  
HETATM    4  O   UNL     1     -10.787   7.951  72.904  1.00  0.00    -0.362 OA 
ENDROOT
BRANCH   3   5
HETATM    5  N   UNL     1     -10.781   8.881  69.391  1.00  0.00    -0.214 NA 
BRANCH   5   6
HETATM    6  C   UNL     1     -10.693  10.340  69.050  1.00  0.00    -0.227 C  
BRANCH   6   7
HETATM    7  C   UNL     1     -11.358  10.725  67.694  1.00  0.00    -0.252 C  
BRANCH   7   8
HETATM    8  N   UNL     1     -11.454  12.195  67.389  1.00  0.00    -0.328 NA 
BRANCH   8   9
HETATM    9  C   UNL     1     -11.225  12.363  65.898  1.00  0.00    -0.336 C  
HETATM   10  O   UNL     1     -12.868  14.115  66.025  1.00  0.00    -0.425 OA 
HETATM   11  C   UNL     1     -12.332  13.169  65.219  1.00  0.00    -0.481 C  
HETATM   12  O   UNL     1     -12.686  13.002  64.062  1.00  0.00    -0.656 OA 
ENDBRANCH   8   9
BRANCH   8  13
HETATM   13  C   UNL     1     -10.311  12.890  68.090  1.00  0.00    -0.240 C  
HETATM   14  O   UNL     1     -12.005  14.012  69.362  1.00  0.00    -0.305 OA 
HETATM   15  O   UNL     1     -10.049  15.110  69.039  1.00  0.00    -0.225 OA 
HETATM   16  C   UNL     1     -10.756  14.133  68.854  1.00  0.00    -0.256 C  
ENDBRANCH   8  13
ENDBRANCH   7   8
ENDBRANCH   6   7
ENDBRANCH   5   6
BRANCH   5  17
HETATM   17  C   UNL     1      -9.389   8.344  69.529  1.00  0.00    -0.158 C  
BRANCH  17  18
HETATM   18  C   UNL     1      -9.160   6.863  69.115  1.00  0.00    -0.136 C  
BRANCH  18  19
HETATM   19  N   UNL     1      -8.572   6.665  67.738  1.00  0.00    -0.121 NA 
BRANCH  19  20
HETATM   20  C   UNL     1      -9.543   7.274  66.742  1.00  0.00    -0.185 C  
HETATM   21  O   UNL     1      -9.458   9.245  65.322  1.00  0.00    -0.245 OA 
HETATM   22  O   UNL     1      -7.572   8.021  65.585  1.00  0.00    -0.078 OA 
HETATM   23  C   UNL     1      -8.876   8.296  65.824  1.00  0.00    -0.155 C  
ENDBRANCH  19  20
BRANCH  19  24
HETATM   24  C   UNL     1      -8.534   5.179  67.456  1.00  0.00    -0.105 C  
HETATM   25  C   UNL     1      -7.198   4.717  66.885  1.00  0.00    -0.076 C  
HETATM   26  O   UNL     1      -7.069   3.758  66.140  1.00  0.00    -0.061 OA 
HETATM   27  O   UNL     1      -6.151   5.439  67.350  1.00  0.00    -0.027 OA 
ENDBRANCH  19  24
ENDBRANCH  18  19
ENDBRANCH  17  18
ENDBRANCH   5  17
ENDBRANCH   3   5
TORSDOF 11
ENDMDL
MODEL      382
REMARK 921   NORMALIZED FREE ENERGY PREDICTED BY IDOCK:   -2.81 KCAL/MOL
REMARK 922        TOTAL FREE ENERGY PREDICTED BY IDOCK:   -6.36 KCAL/MOL
REMARK 923 INTER-LIGAND FREE ENERGY PREDICTED BY IDOCK:   -6.50 KCAL/MOL
REMARK 924 INTRA-LIGAND FREE ENERGY PREDICTED BY IDOCK:    0.14 KCAL/MOL
REMARK 927      BINDING AFFINITY PREDICTED BY RF-SCORE:    0.00 PKD
ROOT
HETATM    1  O   UNL     1      -9.696  10.478  69.708  1.00  0.00    -0.139 OA 
HETATM    2  C   UNL     1     -10.869  10.038  70.219  1.00  0.00    -0.313 C  
HETATM    3  C   UNL     1     -12.066  10.847  69.725  1.00  0.00    -0.338 C  
HETATM    4  O   UNL     1     -10.950   9.121  71.024  1.00  0.00    -0.254 OA 
ENDROOT
BRANCH   3   5
HETATM    5  N   UNL     1     -11.878  11.373  68.328  1.00  0.00    -0.567 NA 
BRANCH   5   6
HETATM    6  C   UNL     1     -11.613  12.849  68.393  1.00  0.00    -0.333 C  
BRANCH   6   7
HETATM    7  C   UNL     1     -11.774  13.593  67.033  1.00  0.00    -0.384 C  
BRANCH   7   8
HETATM    8  N   UNL     1     -10.684  14.563  66.668  1.00  0.00    -0.300 NA 
BRANCH   8   9
HETATM    9  C   UNL     1     -10.825  14.865  65.186  1.00  0.00    -0.414 C  
HETATM   10  O   UNL     1     -10.366  17.147  65.790  1.00  0.00    -0.504 OA 
HETATM   11  C   UNL     1     -11.013  16.354  64.904  1.00  0.00    -0.263 C  
HETATM   12  O   UNL     1     -11.657  16.795  63.964  1.00  0.00    -1.195 OA 
ENDBRANCH   8   9
BRANCH   8  13
HETATM   13  C   UNL     1      -9.358  13.861  66.848  1.00  0.00    -0.258 C  
HETATM   14  O   UNL     1      -8.810  15.660  68.335  1.00  0.00    -0.175 OA 
HETATM   15  O   UNL     1      -7.098  14.658  67.238  1.00  0.00    -0.172 OA 
HETATM   16  C   UNL     1      -8.293  14.764  67.462  1.00  0.00    -0.183 C  
ENDBRANCH   8  13
ENDBRANCH   7   8
ENDBRANCH   6   7
ENDBRANCH   5   6
BRANCH   5  17
HETATM   17  C   UNL     1     -10.683  10.706  67.720  1.00  0.00    -0.257 C  
BRANCH  17  18
HETATM   18  C   UNL     1     -10.917   9.891  66.416  1.00  0.00     0.296 C  
BRANCH  18  19
HETATM   19  N   UNL     1      -9.662   9.482  65.681  1.00  0.00    -0.289 NA 
BRANCH  19  20
HETATM   20  C   UNL     1      -8.766   8.774  66.681  1.00  0.00    -0.125 C  
HETATM   21  O   UNL     1      -7.978   6.484  66.887  1.00  0.00    -0.109 OA 
HETATM   22  O   UNL     1      -8.119   7.396  64.820  1.00  0.00    -0.131 OA 
HETATM   23  C   UNL     1      -8.262   7.428  66.166  1.00  0.00    -0.130 C  
ENDBRANCH  19  20
BRANCH  19  24
HETATM   24  C   UNL     1      -8.936  10.740  65.259  1.00  0.00    -0.194 C  
HETATM   25  C   UNL     1      -8.770  10.852  63.748  1.00  0.00    -0.012 C  
HETATM   26  O   UNL     1      -7.850  11.442  63.203  1.00  0.00     0.491 OA 
HETATM   27  O   UNL     1      -9.795  10.290  63.065  1.00  0.00    -0.249 OA 
ENDBRANCH  19  24
ENDBRANCH  18  19
ENDBRANCH  17  18
ENDBRANCH   5  17
ENDBRANCH   3   5
TORSDOF 11
ENDMDL
MODEL      383
REMARK 921   NORMALIZED FREE ENERGY PREDICTED BY IDOCK:   -2.79 KCAL/MOL
REMARK 922        TOTAL FREE ENERGY PREDICTED BY IDOCK:   -6.33 KCAL/MOL
REMARK 923 INTER-LIGAND FREE ENERGY PREDICTED BY IDOCK:   -4.57 KCAL/MOL
REMARK 924 INTRA-LIGAND FREE ENERGY PREDICTED BY IDOCK:   -1.76 KCAL/MOL
REMARK 927      BINDING AFFINITY PREDICTED BY RF-SCORE:    0.00 PKD
ROOT
HETATM    1  O   UNL     1     -11.416  11.801  68.497  1.00  0.00    -0.245 OA 
HETATM    2  C   UNL     1     -11.624  11.355  69.758  1.00  0.00    -0.332 C  
HETATM    3  C   UNL     1     -11.167   9.912  69.955  1.00  0.00    -0.276 C  
HETATM    4  O   UNL     1     -12.163  12.025  70.627  1.00  0.00    -0.374 OA 
ENDROOT
BRANCH   3   5
HETATM    5  N   UNL     1      -9.981   9.554  69.100  1.00  0.00    -0.176 NA 
BRANCH   5   6
HETATM    6  C   UNL     1      -8.868   9.072  69.985  1.00  0.00    -0.173 C  
BRANCH   6   7
HETATM    7  C   UNL     1      -9.305   8.735  71.442  1.00  0.00    -0.258 C  
BRANCH   7   8
HETATM    8  N   UNL     1      -8.879   7.394  71.975  1.00  0.00    -0.123 NA 
BRANCH   8   9
HETATM    9  C   UNL     1      -7.903   6.800  70.975  1.00  0.00    -0.101 C  
HETATM   10  O   UNL     1      -6.683   6.027  72.897  1.00  0.00    -0.071 OA 
HETATM   11  C   UNL     1      -6.564   6.427  71.610  1.00  0.00    -0.054 C  
HETATM   12  O   UNL     1      -5.496   6.457  71.018  1.00  0.00    -0.021 OA 
ENDBRANCH   8   9
BRANCH   8  13
HETATM   13  C   UNL     1     -10.093   6.494  71.990  1.00  0.00    -0.184 C  
HETATM   14  O   UNL     1      -9.978   6.677  74.377  1.00  0.00    -0.314 OA 
HETATM   15  O   UNL     1     -10.865   4.775  73.521  1.00  0.00    -0.241 OA 
HETATM   16  C   UNL     1     -10.343   5.865  73.357  1.00  0.00    -0.231 C  
ENDBRANCH   8  13
ENDBRANCH   7   8
ENDBRANCH   6   7
ENDBRANCH   5   6
BRANCH   5  17
HETATM   17  C   UNL     1     -10.372   8.435  68.183  1.00  0.00    -0.204 C  
BRANCH  17  18
HETATM   18  C   UNL     1      -9.976   8.580  66.686  1.00  0.00    -0.293 C  
BRANCH  18  19
HETATM   19  N   UNL     1      -8.566   8.156  66.351  1.00  0.00    -0.132 NA 
BRANCH  19  20
HETATM   20  C   UNL     1      -8.531   7.846  64.865  1.00  0.00    -0.028 C  
HETATM   21  O   UNL     1      -8.436   9.235  62.873  1.00  0.00    -0.186 OA 
HETATM   22  O   UNL     1      -7.227   9.858  64.682  1.00  0.00    -0.126 OA 
HETATM   23  C   UNL     1      -8.087   9.043  64.027  1.00  0.00    -0.158 C  
ENDBRANCH  19  20
BRANCH  19  24
HETATM   24  C   UNL     1      -8.285   6.857  67.074  1.00  0.00    -0.120 C  
HETATM   25  C   UNL     1      -6.799   6.632  67.336  1.00  0.00    -0.073 C  
HETATM   26  O   UNL     1      -6.280   5.531  67.423  1.00  0.00    -0.029 OA 
HETATM   27  O   UNL     1      -6.123   7.787  67.538  1.00  0.00    -0.046 OA 
ENDBRANCH  19  24
ENDBRANCH  18  19
ENDBRANCH  17  18
ENDBRANCH   5  17
ENDBRANCH   3   5
TORSDOF 11
ENDMDL
MODEL      384
REMARK 921   NORMALIZED FREE ENERGY PREDICTED BY IDOCK:   -2.78 KCAL/MOL
REMARK 922        TOTAL FREE ENERGY PREDICTED BY IDOCK:   -6.31 KCAL/MOL
REMARK 923 INTER-LIGAND FREE ENERGY PREDICTED BY IDOCK:   -4.75 KCAL/MOL
REMARK 924 INTRA-LIGAND FREE ENERGY PREDICTED BY IDOCK:   -1.55 KCAL/MOL
REMARK 927      BINDING AFFINITY PREDICTED BY RF-SCORE:    0.00 PKD
ROOT
HETATM    1  O   UNL     1     -10.570   9.837  70.081  1.00  0.00    -0.243 OA 
HETATM    2  C   UNL     1      -9.378   9.453  69.566  1.00  0.00    -0.180 C  
HETATM    3  C   UNL     1      -9.366   7.988  69.139  1.00  0.00    -0.151 C  
HETATM    4  O   UNL     1      -8.407  10.193  69.497  1.00  0.00    -0.154 OA 
ENDROOT
BRANCH   3   5
HETATM    5  N   UNL     1     -10.708   7.510  68.653  1.00  0.00    -0.132 NA 
BRANCH   5   6
HETATM    6  C   UNL     1     -10.607   7.173  67.193  1.00  0.00    -0.347 C  
BRANCH   6   7
HETATM    7  C   UNL     1      -9.280   7.633  66.517  1.00  0.00    -0.176 C  
BRANCH   7   8
HETATM    8  N   UNL     1      -8.637   6.655  65.572  1.00  0.00    -0.130 NA 
BRANCH   8   9
HETATM    9  C   UNL     1      -8.417   5.364  66.340  1.00  0.00    -0.114 C  
HETATM   10  O   UNL     1      -9.089   4.256  64.314  1.00  0.00    -0.142 OA 
HETATM   11  C   UNL     1      -9.069   4.158  65.664  1.00  0.00    -0.137 C  
HETATM   12  O   UNL     1      -9.507   3.191  66.268  1.00  0.00    -0.137 OA 
ENDBRANCH   8   9
BRANCH   8  13
HETATM   13  C   UNL     1      -7.271   7.189  65.211  1.00  0.00    -0.073 C  
HETATM   14  O   UNL     1      -8.181   7.534  63.020  1.00  0.00    -0.095 OA 
HETATM   15  O   UNL     1      -5.955   7.136  63.171  1.00  0.00    -0.040 OA 
HETATM   16  C   UNL     1      -7.045   7.258  63.704  1.00  0.00    -0.066 C  
ENDBRANCH   8  13
ENDBRANCH   7   8
ENDBRANCH   6   7
ENDBRANCH   5   6
BRANCH   5  17
HETATM   17  C   UNL     1     -11.074   6.265  69.400  1.00  0.00    -0.410 C  
BRANCH  17  18
HETATM   18  C   UNL     1      -9.919   5.504  70.111  1.00  0.00    -0.221 C  
BRANCH  18  19
HETATM   19  N   UNL     1     -10.087   5.328  71.601  1.00  0.00    -0.192 NA 
BRANCH  19  20
HETATM   20  C   UNL     1      -9.081   6.242  72.279  1.00  0.00    -0.140 C  
HETATM   21  O   UNL     1      -9.093   8.605  72.846  1.00  0.00    -0.314 OA 
HETATM   22  O   UNL     1     -11.010   7.426  73.092  1.00  0.00    -0.357 OA 
HETATM   23  C   UNL     1      -9.706   7.553  72.749  1.00  0.00    -0.187 C  
ENDBRANCH  19  20
BRANCH  19  24
HETATM   24  C   UNL     1      -9.693   3.910  71.952  1.00  0.00    -0.169 C  
HETATM   25  C   UNL     1      -9.918   3.577  73.423  1.00  0.00    -0.116 C  
HETATM   26  O   UNL     1      -9.262   2.757  74.045  1.00  0.00    -0.080 OA 
HETATM   27  O   UNL     1     -10.976   4.234  73.952  1.00  0.00    -0.252 OA 
ENDBRANCH  19  24
ENDBRANCH  18  19
ENDBRANCH  17  18
ENDBRANCH   5  17
ENDBRANCH   3   5
TORSDOF 11
ENDMDL
MODEL      385
REMARK 921   NORMALIZED FREE ENERGY PREDICTED BY IDOCK:   -2.74 KCAL/MOL
REMARK 922        TOTAL FREE ENERGY PREDICTED BY IDOCK:   -6.25 KCAL/MOL
REMARK 923 INTER-LIGAND FREE ENERGY PREDICTED BY IDOCK:   -5.15 KCAL/MOL
REMARK 924 INTRA-LIGAND FREE ENERGY PREDICTED BY IDOCK:   -1.10 KCAL/MOL
REMARK 927      BINDING AFFINITY PREDICTED BY RF-SCORE:    0.00 PKD
ROOT
HETATM    1  O   UNL     1     -11.839   6.969  70.519  1.00  0.00    -0.326 OA 
HETATM    2  C   UNL     1     -11.746   8.263  70.903  1.00  0.00    -0.239 C  
HETATM    3  C   UNL     1     -10.706   9.042  70.102  1.00  0.00    -0.233 C  
HETATM    4  O   UNL     1     -12.395   8.739  71.824  1.00  0.00    -0.309 OA 
ENDROOT
BRANCH   3   5
HETATM    5  N   UNL     1     -10.575   8.552  68.685  1.00  0.00    -0.166 NA 
BRANCH   5   6
HETATM    6  C   UNL     1     -10.590   9.732  67.757  1.00  0.00    -0.266 C  
BRANCH   6   7
HETATM    7  C   UNL     1     -10.333  11.103  68.455  1.00  0.00    -0.186 C  
BRANCH   7   8
HETATM    8  N   UNL     1     -10.965  12.308  67.813  1.00  0.00    -0.221 NA 
BRANCH   8   9
HETATM    9  C   UNL     1     -12.231  12.622  68.591  1.00  0.00     0.074 C  
HETATM   10  O   UNL     1     -11.255  14.789  68.956  1.00  0.00    -0.244 OA 
HETATM   11  C   UNL     1     -12.086  13.857  69.478  1.00  0.00    -0.342 C  
HETATM   12  O   UNL     1     -12.674  14.010  70.537  1.00  0.00    -0.327 OA 
ENDBRANCH   8   9
BRANCH   8  13
HETATM   13  C   UNL     1     -11.392  11.920  66.417  1.00  0.00    -0.339 C  
HETATM   14  O   UNL     1     -11.099  14.237  65.876  1.00  0.00    -0.302 OA 
HETATM   15  O   UNL     1     -12.636  13.077  64.682  1.00  0.00    -0.591 OA 
HETATM   16  C   UNL     1     -11.804  13.122  65.573  1.00  0.00    -0.380 C  
ENDBRANCH   8  13
ENDBRANCH   7   8
ENDBRANCH   6   7
ENDBRANCH   5   6
BRANCH   5  17
HETATM   17  C   UNL     1      -9.258   7.854  68.538  1.00  0.00    -0.138 C  
BRANCH  17  18
HETATM   18  C   UNL     1      -8.996   7.118  67.194  1.00  0.00    -0.125 C  
BRANCH  18  19
HETATM   19  N   UNL     1      -7.566   6.689  66.964  1.00  0.00    -0.094 NA 
BRANCH  19  20
HETATM   20  C   UNL     1      -7.405   6.440  65.475  1.00  0.00    -0.076 C  
HETATM   21  O   UNL     1      -7.316   7.905  63.538  1.00  0.00    -0.091 OA 
HETATM   22  O   UNL     1      -6.292   8.572  65.445  1.00  0.00    -0.054 OA 
HETATM   23  C   UNL     1      -7.025   7.704  64.708  1.00  0.00    -0.055 C  
ENDBRANCH  19  20
BRANCH  19  24
HETATM   24  C   UNL     1      -7.361   5.358  67.654  1.00  0.00    -0.076 C  
HETATM   25  C   UNL     1      -5.897   5.070  67.966  1.00  0.00    -0.021 C  
HETATM   26  O   UNL     1      -5.421   3.948  68.037  1.00  0.00    -0.015 OA 
HETATM   27  O   UNL     1      -5.187   6.192  68.233  1.00  0.00    -0.003 OA 
ENDBRANCH  19  24
ENDBRANCH  18  19
ENDBRANCH  17  18
ENDBRANCH   5  17
ENDBRANCH   3   5
TORSDOF 11
ENDMDL
MODEL      386
REMARK 921   NORMALIZED FREE ENERGY PREDICTED BY IDOCK:   -2.73 KCAL/MOL
REMARK 922        TOTAL FREE ENERGY PREDICTED BY IDOCK:   -6.22 KCAL/MOL
REMARK 923 INTER-LIGAND FREE ENERGY PREDICTED BY IDOCK:   -5.06 KCAL/MOL
REMARK 924 INTRA-LIGAND FREE ENERGY PREDICTED BY IDOCK:   -1.17 KCAL/MOL
REMARK 927      BINDING AFFINITY PREDICTED BY RF-SCORE:    0.00 PKD
ROOT
HETATM    1  O   UNL     1      -7.345  11.912  69.612  1.00  0.00     0.173 OA 
HETATM    2  C   UNL     1      -7.101  12.943  68.770  1.00  0.00    -0.096 C  
HETATM    3  C   UNL     1      -8.204  13.129  67.732  1.00  0.00    -0.168 C  
HETATM    4  O   UNL     1      -6.083  13.619  68.813  1.00  0.00    -0.079 OA 
ENDROOT
BRANCH   3   5
HETATM    5  N   UNL     1      -9.563  12.743  68.249  1.00  0.00    -0.221 NA 
BRANCH   5   6
HETATM    6  C   UNL     1     -10.556  13.796  67.848  1.00  0.00    -0.252 C  
BRANCH   6   7
HETATM    7  C   UNL     1     -10.140  15.250  68.227  1.00  0.00    -0.225 C  
BRANCH   7   8
HETATM    8  N   UNL     1      -9.946  16.209  67.084  1.00  0.00    -0.246 NA 
BRANCH   8   9
HETATM    9  C   UNL     1      -9.824  17.601  67.680  1.00  0.00    -0.294 C  
HETATM   10  O   UNL     1      -8.087  17.949  66.054  1.00  0.00    -0.486 OA 
HETATM   11  C   UNL     1      -8.523  18.298  67.287  1.00  0.00    -0.250 C  
HETATM   12  O   UNL     1      -7.941  19.106  67.994  1.00  0.00    -0.278 OA 
ENDBRANCH   8   9
BRANCH   8  13
HETATM   13  C   UNL     1     -11.205  16.197  66.250  1.00  0.00     0.228 C  
HETATM   14  O   UNL     1      -9.832  15.276  64.513  1.00  0.00     0.092 OA 
HETATM   15  O   UNL     1     -11.626  16.507  63.878  1.00  0.00    -1.175 OA 
HETATM   16  C   UNL     1     -10.922  16.042  64.759  1.00  0.00    -0.356 C  
ENDBRANCH   8  13
ENDBRANCH   7   8
ENDBRANCH   6   7
ENDBRANCH   5   6
BRANCH   5  17
HETATM   17  C   UNL     1      -9.969  11.448  67.615  1.00  0.00    -0.179 C  
BRANCH  17  18
HETATM   18  C   UNL     1     -10.216  10.244  68.567  1.00  0.00    -0.172 C  
BRANCH  18  19
HETATM   19  N   UNL     1      -9.331   9.044  68.328  1.00  0.00    -0.139 NA 
BRANCH  19  20
HETATM   20  C   UNL     1     -10.226   7.818  68.320  1.00  0.00    -0.201 C  
HETATM   21  O   UNL     1     -11.330   6.570  66.551  1.00  0.00    -0.012 OA 
HETATM   22  O   UNL     1      -9.245   7.364  66.172  1.00  0.00    -0.166 OA 
HETATM   23  C   UNL     1     -10.352   7.193  66.933  1.00  0.00    -0.279 C  
ENDBRANCH  19  20
BRANCH  19  24
HETATM   24  C   UNL     1      -8.407   8.901  69.518  1.00  0.00    -0.119 C  
HETATM   25  C   UNL     1      -7.114   8.165  69.182  1.00  0.00    -0.061 C  
HETATM   26  O   UNL     1      -6.476   7.504  69.986  1.00  0.00    -0.034 OA 
HETATM   27  O   UNL     1      -6.703   8.382  67.911  1.00  0.00    -0.063 OA 
ENDBRANCH  19  24
ENDBRANCH  18  19
ENDBRANCH  17  18
ENDBRANCH   5  17
ENDBRANCH   3   5
TORSDOF 11
ENDMDL
MODEL      387
REMARK 921   NORMALIZED FREE ENERGY PREDICTED BY IDOCK:   -2.72 KCAL/MOL
REMARK 922        TOTAL FREE ENERGY PREDICTED BY IDOCK:   -6.22 KCAL/MOL
REMARK 923 INTER-LIGAND FREE ENERGY PREDICTED BY IDOCK:   -6.49 KCAL/MOL
REMARK 924 INTRA-LIGAND FREE ENERGY PREDICTED BY IDOCK:    0.28 KCAL/MOL
REMARK 927      BINDING AFFINITY PREDICTED BY RF-SCORE:    0.00 PKD
ROOT
HETATM    1  O   UNL     1     -10.910  11.923  69.643  1.00  0.00    -0.040 OA 
HETATM    2  C   UNL     1     -11.782  11.619  68.654  1.00  0.00    -0.325 C  
HETATM    3  C   UNL     1     -11.643  12.540  67.444  1.00  0.00    -0.370 C  
HETATM    4  O   UNL     1     -12.618  10.732  68.745  1.00  0.00    -0.257 OA 
ENDROOT
BRANCH   3   5
HETATM    5  N   UNL     1     -10.232  13.016  67.232  1.00  0.00    -0.237 NA 
BRANCH   5   6
HETATM    6  C   UNL     1      -9.789  12.632  65.850  1.00  0.00    -0.244 C  
BRANCH   6   7
HETATM    7  C   UNL     1      -9.778  11.096  65.581  1.00  0.00    -0.225 C  
BRANCH   7   8
HETATM    8  N   UNL     1      -8.669  10.312  66.227  1.00  0.00    -0.144 NA 
BRANCH   8   9
HETATM    9  C   UNL     1      -9.281   9.520  67.369  1.00  0.00    -0.133 C  
HETATM   10  O   UNL     1      -9.143   7.627  65.893  1.00  0.00    -0.145 OA 
HETATM   11  C   UNL     1      -9.839   8.172  66.918  1.00  0.00    -0.247 C  
HETATM   12  O   UNL     1     -10.797   7.621  67.438  1.00  0.00    -0.258 OA 
ENDBRANCH   8   9
BRANCH   8  13
HETATM   13  C   UNL     1      -7.703  11.296  66.843  1.00  0.00    -0.152 C  
HETATM   14  O   UNL     1      -6.109  10.447  65.266  1.00  0.00    -0.117 OA 
HETATM   15  O   UNL     1      -5.306  11.249  67.228  1.00  0.00    -0.042 OA 
HETATM   16  C   UNL     1      -6.249  10.988  66.500  1.00  0.00    -0.133 C  
ENDBRANCH   8  13
ENDBRANCH   7   8
ENDBRANCH   6   7
ENDBRANCH   5   6
BRANCH   5  17
HETATM   17  C   UNL     1     -10.209  14.510  67.335  1.00  0.00    -0.240 C  
BRANCH  17  18
HETATM   18  C   UNL     1      -8.869  15.221  66.990  1.00  0.00    -0.237 C  
BRANCH  18  19
HETATM   19  N   UNL     1      -9.004  16.642  66.497  1.00  0.00    -0.255 NA 
BRANCH  19  20
HETATM   20  C   UNL     1      -7.660  17.318  66.700  1.00  0.00    -0.258 C  
HETATM   21  O   UNL     1      -6.667  18.533  68.556  1.00  0.00    -0.237 OA 
HETATM   22  O   UNL     1      -7.931  16.711  69.011  1.00  0.00    -0.240 OA 
HETATM   23  C   UNL     1      -7.367  17.609  68.169  1.00  0.00    -0.228 C  
ENDBRANCH  19  20
BRANCH  19  24
HETATM   24  C   UNL     1      -9.991  17.355  67.394  1.00  0.00    -0.305 C  
HETATM   25  C   UNL     1     -10.608  18.587  66.739  1.00  0.00    -0.354 C  
HETATM   26  O   UNL     1     -11.002  19.564  67.356  1.00  0.00    -0.477 OA 
HETATM   27  O   UNL     1     -10.743  18.454  65.399  1.00  0.00    -0.594 OA 
ENDBRANCH  19  24
ENDBRANCH  18  19
ENDBRANCH  17  18
ENDBRANCH   5  17
ENDBRANCH   3   5
TORSDOF 11
ENDMDL
MODEL      388
REMARK 921   NORMALIZED FREE ENERGY PREDICTED BY IDOCK:   -2.71 KCAL/MOL
REMARK 922        TOTAL FREE ENERGY PREDICTED BY IDOCK:   -6.20 KCAL/MOL
REMARK 923 INTER-LIGAND FREE ENERGY PREDICTED BY IDOCK:   -6.15 KCAL/MOL
REMARK 924 INTRA-LIGAND FREE ENERGY PREDICTED BY IDOCK:   -0.05 KCAL/MOL
REMARK 927      BINDING AFFINITY PREDICTED BY RF-SCORE:    0.00 PKD
ROOT
HETATM    1  O   UNL     1      -7.185  15.125  67.058  1.00  0.00    -0.170 OA 
HETATM    2  C   UNL     1      -6.489  14.547  68.065  1.00  0.00    -0.150 C  
HETATM    3  C   UNL     1      -7.214  13.348  68.669  1.00  0.00    -0.107 C  
HETATM    4  O   UNL     1      -5.418  14.974  68.472  1.00  0.00    -0.089 OA 
ENDROOT
BRANCH   3   5
HETATM    5  N   UNL     1      -8.050  12.604  67.663  1.00  0.00    -0.160 NA 
BRANCH   5   6
HETATM    6  C   UNL     1      -7.597  11.173  67.613  1.00  0.00    -0.105 C  
BRANCH   6   7
HETATM    7  C   UNL     1      -6.584  10.859  66.471  1.00  0.00    -0.127 C  
BRANCH   7   8
HETATM    8  N   UNL     1      -6.635   9.470  65.895  1.00  0.00    -0.076 NA 
BRANCH   8   9
HETATM    9  C   UNL     1      -6.294   9.581  64.419  1.00  0.00    -0.093 C  
HETATM   10  O   UNL     1      -8.454  10.609  64.181  1.00  0.00    -0.154 OA 
HETATM   11  C   UNL     1      -7.519   9.861  63.551  1.00  0.00    -0.134 C  
HETATM   12  O   UNL     1      -7.641   9.477  62.398  1.00  0.00    -0.105 OA 
ENDBRANCH   8   9
BRANCH   8  13
HETATM   13  C   UNL     1      -8.063   8.986  65.979  1.00  0.00    -0.111 C  
HETATM   14  O   UNL     1      -7.279   7.531  67.717  1.00  0.00    -0.088 OA 
HETATM   15  O   UNL     1      -9.056   6.831  66.497  1.00  0.00    -0.142 OA 
HETATM   16  C   UNL     1      -8.192   7.662  66.725  1.00  0.00    -0.124 C  
ENDBRANCH   8  13
ENDBRANCH   7   8
ENDBRANCH   6   7
ENDBRANCH   5   6
BRANCH   5  17
HETATM   17  C   UNL     1      -9.479  12.630  68.113  1.00  0.00    -0.218 C  
BRANCH  17  18
HETATM   18  C   UNL     1     -10.554  12.924  67.029  1.00  0.00    -0.252 C  
BRANCH  18  19
HETATM   19  N   UNL     1     -10.857  14.386  66.805  1.00  0.00    -0.297 NA 
BRANCH  19  20
HETATM   20  C   UNL     1     -12.022  14.748  67.709  1.00  0.00    -0.216 C  
HETATM   21  O   UNL     1     -12.169  15.544  70.001  1.00  0.00    -0.358 OA 
HETATM   22  O   UNL     1     -10.505  16.337  68.687  1.00  0.00    -0.252 OA 
HETATM   23  C   UNL     1     -11.586  15.560  68.927  1.00  0.00    -0.373 C  
ENDBRANCH  19  20
BRANCH  19  24
HETATM   24  C   UNL     1     -11.344  14.549  65.381  1.00  0.00    -0.341 C  
HETATM   25  C   UNL     1     -10.957  15.892  64.771  1.00  0.00    -0.375 C  
HETATM   26  O   UNL     1     -11.602  16.460  63.905  1.00  0.00    -1.100 OA 
HETATM   27  O   UNL     1      -9.775  16.358  65.238  1.00  0.00    -0.433 OA 
ENDBRANCH  19  24
ENDBRANCH  18  19
ENDBRANCH  17  18
ENDBRANCH   5  17
ENDBRANCH   3   5
TORSDOF 11
ENDMDL
MODEL      389
REMARK 921   NORMALIZED FREE ENERGY PREDICTED BY IDOCK:   -2.71 KCAL/MOL
REMARK 922        TOTAL FREE ENERGY PREDICTED BY IDOCK:   -6.19 KCAL/MOL
REMARK 923 INTER-LIGAND FREE ENERGY PREDICTED BY IDOCK:   -6.08 KCAL/MOL
REMARK 924 INTRA-LIGAND FREE ENERGY PREDICTED BY IDOCK:   -0.11 KCAL/MOL
REMARK 927      BINDING AFFINITY PREDICTED BY RF-SCORE:    0.00 PKD
ROOT
HETATM    1  O   UNL     1      -9.425   9.290  71.814  1.00  0.00    -0.302 OA 
HETATM    2  C   UNL     1     -10.534   8.536  72.003  1.00  0.00    -0.336 C  
HETATM    3  C   UNL     1     -11.491   8.591  70.814  1.00  0.00    -0.253 C  
HETATM    4  O   UNL     1     -10.759   7.919  73.033  1.00  0.00    -0.365 OA 
ENDROOT
BRANCH   3   5
HETATM    5  N   UNL     1     -10.780   8.763  69.500  1.00  0.00    -0.217 NA 
BRANCH   5   6
HETATM    6  C   UNL     1     -10.695  10.227  69.178  1.00  0.00    -0.228 C  
BRANCH   6   7
HETATM    7  C   UNL     1     -11.239  10.609  67.768  1.00  0.00    -0.313 C  
BRANCH   7   8
HETATM    8  N   UNL     1     -11.390  12.078  67.485  1.00  0.00    -0.296 NA 
BRANCH   8   9
HETATM    9  C   UNL     1     -10.959  12.307  66.047  1.00  0.00    -0.292 C  
HETATM   10  O   UNL     1     -12.831  13.810  65.914  1.00  0.00    -0.438 OA 
HETATM   11  C   UNL     1     -12.049  12.965  65.202  1.00  0.00    -0.445 C  
HETATM   12  O   UNL     1     -12.194  12.774  64.005  1.00  0.00    -0.399 OA 
ENDBRANCH   8   9
BRANCH   8  13
HETATM   13  C   UNL     1     -10.409  12.823  68.360  1.00  0.00    -0.243 C  
HETATM   14  O   UNL     1     -12.330  13.949  69.248  1.00  0.00    -0.323 OA 
HETATM   15  O   UNL     1     -10.366  15.079  69.256  1.00  0.00    -0.234 OA 
HETATM   16  C   UNL     1     -11.010  14.081  68.979  1.00  0.00    -0.259 C  
ENDBRANCH   8  13
ENDBRANCH   7   8
ENDBRANCH   6   7
ENDBRANCH   5   6
BRANCH   5  17
HETATM   17  C   UNL     1      -9.387   8.229  69.634  1.00  0.00    -0.158 C  
BRANCH  17  18
HETATM   18  C   UNL     1      -9.094   6.850  68.976  1.00  0.00    -0.138 C  
BRANCH  18  19
HETATM   19  N   UNL     1      -8.645   5.767  69.928  1.00  0.00    -0.126 NA 
BRANCH  19  20
HETATM   20  C   UNL     1      -7.509   6.339  70.757  1.00  0.00    -0.091 C  
HETATM   21  O   UNL     1      -7.296   6.946  73.101  1.00  0.00    -0.075 OA 
HETATM   22  O   UNL     1      -8.471   5.085  72.570  1.00  0.00    -0.118 OA 
HETATM   23  C   UNL     1      -7.744   6.184  72.257  1.00  0.00    -0.100 C  
ENDBRANCH  19  20
BRANCH  19  24
HETATM   24  C   UNL     1      -8.061   4.638  69.108  1.00  0.00    -0.073 C  
HETATM   25  C   UNL     1      -8.458   3.260  69.626  1.00  0.00    -0.061 C  
HETATM   26  O   UNL     1      -7.774   2.257  69.494  1.00  0.00    -0.043 OA 
HETATM   27  O   UNL     1      -9.690   3.246  70.186  1.00  0.00    -0.154 OA 
ENDBRANCH  19  24
ENDBRANCH  18  19
ENDBRANCH  17  18
ENDBRANCH   5  17
ENDBRANCH   3   5
TORSDOF 11
ENDMDL
MODEL      390
REMARK 921   NORMALIZED FREE ENERGY PREDICTED BY IDOCK:   -2.71 KCAL/MOL
REMARK 922        TOTAL FREE ENERGY PREDICTED BY IDOCK:   -6.19 KCAL/MOL
REMARK 923 INTER-LIGAND FREE ENERGY PREDICTED BY IDOCK:   -6.79 KCAL/MOL
REMARK 924 INTRA-LIGAND FREE ENERGY PREDICTED BY IDOCK:    0.60 KCAL/MOL
REMARK 927      BINDING AFFINITY PREDICTED BY RF-SCORE:    0.00 PKD
ROOT
HETATM    1  O   UNL     1      -7.247  10.378  68.537  1.00  0.00    -0.079 OA 
HETATM    2  C   UNL     1      -7.804  10.368  67.304  1.00  0.00    -0.106 C  
HETATM    3  C   UNL     1      -9.121   9.596  67.259  1.00  0.00    -0.134 C  
HETATM    4  O   UNL     1      -7.282  10.884  66.326  1.00  0.00    -0.138 OA 
ENDROOT
BRANCH   3   5
HETATM    5  N   UNL     1      -9.888   9.677  68.551  1.00  0.00    -0.153 NA 
BRANCH   5   6
HETATM    6  C   UNL     1     -11.172  10.417  68.311  1.00  0.00    -0.267 C  
BRANCH   6   7
HETATM    7  C   UNL     1     -11.015  11.966  68.222  1.00  0.00    -0.230 C  
BRANCH   7   8
HETATM    8  N   UNL     1     -12.022  12.692  67.372  1.00  0.00    -0.442 NA 
BRANCH   8   9
HETATM    9  C   UNL     1     -11.534  12.622  65.936  1.00  0.00    -0.363 C  
HETATM   10  O   UNL     1     -13.590  13.733  65.372  1.00  0.00    -0.517 OA 
HETATM   11  C   UNL     1     -12.649  12.871  64.922  1.00  0.00    -0.458 C  
HETATM   12  O   UNL     1     -12.684  12.369  63.809  1.00  0.00    -0.693 OA 
ENDBRANCH   8   9
BRANCH   8  13
HETATM   13  C   UNL     1     -12.001  14.149  67.772  1.00  0.00    -0.354 C  
HETATM   14  O   UNL     1      -9.679  14.094  67.180  1.00  0.00    -0.236 OA 
HETATM   15  O   UNL     1     -10.309  15.568  68.781  1.00  0.00    -0.207 OA 
HETATM   16  C   UNL     1     -10.588  14.678  67.996  1.00  0.00    -0.240 C  
ENDBRANCH   8  13
ENDBRANCH   7   8
ENDBRANCH   6   7
ENDBRANCH   5   6
BRANCH   5  17
HETATM   17  C   UNL     1     -10.222   8.287  68.999  1.00  0.00    -0.217 C  
BRANCH  17  18
HETATM   18  C   UNL     1      -9.058   7.433  69.574  1.00  0.00    -0.143 C  
BRANCH  18  19
HETATM   19  N   UNL     1      -9.341   6.773  70.903  1.00  0.00    -0.158 NA 
BRANCH  19  20
HETATM   20  C   UNL     1      -8.182   7.104  71.826  1.00  0.00    -0.105 C  
HETATM   21  O   UNL     1      -7.841   8.797  73.536  1.00  0.00    -0.408 OA 
HETATM   22  O   UNL     1      -9.880   7.827  73.368  1.00  0.00    -0.290 OA 
HETATM   23  C   UNL     1      -8.595   8.011  72.983  1.00  0.00    -0.204 C  
ENDBRANCH  19  20
BRANCH  19  24
HETATM   24  C   UNL     1      -9.319   5.275  70.695  1.00  0.00    -0.162 C  
HETATM   25  C   UNL     1     -10.181   4.521  71.702  1.00  0.00    -0.144 C  
HETATM   26  O   UNL     1      -9.960   3.379  72.071  1.00  0.00    -0.163 OA 
HETATM   27  O   UNL     1     -11.268   5.228  72.093  1.00  0.00    -0.181 OA 
ENDBRANCH  19  24
ENDBRANCH  18  19
ENDBRANCH  17  18
ENDBRANCH   5  17
ENDBRANCH   3   5
TORSDOF 11
ENDMDL
MODEL      391
REMARK 921   NORMALIZED FREE ENERGY PREDICTED BY IDOCK:   -2.70 KCAL/MOL
REMARK 922        TOTAL FREE ENERGY PREDICTED BY IDOCK:   -6.17 KCAL/MOL
REMARK 923 INTER-LIGAND FREE ENERGY PREDICTED BY IDOCK:   -4.70 KCAL/MOL
REMARK 924 INTRA-LIGAND FREE ENERGY PREDICTED BY IDOCK:   -1.48 KCAL/MOL
REMARK 927      BINDING AFFINITY PREDICTED BY RF-SCORE:    0.00 PKD
ROOT
HETATM    1  O   UNL     1      -7.373  11.927  69.620  1.00  0.00     0.173 OA 
HETATM    2  C   UNL     1      -7.075  12.936  68.769  1.00  0.00    -0.096 C  
HETATM    3  C   UNL     1      -8.198  13.217  67.773  1.00  0.00    -0.168 C  
HETATM    4  O   UNL     1      -6.003  13.524  68.773  1.00  0.00    -0.078 OA 
ENDROOT
BRANCH   3   5
HETATM    5  N   UNL     1      -9.564  12.945  68.342  1.00  0.00    -0.208 NA 
BRANCH   5   6
HETATM    6  C   UNL     1     -10.481  14.075  67.972  1.00  0.00    -0.241 C  
BRANCH   6   7
HETATM    7  C   UNL     1      -9.929  15.491  68.320  1.00  0.00    -0.213 C  
BRANCH   7   8
HETATM    8  N   UNL     1      -9.737  16.436  67.165  1.00  0.00    -0.235 NA 
BRANCH   8   9
HETATM    9  C   UNL     1      -9.446  17.807  67.748  1.00  0.00    -0.262 C  
HETATM   10  O   UNL     1      -7.806  18.004  66.000  1.00  0.00    -0.450 OA 
HETATM   11  C   UNL     1      -8.117  18.384  67.261  1.00  0.00    -0.240 C  
HETATM   12  O   UNL     1      -7.415  19.132  67.923  1.00  0.00    -0.249 OA 
ENDBRANCH   8   9
BRANCH   8  13
HETATM   13  C   UNL     1     -11.051  16.542  66.428  1.00  0.00     0.228 C  
HETATM   14  O   UNL     1      -9.890  15.555  64.578  1.00  0.00     0.155 OA 
HETATM   15  O   UNL     1     -11.622  16.936  64.101  1.00  0.00    -1.091 OA 
HETATM   16  C   UNL     1     -10.893  16.398  64.918  1.00  0.00    -0.250 C  
ENDBRANCH   8  13
ENDBRANCH   7   8
ENDBRANCH   6   7
ENDBRANCH   5   6
BRANCH   5  17
HETATM   17  C   UNL     1     -10.097  11.686  67.729  1.00  0.00    -0.187 C  
BRANCH  17  18
HETATM   18  C   UNL     1     -10.411  10.510  68.696  1.00  0.00    -0.191 C  
BRANCH  18  19
HETATM   19  N   UNL     1      -9.613   9.250  68.456  1.00  0.00    -0.146 NA 
BRANCH  19  20
HETATM   20  C   UNL     1      -9.028   9.348  67.058  1.00  0.00    -0.130 C  
HETATM   21  O   UNL     1      -6.900  10.141  66.192  1.00  0.00    -0.095 OA 
HETATM   22  O   UNL     1      -6.910   8.984  68.138  1.00  0.00    -0.067 OA 
HETATM   23  C   UNL     1      -7.515   9.555  67.070  1.00  0.00    -0.091 C  
ENDBRANCH  19  20
BRANCH  19  24
HETATM   24  C   UNL     1     -10.575   8.083  68.445  1.00  0.00    -0.102 C  
HETATM   25  C   UNL     1      -9.908   6.759  68.804  1.00  0.00    -0.143 C  
HETATM   26  O   UNL     1     -10.287   5.671  68.401  1.00  0.00    -0.178 OA 
HETATM   27  O   UNL     1      -8.889   6.909  69.683  1.00  0.00    -0.140 OA 
ENDBRANCH  19  24
ENDBRANCH  18  19
ENDBRANCH  17  18
ENDBRANCH   5  17
ENDBRANCH   3   5
TORSDOF 11
ENDMDL
MODEL      392
REMARK 921   NORMALIZED FREE ENERGY PREDICTED BY IDOCK:   -2.68 KCAL/MOL
REMARK 922        TOTAL FREE ENERGY PREDICTED BY IDOCK:   -6.15 KCAL/MOL
REMARK 923 INTER-LIGAND FREE ENERGY PREDICTED BY IDOCK:   -4.70 KCAL/MOL
REMARK 924 INTRA-LIGAND FREE ENERGY PREDICTED BY IDOCK:   -1.45 KCAL/MOL
REMARK 927      BINDING AFFINITY PREDICTED BY RF-SCORE:    0.00 PKD
ROOT
HETATM    1  O   UNL     1      -6.662   8.921  64.519  1.00  0.00    -0.070 OA 
HETATM    2  C   UNL     1      -5.933   8.405  65.535  1.00  0.00    -0.045 C  
HETATM    3  C   UNL     1      -5.883   9.328  66.751  1.00  0.00    -0.055 C  
HETATM    4  O   UNL     1      -5.342   7.337  65.464  1.00  0.00    -0.027 OA 
ENDROOT
BRANCH   3   5
HETATM    5  N   UNL     1      -7.137  10.142  66.917  1.00  0.00    -0.089 NA 
BRANCH   5   6
HETATM    6  C   UNL     1      -8.194   9.287  67.555  1.00  0.00    -0.114 C  
BRANCH   6   7
HETATM    7  C   UNL     1      -9.642   9.848  67.423  1.00  0.00    -0.155 C  
BRANCH   7   8
HETATM    8  N   UNL     1     -10.318  10.262  68.702  1.00  0.00    -0.174 NA 
BRANCH   8   9
HETATM    9  C   UNL     1     -10.306  11.779  68.748  1.00  0.00    -0.179 C  
HETATM   10  O   UNL     1     -12.281  11.575  70.103  1.00  0.00    -0.317 OA 
HETATM   11  C   UNL     1     -11.638  12.365  69.212  1.00  0.00    -0.319 C  
HETATM   12  O   UNL     1     -12.075  13.445  68.845  1.00  0.00    -0.331 OA 
ENDBRANCH   8   9
BRANCH   8  13
HETATM   13  C   UNL     1      -9.466   9.781  69.853  1.00  0.00    -0.231 C  
HETATM   14  O   UNL     1     -11.212   8.185  70.245  1.00  0.00    -0.253 OA 
HETATM   15  O   UNL     1      -9.996   8.856  72.035  1.00  0.00    -0.329 OA 
HETATM   16  C   UNL     1     -10.246   8.921  70.843  1.00  0.00    -0.240 C  
ENDBRANCH   8  13
ENDBRANCH   7   8
ENDBRANCH   6   7
ENDBRANCH   5   6
BRANCH   5  17
HETATM   17  C   UNL     1      -6.846  11.291  67.832  1.00  0.00    -0.068 C  
BRANCH  17  18
HETATM   18  C   UNL     1      -6.215  12.560  67.191  1.00  0.00    -0.036 C  
BRANCH  18  19
HETATM   19  N   UNL     1      -6.360  13.828  68.000  1.00  0.00    -0.125 NA 
BRANCH  19  20
HETATM   20  C   UNL     1      -6.847  13.427  69.381  1.00  0.00     0.005 C  
HETATM   21  O   UNL     1      -5.779  13.327  71.562  1.00  0.00    -0.366 OA 
HETATM   22  O   UNL     1      -5.268  15.051  70.187  1.00  0.00    -0.100 OA 
HETATM   23  C   UNL     1      -5.912  13.900  70.491  1.00  0.00    -0.172 C  
ENDBRANCH  19  20
BRANCH  19  24
HETATM   24  C   UNL     1      -7.460  14.658  67.374  1.00  0.00    -0.186 C  
HETATM   25  C   UNL     1      -7.050  16.108  67.140  1.00  0.00    -0.218 C  
HETATM   26  O   UNL     1      -7.830  17.046  67.135  1.00  0.00    -0.160 OA 
HETATM   27  O   UNL     1      -5.731  16.240  66.860  1.00  0.00    -0.342 OA 
ENDBRANCH  19  24
ENDBRANCH  18  19
ENDBRANCH  17  18
ENDBRANCH   5  17
ENDBRANCH   3   5
TORSDOF 11
ENDMDL
MODEL      393
REMARK 921   NORMALIZED FREE ENERGY PREDICTED BY IDOCK:   -2.67 KCAL/MOL
REMARK 922        TOTAL FREE ENERGY PREDICTED BY IDOCK:   -6.13 KCAL/MOL
REMARK 923 INTER-LIGAND FREE ENERGY PREDICTED BY IDOCK:   -5.71 KCAL/MOL
REMARK 924 INTRA-LIGAND FREE ENERGY PREDICTED BY IDOCK:   -0.42 KCAL/MOL
REMARK 927      BINDING AFFINITY PREDICTED BY RF-SCORE:    0.00 PKD
ROOT
HETATM    1  O   UNL     1      -6.799  10.350  68.143  1.00  0.00    -0.071 OA 
HETATM    2  C   UNL     1      -7.168  11.189  67.147  1.00  0.00    -0.120 C  
HETATM    3  C   UNL     1      -7.920  10.476  66.026  1.00  0.00    -0.149 C  
HETATM    4  O   UNL     1      -6.885  12.378  67.131  1.00  0.00    -0.142 OA 
ENDROOT
BRANCH   3   5
HETATM    5  N   UNL     1      -8.737   9.313  66.519  1.00  0.00    -0.129 NA 
BRANCH   5   6
HETATM    6  C   UNL     1     -10.194   9.645  66.377  1.00  0.00    -0.217 C  
BRANCH   6   7
HETATM    7  C   UNL     1     -10.960   9.770  67.729  1.00  0.00    -0.180 C  
BRANCH   7   8
HETATM    8  N   UNL     1     -11.635  11.088  67.996  1.00  0.00    -0.522 NA 
BRANCH   8   9
HETATM    9  C   UNL     1     -10.582  12.172  67.848  1.00  0.00    -0.207 C  
HETATM   10  O   UNL     1     -12.141  13.231  66.354  1.00  0.00    -0.403 OA 
HETATM   11  C   UNL     1     -10.827  13.069  66.635  1.00  0.00    -0.275 C  
HETATM   12  O   UNL     1      -9.939  13.610  65.995  1.00  0.00    -0.296 OA 
ENDBRANCH   8   9
BRANCH   8  13
HETATM   13  C   UNL     1     -12.075  11.100  69.441  1.00  0.00    -0.326 C  
HETATM   14  O   UNL     1      -9.902  10.212  69.925  1.00  0.00    -0.233 OA 
HETATM   15  O   UNL     1     -11.588   9.661  71.336  1.00  0.00    -0.358 OA 
HETATM   16  C   UNL     1     -11.193  10.232  70.332  1.00  0.00    -0.332 C  
ENDBRANCH   8  13
ENDBRANCH   7   8
ENDBRANCH   6   7
ENDBRANCH   5   6
BRANCH   5  17
HETATM   17  C   UNL     1      -8.441   8.120  65.662  1.00  0.00    -0.156 C  
BRANCH  17  18
HETATM   18  C   UNL     1      -7.831   6.877  66.370  1.00  0.00    -0.103 C  
BRANCH  18  19
HETATM   19  N   UNL     1      -8.816   5.785  66.713  1.00  0.00    -0.115 NA 
BRANCH  19  20
HETATM   20  C   UNL     1      -8.833   5.652  68.225  1.00  0.00    -0.108 C  
HETATM   21  O   UNL     1     -10.120   6.733  69.981  1.00  0.00    -0.181 OA 
HETATM   22  O   UNL     1     -11.167   6.203  68.045  1.00  0.00    -0.310 OA 
HETATM   23  C   UNL     1     -10.082   6.266  68.853  1.00  0.00    -0.168 C  
ENDBRANCH  19  20
BRANCH  19  24
HETATM   24  C   UNL     1      -8.277   4.482  66.166  1.00  0.00    -0.106 C  
HETATM   25  C   UNL     1      -9.361   3.599  65.556  1.00  0.00    -0.160 C  
HETATM   26  O   UNL     1      -9.307   2.381  65.516  1.00  0.00    -0.107 OA 
HETATM   27  O   UNL     1     -10.362   4.315  64.991  1.00  0.00    -0.232 OA 
ENDBRANCH  19  24
ENDBRANCH  18  19
ENDBRANCH  17  18
ENDBRANCH   5  17
ENDBRANCH   3   5
TORSDOF 11
ENDMDL
MODEL      394
REMARK 921   NORMALIZED FREE ENERGY PREDICTED BY IDOCK:   -2.66 KCAL/MOL
REMARK 922        TOTAL FREE ENERGY PREDICTED BY IDOCK:   -6.11 KCAL/MOL
REMARK 923 INTER-LIGAND FREE ENERGY PREDICTED BY IDOCK:   -6.81 KCAL/MOL
REMARK 924 INTRA-LIGAND FREE ENERGY PREDICTED BY IDOCK:    0.70 KCAL/MOL
REMARK 927      BINDING AFFINITY PREDICTED BY RF-SCORE:    0.00 PKD
ROOT
HETATM    1  O   UNL     1     -10.962  16.124  64.660  1.00  0.00    -0.642 OA 
HETATM    2  C   UNL     1     -11.799  15.060  64.641  1.00  0.00    -0.375 C  
HETATM    3  C   UNL     1     -11.467  14.032  65.720  1.00  0.00    -0.318 C  
HETATM    4  O   UNL     1     -12.692  14.923  63.818  1.00  0.00    -0.754 OA 
ENDROOT
BRANCH   3   5
HETATM    5  N   UNL     1     -10.893  14.655  66.963  1.00  0.00    -0.298 NA 
BRANCH   5   6
HETATM    6  C   UNL     1     -10.840  13.619  68.049  1.00  0.00    -0.246 C  
BRANCH   6   7
HETATM    7  C   UNL     1     -11.032  12.155  67.551  1.00  0.00    -0.257 C  
BRANCH   7   8
HETATM    8  N   UNL     1     -10.206  11.101  68.237  1.00  0.00    -0.175 NA 
BRANCH   8   9
HETATM    9  C   UNL     1      -8.755  11.350  67.863  1.00  0.00    -0.145 C  
HETATM   10  O   UNL     1      -9.492  11.124  65.585  1.00  0.00    -0.208 OA 
HETATM   11  C   UNL     1      -8.442  10.951  66.422  1.00  0.00    -0.163 C  
HETATM   12  O   UNL     1      -7.354  10.542  66.048  1.00  0.00    -0.128 OA 
ENDBRANCH   8   9
BRANCH   8  13
HETATM   13  C   UNL     1     -10.586   9.761  67.653  1.00  0.00    -0.276 C  
HETATM   14  O   UNL     1     -10.441   8.941  69.901  1.00  0.00    -0.203 OA 
HETATM   15  O   UNL     1     -10.003   7.475  68.230  1.00  0.00    -0.162 OA 
HETATM   16  C   UNL     1     -10.290   8.602  68.599  1.00  0.00    -0.193 C  
ENDBRANCH   8  13
ENDBRANCH   7   8
ENDBRANCH   6   7
ENDBRANCH   5   6
BRANCH   5  17
HETATM   17  C   UNL     1      -9.494  15.105  66.673  1.00  0.00    -0.263 C  
BRANCH  17  18
HETATM   18  C   UNL     1      -8.679  15.687  67.863  1.00  0.00    -0.166 C  
BRANCH  18  19
HETATM   19  N   UNL     1      -7.651  16.728  67.489  1.00  0.00    -0.153 NA 
BRANCH  19  20
HETATM   20  C   UNL     1      -7.337  17.521  68.745  1.00  0.00    -0.260 C  
HETATM   21  O   UNL     1      -5.866  17.131  70.640  1.00  0.00    -0.062 OA 
HETATM   22  O   UNL     1      -5.150  16.535  68.577  1.00  0.00    -0.102 OA 
HETATM   23  C   UNL     1      -6.064  17.040  69.438  1.00  0.00    -0.225 C  
ENDBRANCH  19  20
BRANCH  19  24
HETATM   24  C   UNL     1      -8.294  17.691  66.515  1.00  0.00    -0.268 C  
HETATM   25  C   UNL     1      -7.317  18.728  65.972  1.00  0.00    -0.251 C  
HETATM   26  O   UNL     1      -7.641  19.848  65.609  1.00  0.00    -0.332 OA 
HETATM   27  O   UNL     1      -6.055  18.251  65.862  1.00  0.00    -0.181 OA 
ENDBRANCH  19  24
ENDBRANCH  18  19
ENDBRANCH  17  18
ENDBRANCH   5  17
ENDBRANCH   3   5
TORSDOF 11
ENDMDL
MODEL      395
REMARK 921   NORMALIZED FREE ENERGY PREDICTED BY IDOCK:   -2.64 KCAL/MOL
REMARK 922        TOTAL FREE ENERGY PREDICTED BY IDOCK:   -6.09 KCAL/MOL
REMARK 923 INTER-LIGAND FREE ENERGY PREDICTED BY IDOCK:   -6.28 KCAL/MOL
REMARK 924 INTRA-LIGAND FREE ENERGY PREDICTED BY IDOCK:    0.20 KCAL/MOL
REMARK 927      BINDING AFFINITY PREDICTED BY RF-SCORE:    0.00 PKD
ROOT
HETATM    1  O   UNL     1      -8.954   5.923  66.345  1.00  0.00    -0.131 OA 
HETATM    2  C   UNL     1      -8.088   6.313  67.309  1.00  0.00    -0.109 C  
HETATM    3  C   UNL     1      -8.124   7.819  67.558  1.00  0.00    -0.124 C  
HETATM    4  O   UNL     1      -7.328   5.545  67.881  1.00  0.00    -0.071 OA 
ENDROOT
BRANCH   3   5
HETATM    5  N   UNL     1      -9.488   8.415  67.333  1.00  0.00    -0.143 NA 
BRANCH   5   6
HETATM    6  C   UNL     1     -10.096   8.760  68.661  1.00  0.00    -0.189 C  
BRANCH   6   7
HETATM    7  C   UNL     1      -9.804   7.727  69.791  1.00  0.00    -0.178 C  
BRANCH   7   8
HETATM    8  N   UNL     1     -10.421   8.011  71.133  1.00  0.00    -0.197 NA 
BRANCH   8   9
HETATM    9  C   UNL     1     -11.377   9.177  70.953  1.00  0.00    -0.295 C  
HETATM   10  O   UNL     1     -12.796   8.022  72.513  1.00  0.00    -0.163 OA 
HETATM   11  C   UNL     1     -12.786   8.867  71.456  1.00  0.00    -0.335 C  
HETATM   12  O   UNL     1     -13.802   9.345  70.978  1.00  0.00    -0.219 OA 
ENDBRANCH   8   9
BRANCH   8  13
HETATM   13  C   UNL     1      -9.324   8.482  72.058  1.00  0.00    -0.283 C  
HETATM   14  O   UNL     1      -9.569   6.359  73.143  1.00  0.00    -0.148 OA 
HETATM   15  O   UNL     1      -8.856   8.097  74.409  1.00  0.00    -0.044 OA 
HETATM   16  C   UNL     1      -9.237   7.657  73.337  1.00  0.00    -0.255 C  
ENDBRANCH   8  13
ENDBRANCH   7   8
ENDBRANCH   6   7
ENDBRANCH   5   6
BRANCH   5  17
HETATM   17  C   UNL     1      -9.335   9.678  66.542  1.00  0.00    -0.165 C  
BRANCH  17  18
HETATM   18  C   UNL     1     -10.639  10.437  66.166  1.00  0.00    -0.090 C  
BRANCH  18  19
HETATM   19  N   UNL     1     -10.540  11.943  66.205  1.00  0.00    -0.244 NA 
BRANCH  19  20
HETATM   20  C   UNL     1     -10.278  12.339  67.648  1.00  0.00    -0.203 C  
HETATM   21  O   UNL     1     -11.728  12.731  69.559  1.00  0.00    -0.300 OA 
HETATM   22  O   UNL     1     -12.236  11.036  68.148  1.00  0.00    -0.578 OA 
HETATM   23  C   UNL     1     -11.482  12.085  68.552  1.00  0.00    -0.293 C  
ENDBRANCH  19  20
BRANCH  19  24
HETATM   24  C   UNL     1     -11.893  12.510  65.836  1.00  0.00    -0.430 C  
HETATM   25  C   UNL     1     -11.796  13.803  65.032  1.00  0.00    -0.366 C  
HETATM   26  O   UNL     1     -12.644  14.681  65.046  1.00  0.00    -0.392 OA 
HETATM   27  O   UNL     1     -10.701  13.844  64.237  1.00  0.00    -0.339 OA 
ENDBRANCH  19  24
ENDBRANCH  18  19
ENDBRANCH  17  18
ENDBRANCH   5  17
ENDBRANCH   3   5
TORSDOF 11
ENDMDL
MODEL      396
REMARK 921   NORMALIZED FREE ENERGY PREDICTED BY IDOCK:   -2.62 KCAL/MOL
REMARK 922        TOTAL FREE ENERGY PREDICTED BY IDOCK:   -6.04 KCAL/MOL
REMARK 923 INTER-LIGAND FREE ENERGY PREDICTED BY IDOCK:   -5.95 KCAL/MOL
REMARK 924 INTRA-LIGAND FREE ENERGY PREDICTED BY IDOCK:   -0.09 KCAL/MOL
REMARK 927      BINDING AFFINITY PREDICTED BY RF-SCORE:    0.00 PKD
ROOT
HETATM    1  O   UNL     1     -11.310  14.861  68.681  1.00  0.00    -0.264 OA 
HETATM    2  C   UNL     1     -11.298  14.759  67.332  1.00  0.00    -0.351 C  
HETATM    3  C   UNL     1     -10.016  15.309  66.712  1.00  0.00    -0.242 C  
HETATM    4  O   UNL     1     -12.235  14.317  66.683  1.00  0.00    -0.449 OA 
ENDROOT
BRANCH   3   5
HETATM    5  N   UNL     1      -8.815  15.128  67.600  1.00  0.00    -0.169 NA 
BRANCH   5   6
HETATM    6  C   UNL     1      -8.945  16.037  68.788  1.00  0.00    -0.226 C  
BRANCH   6   7
HETATM    7  C   UNL     1      -8.968  17.555  68.438  1.00  0.00    -0.276 C  
BRANCH   7   8
HETATM    8  N   UNL     1      -7.664  18.159  67.994  1.00  0.00    -0.248 NA 
BRANCH   8   9
HETATM    9  C   UNL     1      -7.533  19.507  68.680  1.00  0.00    -0.345 C  
HETATM   10  O   UNL     1      -5.370  18.735  69.391  1.00  0.00    -0.197 OA 
HETATM   11  C   UNL     1      -6.413  19.534  69.718  1.00  0.00    -0.293 C  
HETATM   12  O   UNL     1      -6.433  20.221  70.728  1.00  0.00    -0.460 OA 
ENDBRANCH   8   9
BRANCH   8  13
HETATM   13  C   UNL     1      -7.759  18.429  66.511  1.00  0.00    -0.252 C  
HETATM   14  O   UNL     1      -6.106  16.709  66.271  1.00  0.00    -0.197 OA 
HETATM   15  O   UNL     1      -6.142  18.342  64.701  1.00  0.00    -0.285 OA 
HETATM   16  C   UNL     1      -6.580  17.857  65.731  1.00  0.00    -0.229 C  
ENDBRANCH   8  13
ENDBRANCH   7   8
ENDBRANCH   6   7
ENDBRANCH   5   6
BRANCH   5  17
HETATM   17  C   UNL     1      -8.788  13.713  68.090  1.00  0.00    -0.189 C  
BRANCH  17  18
HETATM   18  C   UNL     1      -7.520  12.876  67.758  1.00  0.00    -0.136 C  
BRANCH  18  19
HETATM   19  N   UNL     1      -7.741  11.385  67.662  1.00  0.00    -0.115 NA 
BRANCH  19  20
HETATM   20  C   UNL     1      -6.452  10.710  68.094  1.00  0.00    -0.062 C  
HETATM   21  O   UNL     1      -5.909   9.121  69.851  1.00  0.00    -0.034 OA 
HETATM   22  O   UNL     1      -7.867   8.876  68.741  1.00  0.00    -0.097 OA 
HETATM   23  C   UNL     1      -6.697   9.507  69.001  1.00  0.00    -0.050 C  
ENDBRANCH  19  20
BRANCH  19  24
HETATM   24  C   UNL     1      -7.948  11.037  66.204  1.00  0.00    -0.129 C  
HETATM   25  C   UNL     1      -9.301  10.388  65.934  1.00  0.00    -0.182 C  
HETATM   26  O   UNL     1      -9.511   9.598  65.028  1.00  0.00    -0.261 OA 
HETATM   27  O   UNL     1     -10.272  10.839  66.763  1.00  0.00    -0.213 OA 
ENDBRANCH  19  24
ENDBRANCH  18  19
ENDBRANCH  17  18
ENDBRANCH   5  17
ENDBRANCH   3   5
TORSDOF 11
ENDMDL
MODEL      397
REMARK 921   NORMALIZED FREE ENERGY PREDICTED BY IDOCK:   -2.61 KCAL/MOL
REMARK 922        TOTAL FREE ENERGY PREDICTED BY IDOCK:   -6.03 KCAL/MOL
REMARK 923 INTER-LIGAND FREE ENERGY PREDICTED BY IDOCK:   -7.01 KCAL/MOL
REMARK 924 INTRA-LIGAND FREE ENERGY PREDICTED BY IDOCK:    0.99 KCAL/MOL
REMARK 927      BINDING AFFINITY PREDICTED BY RF-SCORE:    0.00 PKD
ROOT
HETATM    1  O   UNL     1      -5.263  15.087  68.390  1.00  0.00    -0.096 OA 
HETATM    2  C   UNL     1      -5.780  13.989  67.790  1.00  0.00    -0.061 C  
HETATM    3  C   UNL     1      -7.240  13.747  68.163  1.00  0.00    -0.121 C  
HETATM    4  O   UNL     1      -5.128  13.250  67.067  1.00  0.00    -0.244 OA 
ENDROOT
BRANCH   3   5
HETATM    5  N   UNL     1      -7.995  15.023  68.421  1.00  0.00    -0.126 NA 
BRANCH   5   6
HETATM    6  C   UNL     1      -8.243  15.718  67.114  1.00  0.00    -0.206 C  
BRANCH   6   7
HETATM    7  C   UNL     1      -9.434  16.723  67.135  1.00  0.00    -0.232 C  
BRANCH   7   8
HETATM    8  N   UNL     1      -9.174  18.056  67.783  1.00  0.00    -0.259 NA 
BRANCH   8   9
HETATM    9  C   UNL     1     -10.372  18.941  67.491  1.00  0.00    -0.426 C  
HETATM   10  O   UNL     1     -10.461  17.814  65.369  1.00  0.00    -0.641 OA 
HETATM   11  C   UNL     1     -10.730  18.978  66.006  1.00  0.00    -0.337 C  
HETATM   12  O   UNL     1     -11.230  19.942  65.448  1.00  0.00    -0.271 OA 
ENDBRANCH   8   9
BRANCH   8  13
HETATM   13  C   UNL     1      -7.986  18.683  67.092  1.00  0.00    -0.242 C  
HETATM   14  O   UNL     1      -7.348  19.449  69.272  1.00  0.00    -0.343 OA 
HETATM   15  O   UNL     1      -6.708  20.708  67.500  1.00  0.00    -0.272 OA 
HETATM   16  C   UNL     1      -7.295  19.738  67.951  1.00  0.00    -0.284 C  
ENDBRANCH   8  13
ENDBRANCH   7   8
ENDBRANCH   6   7
ENDBRANCH   5   6
BRANCH   5  17
HETATM   17  C   UNL     1      -9.320  14.682  69.032  1.00  0.00    -0.118 C  
BRANCH  17  18
HETATM   18  C   UNL     1      -9.932  13.301  68.662  1.00  0.00    -0.122 C  
BRANCH  18  19
HETATM   19  N   UNL     1     -11.441  13.239  68.689  1.00  0.00    -0.280 NA 
BRANCH  19  20
HETATM   20  C   UNL     1     -11.896  12.764  67.320  1.00  0.00    -0.350 C  
HETATM   21  O   UNL     1     -10.868  11.380  65.608  1.00  0.00    -0.268 OA 
HETATM   22  O   UNL     1     -10.566  10.814  67.779  1.00  0.00    -0.197 OA 
HETATM   23  C   UNL     1     -11.055  11.604  66.794  1.00  0.00    -0.309 C  
ENDBRANCH  19  20
BRANCH  19  24
HETATM   24  C   UNL     1     -11.963  14.649  68.857  1.00  0.00    -0.274 C  
HETATM   25  C   UNL     1     -12.586  14.892  70.228  1.00  0.00    -0.313 C  
HETATM   26  O   UNL     1     -13.476  15.700  70.440  1.00  0.00    -0.296 OA 
HETATM   27  O   UNL     1     -11.995  14.168  71.207  1.00  0.00    -0.325 OA 
ENDBRANCH  19  24
ENDBRANCH  18  19
ENDBRANCH  17  18
ENDBRANCH   5  17
ENDBRANCH   3   5
TORSDOF 11
ENDMDL
MODEL      398
REMARK 921   NORMALIZED FREE ENERGY PREDICTED BY IDOCK:   -2.59 KCAL/MOL
REMARK 922        TOTAL FREE ENERGY PREDICTED BY IDOCK:   -5.99 KCAL/MOL
REMARK 923 INTER-LIGAND FREE ENERGY PREDICTED BY IDOCK:   -6.14 KCAL/MOL
REMARK 924 INTRA-LIGAND FREE ENERGY PREDICTED BY IDOCK:    0.15 KCAL/MOL
REMARK 927      BINDING AFFINITY PREDICTED BY RF-SCORE:    0.00 PKD
ROOT
HETATM    1  O   UNL     1      -8.967  19.543  67.717  1.00  0.00    -0.303 OA 
HETATM    2  C   UNL     1      -9.818  19.421  68.763  1.00  0.00    -0.456 C  
HETATM    3  C   UNL     1     -10.644  18.139  68.702  1.00  0.00    -0.059 C  
HETATM    4  O   UNL     1      -9.939  20.271  69.633  1.00  0.00    -0.035 OA 
ENDROOT
BRANCH   3   5
HETATM    5  N   UNL     1      -9.905  16.999  68.055  1.00  0.00    -0.266 NA 
BRANCH   5   6
HETATM    6  C   UNL     1      -8.994  16.369  69.068  1.00  0.00    -0.239 C  
BRANCH   6   7
HETATM    7  C   UNL     1      -7.476  16.603  68.802  1.00  0.00    -0.224 C  
BRANCH   7   8
HETATM    8  N   UNL     1      -6.881  15.865  67.634  1.00  0.00    -0.150 NA 
BRANCH   8   9
HETATM    9  C   UNL     1      -7.416  16.515  66.370  1.00  0.00    -0.170 C  
HETATM   10  O   UNL     1      -5.165  17.288  66.030  1.00  0.00    -0.321 OA 
HETATM   11  C   UNL     1      -6.469  17.573  65.805  1.00  0.00    -0.020 C  
HETATM   12  O   UNL     1      -6.838  18.562  65.191  1.00  0.00    -0.528 OA 
ENDBRANCH   8   9
BRANCH   8  13
HETATM   13  C   UNL     1      -7.412  14.451  67.658  1.00  0.00    -0.175 C  
HETATM   14  O   UNL     1      -5.139  13.794  68.043  1.00  0.00    -0.103 OA 
HETATM   15  O   UNL     1      -6.481  12.317  66.969  1.00  0.00    -0.144 OA 
HETATM   16  C   UNL     1      -6.313  13.407  67.491  1.00  0.00    -0.101 C  
ENDBRANCH   8  13
ENDBRANCH   7   8
ENDBRANCH   6   7
ENDBRANCH   5   6
BRANCH   5  17
HETATM   17  C   UNL     1     -10.901  15.971  67.614  1.00  0.00    -0.311 C  
BRANCH  17  18
HETATM   18  C   UNL     1     -10.758  14.545  68.217  1.00  0.00    -0.240 C  
BRANCH  18  19
HETATM   19  N   UNL     1     -12.051  13.899  68.653  1.00  0.00    -0.352 NA 
BRANCH  19  20
HETATM   20  C   UNL     1     -11.903  13.541  70.121  1.00  0.00    -0.278 C  
HETATM   21  O   UNL     1     -11.706  14.865  72.149  1.00  0.00    -0.353 OA 
HETATM   22  O   UNL     1     -13.121  15.574  70.531  1.00  0.00    -0.402 OA 
HETATM   23  C   UNL     1     -12.205  14.719  71.044  1.00  0.00    -0.329 C  
ENDBRANCH  19  20
BRANCH  19  24
HETATM   24  C   UNL     1     -12.199  12.595  67.899  1.00  0.00     0.115 C  
HETATM   25  C   UNL     1     -10.860  11.938  67.581  1.00  0.00    -0.227 C  
HETATM   26  O   UNL     1     -10.666  11.216  66.615  1.00  0.00    -0.258 OA 
HETATM   27  O   UNL     1      -9.921  12.178  68.526  1.00  0.00    -0.210 OA 
ENDBRANCH  19  24
ENDBRANCH  18  19
ENDBRANCH  17  18
ENDBRANCH   5  17
ENDBRANCH   3   5
TORSDOF 11
ENDMDL
MODEL      399
REMARK 921   NORMALIZED FREE ENERGY PREDICTED BY IDOCK:   -2.57 KCAL/MOL
REMARK 922        TOTAL FREE ENERGY PREDICTED BY IDOCK:   -5.96 KCAL/MOL
REMARK 923 INTER-LIGAND FREE ENERGY PREDICTED BY IDOCK:   -7.47 KCAL/MOL
REMARK 924 INTRA-LIGAND FREE ENERGY PREDICTED BY IDOCK:    1.50 KCAL/MOL
REMARK 927      BINDING AFFINITY PREDICTED BY RF-SCORE:    0.00 PKD
ROOT
HETATM    1  O   UNL     1      -9.013  13.917  69.017  1.00  0.00     0.037 OA 
HETATM    2  C   UNL     1      -7.755  13.961  68.519  1.00  0.00    -0.139 C  
HETATM    3  C   UNL     1      -7.706  14.495  67.090  1.00  0.00    -0.062 C  
HETATM    4  O   UNL     1      -6.774  13.569  69.135  1.00  0.00    -0.106 OA 
ENDROOT
BRANCH   3   5
HETATM    5  N   UNL     1      -8.779  15.513  66.810  1.00  0.00    -0.245 NA 
BRANCH   5   6
HETATM    6  C   UNL     1     -10.104  14.813  66.717  1.00  0.00    -0.256 C  
BRANCH   6   7
HETATM    7  C   UNL     1     -10.555  14.480  65.263  1.00  0.00    -0.383 C  
BRANCH   7   8
HETATM    8  N   UNL     1     -10.273  13.084  64.779  1.00  0.00    -0.314 NA 
BRANCH   8   9
HETATM    9  C   UNL     1     -11.178  12.829  63.586  1.00  0.00    -0.427 C  
HETATM   10  O   UNL     1     -12.995  13.261  65.099  1.00  0.00    -0.705 OA 
HETATM   11  C   UNL     1     -12.629  12.577  63.990  1.00  0.00    -0.387 C  
HETATM   12  O   UNL     1     -13.395  11.857  63.370  1.00  0.00    -0.569 OA 
ENDBRANCH   8   9
BRANCH   8  13
HETATM   13  C   UNL     1     -10.697  12.122  65.864  1.00  0.00    -0.266 C  
HETATM   14  O   UNL     1      -8.607  11.021  65.458  1.00  0.00    -0.173 OA 
HETATM   15  O   UNL     1     -10.322   9.749  66.217  1.00  0.00    -0.235 OA 
HETATM   16  C   UNL     1      -9.887  10.830  65.854  1.00  0.00    -0.239 C  
ENDBRANCH   8  13
ENDBRANCH   7   8
ENDBRANCH   6   7
ENDBRANCH   5   6
BRANCH   5  17
HETATM   17  C   UNL     1      -8.835  16.478  67.955  1.00  0.00    -0.193 C  
BRANCH  17  18
HETATM   18  C   UNL     1      -7.674  17.505  68.069  1.00  0.00    -0.211 C  
BRANCH  18  19
HETATM   19  N   UNL     1      -7.580  18.498  66.934  1.00  0.00    -0.216 NA 
BRANCH  19  20
HETATM   20  C   UNL     1      -8.965  18.611  66.321  1.00  0.00    -0.219 C  
HETATM   21  O   UNL     1     -10.986  19.794  66.973  1.00  0.00    -0.435 OA 
HETATM   22  O   UNL     1      -8.989  20.814  67.285  1.00  0.00    -0.314 OA 
HETATM   23  C   UNL     1      -9.767  19.775  66.898  1.00  0.00    -0.385 C  
ENDBRANCH  19  20
BRANCH  19  24
HETATM   24  C   UNL     1      -6.680  17.908  65.871  1.00  0.00    -0.277 C  
HETATM   25  C   UNL     1      -6.111  18.959  64.924  1.00  0.00    -0.266 C  
HETATM   26  O   UNL     1      -5.806  18.739  63.763  1.00  0.00    -0.310 OA 
HETATM   27  O   UNL     1      -5.908  20.154  65.528  1.00  0.00    -0.174 OA 
ENDBRANCH  19  24
ENDBRANCH  18  19
ENDBRANCH  17  18
ENDBRANCH   5  17
ENDBRANCH   3   5
TORSDOF 11
ENDMDL
MODEL      400
REMARK 921   NORMALIZED FREE ENERGY PREDICTED BY IDOCK:   -2.56 KCAL/MOL
REMARK 922        TOTAL FREE ENERGY PREDICTED BY IDOCK:   -5.94 KCAL/MOL
REMARK 923 INTER-LIGAND FREE ENERGY PREDICTED BY IDOCK:   -4.69 KCAL/MOL
REMARK 924 INTRA-LIGAND FREE ENERGY PREDICTED BY IDOCK:   -1.25 KCAL/MOL
REMARK 927      BINDING AFFINITY PREDICTED BY RF-SCORE:    0.00 PKD
ROOT
HETATM    1  O   UNL     1     -10.192  12.058  68.755  1.00  0.00    -0.204 OA 
HETATM    2  C   UNL     1     -11.245  11.674  67.996  1.00  0.00    -0.263 C  
HETATM    3  C   UNL     1     -11.197  12.258  66.587  1.00  0.00    -0.316 C  
HETATM    4  O   UNL     1     -12.155  10.973  68.415  1.00  0.00    -0.594 OA 
ENDROOT
BRANCH   3   5
HETATM    5  N   UNL     1      -9.793  12.446  66.080  1.00  0.00    -0.255 NA 
BRANCH   5   6
HETATM    6  C   UNL     1      -9.627  11.675  64.802  1.00  0.00    -0.134 C  
BRANCH   6   7
HETATM    7  C   UNL     1      -9.726  10.128  64.967  1.00  0.00    -0.318 C  
BRANCH   7   8
HETATM    8  N   UNL     1      -8.474   9.421  65.411  1.00  0.00    -0.139 NA 
BRANCH   8   9
HETATM    9  C   UNL     1      -8.821   7.952  65.578  1.00  0.00    -0.031 C  
HETATM   10  O   UNL     1      -7.350   7.577  63.713  1.00  0.00    -0.079 OA 
HETATM   11  C   UNL     1      -8.449   7.116  64.355  1.00  0.00     0.236 C  
HETATM   12  O   UNL     1      -9.057   6.118  63.999  1.00  0.00     0.605 OA 
ENDBRANCH   8   9
BRANCH   8  13
HETATM   13  C   UNL     1      -8.106   9.944  66.780  1.00  0.00    -0.117 C  
HETATM   14  O   UNL     1      -6.093  10.729  65.743  1.00  0.00    -0.132 OA 
HETATM   15  O   UNL     1      -5.991  10.201  67.944  1.00  0.00    -0.042 OA 
HETATM   16  C   UNL     1      -6.623  10.277  66.903  1.00  0.00    -0.076 C  
ENDBRANCH   8  13
ENDBRANCH   7   8
ENDBRANCH   6   7
ENDBRANCH   5   6
BRANCH   5  17
HETATM   17  C   UNL     1      -9.579  13.899  65.784  1.00  0.00    -0.085 C  
BRANCH  17  18
HETATM   18  C   UNL     1      -8.741  14.712  66.811  1.00  0.00    -0.203 C  
BRANCH  18  19
HETATM   19  N   UNL     1      -9.347  16.030  67.234  1.00  0.00    -0.209 NA 
BRANCH  19  20
HETATM   20  C   UNL     1     -10.721  15.730  67.806  1.00  0.00    -0.307 C  
HETATM   21  O   UNL     1     -11.479  14.648  69.845  1.00  0.00    -0.255 OA 
HETATM   22  O   UNL     1      -9.663  15.995  69.949  1.00  0.00    -0.162 OA 
HETATM   23  C   UNL     1     -10.673  15.379  69.291  1.00  0.00    -0.251 C  
ENDBRANCH  19  20
BRANCH  19  24
HETATM   24  C   UNL     1      -9.564  16.864  65.990  1.00  0.00    -0.209 C  
HETATM   25  C   UNL     1      -9.838  18.332  66.300  1.00  0.00    -0.321 C  
HETATM   26  O   UNL     1     -10.507  19.066  65.591  1.00  0.00    -0.554 OA 
HETATM   27  O   UNL     1      -9.195  18.761  67.412  1.00  0.00    -0.280 OA 
ENDBRANCH  19  24
ENDBRANCH  18  19
ENDBRANCH  17  18
ENDBRANCH   5  17
ENDBRANCH   3   5
TORSDOF 11
ENDMDL
MODEL      401
REMARK 921   NORMALIZED FREE ENERGY PREDICTED BY IDOCK:   -2.54 KCAL/MOL
REMARK 922        TOTAL FREE ENERGY PREDICTED BY IDOCK:   -5.91 KCAL/MOL
REMARK 923 INTER-LIGAND FREE ENERGY PREDICTED BY IDOCK:   -5.47 KCAL/MOL
REMARK 924 INTRA-LIGAND FREE ENERGY PREDICTED BY IDOCK:   -0.45 KCAL/MOL
REMARK 927      BINDING AFFINITY PREDICTED BY RF-SCORE:    0.00 PKD
ROOT
HETATM    1  O   UNL     1      -6.338   9.942  68.019  1.00  0.00    -0.054 OA 
HETATM    2  C   UNL     1      -6.770  10.712  66.993  1.00  0.00    -0.086 C  
HETATM    3  C   UNL     1      -8.293  10.788  66.915  1.00  0.00    -0.132 C  
HETATM    4  O   UNL     1      -6.017  11.247  66.192  1.00  0.00    -0.138 OA 
ENDROOT
BRANCH   3   5
HETATM    5  N   UNL     1      -8.951  10.704  68.266  1.00  0.00    -0.137 NA 
BRANCH   5   6
HETATM    6  C   UNL     1      -9.889  11.865  68.425  1.00  0.00    -0.201 C  
BRANCH   6   7
HETATM    7  C   UNL     1      -9.419  13.174  67.721  1.00  0.00    -0.209 C  
BRANCH   7   8
HETATM    8  N   UNL     1     -10.462  13.924  66.938  1.00  0.00    -0.274 NA 
BRANCH   8   9
HETATM    9  C   UNL     1     -10.773  15.197  67.704  1.00  0.00    -0.285 C  
HETATM   10  O   UNL     1      -9.442  16.310  66.039  1.00  0.00    -0.312 OA 
HETATM   11  C   UNL     1      -9.843  16.351  67.331  1.00  0.00    -0.244 C  
HETATM   12  O   UNL     1      -9.511  17.236  68.104  1.00  0.00    -0.262 OA 
ENDBRANCH   8   9
BRANCH   8  13
HETATM   13  C   UNL     1     -11.725  13.095  66.934  1.00  0.00    -0.387 C  
HETATM   14  O   UNL     1     -11.077  12.442  64.719  1.00  0.00    -0.287 OA 
HETATM   15  O   UNL     1     -13.294  12.470  65.189  1.00  0.00    -0.448 OA 
HETATM   16  C   UNL     1     -12.139  12.659  65.532  1.00  0.00    -0.458 C  
ENDBRANCH   8  13
ENDBRANCH   7   8
ENDBRANCH   6   7
ENDBRANCH   5   6
BRANCH   5  17
HETATM   17  C   UNL     1      -9.750   9.440  68.333  1.00  0.00    -0.149 C  
BRANCH  17  18
HETATM   18  C   UNL     1     -10.257   8.998  69.735  1.00  0.00    -0.205 C  
BRANCH  18  19
HETATM   19  N   UNL     1      -9.702   7.685  70.234  1.00  0.00    -0.179 NA 
BRANCH  19  20
HETATM   20  C   UNL     1      -8.224   7.894  70.506  1.00  0.00    -0.118 C  
HETATM   21  O   UNL     1      -6.971   8.597  72.467  1.00  0.00    -0.218 OA 
HETATM   22  O   UNL     1      -8.750   7.226  72.755  1.00  0.00    -0.118 OA 
HETATM   23  C   UNL     1      -7.907   7.967  71.998  1.00  0.00    -0.105 C  
ENDBRANCH  19  20
BRANCH  19  24
HETATM   24  C   UNL     1      -9.800   6.679  69.108  1.00  0.00    -0.148 C  
HETATM   25  C   UNL     1      -8.854   5.496  69.283  1.00  0.00    -0.106 C  
HETATM   26  O   UNL     1      -8.381   4.857  68.357  1.00  0.00    -0.091 OA 
HETATM   27  O   UNL     1      -8.648   5.178  70.583  1.00  0.00    -0.115 OA 
ENDBRANCH  19  24
ENDBRANCH  18  19
ENDBRANCH  17  18
ENDBRANCH   5  17
ENDBRANCH   3   5
TORSDOF 11
ENDMDL
MODEL      402
REMARK 921   NORMALIZED FREE ENERGY PREDICTED BY IDOCK:   -2.54 KCAL/MOL
REMARK 922        TOTAL FREE ENERGY PREDICTED BY IDOCK:   -5.91 KCAL/MOL
REMARK 923 INTER-LIGAND FREE ENERGY PREDICTED BY IDOCK:   -5.95 KCAL/MOL
REMARK 924 INTRA-LIGAND FREE ENERGY PREDICTED BY IDOCK:    0.04 KCAL/MOL
REMARK 927      BINDING AFFINITY PREDICTED BY RF-SCORE:    0.00 PKD
ROOT
HETATM    1  O   UNL     1      -9.144   9.411  71.546  1.00  0.00    -0.275 OA 
HETATM    2  C   UNL     1      -8.132   9.317  70.653  1.00  0.00    -0.176 C  
HETATM    3  C   UNL     1      -8.529   8.554  69.391  1.00  0.00    -0.127 C  
HETATM    4  O   UNL     1      -7.010   9.756  70.861  1.00  0.00    -0.277 OA 
ENDROOT
BRANCH   3   5
HETATM    5  N   UNL     1      -9.979   8.734  69.033  1.00  0.00    -0.186 NA 
BRANCH   5   6
HETATM    6  C   UNL     1     -10.073   9.306  67.648  1.00  0.00    -0.214 C  
BRANCH   6   7
HETATM    7  C   UNL     1      -9.565  10.774  67.521  1.00  0.00    -0.158 C  
BRANCH   7   8
HETATM    8  N   UNL     1     -10.513  11.851  67.973  1.00  0.00    -0.202 NA 
BRANCH   8   9
HETATM    9  C   UNL     1     -11.823  11.175  68.337  1.00  0.00    -0.232 C  
HETATM   10  O   UNL     1     -11.899  12.717  70.180  1.00  0.00    -0.319 OA 
HETATM   11  C   UNL     1     -12.267  11.482  69.766  1.00  0.00    -0.244 C  
HETATM   12  O   UNL     1     -12.910  10.712  70.462  1.00  0.00    -0.349 OA 
ENDBRANCH   8   9
BRANCH   8  13
HETATM   13  C   UNL     1     -10.795  12.747  66.790  1.00  0.00    -0.264 C  
HETATM   14  O   UNL     1      -9.310  14.306  67.843  1.00  0.00    -0.187 OA 
HETATM   15  O   UNL     1     -10.952  15.156  66.534  1.00  0.00    -0.320 OA 
HETATM   16  C   UNL     1     -10.395  14.197  67.041  1.00  0.00    -0.267 C  
ENDBRANCH   8  13
ENDBRANCH   7   8
ENDBRANCH   6   7
ENDBRANCH   5   6
BRANCH   5  17
HETATM   17  C   UNL     1     -10.645   7.392  69.035  1.00  0.00    -0.192 C  
BRANCH  17  18
HETATM   18  C   UNL     1      -9.880   6.227  69.726  1.00  0.00    -0.165 C  
BRANCH  18  19
HETATM   19  N   UNL     1     -10.640   5.524  70.825  1.00  0.00    -0.261 NA 
BRANCH  19  20
HETATM   20  C   UNL     1     -10.614   6.432  72.042  1.00  0.00    -0.213 C  
HETATM   21  O   UNL     1     -11.975   8.318  72.746  1.00  0.00    -0.377 OA 
HETATM   22  O   UNL     1     -12.996   6.564  71.743  1.00  0.00    -0.262 OA 
HETATM   23  C   UNL     1     -11.909   7.221  72.211  1.00  0.00    -0.248 C  
ENDBRANCH  19  20
BRANCH  19  24
HETATM   24  C   UNL     1      -9.872   4.274  71.197  1.00  0.00    -0.180 C  
HETATM   25  C   UNL     1      -8.362   4.485  71.206  1.00  0.00    -0.103 C  
HETATM   26  O   UNL     1      -7.548   3.605  70.977  1.00  0.00    -0.046 OA 
HETATM   27  O   UNL     1      -8.011   5.741  71.571  1.00  0.00    -0.109 OA 
ENDBRANCH  19  24
ENDBRANCH  18  19
ENDBRANCH  17  18
ENDBRANCH   5  17
ENDBRANCH   3   5
TORSDOF 11
ENDMDL
MODEL      403
REMARK 921   NORMALIZED FREE ENERGY PREDICTED BY IDOCK:   -2.53 KCAL/MOL
REMARK 922        TOTAL FREE ENERGY PREDICTED BY IDOCK:   -5.91 KCAL/MOL
REMARK 923 INTER-LIGAND FREE ENERGY PREDICTED BY IDOCK:   -4.72 KCAL/MOL
REMARK 924 INTRA-LIGAND FREE ENERGY PREDICTED BY IDOCK:   -1.19 KCAL/MOL
REMARK 927      BINDING AFFINITY PREDICTED BY RF-SCORE:    0.00 PKD
ROOT
HETATM    1  O   UNL     1      -9.690   9.499  71.151  1.00  0.00    -0.234 OA 
HETATM    2  C   UNL     1     -11.019   9.653  70.948  1.00  0.00    -0.342 C  
HETATM    3  C   UNL     1     -11.367   9.890  69.481  1.00  0.00    -0.124 C  
HETATM    4  O   UNL     1     -11.842   9.648  71.853  1.00  0.00    -0.367 OA 
ENDROOT
BRANCH   3   5
HETATM    5  N   UNL     1     -10.427   9.188  68.538  1.00  0.00    -0.213 NA 
BRANCH   5   6
HETATM    6  C   UNL     1     -10.528   7.706  68.760  1.00  0.00    -0.189 C  
BRANCH   6   7
HETATM    7  C   UNL     1      -9.186   6.935  68.578  1.00  0.00    -0.129 C  
BRANCH   7   8
HETATM    8  N   UNL     1      -8.909   5.832  69.563  1.00  0.00    -0.117 NA 
BRANCH   8   9
HETATM    9  C   UNL     1      -9.085   6.416  70.954  1.00  0.00    -0.151 C  
HETATM   10  O   UNL     1     -10.256   4.379  71.464  1.00  0.00    -0.173 OA 
HETATM   11  C   UNL     1     -10.163   5.695  71.763  1.00  0.00    -0.202 C  
HETATM   12  O   UNL     1     -10.856   6.236  72.610  1.00  0.00    -0.220 OA 
ENDBRANCH   8   9
BRANCH   8  13
HETATM   13  C   UNL     1      -7.455   5.446  69.429  1.00  0.00    -0.070 C  
HETATM   14  O   UNL     1      -8.247   3.622  68.091  1.00  0.00    -0.081 OA 
HETATM   15  O   UNL     1      -6.317   3.309  69.237  1.00  0.00    -0.028 OA 
HETATM   16  C   UNL     1      -7.269   4.013  68.942  1.00  0.00    -0.054 C  
ENDBRANCH   8  13
ENDBRANCH   7   8
ENDBRANCH   6   7
ENDBRANCH   5   6
BRANCH   5  17
HETATM   17  C   UNL     1     -10.850   9.483  67.131  1.00  0.00    -0.086 C  
BRANCH  17  18
HETATM   18  C   UNL     1      -9.821  10.217  66.225  1.00  0.00    -0.219 C  
BRANCH  18  19
HETATM   19  N   UNL     1      -9.190  11.447  66.835  1.00  0.00    -0.172 NA 
BRANCH  19  20
HETATM   20  C   UNL     1      -9.730  12.649  66.082  1.00  0.00    -0.251 C  
HETATM   21  O   UNL     1     -11.539  14.214  66.513  1.00  0.00    -0.344 OA 
HETATM   22  O   UNL     1     -10.281  13.511  68.258  1.00  0.00    -0.237 OA 
HETATM   23  C   UNL     1     -10.626  13.530  66.949  1.00  0.00    -0.270 C  
ENDBRANCH  19  20
BRANCH  19  24
HETATM   24  C   UNL     1      -7.703  11.393  66.563  1.00  0.00    -0.093 C  
HETATM   25  C   UNL     1      -6.869  11.977  67.698  1.00  0.00    -0.115 C  
HETATM   26  O   UNL     1      -5.776  12.498  67.544  1.00  0.00    -0.118 OA 
HETATM   27  O   UNL     1      -7.436  11.792  68.913  1.00  0.00    -0.119 OA 
ENDBRANCH  19  24
ENDBRANCH  18  19
ENDBRANCH  17  18
ENDBRANCH   5  17
ENDBRANCH   3   5
TORSDOF 11
ENDMDL
MODEL      404
REMARK 921   NORMALIZED FREE ENERGY PREDICTED BY IDOCK:   -2.53 KCAL/MOL
REMARK 922        TOTAL FREE ENERGY PREDICTED BY IDOCK:   -5.91 KCAL/MOL
REMARK 923 INTER-LIGAND FREE ENERGY PREDICTED BY IDOCK:   -7.16 KCAL/MOL
REMARK 924 INTRA-LIGAND FREE ENERGY PREDICTED BY IDOCK:    1.25 KCAL/MOL
REMARK 927      BINDING AFFINITY PREDICTED BY RF-SCORE:    0.00 PKD
ROOT
HETATM    1  O   UNL     1      -9.420   7.083  66.340  1.00  0.00    -0.175 OA 
HETATM    2  C   UNL     1      -8.234   7.465  66.867  1.00  0.00    -0.121 C  
HETATM    3  C   UNL     1      -8.296   8.846  67.515  1.00  0.00    -0.109 C  
HETATM    4  O   UNL     1      -7.216   6.792  66.789  1.00  0.00    -0.073 OA 
ENDROOT
BRANCH   3   5
HETATM    5  N   UNL     1      -9.642   9.151  68.113  1.00  0.00    -0.142 NA 
BRANCH   5   6
HETATM    6  C   UNL     1     -10.518   9.764  67.059  1.00  0.00    -0.227 C  
BRANCH   6   7
HETATM    7  C   UNL     1     -11.352  10.987  67.548  1.00  0.00    -0.257 C  
BRANCH   7   8
HETATM    8  N   UNL     1     -11.261  12.235  66.713  1.00  0.00    -0.299 NA 
BRANCH   8   9
HETATM    9  C   UNL     1     -11.280  11.806  65.256  1.00  0.00    -0.254 C  
HETATM   10  O   UNL     1     -12.806  13.635  64.925  1.00  0.00    -0.688 OA 
HETATM   11  C   UNL     1     -12.452  12.406  64.481  1.00  0.00    -0.435 C  
HETATM   12  O   UNL     1     -13.003  11.854  63.542  1.00  0.00    -0.724 OA 
ENDBRANCH   8   9
BRANCH   8  13
HETATM   13  C   UNL     1      -9.911  12.865  66.967  1.00  0.00    -0.244 C  
HETATM   14  O   UNL     1     -11.136  14.869  67.448  1.00  0.00    -0.305 OA 
HETATM   15  O   UNL     1      -9.036  15.105  66.630  1.00  0.00    -0.251 OA 
HETATM   16  C   UNL     1      -9.964  14.390  66.969  1.00  0.00    -0.257 C  
ENDBRANCH   8  13
ENDBRANCH   7   8
ENDBRANCH   6   7
ENDBRANCH   5   6
BRANCH   5  17
HETATM   17  C   UNL     1     -10.271   7.866  68.559  1.00  0.00    -0.205 C  
BRANCH  17  18
HETATM   18  C   UNL     1     -11.394   7.965  69.630  1.00  0.00     0.184 C  
BRANCH  18  19
HETATM   19  N   UNL     1     -10.913   8.007  71.062  1.00  0.00    -0.236 NA 
BRANCH  19  20
HETATM   20  C   UNL     1     -11.884   7.181  71.887  1.00  0.00    -0.300 C  
HETATM   21  O   UNL     1     -11.753   4.977  72.902  1.00  0.00    -0.256 OA 
HETATM   22  O   UNL     1      -9.914   6.297  72.946  1.00  0.00    -0.167 OA 
HETATM   23  C   UNL     1     -11.198   6.026  72.613  1.00  0.00    -0.285 C  
ENDBRANCH  19  20
BRANCH  19  24
HETATM   24  C   UNL     1     -11.031   9.434  71.551  1.00  0.00    -0.359 C  
HETATM   25  C   UNL     1     -12.326  10.108  71.112  1.00  0.00    -0.385 C  
HETATM   26  O   UNL     1     -12.444  11.310  70.931  1.00  0.00    -0.365 OA 
HETATM   27  O   UNL     1     -13.361   9.241  71.015  1.00  0.00    -0.224 OA 
ENDBRANCH  19  24
ENDBRANCH  18  19
ENDBRANCH  17  18
ENDBRANCH   5  17
ENDBRANCH   3   5
TORSDOF 11
ENDMDL
MODEL      405
REMARK 921   NORMALIZED FREE ENERGY PREDICTED BY IDOCK:   -2.50 KCAL/MOL
REMARK 922        TOTAL FREE ENERGY PREDICTED BY IDOCK:   -5.85 KCAL/MOL
REMARK 923 INTER-LIGAND FREE ENERGY PREDICTED BY IDOCK:   -5.76 KCAL/MOL
REMARK 924 INTRA-LIGAND FREE ENERGY PREDICTED BY IDOCK:   -0.09 KCAL/MOL
REMARK 927      BINDING AFFINITY PREDICTED BY RF-SCORE:    0.00 PKD
ROOT
HETATM    1  O   UNL     1      -8.432  10.466  69.607  1.00  0.00    -0.145 OA 
HETATM    2  C   UNL     1      -9.342   9.500  69.871  1.00  0.00    -0.223 C  
HETATM    3  C   UNL     1     -10.307   9.268  68.711  1.00  0.00    -0.211 C  
HETATM    4  O   UNL     1      -9.407   8.914  70.942  1.00  0.00    -0.194 OA 
ENDROOT
BRANCH   3   5
HETATM    5  N   UNL     1      -9.673   9.510  67.368  1.00  0.00    -0.151 NA 
BRANCH   5   6
HETATM    6  C   UNL     1      -9.611  10.989  67.117  1.00  0.00    -0.169 C  
BRANCH   6   7
HETATM    7  C   UNL     1     -10.997  11.701  67.113  1.00  0.00    -0.280 C  
BRANCH   7   8
HETATM    8  N   UNL     1     -11.038  13.084  66.522  1.00  0.00    -0.282 NA 
BRANCH   8   9
HETATM    9  C   UNL     1     -10.947  12.933  65.014  1.00  0.00    -0.297 C  
HETATM   10  O   UNL     1     -13.001  14.182  64.946  1.00  0.00    -0.705 OA 
HETATM   11  C   UNL     1     -12.269  13.236  64.311  1.00  0.00    -0.392 C  
HETATM   12  O   UNL     1     -12.627  12.706  63.271  1.00  0.00    -0.669 OA 
ENDBRANCH   8   9
BRANCH   8  13
HETATM   13  C   UNL     1      -9.792  13.814  66.966  1.00  0.00    -0.251 C  
HETATM   14  O   UNL     1     -11.253  15.658  67.427  1.00  0.00    -0.306 OA 
HETATM   15  O   UNL     1      -9.111  16.143  66.868  1.00  0.00    -0.199 OA 
HETATM   16  C   UNL     1      -9.995  15.323  67.055  1.00  0.00    -0.234 C  
ENDBRANCH   8  13
ENDBRANCH   7   8
ENDBRANCH   6   7
ENDBRANCH   5   6
BRANCH   5  17
HETATM   17  C   UNL     1      -8.274   8.977  67.393  1.00  0.00    -0.108 C  
BRANCH  17  18
HETATM   18  C   UNL     1      -7.895   7.938  66.300  1.00  0.00    -0.094 C  
BRANCH  18  19
HETATM   19  N   UNL     1      -7.601   6.547  66.810  1.00  0.00    -0.090 NA 
BRANCH  19  20
HETATM   20  C   UNL     1      -8.914   5.957  67.290  1.00  0.00    -0.108 C  
HETATM   21  O   UNL     1     -10.677   4.695  66.190  1.00  0.00    -0.269 OA 
HETATM   22  O   UNL     1      -8.527   4.263  65.627  1.00  0.00    -0.112 OA 
HETATM   23  C   UNL     1      -9.484   4.928  66.315  1.00  0.00    -0.158 C  
ENDBRANCH  19  20
BRANCH  19  24
HETATM   24  C   UNL     1      -6.710   6.675  68.027  1.00  0.00    -0.071 C  
HETATM   25  C   UNL     1      -5.938   5.396  68.335  1.00  0.00    -0.021 C  
HETATM   26  O   UNL     1      -5.580   5.068  69.455  1.00  0.00    -0.007 OA 
HETATM   27  O   UNL     1      -5.624   4.693  67.222  1.00  0.00    -0.012 OA 
ENDBRANCH  19  24
ENDBRANCH  18  19
ENDBRANCH  17  18
ENDBRANCH   5  17
ENDBRANCH   3   5
TORSDOF 11
ENDMDL
MODEL      406
REMARK 921   NORMALIZED FREE ENERGY PREDICTED BY IDOCK:   -2.48 KCAL/MOL
REMARK 922        TOTAL FREE ENERGY PREDICTED BY IDOCK:   -5.82 KCAL/MOL
REMARK 923 INTER-LIGAND FREE ENERGY PREDICTED BY IDOCK:   -4.29 KCAL/MOL
REMARK 924 INTRA-LIGAND FREE ENERGY PREDICTED BY IDOCK:   -1.53 KCAL/MOL
REMARK 927      BINDING AFFINITY PREDICTED BY RF-SCORE:    0.00 PKD
ROOT
HETATM    1  O   UNL     1     -10.502   8.059  69.193  1.00  0.00    -0.219 OA 
HETATM    2  C   UNL     1     -10.790   6.781  69.533  1.00  0.00    -0.273 C  
HETATM    3  C   UNL     1      -9.593   5.846  69.375  1.00  0.00    -0.138 C  
HETATM    4  O   UNL     1     -11.902   6.414  69.884  1.00  0.00    -0.384 OA 
ENDROOT
BRANCH   3   5
HETATM    5  N   UNL     1      -8.279   6.532  69.635  1.00  0.00    -0.125 NA 
BRANCH   5   6
HETATM    6  C   UNL     1      -7.985   6.483  71.107  1.00  0.00    -0.112 C  
BRANCH   6   7
HETATM    7  C   UNL     1      -7.826   5.045  71.684  1.00  0.00    -0.108 C  
BRANCH   7   8
HETATM    8  N   UNL     1      -8.938   4.552  72.569  1.00  0.00    -0.119 NA 
BRANCH   8   9
HETATM    9  C   UNL     1      -9.153   5.598  73.649  1.00  0.00    -0.127 C  
HETATM   10  O   UNL     1     -11.472   5.509  73.021  1.00  0.00    -0.291 OA 
HETATM   11  C   UNL     1     -10.501   6.307  73.521  1.00  0.00    -0.271 C  
HETATM   12  O   UNL     1     -10.698   7.464  73.857  1.00  0.00    -0.319 OA 
ENDBRANCH   8   9
BRANCH   8  13
HETATM   13  C   UNL     1      -8.458   3.299  73.263  1.00  0.00    -0.078 C  
HETATM   14  O   UNL     1     -10.505   2.309  72.505  1.00  0.00    -0.157 OA 
HETATM   15  O   UNL     1      -9.607   1.500  74.421  1.00  0.00    -0.064 OA 
HETATM   16  C   UNL     1      -9.576   2.286  73.489  1.00  0.00    -0.082 C  
ENDBRANCH   8  13
ENDBRANCH   7   8
ENDBRANCH   6   7
ENDBRANCH   5   6
BRANCH   5  17
HETATM   17  C   UNL     1      -7.198   5.786  68.914  1.00  0.00    -0.082 C  
BRANCH  17  18
HETATM   18  C   UNL     1      -6.744   6.355  67.541  1.00  0.00    -0.070 C  
BRANCH  18  19
HETATM   19  N   UNL     1      -7.828   6.447  66.493  1.00  0.00    -0.102 NA 
BRANCH  19  20
HETATM   20  C   UNL     1      -7.945   5.079  65.845  1.00  0.00    -0.107 C  
HETATM   21  O   UNL     1      -9.536   3.256  66.072  1.00  0.00    -0.122 OA 
HETATM   22  O   UNL     1     -10.316   5.381  66.108  1.00  0.00    -0.191 OA 
HETATM   23  C   UNL     1      -9.327   4.459  66.032  1.00  0.00    -0.160 C  
ENDBRANCH  19  20
BRANCH  19  24
HETATM   24  C   UNL     1      -7.357   7.401  65.417  1.00  0.00    -0.072 C  
HETATM   25  C   UNL     1      -8.427   8.407  65.006  1.00  0.00    -0.141 C  
HETATM   26  O   UNL     1      -8.500   8.911  63.896  1.00  0.00    -0.182 OA 
HETATM   27  O   UNL     1      -9.248   8.745  66.027  1.00  0.00    -0.193 OA 
ENDBRANCH  19  24
ENDBRANCH  18  19
ENDBRANCH  17  18
ENDBRANCH   5  17
ENDBRANCH   3   5
TORSDOF 11
ENDMDL
MODEL      407
REMARK 921   NORMALIZED FREE ENERGY PREDICTED BY IDOCK:   -2.48 KCAL/MOL
REMARK 922        TOTAL FREE ENERGY PREDICTED BY IDOCK:   -5.81 KCAL/MOL
REMARK 923 INTER-LIGAND FREE ENERGY PREDICTED BY IDOCK:   -7.68 KCAL/MOL
REMARK 924 INTRA-LIGAND FREE ENERGY PREDICTED BY IDOCK:    1.87 KCAL/MOL
REMARK 927      BINDING AFFINITY PREDICTED BY RF-SCORE:    0.00 PKD
ROOT
HETATM    1  O   UNL     1      -5.946  14.533  67.413  1.00  0.00    -0.344 OA 
HETATM    2  C   UNL     1      -6.029  14.085  68.688  1.00  0.00    -0.088 C  
HETATM    3  C   UNL     1      -6.914  14.968  69.564  1.00  0.00    -0.187 C  
HETATM    4  O   UNL     1      -5.421  13.107  69.097  1.00  0.00    -0.069 OA 
ENDROOT
BRANCH   3   5
HETATM    5  N   UNL     1      -8.043  15.605  68.800  1.00  0.00    -0.155 NA 
BRANCH   5   6
HETATM    6  C   UNL     1      -7.481  16.645  67.875  1.00  0.00    -0.159 C  
BRANCH   6   7
HETATM    7  C   UNL     1      -7.623  18.109  68.391  1.00  0.00    -0.283 C  
BRANCH   7   8
HETATM    8  N   UNL     1      -7.380  19.200  67.384  1.00  0.00    -0.227 NA 
BRANCH   8   9
HETATM    9  C   UNL     1      -6.297  18.709  66.439  1.00  0.00    -0.191 C  
HETATM   10  O   UNL     1      -6.769  20.688  65.158  1.00  0.00    -0.256 OA 
HETATM   11  C   UNL     1      -6.340  19.406  65.081  1.00  0.00    -0.274 C  
HETATM   12  O   UNL     1      -6.000  18.881  64.032  1.00  0.00    -0.429 OA 
ENDBRANCH   8   9
BRANCH   8  13
HETATM   13  C   UNL     1      -6.814  20.392  68.119  1.00  0.00    -0.270 C  
HETATM   14  O   UNL     1      -5.378  18.813  69.210  1.00  0.00    -0.195 OA 
HETATM   15  O   UNL     1      -5.920  20.690  70.357  1.00  0.00    -0.514 OA 
HETATM   16  C   UNL     1      -6.019  19.996  69.359  1.00  0.00    -0.300 C  
ENDBRANCH   8  13
ENDBRANCH   7   8
ENDBRANCH   6   7
ENDBRANCH   5   6
BRANCH   5  17
HETATM   17  C   UNL     1      -8.716  14.553  67.973  1.00  0.00    -0.167 C  
BRANCH  17  18
HETATM   18  C   UNL     1     -10.238  14.337  68.208  1.00  0.00    -0.244 C  
BRANCH  18  19
HETATM   19  N   UNL     1     -10.993  13.760  67.034  1.00  0.00    -0.287 NA 
BRANCH  19  20
HETATM   20  C   UNL     1     -10.033  12.855  66.283  1.00  0.00    -0.270 C  
HETATM   21  O   UNL     1      -9.450  10.504  66.487  1.00  0.00    -0.160 OA 
HETATM   22  O   UNL     1     -11.613  11.109  66.775  1.00  0.00    -0.381 OA 
HETATM   23  C   UNL     1     -10.307  11.374  66.534  1.00  0.00    -0.236 C  
ENDBRANCH  19  20
BRANCH  19  24
HETATM   24  C   UNL     1     -11.343  14.897  66.099  1.00  0.00    -0.307 C  
HETATM   25  C   UNL     1     -12.402  14.515  65.070  1.00  0.00    -0.349 C  
HETATM   26  O   UNL     1     -12.490  15.018  63.961  1.00  0.00    -0.796 OA 
HETATM   27  O   UNL     1     -13.288  13.606  65.542  1.00  0.00    -0.541 OA 
ENDBRANCH  19  24
ENDBRANCH  18  19
ENDBRANCH  17  18
ENDBRANCH   5  17
ENDBRANCH   3   5
TORSDOF 11
ENDMDL
MODEL      408
REMARK 921   NORMALIZED FREE ENERGY PREDICTED BY IDOCK:   -2.45 KCAL/MOL
REMARK 922        TOTAL FREE ENERGY PREDICTED BY IDOCK:   -5.76 KCAL/MOL
REMARK 923 INTER-LIGAND FREE ENERGY PREDICTED BY IDOCK:   -7.28 KCAL/MOL
REMARK 924 INTRA-LIGAND FREE ENERGY PREDICTED BY IDOCK:    1.52 KCAL/MOL
REMARK 927      BINDING AFFINITY PREDICTED BY RF-SCORE:    0.00 PKD
ROOT
HETATM    1  O   UNL     1      -7.663   7.750  67.284  1.00  0.00    -0.108 OA 
HETATM    2  C   UNL     1      -8.135   8.520  66.276  1.00  0.00    -0.107 C  
HETATM    3  C   UNL     1      -9.448   9.213  66.630  1.00  0.00    -0.185 C  
HETATM    4  O   UNL     1      -7.588   8.610  65.187  1.00  0.00    -0.087 OA 
ENDROOT
BRANCH   3   5
HETATM    5  N   UNL     1      -9.555   9.549  68.093  1.00  0.00    -0.137 NA 
BRANCH   5   6
HETATM    6  C   UNL     1      -9.728  11.033  68.242  1.00  0.00    -0.177 C  
BRANCH   6   7
HETATM    7  C   UNL     1     -10.681  11.679  67.191  1.00  0.00    -0.247 C  
BRANCH   7   8
HETATM    8  N   UNL     1     -10.081  12.737  66.306  1.00  0.00    -0.254 NA 
BRANCH   8   9
HETATM    9  C   UNL     1     -10.358  14.080  66.958  1.00  0.00    -0.267 C  
HETATM   10  O   UNL     1      -7.986  14.180  67.340  1.00  0.00    -0.175 OA 
HETATM   11  C   UNL     1      -9.192  14.570  67.816  1.00  0.00    -0.194 C  
HETATM   12  O   UNL     1      -9.321  15.262  68.813  1.00  0.00    -0.190 OA 
ENDBRANCH   8   9
BRANCH   8  13
HETATM   13  C   UNL     1     -10.830  12.724  64.994  1.00  0.00    -0.292 C  
HETATM   14  O   UNL     1     -12.648  13.684  66.227  1.00  0.00    -0.391 OA 
HETATM   15  O   UNL     1     -13.171  12.416  64.423  1.00  0.00    -0.816 OA 
HETATM   16  C   UNL     1     -12.336  12.893  65.174  1.00  0.00    -0.493 C  
ENDBRANCH   8  13
ENDBRANCH   7   8
ENDBRANCH   6   7
ENDBRANCH   5   6
BRANCH   5  17
HETATM   17  C   UNL     1     -10.769   8.874  68.654  1.00  0.00    -0.078 C  
BRANCH  17  18
HETATM   18  C   UNL     1     -10.542   7.864  69.814  1.00  0.00    -0.242 C  
BRANCH  18  19
HETATM   19  N   UNL     1     -11.417   8.071  71.027  1.00  0.00    -0.278 NA 
BRANCH  19  20
HETATM   20  C   UNL     1     -11.389   9.554  71.354  1.00  0.00    -0.392 C  
HETATM   21  O   UNL     1     -13.114  11.257  71.525  1.00  0.00    -0.417 OA 
HETATM   22  O   UNL     1     -13.567   9.180  72.301  1.00  0.00    -0.433 OA 
HETATM   23  C   UNL     1     -12.769  10.101  71.712  1.00  0.00    -0.434 C  
ENDBRANCH  19  20
BRANCH  19  24
HETATM   24  C   UNL     1     -10.774   7.355  72.194  1.00  0.00    -0.225 C  
HETATM   25  C   UNL     1      -9.314   7.745  72.400  1.00  0.00    -0.169 C  
HETATM   26  O   UNL     1      -8.473   7.008  72.889  1.00  0.00    -0.113 OA 
HETATM   27  O   UNL     1      -9.061   9.028  72.050  1.00  0.00    -0.375 OA 
ENDBRANCH  19  24
ENDBRANCH  18  19
ENDBRANCH  17  18
ENDBRANCH   5  17
ENDBRANCH   3   5
TORSDOF 11
ENDMDL
MODEL      409
REMARK 921   NORMALIZED FREE ENERGY PREDICTED BY IDOCK:   -2.44 KCAL/MOL
REMARK 922        TOTAL FREE ENERGY PREDICTED BY IDOCK:   -5.76 KCAL/MOL
REMARK 923 INTER-LIGAND FREE ENERGY PREDICTED BY IDOCK:   -4.36 KCAL/MOL
REMARK 924 INTRA-LIGAND FREE ENERGY PREDICTED BY IDOCK:   -1.39 KCAL/MOL
REMARK 927      BINDING AFFINITY PREDICTED BY RF-SCORE:    0.00 PKD
ROOT
HETATM    1  O   UNL     1     -11.509   4.063  64.438  1.00  0.00    -0.203 OA 
HETATM    2  C   UNL     1     -10.468   3.356  63.940  1.00  0.00    -0.248 C  
HETATM    3  C   UNL     1      -9.163   4.149  63.945  1.00  0.00    -0.145 C  
HETATM    4  O   UNL     1     -10.577   2.223  63.495  1.00  0.00    -0.176 OA 
ENDROOT
BRANCH   3   5
HETATM    5  N   UNL     1      -9.075   5.122  65.089  1.00  0.00    -0.135 NA 
BRANCH   5   6
HETATM    6  C   UNL     1      -8.981   4.355  66.376  1.00  0.00    -0.117 C  
BRANCH   6   7
HETATM    7  C   UNL     1      -9.546   5.109  67.618  1.00  0.00    -0.140 C  
BRANCH   7   8
HETATM    8  N   UNL     1      -8.676   5.122  68.846  1.00  0.00    -0.089 NA 
BRANCH   8   9
HETATM    9  C   UNL     1      -9.299   6.097  69.829  1.00  0.00    -0.151 C  
HETATM   10  O   UNL     1     -10.144   4.146  70.952  1.00  0.00    -0.172 OA 
HETATM   11  C   UNL     1     -10.383   5.453  70.692  1.00  0.00    -0.262 C  
HETATM   12  O   UNL     1     -11.354   6.051  71.127  1.00  0.00    -0.292 OA 
ENDBRANCH   8   9
BRANCH   8  13
HETATM   13  C   UNL     1      -7.332   5.690  68.456  1.00  0.00    -0.076 C  
HETATM   14  O   UNL     1      -6.534   4.734  70.505  1.00  0.00    -0.028 OA 
HETATM   15  O   UNL     1      -5.474   6.585  69.739  1.00  0.00    -0.013 OA 
HETATM   16  C   UNL     1      -6.357   5.750  69.628  1.00  0.00    -0.037 C  
ENDBRANCH   8  13
ENDBRANCH   7   8
ENDBRANCH   6   7
ENDBRANCH   5   6
BRANCH   5  17
HETATM   17  C   UNL     1      -7.827   5.935  64.933  1.00  0.00    -0.108 C  
BRANCH  17  18
HETATM   18  C   UNL     1      -7.912   7.190  64.019  1.00  0.00    -0.078 C  
BRANCH  18  19
HETATM   19  N   UNL     1      -8.593   8.389  64.637  1.00  0.00    -0.084 NA 
BRANCH  19  20
HETATM   20  C   UNL     1      -8.056   9.623  63.933  1.00  0.00    -0.152 C  
HETATM   21  O   UNL     1      -9.063  11.275  62.462  1.00  0.00    -0.339 OA 
HETATM   22  O   UNL     1     -10.280  10.497  64.205  1.00  0.00    -0.344 OA 
HETATM   23  C   UNL     1      -9.168  10.542  63.434  1.00  0.00    -0.276 C  
ENDBRANCH  19  20
BRANCH  19  24
HETATM   24  C   UNL     1      -8.152   8.484  66.081  1.00  0.00    -0.105 C  
HETATM   25  C   UNL     1      -9.303   8.781  67.036  1.00  0.00    -0.157 C  
HETATM   26  O   UNL     1      -9.176   9.378  68.093  1.00  0.00    -0.131 OA 
HETATM   27  O   UNL     1     -10.477   8.248  66.623  1.00  0.00    -0.305 OA 
ENDBRANCH  19  24
ENDBRANCH  18  19
ENDBRANCH  17  18
ENDBRANCH   5  17
ENDBRANCH   3   5
TORSDOF 11
ENDMDL
MODEL      410
REMARK 921   NORMALIZED FREE ENERGY PREDICTED BY IDOCK:   -2.43 KCAL/MOL
REMARK 922        TOTAL FREE ENERGY PREDICTED BY IDOCK:   -5.74 KCAL/MOL
REMARK 923 INTER-LIGAND FREE ENERGY PREDICTED BY IDOCK:   -6.22 KCAL/MOL
REMARK 924 INTRA-LIGAND FREE ENERGY PREDICTED BY IDOCK:    0.48 KCAL/MOL
REMARK 927      BINDING AFFINITY PREDICTED BY RF-SCORE:    0.00 PKD
ROOT
HETATM    1  O   UNL     1      -8.635   6.667  65.514  1.00  0.00    -0.149 OA 
HETATM    2  C   UNL     1      -7.882   6.993  66.590  1.00  0.00    -0.106 C  
HETATM    3  C   UNL     1      -8.369   8.263  67.285  1.00  0.00    -0.124 C  
HETATM    4  O   UNL     1      -6.894   6.362  66.936  1.00  0.00    -0.062 OA 
ENDROOT
BRANCH   3   5
HETATM    5  N   UNL     1      -9.859   8.446  67.188  1.00  0.00    -0.194 NA 
BRANCH   5   6
HETATM    6  C   UNL     1     -10.400   8.777  68.549  1.00  0.00    -0.199 C  
BRANCH   6   7
HETATM    7  C   UNL     1     -10.595   7.543  69.481  1.00  0.00    -0.236 C  
BRANCH   7   8
HETATM    8  N   UNL     1     -10.549   7.808  70.961  1.00  0.00    -0.212 NA 
BRANCH   8   9
HETATM    9  C   UNL     1     -11.917   8.325  71.371  1.00  0.00    -0.299 C  
HETATM   10  O   UNL     1     -12.309   6.103  72.200  1.00  0.00    -0.299 OA 
HETATM   11  C   UNL     1     -12.904   7.200  71.677  1.00  0.00    -0.379 C  
HETATM   12  O   UNL     1     -14.109   7.281  71.496  1.00  0.00    -0.419 OA 
ENDBRANCH   8   9
BRANCH   8  13
HETATM   13  C   UNL     1      -9.566   8.930  71.201  1.00  0.00    -0.272 C  
HETATM   14  O   UNL     1      -7.868   7.252  70.977  1.00  0.00    -0.094 OA 
HETATM   15  O   UNL     1      -7.401   9.035  72.296  1.00  0.00    -0.337 OA 
HETATM   16  C   UNL     1      -8.177   8.426  71.578  1.00  0.00    -0.144 C  
ENDBRANCH   8  13
ENDBRANCH   7   8
ENDBRANCH   6   7
ENDBRANCH   5   6
BRANCH   5  17
HETATM   17  C   UNL     1     -10.143   9.600  66.276  1.00  0.00    -0.252 C  
BRANCH  17  18
HETATM   18  C   UNL     1     -11.126  10.686  66.797  1.00  0.00    -0.030 C  
BRANCH  18  19
HETATM   19  N   UNL     1     -10.475  11.869  67.474  1.00  0.00    -0.205 NA 
BRANCH  19  20
HETATM   20  C   UNL     1     -11.499  12.989  67.504  1.00  0.00    -0.328 C  
HETATM   21  O   UNL     1     -12.551  14.335  65.775  1.00  0.00    -0.454 OA 
HETATM   22  O   UNL     1     -12.196  12.137  65.366  1.00  0.00    -0.515 OA 
HETATM   23  C   UNL     1     -12.124  13.249  66.135  1.00  0.00    -0.421 C  
ENDBRANCH  19  20
BRANCH  19  24
HETATM   24  C   UNL     1      -9.337  12.342  66.596  1.00  0.00    -0.228 C  
HETATM   25  C   UNL     1      -8.038  12.550  67.367  1.00  0.00    -0.180 C  
HETATM   26  O   UNL     1      -7.176  13.354  67.050  1.00  0.00     0.042 OA 
HETATM   27  O   UNL     1      -7.903  11.692  68.406  1.00  0.00    -0.124 OA 
ENDBRANCH  19  24
ENDBRANCH  18  19
ENDBRANCH  17  18
ENDBRANCH   5  17
ENDBRANCH   3   5
TORSDOF 11
ENDMDL
MODEL      411
REMARK 921   NORMALIZED FREE ENERGY PREDICTED BY IDOCK:   -2.41 KCAL/MOL
REMARK 922        TOTAL FREE ENERGY PREDICTED BY IDOCK:   -5.70 KCAL/MOL
REMARK 923 INTER-LIGAND FREE ENERGY PREDICTED BY IDOCK:   -5.40 KCAL/MOL
REMARK 924 INTRA-LIGAND FREE ENERGY PREDICTED BY IDOCK:   -0.30 KCAL/MOL
REMARK 927      BINDING AFFINITY PREDICTED BY RF-SCORE:    0.00 PKD
ROOT
HETATM    1  O   UNL     1     -13.188   7.180  71.490  1.00  0.00    -0.383 OA 
HETATM    2  C   UNL     1     -12.876   8.424  71.921  1.00  0.00    -0.353 C  
HETATM    3  C   UNL     1     -11.399   8.569  72.281  1.00  0.00    -0.371 C  
HETATM    4  O   UNL     1     -13.701   9.317  72.050  1.00  0.00    -0.411 OA 
ENDROOT
BRANCH   3   5
HETATM    5  N   UNL     1     -10.505   7.700  71.438  1.00  0.00    -0.208 NA 
BRANCH   5   6
HETATM    6  C   UNL     1     -10.365   6.359  72.097  1.00  0.00    -0.189 C  
BRANCH   6   7
HETATM    7  C   UNL     1     -10.279   5.160  71.105  1.00  0.00    -0.221 C  
BRANCH   7   8
HETATM    8  N   UNL     1      -8.918   4.551  70.908  1.00  0.00    -0.115 NA 
BRANCH   8   9
HETATM    9  C   UNL     1      -8.211   4.582  72.252  1.00  0.00    -0.109 C  
HETATM   10  O   UNL     1      -8.184   2.183  72.091  1.00  0.00    -0.052 OA 
HETATM   11  C   UNL     1      -8.220   3.225  72.954  1.00  0.00    -0.080 C  
HETATM   12  O   UNL     1      -8.233   3.084  74.167  1.00  0.00    -0.068 OA 
ENDBRANCH   8   9
BRANCH   8  13
HETATM   13  C   UNL     1      -8.137   5.451  69.981  1.00  0.00    -0.085 C  
HETATM   14  O   UNL     1      -8.705   3.878  68.263  1.00  0.00    -0.093 OA 
HETATM   15  O   UNL     1      -6.767   5.027  68.020  1.00  0.00    -0.051 OA 
HETATM   16  C   UNL     1      -7.768   4.766  68.668  1.00  0.00    -0.076 C  
ENDBRANCH   8  13
ENDBRANCH   7   8
ENDBRANCH   6   7
ENDBRANCH   5   6
BRANCH   5  17
HETATM   17  C   UNL     1     -11.150   7.503  70.101  1.00  0.00    -0.231 C  
BRANCH  17  18
HETATM   18  C   UNL     1     -10.521   8.258  68.896  1.00  0.00    -0.191 C  
BRANCH  18  19
HETATM   19  N   UNL     1      -9.668   9.450  69.259  1.00  0.00    -0.166 NA 
BRANCH  19  20
HETATM   20  C   UNL     1     -10.025  10.568  68.297  1.00  0.00    -0.159 C  
HETATM   21  O   UNL     1     -12.117  11.649  67.697  1.00  0.00    -0.615 OA 
HETATM   22  O   UNL     1     -11.776  11.083  69.862  1.00  0.00    -0.283 OA 
HETATM   23  C   UNL     1     -11.413  11.146  68.559  1.00  0.00    -0.302 C  
ENDBRANCH  19  20
BRANCH  19  24
HETATM   24  C   UNL     1      -8.223   9.089  68.992  1.00  0.00    -0.119 C  
HETATM   25  C   UNL     1      -7.279   9.567  70.090  1.00  0.00    -0.114 C  
HETATM   26  O   UNL     1      -6.106   9.854  69.906  1.00  0.00    -0.041 OA 
HETATM   27  O   UNL     1      -7.857   9.571  71.314  1.00  0.00    -0.312 OA 
ENDBRANCH  19  24
ENDBRANCH  18  19
ENDBRANCH  17  18
ENDBRANCH   5  17
ENDBRANCH   3   5
TORSDOF 11
ENDMDL
MODEL      412
REMARK 921   NORMALIZED FREE ENERGY PREDICTED BY IDOCK:   -2.39 KCAL/MOL
REMARK 922        TOTAL FREE ENERGY PREDICTED BY IDOCK:   -5.67 KCAL/MOL
REMARK 923 INTER-LIGAND FREE ENERGY PREDICTED BY IDOCK:   -5.42 KCAL/MOL
REMARK 924 INTRA-LIGAND FREE ENERGY PREDICTED BY IDOCK:   -0.26 KCAL/MOL
REMARK 927      BINDING AFFINITY PREDICTED BY RF-SCORE:    0.00 PKD
ROOT
HETATM    1  O   UNL     1      -7.781  10.093  70.365  1.00  0.00    -0.230 OA 
HETATM    2  C   UNL     1      -8.572   9.209  71.017  1.00  0.00    -0.177 C  
HETATM    3  C   UNL     1      -9.758   8.748  70.173  1.00  0.00    -0.172 C  
HETATM    4  O   UNL     1      -8.378   8.858  72.172  1.00  0.00    -0.381 OA 
ENDROOT
BRANCH   3   5
HETATM    5  N   UNL     1      -9.446   8.702  68.702  1.00  0.00    -0.142 NA 
BRANCH   5   6
HETATM    6  C   UNL     1      -9.469  10.099  68.154  1.00  0.00    -0.142 C  
BRANCH   6   7
HETATM    7  C   UNL     1     -10.617  10.371  67.134  1.00  0.00    -0.261 C  
BRANCH   7   8
HETATM    8  N   UNL     1     -10.728  11.777  66.612  1.00  0.00    -0.251 NA 
BRANCH   8   9
HETATM    9  C   UNL     1     -11.775  12.488  67.451  1.00  0.00    -0.366 C  
HETATM   10  O   UNL     1      -9.984  13.943  68.127  1.00  0.00    -0.226 OA 
HETATM   11  C   UNL     1     -11.160  13.396  68.515  1.00  0.00    -0.270 C  
HETATM   12  O   UNL     1     -11.679  13.630  69.595  1.00  0.00    -0.291 OA 
ENDBRANCH   8   9
BRANCH   8  13
HETATM   13  C   UNL     1     -11.269  11.707  65.203  1.00  0.00    -0.197 C  
HETATM   14  O   UNL     1     -10.049  13.735  64.824  1.00  0.00    -0.361 OA 
HETATM   15  O   UNL     1     -11.919  13.401  63.589  1.00  0.00    -0.480 OA 
HETATM   16  C   UNL     1     -11.147  13.033  64.459  1.00  0.00    -0.351 C  
ENDBRANCH   8  13
ENDBRANCH   7   8
ENDBRANCH   6   7
ENDBRANCH   5   6
BRANCH   5  17
HETATM   17  C   UNL     1      -8.066   8.148  68.522  1.00  0.00    -0.124 C  
BRANCH  17  18
HETATM   18  C   UNL     1      -7.297   8.573  67.239  1.00  0.00    -0.088 C  
BRANCH  18  19
HETATM   19  N   UNL     1      -7.414   7.618  66.074  1.00  0.00    -0.080 NA 
BRANCH  19  20
HETATM   20  C   UNL     1      -8.373   8.241  65.076  1.00  0.00    -0.148 C  
HETATM   21  O   UNL     1      -8.081   9.790  63.225  1.00  0.00    -0.132 OA 
HETATM   22  O   UNL     1      -6.504   8.201  63.563  1.00  0.00    -0.071 OA 
HETATM   23  C   UNL     1      -7.653   8.846  63.872  1.00  0.00    -0.121 C  
ENDBRANCH  19  20
BRANCH  19  24
HETATM   24  C   UNL     1      -8.069   6.350  66.575  1.00  0.00    -0.111 C  
HETATM   25  C   UNL     1      -7.785   5.143  65.687  1.00  0.00    -0.087 C  
HETATM   26  O   UNL     1      -8.540   4.192  65.564  1.00  0.00    -0.115 OA 
HETATM   27  O   UNL     1      -6.565   5.200  65.101  1.00  0.00    -0.038 OA 
ENDBRANCH  19  24
ENDBRANCH  18  19
ENDBRANCH  17  18
ENDBRANCH   5  17
ENDBRANCH   3   5
TORSDOF 11
ENDMDL
MODEL      413
REMARK 921   NORMALIZED FREE ENERGY PREDICTED BY IDOCK:   -2.38 KCAL/MOL
REMARK 922        TOTAL FREE ENERGY PREDICTED BY IDOCK:   -5.65 KCAL/MOL
REMARK 923 INTER-LIGAND FREE ENERGY PREDICTED BY IDOCK:   -5.49 KCAL/MOL
REMARK 924 INTRA-LIGAND FREE ENERGY PREDICTED BY IDOCK:   -0.16 KCAL/MOL
REMARK 927      BINDING AFFINITY PREDICTED BY RF-SCORE:    0.00 PKD
ROOT
HETATM    1  O   UNL     1     -13.325   6.897  71.082  1.00  0.00    -0.254 OA 
HETATM    2  C   UNL     1     -13.087   8.034  71.778  1.00  0.00    -0.336 C  
HETATM    3  C   UNL     1     -11.680   8.079  72.369  1.00  0.00    -0.386 C  
HETATM    4  O   UNL     1     -13.928   8.904  71.949  1.00  0.00    -0.407 OA 
ENDROOT
BRANCH   3   5
HETATM    5  N   UNL     1     -10.667   7.362  71.518  1.00  0.00    -0.222 NA 
BRANCH   5   6
HETATM    6  C   UNL     1     -10.714   5.895  71.834  1.00  0.00    -0.239 C  
BRANCH   6   7
HETATM    7  C   UNL     1     -10.085   4.981  70.740  1.00  0.00    -0.237 C  
BRANCH   7   8
HETATM    8  N   UNL     1      -8.660   4.552  70.964  1.00  0.00    -0.103 NA 
BRANCH   8   9
HETATM    9  C   UNL     1      -8.416   4.564  72.463  1.00  0.00    -0.114 C  
HETATM   10  O   UNL     1      -8.060   2.196  72.240  1.00  0.00    -0.052 OA 
HETATM   11  C   UNL     1      -8.485   3.168  73.081  1.00  0.00    -0.081 C  
HETATM   12  O   UNL     1      -8.859   2.944  74.222  1.00  0.00    -0.078 OA 
ENDBRANCH   8   9
BRANCH   8  13
HETATM   13  C   UNL     1      -7.759   5.607  70.365  1.00  0.00    -0.094 C  
HETATM   14  O   UNL     1      -6.864   3.828  69.029  1.00  0.00    -0.044 OA 
HETATM   15  O   UNL     1      -5.484   5.558  69.518  1.00  0.00    -0.007 OA 
HETATM   16  C   UNL     1      -6.569   5.010  69.621  1.00  0.00    -0.039 C  
ENDBRANCH   8  13
ENDBRANCH   7   8
ENDBRANCH   6   7
ENDBRANCH   5   6
BRANCH   5  17
HETATM   17  C   UNL     1     -11.033   7.546  70.078  1.00  0.00    -0.240 C  
BRANCH  17  18
HETATM   18  C   UNL     1      -9.973   8.218  69.160  1.00  0.00    -0.196 C  
BRANCH  18  19
HETATM   19  N   UNL     1     -10.368   9.565  68.602  1.00  0.00    -0.199 NA 
BRANCH  19  20
HETATM   20  C   UNL     1      -9.092  10.261  68.163  1.00  0.00    -0.136 C  
HETATM   21  O   UNL     1      -7.752  10.167  66.137  1.00  0.00    -0.104 OA 
HETATM   22  O   UNL     1     -10.007  10.099  65.945  1.00  0.00    -0.240 OA 
HETATM   23  C   UNL     1      -8.857  10.158  66.658  1.00  0.00    -0.132 C  
ENDBRANCH  19  20
BRANCH  19  24
HETATM   24  C   UNL     1     -10.946  10.387  69.733  1.00  0.00    -0.293 C  
HETATM   25  C   UNL     1     -11.683  11.630  69.248  1.00  0.00    -0.331 C  
HETATM   26  O   UNL     1     -11.788  12.659  69.896  1.00  0.00    -0.318 OA 
HETATM   27  O   UNL     1     -12.279  11.449  68.045  1.00  0.00    -0.607 OA 
ENDBRANCH  19  24
ENDBRANCH  18  19
ENDBRANCH  17  18
ENDBRANCH   5  17
ENDBRANCH   3   5
TORSDOF 11
ENDMDL
MODEL      414
REMARK 921   NORMALIZED FREE ENERGY PREDICTED BY IDOCK:   -2.37 KCAL/MOL
REMARK 922        TOTAL FREE ENERGY PREDICTED BY IDOCK:   -5.64 KCAL/MOL
REMARK 923 INTER-LIGAND FREE ENERGY PREDICTED BY IDOCK:   -4.15 KCAL/MOL
REMARK 924 INTRA-LIGAND FREE ENERGY PREDICTED BY IDOCK:   -1.49 KCAL/MOL
REMARK 927      BINDING AFFINITY PREDICTED BY RF-SCORE:    0.00 PKD
ROOT
HETATM    1  O   UNL     1     -10.650   8.278  68.817  1.00  0.00    -0.202 OA 
HETATM    2  C   UNL     1     -10.806   6.973  69.144  1.00  0.00    -0.195 C  
HETATM    3  C   UNL     1      -9.562   6.140  68.846  1.00  0.00    -0.129 C  
HETATM    4  O   UNL     1     -11.848   6.511  69.585  1.00  0.00    -0.310 OA 
ENDROOT
BRANCH   3   5
HETATM    5  N   UNL     1      -8.285   6.921  69.002  1.00  0.00    -0.123 NA 
BRANCH   5   6
HETATM    6  C   UNL     1      -7.868   6.893  70.444  1.00  0.00    -0.109 C  
BRANCH   6   7
HETATM    7  C   UNL     1      -7.852   5.471  71.082  1.00  0.00    -0.109 C  
BRANCH   7   8
HETATM    8  N   UNL     1      -8.921   5.181  72.099  1.00  0.00    -0.129 NA 
BRANCH   8   9
HETATM    9  C   UNL     1      -9.171   6.466  72.869  1.00  0.00    -0.136 C  
HETATM   10  O   UNL     1     -11.483   5.806  72.867  1.00  0.00    -0.275 OA 
HETATM   11  C   UNL     1     -10.645   6.868  72.881  1.00  0.00    -0.261 C  
HETATM   12  O   UNL     1     -11.037   8.024  72.924  1.00  0.00    -0.392 OA 
ENDBRANCH   8   9
BRANCH   8  13
HETATM   13  C   UNL     1      -8.365   4.180  73.084  1.00  0.00    -0.090 C  
HETATM   14  O   UNL     1     -10.079   2.708  72.284  1.00  0.00    -0.162 OA 
HETATM   15  O   UNL     1      -9.383   2.427  74.422  1.00  0.00    -0.079 OA 
HETATM   16  C   UNL     1      -9.329   3.031  73.363  1.00  0.00    -0.088 C  
ENDBRANCH   8  13
ENDBRANCH   7   8
ENDBRANCH   6   7
ENDBRANCH   5   6
BRANCH   5  17
HETATM   17  C   UNL     1      -7.215   6.260  68.190  1.00  0.00    -0.084 C  
BRANCH  17  18
HETATM   18  C   UNL     1      -7.580   5.862  66.732  1.00  0.00    -0.099 C  
BRANCH  18  19
HETATM   19  N   UNL     1      -8.217   4.501  66.578  1.00  0.00    -0.103 NA 
BRANCH  19  20
HETATM   20  C   UNL     1      -7.147   3.467  66.880  1.00  0.00    -0.059 C  
HETATM   21  O   UNL     1      -6.511   2.264  68.894  1.00  0.00    -0.029 OA 
HETATM   22  O   UNL     1      -8.711   2.616  68.495  1.00  0.00    -0.073 OA 
HETATM   23  C   UNL     1      -7.396   2.733  68.195  1.00  0.00    -0.049 C  
ENDBRANCH  19  20
BRANCH  19  24
HETATM   24  C   UNL     1      -8.595   4.324  65.124  1.00  0.00    -0.123 C  
HETATM   25  C   UNL     1     -10.090   4.101  64.921  1.00  0.00    -0.202 C  
HETATM   26  O   UNL     1     -10.567   3.464  63.995  1.00  0.00    -0.235 OA 
HETATM   27  O   UNL     1     -10.845   4.748  65.840  1.00  0.00    -0.304 OA 
ENDBRANCH  19  24
ENDBRANCH  18  19
ENDBRANCH  17  18
ENDBRANCH   5  17
ENDBRANCH   3   5
TORSDOF 11
ENDMDL
MODEL      415
REMARK 921   NORMALIZED FREE ENERGY PREDICTED BY IDOCK:   -2.34 KCAL/MOL
REMARK 922        TOTAL FREE ENERGY PREDICTED BY IDOCK:   -5.59 KCAL/MOL
REMARK 923 INTER-LIGAND FREE ENERGY PREDICTED BY IDOCK:   -6.81 KCAL/MOL
REMARK 924 INTRA-LIGAND FREE ENERGY PREDICTED BY IDOCK:    1.22 KCAL/MOL
REMARK 927      BINDING AFFINITY PREDICTED BY RF-SCORE:    0.00 PKD
ROOT
HETATM    1  O   UNL     1      -9.764   5.677  66.517  1.00  0.00    -0.148 OA 
HETATM    2  C   UNL     1      -8.489   5.836  66.943  1.00  0.00    -0.108 C  
HETATM    3  C   UNL     1      -8.232   7.224  67.524  1.00  0.00    -0.113 C  
HETATM    4  O   UNL     1      -7.630   4.974  66.830  1.00  0.00    -0.086 OA 
ENDROOT
BRANCH   3   5
HETATM    5  N   UNL     1      -9.444   7.809  68.196  1.00  0.00    -0.145 NA 
BRANCH   5   6
HETATM    6  C   UNL     1     -10.298   8.485  67.163  1.00  0.00    -0.307 C  
BRANCH   6   7
HETATM    7  C   UNL     1     -10.870   9.866  67.604  1.00  0.00    -0.257 C  
BRANCH   7   8
HETATM    8  N   UNL     1     -10.783  10.980  66.596  1.00  0.00    -0.260 NA 
BRANCH   8   9
HETATM    9  C   UNL     1      -9.320  11.134  66.219  1.00  0.00    -0.195 C  
HETATM   10  O   UNL     1     -10.084  11.052  63.941  1.00  0.00    -0.296 OA 
HETATM   11  C   UNL     1      -9.045  10.768  64.761  1.00  0.00    -0.200 C  
HETATM   12  O   UNL     1      -7.993  10.293  64.363  1.00  0.00    -0.160 OA 
ENDBRANCH   8   9
BRANCH   8  13
HETATM   13  C   UNL     1     -11.196  12.260  67.282  1.00  0.00    -0.300 C  
HETATM   14  O   UNL     1     -12.672  12.573  65.419  1.00  0.00    -0.624 OA 
HETATM   15  O   UNL     1     -11.899  14.433  66.456  1.00  0.00    -0.384 OA 
HETATM   16  C   UNL     1     -11.929  13.218  66.349  1.00  0.00    -0.410 C  
ENDBRANCH   8  13
ENDBRANCH   7   8
ENDBRANCH   6   7
ENDBRANCH   5   6
BRANCH   5  17
HETATM   17  C   UNL     1     -10.238   6.696  68.808  1.00  0.00    -0.171 C  
BRANCH  17  18
HETATM   18  C   UNL     1     -11.210   7.074  69.961  1.00  0.00    -0.269 C  
BRANCH  18  19
HETATM   19  N   UNL     1     -10.563   7.252  71.315  1.00  0.00    -0.220 NA 
BRANCH  19  20
HETATM   20  C   UNL     1     -11.507   6.659  72.346  1.00  0.00    -0.262 C  
HETATM   21  O   UNL     1     -11.850   4.407  73.193  1.00  0.00    -0.133 OA 
HETATM   22  O   UNL     1      -9.734   5.090  72.768  1.00  0.00    -0.147 OA 
HETATM   23  C   UNL     1     -11.076   5.267  72.801  1.00  0.00    -0.286 C  
ENDBRANCH  19  20
BRANCH  19  24
HETATM   24  C   UNL     1     -10.480   8.735  71.601  1.00  0.00    -0.317 C  
HETATM   25  C   UNL     1     -11.745   9.489  71.203  1.00  0.00    -0.363 C  
HETATM   26  O   UNL     1     -11.764  10.661  70.863  1.00  0.00    -0.328 OA 
HETATM   27  O   UNL     1     -12.865   8.740  71.339  1.00  0.00    -0.322 OA 
ENDBRANCH  19  24
ENDBRANCH  18  19
ENDBRANCH  17  18
ENDBRANCH   5  17
ENDBRANCH   3   5
TORSDOF 11
ENDMDL
MODEL      416
REMARK 921   NORMALIZED FREE ENERGY PREDICTED BY IDOCK:   -2.32 KCAL/MOL
REMARK 922        TOTAL FREE ENERGY PREDICTED BY IDOCK:   -5.55 KCAL/MOL
REMARK 923 INTER-LIGAND FREE ENERGY PREDICTED BY IDOCK:   -7.28 KCAL/MOL
REMARK 924 INTRA-LIGAND FREE ENERGY PREDICTED BY IDOCK:    1.73 KCAL/MOL
REMARK 927      BINDING AFFINITY PREDICTED BY RF-SCORE:    0.00 PKD
ROOT
HETATM    1  O   UNL     1      -8.535   8.517  64.410  1.00  0.00    -0.154 OA 
HETATM    2  C   UNL     1      -7.366   8.984  64.908  1.00  0.00    -0.100 C  
HETATM    3  C   UNL     1      -7.548  10.240  65.757  1.00  0.00    -0.143 C  
HETATM    4  O   UNL     1      -6.281   8.476  64.664  1.00  0.00    -0.064 OA 
ENDROOT
BRANCH   3   5
HETATM    5  N   UNL     1      -8.866  10.269  66.482  1.00  0.00    -0.136 NA 
BRANCH   5   6
HETATM    6  C   UNL     1      -9.972  10.421  65.479  1.00  0.00    -0.282 C  
BRANCH   6   7
HETATM    7  C   UNL     1     -11.132  11.357  65.937  1.00  0.00    -0.162 C  
BRANCH   7   8
HETATM    8  N   UNL     1     -10.819  12.827  66.001  1.00  0.00    -0.272 NA 
BRANCH   8   9
HETATM    9  C   UNL     1     -10.506  13.159  67.450  1.00  0.00    -0.242 C  
HETATM   10  O   UNL     1     -12.231  11.576  67.997  1.00  0.00    -0.582 OA 
HETATM   11  C   UNL     1     -11.604  12.703  68.409  1.00  0.00    -0.328 C  
HETATM   12  O   UNL     1     -11.878  13.272  69.453  1.00  0.00    -0.300 OA 
ENDBRANCH   8   9
BRANCH   8  13
HETATM   13  C   UNL     1     -12.074  13.585  65.639  1.00  0.00    -0.430 C  
HETATM   14  O   UNL     1     -11.573  12.980  63.374  1.00  0.00    -0.474 OA 
HETATM   15  O   UNL     1     -12.714  14.909  63.707  1.00  0.00    -0.754 OA 
HETATM   16  C   UNL     1     -12.149  13.925  64.154  1.00  0.00    -0.425 C  
ENDBRANCH   8  13
ENDBRANCH   7   8
ENDBRANCH   6   7
ENDBRANCH   5   6
BRANCH   5  17
HETATM   17  C   UNL     1      -9.051   8.964  67.193  1.00  0.00    -0.138 C  
BRANCH  17  18
HETATM   18  C   UNL     1     -10.105   8.927  68.336  1.00  0.00    -0.189 C  
BRANCH  18  19
HETATM   19  N   UNL     1      -9.563   9.205  69.718  1.00  0.00    -0.173 NA 
BRANCH  19  20
HETATM   20  C   UNL     1     -10.713   9.739  70.553  1.00  0.00    -0.317 C  
HETATM   21  O   UNL     1     -11.954   8.851  72.445  1.00  0.00    -0.341 OA 
HETATM   22  O   UNL     1      -9.721   8.488  72.352  1.00  0.00    -0.288 OA 
HETATM   23  C   UNL     1     -10.886   8.978  71.866  1.00  0.00    -0.343 C  
ENDBRANCH  19  20
BRANCH  19  24
HETATM   24  C   UNL     1      -8.549  10.322  69.606  1.00  0.00    -0.107 C  
HETATM   25  C   UNL     1      -7.212   9.979  70.254  1.00  0.00    -0.147 C  
HETATM   26  O   UNL     1      -6.453  10.806  70.734  1.00  0.00    -0.348 OA 
HETATM   27  O   UNL     1      -6.915   8.661  70.175  1.00  0.00    -0.041 OA 
ENDBRANCH  19  24
ENDBRANCH  18  19
ENDBRANCH  17  18
ENDBRANCH   5  17
ENDBRANCH   3   5
TORSDOF 11
ENDMDL
MODEL      417
REMARK 921   NORMALIZED FREE ENERGY PREDICTED BY IDOCK:   -2.31 KCAL/MOL
REMARK 922        TOTAL FREE ENERGY PREDICTED BY IDOCK:   -5.53 KCAL/MOL
REMARK 923 INTER-LIGAND FREE ENERGY PREDICTED BY IDOCK:   -4.18 KCAL/MOL
REMARK 924 INTRA-LIGAND FREE ENERGY PREDICTED BY IDOCK:   -1.36 KCAL/MOL
REMARK 927      BINDING AFFINITY PREDICTED BY RF-SCORE:    0.00 PKD
ROOT
HETATM    1  O   UNL     1     -10.635   8.206  68.553  1.00  0.00    -0.186 OA 
HETATM    2  C   UNL     1     -10.985   7.604  69.714  1.00  0.00    -0.170 C  
HETATM    3  C   UNL     1     -10.685   6.107  69.714  1.00  0.00    -0.310 C  
HETATM    4  O   UNL     1     -11.524   8.193  70.640  1.00  0.00    -0.278 OA 
ENDROOT
BRANCH   3   5
HETATM    5  N   UNL     1      -9.477   5.754  68.890  1.00  0.00    -0.122 NA 
BRANCH   5   6
HETATM    6  C   UNL     1      -8.414   5.201  69.795  1.00  0.00    -0.096 C  
BRANCH   6   7
HETATM    7  C   UNL     1      -8.061   6.114  71.007  1.00  0.00    -0.121 C  
BRANCH   7   8
HETATM    8  N   UNL     1      -8.526   5.642  72.358  1.00  0.00    -0.121 NA 
BRANCH   8   9
HETATM    9  C   UNL     1      -7.809   6.481  73.401  1.00  0.00    -0.091 C  
HETATM   10  O   UNL     1      -9.914   7.610  73.679  1.00  0.00    -0.312 OA 
HETATM   11  C   UNL     1      -8.570   7.757  73.755  1.00  0.00    -0.252 C  
HETATM   12  O   UNL     1      -8.034   8.800  74.098  1.00  0.00    -0.387 OA 
ENDBRANCH   8   9
BRANCH   8  13
HETATM   13  C   UNL     1      -8.054   4.219  72.539  1.00  0.00    -0.096 C  
HETATM   14  O   UNL     1     -10.374   3.624  72.438  1.00  0.00    -0.164 OA 
HETATM   15  O   UNL     1      -9.010   2.283  73.651  1.00  0.00    -0.071 OA 
HETATM   16  C   UNL     1      -9.176   3.276  72.962  1.00  0.00    -0.090 C  
ENDBRANCH   8  13
ENDBRANCH   7   8
ENDBRANCH   6   7
ENDBRANCH   5   6
BRANCH   5  17
HETATM   17  C   UNL     1      -9.859   4.690  67.908  1.00  0.00    -0.119 C  
BRANCH  17  18
HETATM   18  C   UNL     1     -10.067   5.134  66.432  1.00  0.00    -0.239 C  
BRANCH  18  19
HETATM   19  N   UNL     1      -9.084   4.555  65.442  1.00  0.00    -0.140 NA 
BRANCH  19  20
HETATM   20  C   UNL     1      -8.235   5.703  64.927  1.00  0.00    -0.134 C  
HETATM   21  O   UNL     1      -6.511   7.087  65.937  1.00  0.00    -0.048 OA 
HETATM   22  O   UNL     1      -6.563   4.883  66.448  1.00  0.00    -0.046 OA 
HETATM   23  C   UNL     1      -7.031   5.988  65.821  1.00  0.00    -0.061 C  
ENDBRANCH  19  20
BRANCH  19  24
HETATM   24  C   UNL     1      -9.868   4.027  64.260  1.00  0.00    -0.172 C  
HETATM   25  C   UNL     1      -9.630   2.543  64.005  1.00  0.00    -0.140 C  
HETATM   26  O   UNL     1      -9.712   2.017  62.906  1.00  0.00    -0.090 OA 
HETATM   27  O   UNL     1      -9.391   1.847  65.142  1.00  0.00    -0.119 OA 
ENDBRANCH  19  24
ENDBRANCH  18  19
ENDBRANCH  17  18
ENDBRANCH   5  17
ENDBRANCH   3   5
TORSDOF 11
ENDMDL
MODEL      418
REMARK 921   NORMALIZED FREE ENERGY PREDICTED BY IDOCK:   -2.29 KCAL/MOL
REMARK 922        TOTAL FREE ENERGY PREDICTED BY IDOCK:   -5.51 KCAL/MOL
REMARK 923 INTER-LIGAND FREE ENERGY PREDICTED BY IDOCK:   -4.55 KCAL/MOL
REMARK 924 INTRA-LIGAND FREE ENERGY PREDICTED BY IDOCK:   -0.96 KCAL/MOL
REMARK 927      BINDING AFFINITY PREDICTED BY RF-SCORE:    0.00 PKD
ROOT
HETATM    1  O   UNL     1      -8.508  13.621  67.019  1.00  0.00    -0.196 OA 
HETATM    2  C   UNL     1      -7.247  13.396  67.456  1.00  0.00    -0.153 C  
HETATM    3  C   UNL     1      -7.111  12.072  68.203  1.00  0.00    -0.086 C  
HETATM    4  O   UNL     1      -6.332  14.193  67.306  1.00  0.00    -0.295 OA 
ENDROOT
BRANCH   3   5
HETATM    5  N   UNL     1      -8.045  11.011  67.686  1.00  0.00    -0.114 NA 
BRANCH   5   6
HETATM    6  C   UNL     1      -7.255  10.005  66.900  1.00  0.00    -0.091 C  
BRANCH   6   7
HETATM    7  C   UNL     1      -7.131  10.329  65.381  1.00  0.00    -0.139 C  
BRANCH   7   8
HETATM    8  N   UNL     1      -7.945   9.477  64.446  1.00  0.00    -0.127 NA 
BRANCH   8   9
HETATM    9  C   UNL     1      -9.350  10.051  64.419  1.00  0.00    -0.290 C  
HETATM   10  O   UNL     1      -8.644  11.214  62.437  1.00  0.00    -0.290 OA 
HETATM   11  C   UNL     1      -9.471  11.270  63.507  1.00  0.00    -0.256 C  
HETATM   12  O   UNL     1     -10.247  12.193  63.699  1.00  0.00    -0.400 OA 
ENDBRANCH   8   9
BRANCH   8  13
HETATM   13  C   UNL     1      -8.047   8.095  65.048  1.00  0.00    -0.155 C  
HETATM   14  O   UNL     1      -5.736   7.860  64.456  1.00  0.00    -0.043 OA 
HETATM   15  O   UNL     1      -6.989   5.974  64.523  1.00  0.00    -0.049 OA 
HETATM   16  C   UNL     1      -6.896   7.185  64.632  1.00  0.00    -0.050 C  
ENDBRANCH   8  13
ENDBRANCH   7   8
ENDBRANCH   6   7
ENDBRANCH   5   6
BRANCH   5  17
HETATM   17  C   UNL     1      -8.670  10.311  68.854  1.00  0.00    -0.152 C  
BRANCH  17  18
HETATM   18  C   UNL     1      -7.711   9.812  69.972  1.00  0.00    -0.171 C  
BRANCH  18  19
HETATM   19  N   UNL     1      -8.369   9.014  71.073  1.00  0.00    -0.189 NA 
BRANCH  19  20
HETATM   20  C   UNL     1      -7.284   8.189  71.741  1.00  0.00    -0.084 C  
HETATM   21  O   UNL     1      -6.019   8.450  73.800  1.00  0.00    -0.099 OA 
HETATM   22  O   UNL     1      -8.214   9.007  73.803  1.00  0.00    -0.132 OA 
HETATM   23  C   UNL     1      -7.081   8.566  73.207  1.00  0.00    -0.007 C  
ENDBRANCH  19  20
BRANCH  19  24
HETATM   24  C   UNL     1      -9.328   8.035  70.431  1.00  0.00    -0.158 C  
HETATM   25  C   UNL     1     -10.741   8.131  70.995  1.00  0.00    -0.217 C  
HETATM   26  O   UNL     1     -11.525   7.196  71.037  1.00  0.00    -0.273 OA 
HETATM   27  O   UNL     1     -11.068   9.388  71.380  1.00  0.00    -0.335 OA 
ENDBRANCH  19  24
ENDBRANCH  18  19
ENDBRANCH  17  18
ENDBRANCH   5  17
ENDBRANCH   3   5
TORSDOF 11
ENDMDL
MODEL      419
REMARK 921   NORMALIZED FREE ENERGY PREDICTED BY IDOCK:   -2.27 KCAL/MOL
REMARK 922        TOTAL FREE ENERGY PREDICTED BY IDOCK:   -5.47 KCAL/MOL
REMARK 923 INTER-LIGAND FREE ENERGY PREDICTED BY IDOCK:   -5.64 KCAL/MOL
REMARK 924 INTRA-LIGAND FREE ENERGY PREDICTED BY IDOCK:    0.17 KCAL/MOL
REMARK 927      BINDING AFFINITY PREDICTED BY RF-SCORE:    0.00 PKD
ROOT
HETATM    1  O   UNL     1      -8.591   8.954  70.859  1.00  0.00    -0.163 OA 
HETATM    2  C   UNL     1      -7.918   8.403  69.822  1.00  0.00    -0.104 C  
HETATM    3  C   UNL     1      -8.823   7.591  68.898  1.00  0.00    -0.135 C  
HETATM    4  O   UNL     1      -6.709   8.511  69.673  1.00  0.00    -0.039 OA 
ENDROOT
BRANCH   3   5
HETATM    5  N   UNL     1     -10.222   8.138  68.823  1.00  0.00    -0.204 NA 
BRANCH   5   6
HETATM    6  C   UNL     1     -10.535   8.485  67.397  1.00  0.00    -0.280 C  
BRANCH   6   7
HETATM    7  C   UNL     1      -9.334   9.077  66.600  1.00  0.00    -0.177 C  
BRANCH   7   8
HETATM    8  N   UNL     1      -9.525  10.455  66.027  1.00  0.00    -0.176 NA 
BRANCH   8   9
HETATM    9  C   UNL     1      -9.093  11.450  67.090  1.00  0.00    -0.164 C  
HETATM   10  O   UNL     1      -6.855  11.033  66.314  1.00  0.00    -0.133 OA 
HETATM   11  C   UNL     1      -7.597  11.375  67.393  1.00  0.00    -0.124 C  
HETATM   12  O   UNL     1      -7.109  11.621  68.485  1.00  0.00    -0.076 OA 
ENDBRANCH   8   9
BRANCH   8  13
HETATM   13  C   UNL     1     -11.005  10.665  65.806  1.00  0.00     0.161 C  
HETATM   14  O   UNL     1     -10.379  11.549  63.668  1.00  0.00    -0.335 OA 
HETATM   15  O   UNL     1     -12.281  12.346  64.606  1.00  0.00    -0.421 OA 
HETATM   16  C   UNL     1     -11.298  11.626  64.659  1.00  0.00    -0.215 C  
ENDBRANCH   8  13
ENDBRANCH   7   8
ENDBRANCH   6   7
ENDBRANCH   5   6
BRANCH   5  17
HETATM   17  C   UNL     1     -11.178   7.075  69.270  1.00  0.00    -0.070 C  
BRANCH  17  18
HETATM   18  C   UNL     1     -10.977   6.501  70.701  1.00  0.00    -0.287 C  
BRANCH  18  19
HETATM   19  N   UNL     1     -12.098   6.790  71.672  1.00  0.00    -0.344 NA 
BRANCH  19  20
HETATM   20  C   UNL     1     -11.835   8.161  72.267  1.00  0.00    -0.382 C  
HETATM   21  O   UNL     1     -12.747  10.372  71.831  1.00  0.00    -0.420 OA 
HETATM   22  O   UNL     1     -14.148   8.595  71.774  1.00  0.00    -0.407 OA 
HETATM   23  C   UNL     1     -12.931   9.168  71.925  1.00  0.00    -0.404 C  
ENDBRANCH  19  20
BRANCH  19  24
HETATM   24  C   UNL     1     -11.999   5.795  72.808  1.00  0.00    -0.012 C  
HETATM   25  C   UNL     1     -10.678   5.887  73.565  1.00  0.00    -0.259 C  
HETATM   26  O   UNL     1     -10.153   4.946  74.139  1.00  0.00    -0.171 OA 
HETATM   27  O   UNL     1     -10.181   7.146  73.599  1.00  0.00    -0.304 OA 
ENDBRANCH  19  24
ENDBRANCH  18  19
ENDBRANCH  17  18
ENDBRANCH   5  17
ENDBRANCH   3   5
TORSDOF 11
ENDMDL
MODEL      420
REMARK 921   NORMALIZED FREE ENERGY PREDICTED BY IDOCK:   -2.27 KCAL/MOL
REMARK 922        TOTAL FREE ENERGY PREDICTED BY IDOCK:   -5.46 KCAL/MOL
REMARK 923 INTER-LIGAND FREE ENERGY PREDICTED BY IDOCK:   -5.70 KCAL/MOL
REMARK 924 INTRA-LIGAND FREE ENERGY PREDICTED BY IDOCK:    0.24 KCAL/MOL
REMARK 927      BINDING AFFINITY PREDICTED BY RF-SCORE:    0.00 PKD
ROOT
HETATM    1  O   UNL     1      -6.829  11.682  69.688  1.00  0.00    -0.099 OA 
HETATM    2  C   UNL     1      -6.174  11.573  68.509  1.00  0.00    -0.050 C  
HETATM    3  C   UNL     1      -6.809  10.546  67.575  1.00  0.00    -0.075 C  
HETATM    4  O   UNL     1      -5.157  12.199  68.245  1.00  0.00    -0.050 OA 
ENDROOT
BRANCH   3   5
HETATM    5  N   UNL     1      -8.301  10.448  67.743  1.00  0.00    -0.114 NA 
BRANCH   5   6
HETATM    6  C   UNL     1      -8.920  11.768  67.386  1.00  0.00    -0.173 C  
BRANCH   6   7
HETATM    7  C   UNL     1      -9.178  11.968  65.862  1.00  0.00    -0.102 C  
BRANCH   7   8
HETATM    8  N   UNL     1     -10.375  12.799  65.489  1.00  0.00    -0.281 NA 
BRANCH   8   9
HETATM    9  C   UNL     1     -10.791  13.573  66.728  1.00  0.00    -0.282 C  
HETATM   10  O   UNL     1     -11.504  15.285  65.198  1.00  0.00    -0.333 OA 
HETATM   11  C   UNL     1     -11.027  15.055  66.444  1.00  0.00    -0.336 C  
HETATM   12  O   UNL     1     -10.835  15.945  67.257  1.00  0.00    -0.319 OA 
ENDBRANCH   8   9
BRANCH   8  13
HETATM   13  C   UNL     1     -11.509  11.857  65.159  1.00  0.00    -0.243 C  
HETATM   14  O   UNL     1     -10.998  12.329  62.865  1.00  0.00    -0.095 OA 
HETATM   15  O   UNL     1     -13.142  11.791  63.363  1.00  0.00    -0.622 OA 
HETATM   16  C   UNL     1     -11.995  12.001  63.721  1.00  0.00    -0.490 C  
ENDBRANCH   8  13
ENDBRANCH   7   8
ENDBRANCH   6   7
ENDBRANCH   5   6
BRANCH   5  17
HETATM   17  C   UNL     1      -8.824   9.412  66.796  1.00  0.00    -0.127 C  
BRANCH  17  18
HETATM   18  C   UNL     1      -9.928   8.458  67.334  1.00  0.00    -0.212 C  
BRANCH  18  19
HETATM   19  N   UNL     1      -9.570   7.707  68.595  1.00  0.00    -0.151 NA 
BRANCH  19  20
HETATM   20  C   UNL     1      -8.324   6.893  68.295  1.00  0.00    -0.123 C  
HETATM   21  O   UNL     1      -7.964   4.643  67.449  1.00  0.00    -0.099 OA 
HETATM   22  O   UNL     1      -9.653   5.870  66.572  1.00  0.00    -0.151 OA 
HETATM   23  C   UNL     1      -8.616   5.676  67.421  1.00  0.00    -0.109 C  
ENDBRANCH  19  20
BRANCH  19  24
HETATM   24  C   UNL     1     -10.679   6.718  68.880  1.00  0.00    -0.240 C  
HETATM   25  C   UNL     1     -11.368   6.967  70.217  1.00  0.00    -0.324 C  
HETATM   26  O   UNL     1     -11.896   6.093  70.887  1.00  0.00    -0.232 OA 
HETATM   27  O   UNL     1     -11.402   8.278  70.552  1.00  0.00    -0.267 OA 
ENDBRANCH  19  24
ENDBRANCH  18  19
ENDBRANCH  17  18
ENDBRANCH   5  17
ENDBRANCH   3   5
TORSDOF 11
ENDMDL
MODEL      421
REMARK 921   NORMALIZED FREE ENERGY PREDICTED BY IDOCK:   -2.26 KCAL/MOL
REMARK 922        TOTAL FREE ENERGY PREDICTED BY IDOCK:   -5.46 KCAL/MOL
REMARK 923 INTER-LIGAND FREE ENERGY PREDICTED BY IDOCK:   -5.07 KCAL/MOL
REMARK 924 INTRA-LIGAND FREE ENERGY PREDICTED BY IDOCK:   -0.39 KCAL/MOL
REMARK 927      BINDING AFFINITY PREDICTED BY RF-SCORE:    0.00 PKD
ROOT
HETATM    1  O   UNL     1     -10.276   8.351  72.450  1.00  0.00    -0.302 OA 
HETATM    2  C   UNL     1     -10.787   7.103  72.566  1.00  0.00    -0.264 C  
HETATM    3  C   UNL     1     -11.243   6.526  71.228  1.00  0.00    -0.288 C  
HETATM    4  O   UNL     1     -10.910   6.525  73.636  1.00  0.00    -0.259 OA 
ENDROOT
BRANCH   3   5
HETATM    5  N   UNL     1     -10.413   7.013  70.070  1.00  0.00    -0.209 NA 
BRANCH   5   6
HETATM    6  C   UNL     1     -10.921   8.358  69.637  1.00  0.00    -0.087 C  
BRANCH   6   7
HETATM    7  C   UNL     1     -10.513   8.763  68.188  1.00  0.00    -0.191 C  
BRANCH   7   8
HETATM    8  N   UNL     1     -10.288  10.230  67.942  1.00  0.00    -0.183 NA 
BRANCH   8   9
HETATM    9  C   UNL     1      -8.860  10.542  68.354  1.00  0.00    -0.140 C  
HETATM   10  O   UNL     1      -8.619  11.475  66.151  1.00  0.00    -0.170 OA 
HETATM   11  C   UNL     1      -7.960  10.862  67.162  1.00  0.00    -0.127 C  
HETATM   12  O   UNL     1      -6.764  10.618  67.125  1.00  0.00    -0.075 OA 
ENDBRANCH   8   9
BRANCH   8  13
HETATM   13  C   UNL     1     -11.192  11.001  68.875  1.00  0.00    -0.265 C  
HETATM   14  O   UNL     1     -12.052  12.042  66.894  1.00  0.00    -0.608 OA 
HETATM   15  O   UNL     1     -12.114  13.246  68.813  1.00  0.00    -0.326 OA 
HETATM   16  C   UNL     1     -11.812  12.227  68.214  1.00  0.00    -0.310 C  
ENDBRANCH   8  13
ENDBRANCH   7   8
ENDBRANCH   6   7
ENDBRANCH   5   6
BRANCH   5  17
HETATM   17  C   UNL     1      -8.996   7.170  70.528  1.00  0.00    -0.155 C  
BRANCH  17  18
HETATM   18  C   UNL     1      -7.885   6.650  69.572  1.00  0.00    -0.106 C  
BRANCH  18  19
HETATM   19  N   UNL     1      -8.319   5.570  68.610  1.00  0.00    -0.101 NA 
BRANCH  19  20
HETATM   20  C   UNL     1      -7.486   4.337  68.913  1.00  0.00    -0.055 C  
HETATM   21  O   UNL     1      -7.785   2.449  70.415  1.00  0.00    -0.042 OA 
HETATM   22  O   UNL     1      -9.597   3.262  69.327  1.00  0.00    -0.162 OA 
HETATM   23  C   UNL     1      -8.281   3.259  69.646  1.00  0.00    -0.051 C  
ENDBRANCH  19  20
BRANCH  19  24
HETATM   24  C   UNL     1      -7.948   6.013  67.212  1.00  0.00    -0.102 C  
HETATM   25  C   UNL     1      -9.005   5.651  66.174  1.00  0.00    -0.151 C  
HETATM   26  O   UNL     1      -8.761   5.436  64.997  1.00  0.00    -0.150 OA 
HETATM   27  O   UNL     1     -10.261   5.667  66.678  1.00  0.00    -0.188 OA 
ENDBRANCH  19  24
ENDBRANCH  18  19
ENDBRANCH  17  18
ENDBRANCH   5  17
ENDBRANCH   3   5
TORSDOF 11
ENDMDL
MODEL      422
REMARK 921   NORMALIZED FREE ENERGY PREDICTED BY IDOCK:   -2.26 KCAL/MOL
REMARK 922        TOTAL FREE ENERGY PREDICTED BY IDOCK:   -5.45 KCAL/MOL
REMARK 923 INTER-LIGAND FREE ENERGY PREDICTED BY IDOCK:   -5.02 KCAL/MOL
REMARK 924 INTRA-LIGAND FREE ENERGY PREDICTED BY IDOCK:   -0.43 KCAL/MOL
REMARK 927      BINDING AFFINITY PREDICTED BY RF-SCORE:    0.00 PKD
ROOT
HETATM    1  O   UNL     1      -8.683  15.313  67.196  1.00  0.00    -0.183 OA 
HETATM    2  C   UNL     1      -7.458  14.738  67.228  1.00  0.00    -0.141 C  
HETATM    3  C   UNL     1      -7.508  13.267  67.633  1.00  0.00    -0.171 C  
HETATM    4  O   UNL     1      -6.423  15.349  67.002  1.00  0.00    -0.270 OA 
ENDROOT
BRANCH   3   5
HETATM    5  N   UNL     1      -8.770  12.581  67.183  1.00  0.00    -0.194 NA 
BRANCH   5   6
HETATM    6  C   UNL     1      -8.427  11.570  66.127  1.00  0.00    -0.060 C  
BRANCH   6   7
HETATM    7  C   UNL     1      -9.661  10.896  65.456  1.00  0.00    -0.233 C  
BRANCH   7   8
HETATM    8  N   UNL     1     -10.055  11.419  64.101  1.00  0.00    -0.281 NA 
BRANCH   8   9
HETATM    9  C   UNL     1      -8.809  11.406  63.233  1.00  0.00     0.073 C  
HETATM   10  O   UNL     1      -9.597   9.273  62.449  1.00  0.00     0.216 OA 
HETATM   11  C   UNL     1      -8.490  10.017  62.682  1.00  0.00    -0.171 C  
HETATM   12  O   UNL     1      -7.360   9.618  62.448  1.00  0.00    -0.108 OA 
ENDBRANCH   8   9
BRANCH   8  13
HETATM   13  C   UNL     1     -10.462  12.864  64.263  1.00  0.00    -0.407 C  
HETATM   14  O   UNL     1     -12.708  12.080  63.965  1.00  0.00    -0.506 OA 
HETATM   15  O   UNL     1     -12.252  14.200  63.310  1.00  0.00    -0.531 OA 
HETATM   16  C   UNL     1     -11.881  13.135  63.773  1.00  0.00    -0.486 C  
ENDBRANCH   8  13
ENDBRANCH   7   8
ENDBRANCH   6   7
ENDBRANCH   5   6
BRANCH   5  17
HETATM   17  C   UNL     1      -9.366  11.858  68.351  1.00  0.00    -0.184 C  
BRANCH  17  18
HETATM   18  C   UNL     1      -8.961  10.369  68.541  1.00  0.00    -0.139 C  
BRANCH  18  19
HETATM   19  N   UNL     1      -9.977   9.513  69.260  1.00  0.00    -0.178 NA 
BRANCH  19  20
HETATM   20  C   UNL     1      -9.747   8.078  68.822  1.00  0.00    -0.156 C  
HETATM   21  O   UNL     1      -9.572   5.974  70.025  1.00  0.00    -0.159 OA 
HETATM   22  O   UNL     1     -11.097   7.494  70.724  1.00  0.00    -0.254 OA 
HETATM   23  C   UNL     1     -10.100   7.069  69.912  1.00  0.00    -0.193 C  
ENDBRANCH  19  20
BRANCH  19  24
HETATM   24  C   UNL     1     -11.352   9.905  68.764  1.00  0.00     0.007 C  
HETATM   25  C   UNL     1     -12.184  10.619  69.823  1.00  0.00    -0.247 C  
HETATM   26  O   UNL     1     -13.404  10.586  69.871  1.00  0.00     0.047 OA 
HETATM   27  O   UNL     1     -11.431  11.361  70.669  1.00  0.00    -0.113 OA 
ENDBRANCH  19  24
ENDBRANCH  18  19
ENDBRANCH  17  18
ENDBRANCH   5  17
ENDBRANCH   3   5
TORSDOF 11
ENDMDL
MODEL      423
REMARK 921   NORMALIZED FREE ENERGY PREDICTED BY IDOCK:   -2.26 KCAL/MOL
REMARK 922        TOTAL FREE ENERGY PREDICTED BY IDOCK:   -5.45 KCAL/MOL
REMARK 923 INTER-LIGAND FREE ENERGY PREDICTED BY IDOCK:   -5.25 KCAL/MOL
REMARK 924 INTRA-LIGAND FREE ENERGY PREDICTED BY IDOCK:   -0.20 KCAL/MOL
REMARK 927      BINDING AFFINITY PREDICTED BY RF-SCORE:    0.00 PKD
ROOT
HETATM    1  O   UNL     1      -9.580   9.554  70.582  1.00  0.00    -0.258 OA 
HETATM    2  C   UNL     1      -8.542   8.879  70.036  1.00  0.00    -0.142 C  
HETATM    3  C   UNL     1      -8.978   7.587  69.349  1.00  0.00    -0.139 C  
HETATM    4  O   UNL     1      -7.379   9.246  70.127  1.00  0.00    -0.070 OA 
ENDROOT
BRANCH   3   5
HETATM    5  N   UNL     1     -10.355   7.679  68.751  1.00  0.00    -0.204 NA 
BRANCH   5   6
HETATM    6  C   UNL     1     -10.252   7.527  67.261  1.00  0.00    -0.267 C  
BRANCH   6   7
HETATM    7  C   UNL     1      -9.634   8.756  66.529  1.00  0.00    -0.237 C  
BRANCH   7   8
HETATM    8  N   UNL     1      -8.292   8.546  65.884  1.00  0.00    -0.130 NA 
BRANCH   8   9
HETATM    9  C   UNL     1      -8.476   8.729  64.388  1.00  0.00    -0.129 C  
HETATM   10  O   UNL     1      -6.807  10.450  64.576  1.00  0.00    -0.104 OA 
HETATM   11  C   UNL     1      -7.898  10.049  63.881  1.00  0.00    -0.150 C  
HETATM   12  O   UNL     1      -8.348  10.672  62.933  1.00  0.00    -0.166 OA 
ENDBRANCH   8   9
BRANCH   8  13
HETATM   13  C   UNL     1      -7.893   7.105  66.104  1.00  0.00    -0.105 C  
HETATM   14  O   UNL     1      -6.033   7.993  67.328  1.00  0.00    -0.047 OA 
HETATM   15  O   UNL     1      -5.744   5.991  66.306  1.00  0.00    -0.015 OA 
HETATM   16  C   UNL     1      -6.444   6.959  66.558  1.00  0.00    -0.051 C  
ENDBRANCH   8  13
ENDBRANCH   7   8
ENDBRANCH   6   7
ENDBRANCH   5   6
BRANCH   5  17
HETATM   17  C   UNL     1     -11.187   6.553  69.284  1.00  0.00    -0.328 C  
BRANCH  17  18
HETATM   18  C   UNL     1     -10.864   6.057  70.722  1.00  0.00    -0.292 C  
BRANCH  18  19
HETATM   19  N   UNL     1     -11.966   6.261  71.734  1.00  0.00    -0.305 NA 
BRANCH  19  20
HETATM   20  C   UNL     1     -11.910   7.713  72.173  1.00  0.00    -0.309 C  
HETATM   21  O   UNL     1     -13.047   9.727  71.426  1.00  0.00    -0.357 OA 
HETATM   22  O   UNL     1     -14.220   7.792  71.509  1.00  0.00    -0.414 OA 
HETATM   23  C   UNL     1     -13.092   8.527  71.654  1.00  0.00    -0.341 C  
ENDBRANCH  19  20
BRANCH  19  24
HETATM   24  C   UNL     1     -11.641   5.424  72.952  1.00  0.00    -0.228 C  
HETATM   25  C   UNL     1     -10.166   5.481  73.336  1.00  0.00    -0.203 C  
HETATM   26  O   UNL     1      -9.573   4.577  73.904  1.00  0.00    -0.118 OA 
HETATM   27  O   UNL     1      -9.596   6.674  73.048  1.00  0.00    -0.145 OA 
ENDBRANCH  19  24
ENDBRANCH  18  19
ENDBRANCH  17  18
ENDBRANCH   5  17
ENDBRANCH   3   5
TORSDOF 11
ENDMDL
MODEL      424
REMARK 921   NORMALIZED FREE ENERGY PREDICTED BY IDOCK:   -2.23 KCAL/MOL
REMARK 922        TOTAL FREE ENERGY PREDICTED BY IDOCK:   -5.40 KCAL/MOL
REMARK 923 INTER-LIGAND FREE ENERGY PREDICTED BY IDOCK:   -5.65 KCAL/MOL
REMARK 924 INTRA-LIGAND FREE ENERGY PREDICTED BY IDOCK:    0.25 KCAL/MOL
REMARK 927      BINDING AFFINITY PREDICTED BY RF-SCORE:    0.00 PKD
ROOT
HETATM    1  O   UNL     1      -7.661   8.974  66.174  1.00  0.00    -0.093 OA 
HETATM    2  C   UNL     1      -8.526   9.438  65.242  1.00  0.00    -0.149 C  
HETATM    3  C   UNL     1      -9.968   9.467  65.741  1.00  0.00    -0.208 C  
HETATM    4  O   UNL     1      -8.188   9.755  64.111  1.00  0.00    -0.137 OA 
ENDROOT
BRANCH   3   5
HETATM    5  N   UNL     1     -10.070   9.733  67.219  1.00  0.00    -0.194 NA 
BRANCH   5   6
HETATM    6  C   UNL     1     -11.150  10.748  67.460  1.00  0.00    -0.308 C  
BRANCH   6   7
HETATM    7  C   UNL     1     -10.702  11.973  68.312  1.00  0.00    -0.224 C  
BRANCH   7   8
HETATM    8  N   UNL     1     -11.682  13.110  68.415  1.00  0.00    -0.331 NA 
BRANCH   8   9
HETATM    9  C   UNL     1     -12.070  13.501  67.000  1.00  0.00    -0.354 C  
HETATM   10  O   UNL     1      -9.796  14.252  66.777  1.00  0.00    -0.254 OA 
HETATM   11  C   UNL     1     -11.067  14.458  66.358  1.00  0.00    -0.326 C  
HETATM   12  O   UNL     1     -11.365  15.307  65.532  1.00  0.00    -0.311 OA 
ENDBRANCH   8   9
BRANCH   8  13
HETATM   13  C   UNL     1     -10.959  14.293  69.015  1.00  0.00    -0.260 C  
HETATM   14  O   UNL     1     -12.767  14.376  70.586  1.00  0.00    -0.338 OA 
HETATM   15  O   UNL     1     -11.720  16.327  70.102  1.00  0.00    -0.244 OA 
HETATM   16  C   UNL     1     -11.850  15.126  69.931  1.00  0.00    -0.330 C  
ENDBRANCH   8  13
ENDBRANCH   7   8
ENDBRANCH   6   7
ENDBRANCH   5   6
BRANCH   5  17
HETATM   17  C   UNL     1     -10.456   8.461  67.910  1.00  0.00    -0.193 C  
BRANCH  17  18
HETATM   18  C   UNL     1      -9.693   8.110  69.219  1.00  0.00    -0.170 C  
BRANCH  18  19
HETATM   19  N   UNL     1      -9.487   6.634  69.466  1.00  0.00    -0.148 NA 
BRANCH  19  20
HETATM   20  C   UNL     1      -9.886   5.905  68.195  1.00  0.00    -0.133 C  
HETATM   21  O   UNL     1      -8.664   5.237  66.203  1.00  0.00    -0.122 OA 
HETATM   22  O   UNL     1      -7.632   5.068  68.210  1.00  0.00    -0.077 OA 
HETATM   23  C   UNL     1      -8.680   5.387  67.415  1.00  0.00    -0.107 C  
ENDBRANCH  19  20
BRANCH  19  24
HETATM   24  C   UNL     1     -10.460   6.201  70.540  1.00  0.00    -0.234 C  
HETATM   25  C   UNL     1      -9.914   5.082  71.421  1.00  0.00    -0.193 C  
HETATM   26  O   UNL     1     -10.611   4.251  71.980  1.00  0.00    -0.091 OA 
HETATM   27  O   UNL     1      -8.571   5.150  71.581  1.00  0.00    -0.125 OA 
ENDBRANCH  19  24
ENDBRANCH  18  19
ENDBRANCH  17  18
ENDBRANCH   5  17
ENDBRANCH   3   5
TORSDOF 11
ENDMDL
MODEL      425
REMARK 921   NORMALIZED FREE ENERGY PREDICTED BY IDOCK:   -2.17 KCAL/MOL
REMARK 922        TOTAL FREE ENERGY PREDICTED BY IDOCK:   -5.31 KCAL/MOL
REMARK 923 INTER-LIGAND FREE ENERGY PREDICTED BY IDOCK:   -4.13 KCAL/MOL
REMARK 924 INTRA-LIGAND FREE ENERGY PREDICTED BY IDOCK:   -1.18 KCAL/MOL
REMARK 927      BINDING AFFINITY PREDICTED BY RF-SCORE:    0.00 PKD
ROOT
HETATM    1  O   UNL     1      -6.735   9.154  64.829  1.00  0.00    -0.076 OA 
HETATM    2  C   UNL     1      -6.281   8.410  65.864  1.00  0.00    -0.052 C  
HETATM    3  C   UNL     1      -6.174   9.210  67.160  1.00  0.00    -0.058 C  
HETATM    4  O   UNL     1      -5.950   7.238  65.756  1.00  0.00    -0.036 OA 
ENDROOT
BRANCH   3   5
HETATM    5  N   UNL     1      -7.217  10.290  67.267  1.00  0.00    -0.088 NA 
BRANCH   5   6
HETATM    6  C   UNL     1      -8.458   9.711  67.883  1.00  0.00    -0.122 C  
BRANCH   6   7
HETATM    7  C   UNL     1      -9.688  10.669  67.872  1.00  0.00    -0.161 C  
BRANCH   7   8
HETATM    8  N   UNL     1     -10.561  10.650  69.097  1.00  0.00    -0.213 NA 
BRANCH   8   9
HETATM    9  C   UNL     1     -11.061   9.226  69.273  1.00  0.00    -0.009 C  
HETATM   10  O   UNL     1     -11.431   9.831  71.570  1.00  0.00    -0.378 OA 
HETATM   11  C   UNL     1     -11.134   8.805  70.739  1.00  0.00    -0.260 C  
HETATM   12  O   UNL     1     -10.970   7.660  71.130  1.00  0.00    -0.240 OA 
ENDBRANCH   8   9
BRANCH   8  13
HETATM   13  C   UNL     1     -11.772  11.508  68.817  1.00  0.00    -0.334 C  
HETATM   14  O   UNL     1     -10.404  13.351  69.510  1.00  0.00     0.261 OA 
HETATM   15  O   UNL     1     -12.639  13.536  69.834  1.00  0.00    -0.187 OA 
HETATM   16  C   UNL     1     -11.675  12.889  69.458  1.00  0.00    -0.323 C  
ENDBRANCH   8  13
ENDBRANCH   7   8
ENDBRANCH   6   7
ENDBRANCH   5   6
BRANCH   5  17
HETATM   17  C   UNL     1      -6.700  11.368  68.170  1.00  0.00    -0.059 C  
BRANCH  17  18
HETATM   18  C   UNL     1      -5.965  12.560  67.496  1.00  0.00    -0.152 C  
BRANCH  18  19
HETATM   19  N   UNL     1      -6.199  13.906  68.140  1.00  0.00    -0.113 NA 
BRANCH  19  20
HETATM   20  C   UNL     1      -6.724  13.649  69.541  1.00  0.00    -0.023 C  
HETATM   21  O   UNL     1      -5.705  13.736  71.746  1.00  0.00    -0.326 OA 
HETATM   22  O   UNL     1      -5.125  15.310  70.226  1.00  0.00    -0.106 OA 
HETATM   23  C   UNL     1      -5.802  14.206  70.623  1.00  0.00    -0.191 C  
ENDBRANCH  19  20
BRANCH  19  24
HETATM   24  C   UNL     1      -7.307  14.601  67.380  1.00  0.00    -0.168 C  
HETATM   25  C   UNL     1      -7.015  16.074  67.117  1.00  0.00    -0.207 C  
HETATM   26  O   UNL     1      -7.876  16.931  66.999  1.00  0.00    -0.170 OA 
HETATM   27  O   UNL     1      -5.694  16.324  66.952  1.00  0.00    -0.342 OA 
ENDBRANCH  19  24
ENDBRANCH  18  19
ENDBRANCH  17  18
ENDBRANCH   5  17
ENDBRANCH   3   5
TORSDOF 11
ENDMDL
MODEL      426
REMARK 921   NORMALIZED FREE ENERGY PREDICTED BY IDOCK:   -2.17 KCAL/MOL
REMARK 922        TOTAL FREE ENERGY PREDICTED BY IDOCK:   -5.30 KCAL/MOL
REMARK 923 INTER-LIGAND FREE ENERGY PREDICTED BY IDOCK:   -5.04 KCAL/MOL
REMARK 924 INTRA-LIGAND FREE ENERGY PREDICTED BY IDOCK:   -0.26 KCAL/MOL
REMARK 927      BINDING AFFINITY PREDICTED BY RF-SCORE:    0.00 PKD
ROOT
HETATM    1  O   UNL     1     -12.551   8.009  71.401  1.00  0.00    -0.312 OA 
HETATM    2  C   UNL     1     -12.048   9.254  71.570  1.00  0.00    -0.361 C  
HETATM    3  C   UNL     1     -10.525   9.291  71.475  1.00  0.00    -0.315 C  
HETATM    4  O   UNL     1     -12.740  10.231  71.817  1.00  0.00    -0.408 OA 
ENDROOT
BRANCH   3   5
HETATM    5  N   UNL     1      -9.974   8.260  70.526  1.00  0.00    -0.183 NA 
BRANCH   5   6
HETATM    6  C   UNL     1      -9.667   7.006  71.293  1.00  0.00    -0.171 C  
BRANCH   6   7
HETATM    7  C   UNL     1     -10.442   5.746  70.802  1.00  0.00    -0.258 C  
BRANCH   7   8
HETATM    8  N   UNL     1      -9.612   4.529  70.494  1.00  0.00    -0.186 NA 
BRANCH   8   9
HETATM    9  C   UNL     1      -8.286   4.692  71.215  1.00  0.00    -0.105 C  
HETATM   10  O   UNL     1      -8.905   2.706  72.423  1.00  0.00    -0.073 OA 
HETATM   11  C   UNL     1      -8.208   3.864  72.497  1.00  0.00    -0.093 C  
HETATM   12  O   UNL     1      -7.566   4.192  73.483  1.00  0.00    -0.074 OA 
ENDBRANCH   8   9
BRANCH   8  13
HETATM   13  C   UNL     1      -9.310   4.536  69.014  1.00  0.00    -0.148 C  
HETATM   14  O   UNL     1      -9.503   2.150  69.143  1.00  0.00    -0.131 OA 
HETATM   15  O   UNL     1      -8.128   2.997  67.554  1.00  0.00    -0.075 OA 
HETATM   16  C   UNL     1      -8.890   3.166  68.492  1.00  0.00    -0.119 C  
ENDBRANCH   8  13
ENDBRANCH   7   8
ENDBRANCH   6   7
ENDBRANCH   5   6
BRANCH   5  17
HETATM   17  C   UNL     1     -11.020   7.942  69.503  1.00  0.00    -0.071 C  
BRANCH  17  18
HETATM   18  C   UNL     1     -10.597   8.033  68.009  1.00  0.00    -0.128 C  
BRANCH  18  19
HETATM   19  N   UNL     1     -10.121   9.394  67.559  1.00  0.00    -0.200 NA 
BRANCH  19  20
HETATM   20  C   UNL     1     -11.259  10.371  67.799  1.00  0.00    -0.237 C  
HETATM   21  O   UNL     1     -11.599  12.178  69.388  1.00  0.00    -0.282 OA 
HETATM   22  O   UNL     1      -9.535  11.893  68.502  1.00  0.00    -0.198 OA 
HETATM   23  C   UNL     1     -10.838  11.560  68.659  1.00  0.00    -0.212 C  
ENDBRANCH  19  20
BRANCH  19  24
HETATM   24  C   UNL     1      -9.902   9.340  66.063  1.00  0.00    -0.293 C  
HETATM   25  C   UNL     1      -8.525   9.846  65.645  1.00  0.00    -0.144 C  
HETATM   26  O   UNL     1      -8.285  10.363  64.566  1.00  0.00    -0.165 OA 
HETATM   27  O   UNL     1      -7.571   9.593  66.573  1.00  0.00    -0.096 OA 
ENDBRANCH  19  24
ENDBRANCH  18  19
ENDBRANCH  17  18
ENDBRANCH   5  17
ENDBRANCH   3   5
TORSDOF 11
ENDMDL
MODEL      427
REMARK 921   NORMALIZED FREE ENERGY PREDICTED BY IDOCK:   -2.07 KCAL/MOL
REMARK 922        TOTAL FREE ENERGY PREDICTED BY IDOCK:   -5.15 KCAL/MOL
REMARK 923 INTER-LIGAND FREE ENERGY PREDICTED BY IDOCK:   -5.52 KCAL/MOL
REMARK 924 INTRA-LIGAND FREE ENERGY PREDICTED BY IDOCK:    0.38 KCAL/MOL
REMARK 927      BINDING AFFINITY PREDICTED BY RF-SCORE:    0.00 PKD
ROOT
HETATM    1  O   UNL     1      -7.257   9.039  67.109  1.00  0.00    -0.081 OA 
HETATM    2  C   UNL     1      -8.317   8.303  66.699  1.00  0.00    -0.111 C  
HETATM    3  C   UNL     1      -9.338   8.073  67.810  1.00  0.00    -0.137 C  
HETATM    4  O   UNL     1      -8.416   7.838  65.573  1.00  0.00    -0.142 OA 
ENDROOT
BRANCH   3   5
HETATM    5  N   UNL     1      -9.410   9.218  68.784  1.00  0.00    -0.138 NA 
BRANCH   5   6
HETATM    6  C   UNL     1      -8.432   8.974  69.897  1.00  0.00    -0.138 C  
BRANCH   6   7
HETATM    7  C   UNL     1      -8.224   7.471  70.252  1.00  0.00    -0.128 C  
BRANCH   7   8
HETATM    8  N   UNL     1      -9.448   6.708  70.678  1.00  0.00    -0.169 NA 
BRANCH   8   9
HETATM    9  C   UNL     1     -10.043   7.438  71.869  1.00  0.00    -0.178 C  
HETATM   10  O   UNL     1     -12.167   6.654  71.061  1.00  0.00    -0.367 OA 
HETATM   11  C   UNL     1     -11.550   7.650  71.737  1.00  0.00    -0.270 C  
HETATM   12  O   UNL     1     -12.150   8.603  72.211  1.00  0.00    -0.364 OA 
ENDBRANCH   8   9
BRANCH   8  13
HETATM   13  C   UNL     1      -9.001   5.352  71.172  1.00  0.00    -0.141 C  
HETATM   14  O   UNL     1      -9.581   4.561  68.985  1.00  0.00    -0.153 OA 
HETATM   15  O   UNL     1      -9.739   3.088  70.699  1.00  0.00    -0.159 OA 
HETATM   16  C   UNL     1      -9.497   4.211  70.290  1.00  0.00    -0.181 C  
ENDBRANCH   8  13
ENDBRANCH   7   8
ENDBRANCH   6   7
ENDBRANCH   5   6
BRANCH   5  17
HETATM   17  C   UNL     1      -9.012  10.476  68.075  1.00  0.00    -0.135 C  
BRANCH  17  18
HETATM   18  C   UNL     1     -10.084  11.146  67.170  1.00  0.00    -0.191 C  
BRANCH  18  19
HETATM   19  N   UNL     1     -10.462  12.556  67.557  1.00  0.00    -0.218 NA 
BRANCH  19  20
HETATM   20  C   UNL     1      -9.252  13.176  68.233  1.00  0.00    -0.194 C  
HETATM   21  O   UNL     1      -7.221  14.214  67.393  1.00  0.00    -0.180 OA 
HETATM   22  O   UNL     1      -9.167  14.614  66.307  1.00  0.00    -0.278 OA 
HETATM   23  C   UNL     1      -8.424  14.033  67.279  1.00  0.00    -0.207 C  
ENDBRANCH  19  20
BRANCH  19  24
HETATM   24  C   UNL     1     -11.553  12.477  68.602  1.00  0.00    -0.314 C  
HETATM   25  C   UNL     1     -12.142  13.839  68.951  1.00  0.00    -0.313 C  
HETATM   26  O   UNL     1     -12.624  14.117  70.038  1.00  0.00    -0.332 OA 
HETATM   27  O   UNL     1     -12.144  14.693  67.901  1.00  0.00    -0.304 OA 
ENDBRANCH  19  24
ENDBRANCH  18  19
ENDBRANCH  17  18
ENDBRANCH   5  17
ENDBRANCH   3   5
TORSDOF 11
ENDMDL
MODEL      428
REMARK 921   NORMALIZED FREE ENERGY PREDICTED BY IDOCK:   -2.06 KCAL/MOL
REMARK 922        TOTAL FREE ENERGY PREDICTED BY IDOCK:   -5.13 KCAL/MOL
REMARK 923 INTER-LIGAND FREE ENERGY PREDICTED BY IDOCK:   -5.60 KCAL/MOL
REMARK 924 INTRA-LIGAND FREE ENERGY PREDICTED BY IDOCK:    0.48 KCAL/MOL
REMARK 927      BINDING AFFINITY PREDICTED BY RF-SCORE:    0.00 PKD
ROOT
HETATM    1  O   UNL     1      -8.415  10.148  69.953  1.00  0.00    -0.176 OA 
HETATM    2  C   UNL     1      -9.192   9.448  70.813  1.00  0.00    -0.213 C  
HETATM    3  C   UNL     1     -10.665   9.456  70.415  1.00  0.00    -0.263 C  
HETATM    4  O   UNL     1      -8.760   8.909  71.822  1.00  0.00    -0.312 OA 
ENDROOT
BRANCH   3   5
HETATM    5  N   UNL     1     -10.867   9.515  68.925  1.00  0.00    -0.190 NA 
BRANCH   5   6
HETATM    6  C   UNL     1     -10.131  10.704  68.379  1.00  0.00    -0.166 C  
BRANCH   6   7
HETATM    7  C   UNL     1     -10.753  12.080  68.766  1.00  0.00    -0.220 C  
BRANCH   7   8
HETATM    8  N   UNL     1     -10.730  13.147  67.705  1.00  0.00    -0.236 NA 
BRANCH   8   9
HETATM    9  C   UNL     1     -10.202  14.415  68.352  1.00  0.00    -0.243 C  
HETATM   10  O   UNL     1      -9.202  14.875  66.214  1.00  0.00    -0.287 OA 
HETATM   11  C   UNL     1      -9.074  15.060  67.549  1.00  0.00    -0.185 C  
HETATM   12  O   UNL     1      -8.161  15.700  68.047  1.00  0.00    -0.133 OA 
ENDBRANCH   8   9
BRANCH   8  13
HETATM   13  C   UNL     1     -12.157  13.425  67.295  1.00  0.00    -0.304 C  
HETATM   14  O   UNL     1     -11.521  12.563  65.150  1.00  0.00    -0.306 OA 
HETATM   15  O   UNL     1     -13.179  14.107  65.201  1.00  0.00    -0.743 OA 
HETATM   16  C   UNL     1     -12.344  13.434  65.782  1.00  0.00    -0.460 C  
ENDBRANCH   8  13
ENDBRANCH   7   8
ENDBRANCH   6   7
ENDBRANCH   5   6
BRANCH   5  17
HETATM   17  C   UNL     1     -10.285   8.279  68.312  1.00  0.00    -0.208 C  
BRANCH  17  18
HETATM   18  C   UNL     1     -10.505   6.942  69.076  1.00  0.00    -0.208 C  
BRANCH  18  19
HETATM   19  N   UNL     1      -9.573   5.819  68.688  1.00  0.00    -0.123 NA 
BRANCH  19  20
HETATM   20  C   UNL     1      -9.486   5.810  67.172  1.00  0.00    -0.117 C  
HETATM   21  O   UNL     1      -7.706   6.322  65.600  1.00  0.00    -0.085 OA 
HETATM   22  O   UNL     1      -7.178   5.228  67.510  1.00  0.00    -0.069 OA 
HETATM   23  C   UNL     1      -8.045   5.837  66.668  1.00  0.00    -0.102 C  
ENDBRANCH  19  20
BRANCH  19  24
HETATM   24  C   UNL     1     -10.219   4.514  69.096  1.00  0.00     0.119 C  
HETATM   25  C   UNL     1      -9.306   3.639  69.948  1.00  0.00    -0.176 C  
HETATM   26  O   UNL     1      -9.361   2.420  69.978  1.00  0.00    -0.123 OA 
HETATM   27  O   UNL     1      -8.469   4.361  70.730  1.00  0.00    -0.077 OA 
ENDBRANCH  19  24
ENDBRANCH  18  19
ENDBRANCH  17  18
ENDBRANCH   5  17
ENDBRANCH   3   5
TORSDOF 11
ENDMDL
MODEL      429
REMARK 921   NORMALIZED FREE ENERGY PREDICTED BY IDOCK:   -2.00 KCAL/MOL
REMARK 922        TOTAL FREE ENERGY PREDICTED BY IDOCK:   -5.02 KCAL/MOL
REMARK 923 INTER-LIGAND FREE ENERGY PREDICTED BY IDOCK:   -4.15 KCAL/MOL
REMARK 924 INTRA-LIGAND FREE ENERGY PREDICTED BY IDOCK:   -0.88 KCAL/MOL
REMARK 927      BINDING AFFINITY PREDICTED BY RF-SCORE:    0.00 PKD
ROOT
HETATM    1  O   UNL     1     -10.598   8.133  68.546  1.00  0.00    -0.186 OA 
HETATM    2  C   UNL     1     -10.980   7.549  69.706  1.00  0.00    -0.184 C  
HETATM    3  C   UNL     1     -10.717   6.045  69.722  1.00  0.00    -0.330 C  
HETATM    4  O   UNL     1     -11.518   8.158  70.619  1.00  0.00    -0.278 OA 
ENDROOT
BRANCH   3   5
HETATM    5  N   UNL     1      -9.505   5.656  68.920  1.00  0.00    -0.123 NA 
BRANCH   5   6
HETATM    6  C   UNL     1      -8.449   5.135  69.851  1.00  0.00    -0.096 C  
BRANCH   6   7
HETATM    7  C   UNL     1      -8.120   6.082  71.045  1.00  0.00    -0.121 C  
BRANCH   7   8
HETATM    8  N   UNL     1      -8.594   5.638  72.402  1.00  0.00    -0.122 NA 
BRANCH   8   9
HETATM    9  C   UNL     1      -7.851   6.468  73.434  1.00  0.00    -0.091 C  
HETATM   10  O   UNL     1      -9.910   7.686  73.673  1.00  0.00    -0.301 OA 
HETATM   11  C   UNL     1      -8.562   7.781  73.757  1.00  0.00    -0.252 C  
HETATM   12  O   UNL     1      -7.986   8.807  74.083  1.00  0.00    -0.387 OA 
ENDBRANCH   8   9
BRANCH   8  13
HETATM   13  C   UNL     1      -8.162   4.204  72.598  1.00  0.00    -0.096 C  
HETATM   14  O   UNL     1     -10.498   3.674  72.517  1.00  0.00    -0.157 OA 
HETATM   15  O   UNL     1      -9.165   2.309  73.739  1.00  0.00    -0.078 OA 
HETATM   16  C   UNL     1      -9.307   3.298  73.039  1.00  0.00    -0.091 C  
ENDBRANCH   8  13
ENDBRANCH   7   8
ENDBRANCH   6   7
ENDBRANCH   5   6
BRANCH   5  17
HETATM   17  C   UNL     1      -9.886   4.556  67.978  1.00  0.00    -0.092 C  
BRANCH  17  18
HETATM   18  C   UNL     1      -9.965   4.917  66.467  1.00  0.00    -0.232 C  
BRANCH  18  19
HETATM   19  N   UNL     1      -8.931   4.250  65.592  1.00  0.00    -0.125 NA 
BRANCH  19  20
HETATM   20  C   UNL     1      -9.627   3.120  64.854  1.00  0.00    -0.119 C  
HETATM   21  O   UNL     1     -11.211   3.057  63.013  1.00  0.00    -0.165 OA 
HETATM   22  O   UNL     1      -9.540   4.583  62.948  1.00  0.00    -0.118 OA 
HETATM   23  C   UNL     1     -10.230   3.572  63.527  1.00  0.00    -0.209 C  
ENDBRANCH  19  20
BRANCH  19  24
HETATM   24  C   UNL     1      -7.899   3.610  66.495  1.00  0.00    -0.088 C  
HETATM   25  C   UNL     1      -6.977   2.647  65.755  1.00  0.00    -0.048 C  
HETATM   26  O   UNL     1      -6.440   1.681  66.273  1.00  0.00    -0.023 OA 
HETATM   27  O   UNL     1      -6.753   3.018  64.472  1.00  0.00    -0.034 OA 
ENDBRANCH  19  24
ENDBRANCH  18  19
ENDBRANCH  17  18
ENDBRANCH   5  17
ENDBRANCH   3   5
TORSDOF 11
ENDMDL
MODEL      430
REMARK 921   NORMALIZED FREE ENERGY PREDICTED BY IDOCK:   -1.98 KCAL/MOL
REMARK 922        TOTAL FREE ENERGY PREDICTED BY IDOCK:   -4.99 KCAL/MOL
REMARK 923 INTER-LIGAND FREE ENERGY PREDICTED BY IDOCK:   -4.99 KCAL/MOL
REMARK 924 INTRA-LIGAND FREE ENERGY PREDICTED BY IDOCK:    0.01 KCAL/MOL
REMARK 927      BINDING AFFINITY PREDICTED BY RF-SCORE:    0.00 PKD
ROOT
HETATM    1  O   UNL     1     -12.420   8.007  71.272  1.00  0.00    -0.304 OA 
HETATM    2  C   UNL     1     -11.834   9.218  71.417  1.00  0.00    -0.358 C  
HETATM    3  C   UNL     1     -10.311   9.147  71.347  1.00  0.00    -0.338 C  
HETATM    4  O   UNL     1     -12.461  10.247  71.628  1.00  0.00    -0.389 OA 
ENDROOT
BRANCH   3   5
HETATM    5  N   UNL     1      -9.819   8.056  70.435  1.00  0.00    -0.183 NA 
BRANCH   5   6
HETATM    6  C   UNL     1     -10.059   6.727  71.089  1.00  0.00    -0.181 C  
BRANCH   6   7
HETATM    7  C   UNL     1     -10.505   5.599  70.111  1.00  0.00    -0.296 C  
BRANCH   7   8
HETATM    8  N   UNL     1      -9.801   4.277  70.248  1.00  0.00    -0.208 NA 
BRANCH   8   9
HETATM    9  C   UNL     1      -9.162   4.246  71.625  1.00  0.00    -0.132 C  
HETATM   10  O   UNL     1      -9.958   1.981  71.747  1.00  0.00    -0.150 OA 
HETATM   11  C   UNL     1      -9.656   3.079  72.478  1.00  0.00    -0.124 C  
HETATM   12  O   UNL     1      -9.749   3.113  73.695  1.00  0.00    -0.100 OA 
ENDBRANCH   8   9
BRANCH   8  13
HETATM   13  C   UNL     1      -8.675   4.244  69.241  1.00  0.00    -0.084 C  
HETATM   14  O   UNL     1      -9.650   2.190  68.482  1.00  0.00    -0.187 OA 
HETATM   15  O   UNL     1      -7.413   2.438  68.221  1.00  0.00    -0.047 OA 
HETATM   16  C   UNL     1      -8.485   2.867  68.614  1.00  0.00    -0.068 C  
ENDBRANCH   8  13
ENDBRANCH   7   8
ENDBRANCH   6   7
ENDBRANCH   5   6
BRANCH   5  17
HETATM   17  C   UNL     1     -10.607   8.104  69.162  1.00  0.00    -0.166 C  
BRANCH  17  18
HETATM   18  C   UNL     1      -9.800   8.085  67.832  1.00  0.00    -0.167 C  
BRANCH  18  19
HETATM   19  N   UNL     1      -9.699   9.414  67.123  1.00  0.00    -0.164 NA 
BRANCH  19  20
HETATM   20  C   UNL     1      -8.333   9.993  67.444  1.00  0.00    -0.118 C  
HETATM   21  O   UNL     1      -6.258  10.165  66.191  1.00  0.00    -0.070 OA 
HETATM   22  O   UNL     1      -8.212  10.482  65.093  1.00  0.00    -0.161 OA 
HETATM   23  C   UNL     1      -7.479  10.204  66.197  1.00  0.00    -0.115 C  
ENDBRANCH  19  20
BRANCH  19  24
HETATM   24  C   UNL     1     -10.722  10.347  67.733  1.00  0.00    -0.279 C  
HETATM   25  C   UNL     1     -11.191  11.429  66.766  1.00  0.00    -0.252 C  
HETATM   26  O   UNL     1     -11.581  12.533  67.113  1.00  0.00    -0.328 OA 
HETATM   27  O   UNL     1     -11.202  11.012  65.478  1.00  0.00    -0.021 OA 
ENDBRANCH  19  24
ENDBRANCH  18  19
ENDBRANCH  17  18
ENDBRANCH   5  17
ENDBRANCH   3   5
TORSDOF 11
ENDMDL
MODEL      431
REMARK 921   NORMALIZED FREE ENERGY PREDICTED BY IDOCK:   -1.96 KCAL/MOL
REMARK 922        TOTAL FREE ENERGY PREDICTED BY IDOCK:   -4.96 KCAL/MOL
REMARK 923 INTER-LIGAND FREE ENERGY PREDICTED BY IDOCK:   -5.27 KCAL/MOL
REMARK 924 INTRA-LIGAND FREE ENERGY PREDICTED BY IDOCK:    0.31 KCAL/MOL
REMARK 927      BINDING AFFINITY PREDICTED BY RF-SCORE:    0.00 PKD
ROOT
HETATM    1  O   UNL     1      -8.932   6.244  65.383  1.00  0.00    -0.054 OA 
HETATM    2  C   UNL     1      -8.058   6.552  66.370  1.00  0.00    -0.113 C  
HETATM    3  C   UNL     1      -8.270   7.957  66.926  1.00  0.00    -0.116 C  
HETATM    4  O   UNL     1      -7.169   5.798  66.738  1.00  0.00    -0.072 OA 
ENDROOT
BRANCH   3   5
HETATM    5  N   UNL     1      -9.711   8.390  66.886  1.00  0.00    -0.205 NA 
BRANCH   5   6
HETATM    6  C   UNL     1     -10.309   8.224  68.253  1.00  0.00    -0.198 C  
BRANCH   6   7
HETATM    7  C   UNL     1     -10.938   6.823  68.515  1.00  0.00    -0.192 C  
BRANCH   7   8
HETATM    8  N   UNL     1     -10.551   6.146  69.802  1.00  0.00    -0.249 NA 
BRANCH   8   9
HETATM    9  C   UNL     1     -10.225   7.238  70.806  1.00  0.00    -0.197 C  
HETATM   10  O   UNL     1     -12.549   7.123  71.413  1.00  0.00    -0.359 OA 
HETATM   11  C   UNL     1     -11.474   7.941  71.337  1.00  0.00    -0.260 C  
HETATM   12  O   UNL     1     -11.503   9.112  71.683  1.00  0.00    -0.333 OA 
ENDBRANCH   8   9
BRANCH   8  13
HETATM   13  C   UNL     1      -9.272   5.380  69.557  1.00  0.00    -0.117 C  
HETATM   14  O   UNL     1     -10.024   3.917  71.300  1.00  0.00    -0.179 OA 
HETATM   15  O   UNL     1      -7.786   4.124  71.010  1.00  0.00    -0.061 OA 
HETATM   16  C   UNL     1      -8.925   4.432  70.701  1.00  0.00    -0.107 C  
ENDBRANCH   8  13
ENDBRANCH   7   8
ENDBRANCH   6   7
ENDBRANCH   5   6
BRANCH   5  17
HETATM   17  C   UNL     1      -9.767   9.841  66.519  1.00  0.00    -0.209 C  
BRANCH  17  18
HETATM   18  C   UNL     1     -10.768  10.730  67.310  1.00  0.00    -0.274 C  
BRANCH  18  19
HETATM   19  N   UNL     1     -10.169  11.509  68.457  1.00  0.00    -0.207 NA 
BRANCH  19  20
HETATM   20  C   UNL     1     -11.300  12.272  69.122  1.00  0.00    -0.272 C  
HETATM   21  O   UNL     1     -12.283  14.462  68.744  1.00  0.00    -0.275 OA 
HETATM   22  O   UNL     1     -11.658  13.234  66.948  1.00  0.00    -0.327 OA 
HETATM   23  C   UNL     1     -11.789  13.447  68.278  1.00  0.00    -0.358 C  
ENDBRANCH  19  20
BRANCH  19  24
HETATM   24  C   UNL     1      -9.227  12.541  67.878  1.00  0.00    -0.200 C  
HETATM   25  C   UNL     1      -7.804  12.413  68.411  1.00  0.00    -0.142 C  
HETATM   26  O   UNL     1      -7.025  13.348  68.513  1.00  0.00    -0.088 OA 
HETATM   27  O   UNL     1      -7.463  11.133  68.692  1.00  0.00    -0.102 OA 
ENDBRANCH  19  24
ENDBRANCH  18  19
ENDBRANCH  17  18
ENDBRANCH   5  17
ENDBRANCH   3   5
TORSDOF 11
ENDMDL
MODEL      432
REMARK 921   NORMALIZED FREE ENERGY PREDICTED BY IDOCK:   -1.94 KCAL/MOL
REMARK 922        TOTAL FREE ENERGY PREDICTED BY IDOCK:   -4.93 KCAL/MOL
REMARK 923 INTER-LIGAND FREE ENERGY PREDICTED BY IDOCK:   -5.49 KCAL/MOL
REMARK 924 INTRA-LIGAND FREE ENERGY PREDICTED BY IDOCK:    0.57 KCAL/MOL
REMARK 927      BINDING AFFINITY PREDICTED BY RF-SCORE:    0.00 PKD
ROOT
HETATM    1  O   UNL     1     -10.735   9.758  71.522  1.00  0.00    -0.218 OA 
HETATM    2  C   UNL     1     -11.763  10.083  70.704  1.00  0.00    -0.337 C  
HETATM    3  C   UNL     1     -11.391   9.994  69.226  1.00  0.00    -0.117 C  
HETATM    4  O   UNL     1     -12.855  10.452  71.112  1.00  0.00    -0.356 OA 
ENDROOT
BRANCH   3   5
HETATM    5  N   UNL     1     -10.372   8.923  68.945  1.00  0.00    -0.210 NA 
BRANCH   5   6
HETATM    6  C   UNL     1     -10.929   7.595  69.371  1.00  0.00    -0.057 C  
BRANCH   6   7
HETATM    7  C   UNL     1      -9.849   6.511  69.667  1.00  0.00    -0.159 C  
BRANCH   7   8
HETATM    8  N   UNL     1     -10.174   5.525  70.756  1.00  0.00    -0.221 NA 
BRANCH   8   9
HETATM    9  C   UNL     1      -9.698   6.127  72.067  1.00  0.00    -0.151 C  
HETATM   10  O   UNL     1     -11.901   5.625  72.889  1.00  0.00    -0.217 OA 
HETATM   11  C   UNL     1     -10.850   6.470  73.010  1.00  0.00    -0.261 C  
HETATM   12  O   UNL     1     -10.826   7.391  73.811  1.00  0.00    -0.321 OA 
ENDBRANCH   8   9
BRANCH   8  13
HETATM   13  C   UNL     1      -9.347   4.283  70.519  1.00  0.00    -0.145 C  
HETATM   14  O   UNL     1      -7.444   5.703  70.850  1.00  0.00    -0.084 OA 
HETATM   15  O   UNL     1      -7.177   3.905  69.497  1.00  0.00    -0.045 OA 
HETATM   16  C   UNL     1      -7.888   4.598  70.205  1.00  0.00    -0.057 C  
ENDBRANCH   8  13
ENDBRANCH   7   8
ENDBRANCH   6   7
ENDBRANCH   5   6
BRANCH   5  17
HETATM   17  C   UNL     1     -10.120   8.876  67.469  1.00  0.00    -0.227 C  
BRANCH  17  18
HETATM   18  C   UNL     1      -8.984   9.785  66.918  1.00  0.00    -0.138 C  
BRANCH  18  19
HETATM   19  N   UNL     1      -9.344  10.590  65.692  1.00  0.00    -0.188 NA 
BRANCH  19  20
HETATM   20  C   UNL     1      -8.251  10.358  64.665  1.00  0.00    -0.137 C  
HETATM   21  O   UNL     1      -8.249   9.471  62.402  1.00  0.00    -0.125 OA 
HETATM   22  O   UNL     1      -9.964  10.805  63.038  1.00  0.00    -0.326 OA 
HETATM   23  C   UNL     1      -8.805  10.141  63.259  1.00  0.00    -0.231 C  
ENDBRANCH  19  20
BRANCH  19  24
HETATM   24  C   UNL     1      -9.288  12.056  66.064  1.00  0.00    -0.190 C  
HETATM   25  C   UNL     1     -10.470  12.852  65.520  1.00  0.00    -0.289 C  
HETATM   26  O   UNL     1     -10.423  14.040  65.242  1.00  0.00    -0.336 OA 
HETATM   27  O   UNL     1     -11.606  12.119  65.448  1.00  0.00    -0.350 OA 
ENDBRANCH  19  24
ENDBRANCH  18  19
ENDBRANCH  17  18
ENDBRANCH   5  17
ENDBRANCH   3   5
TORSDOF 11
ENDMDL
MODEL      433
REMARK 921   NORMALIZED FREE ENERGY PREDICTED BY IDOCK:   -1.93 KCAL/MOL
REMARK 922        TOTAL FREE ENERGY PREDICTED BY IDOCK:   -4.92 KCAL/MOL
REMARK 923 INTER-LIGAND FREE ENERGY PREDICTED BY IDOCK:   -5.84 KCAL/MOL
REMARK 924 INTRA-LIGAND FREE ENERGY PREDICTED BY IDOCK:    0.92 KCAL/MOL
REMARK 927      BINDING AFFINITY PREDICTED BY RF-SCORE:    0.00 PKD
ROOT
HETATM    1  O   UNL     1     -10.223   5.631  66.793  1.00  0.00    -0.183 OA 
HETATM    2  C   UNL     1      -9.243   5.615  67.726  1.00  0.00    -0.106 C  
HETATM    3  C   UNL     1      -8.813   7.016  68.153  1.00  0.00    -0.129 C  
HETATM    4  O   UNL     1      -8.730   4.587  68.144  1.00  0.00    -0.100 OA 
ENDROOT
BRANCH   3   5
HETATM    5  N   UNL     1      -9.941   8.012  68.105  1.00  0.00    -0.178 NA 
BRANCH   5   6
HETATM    6  C   UNL     1      -9.976   8.773  69.398  1.00  0.00    -0.196 C  
BRANCH   6   7
HETATM    7  C   UNL     1      -9.206   8.089  70.568  1.00  0.00    -0.154 C  
BRANCH   7   8
HETATM    8  N   UNL     1     -10.043   7.367  71.588  1.00  0.00    -0.184 NA 
BRANCH   8   9
HETATM    9  C   UNL     1     -10.754   8.423  72.418  1.00  0.00    -0.335 C  
HETATM   10  O   UNL     1     -12.789   7.420  71.622  1.00  0.00    -0.344 OA 
HETATM   11  C   UNL     1     -12.225   8.578  72.038  1.00  0.00    -0.366 C  
HETATM   12  O   UNL     1     -12.845   9.627  72.121  1.00  0.00    -0.390 OA 
ENDBRANCH   8   9
BRANCH   8  13
HETATM   13  C   UNL     1      -9.108   6.633  72.520  1.00  0.00    -0.134 C  
HETATM   14  O   UNL     1     -10.827   4.967  72.646  1.00  0.00    -0.220 OA 
HETATM   15  O   UNL     1      -9.473   5.201  74.447  1.00  0.00    -0.121 OA 
HETATM   16  C   UNL     1      -9.814   5.549  73.329  1.00  0.00    -0.164 C  
ENDBRANCH   8  13
ENDBRANCH   7   8
ENDBRANCH   6   7
ENDBRANCH   5   6
BRANCH   5  17
HETATM   17  C   UNL     1      -9.677   8.982  66.994  1.00  0.00    -0.189 C  
BRANCH  17  18
HETATM   18  C   UNL     1      -9.983  10.480  67.279  1.00  0.00    -0.186 C  
BRANCH  18  19
HETATM   19  N   UNL     1      -9.383  11.456  66.295  1.00  0.00    -0.206 NA 
BRANCH  19  20
HETATM   20  C   UNL     1      -9.809  12.848  66.726  1.00  0.00    -0.241 C  
HETATM   21  O   UNL     1     -10.798  14.730  65.547  1.00  0.00    -0.314 OA 
HETATM   22  O   UNL     1     -11.492  12.640  65.020  1.00  0.00    -0.308 OA 
HETATM   23  C   UNL     1     -10.727  13.521  65.707  1.00  0.00    -0.275 C  
ENDBRANCH  19  20
BRANCH  19  24
HETATM   24  C   UNL     1     -10.015  11.205  64.944  1.00  0.00    -0.278 C  
HETATM   25  C   UNL     1      -8.987  11.001  63.836  1.00  0.00    -0.051 C  
HETATM   26  O   UNL     1      -9.183  11.276  62.663  1.00  0.00    -0.346 OA 
HETATM   27  O   UNL     1      -7.853  10.408  64.277  1.00  0.00    -0.141 OA 
ENDBRANCH  19  24
ENDBRANCH  18  19
ENDBRANCH  17  18
ENDBRANCH   5  17
ENDBRANCH   3   5
TORSDOF 11
ENDMDL
MODEL      434
REMARK 921   NORMALIZED FREE ENERGY PREDICTED BY IDOCK:   -1.84 KCAL/MOL
REMARK 922        TOTAL FREE ENERGY PREDICTED BY IDOCK:   -4.76 KCAL/MOL
REMARK 923 INTER-LIGAND FREE ENERGY PREDICTED BY IDOCK:   -6.15 KCAL/MOL
REMARK 924 INTRA-LIGAND FREE ENERGY PREDICTED BY IDOCK:    1.39 KCAL/MOL
REMARK 927      BINDING AFFINITY PREDICTED BY RF-SCORE:    0.00 PKD
ROOT
HETATM    1  O   UNL     1     -11.551   7.572  70.463  1.00  0.00    -0.271 OA 
HETATM    2  C   UNL     1     -11.481   8.707  71.197  1.00  0.00    -0.280 C  
HETATM    3  C   UNL     1     -10.381   9.651  70.718  1.00  0.00    -0.286 C  
HETATM    4  O   UNL     1     -12.194   8.925  72.165  1.00  0.00    -0.356 OA 
ENDROOT
BRANCH   3   5
HETATM    5  N   UNL     1     -10.148   9.569  69.233  1.00  0.00    -0.188 NA 
BRANCH   5   6
HETATM    6  C   UNL     1      -9.937   8.133  68.850  1.00  0.00    -0.192 C  
BRANCH   6   7
HETATM    7  C   UNL     1      -8.724   7.891  67.902  1.00  0.00    -0.124 C  
BRANCH   7   8
HETATM    8  N   UNL     1      -8.691   6.571  67.181  1.00  0.00    -0.111 NA 
BRANCH   8   9
HETATM    9  C   UNL     1      -7.596   6.656  66.133  1.00  0.00    -0.086 C  
HETATM   10  O   UNL     1      -8.913   8.417  65.160  1.00  0.00    -0.097 OA 
HETATM   11  C   UNL     1      -8.032   7.427  64.888  1.00  0.00    -0.128 C  
HETATM   12  O   UNL     1      -7.615   7.199  63.763  1.00  0.00    -0.096 OA 
ENDBRANCH   8   9
BRANCH   8  13
HETATM   13  C   UNL     1      -9.997   6.415  66.439  1.00  0.00    -0.036 C  
HETATM   14  O   UNL     1     -10.112   4.248  67.458  1.00  0.00    -0.097 OA 
HETATM   15  O   UNL     1     -11.124   4.506  65.447  1.00  0.00    -0.204 OA 
HETATM   16  C   UNL     1     -10.462   4.964  66.363  1.00  0.00    -0.280 C  
ENDBRANCH   8  13
ENDBRANCH   7   8
ENDBRANCH   6   7
ENDBRANCH   5   6
BRANCH   5  17
HETATM   17  C   UNL     1     -11.369  10.071  68.527  1.00  0.00    -0.052 C  
BRANCH  17  18
HETATM   18  C   UNL     1     -11.598  11.609  68.520  1.00  0.00    -0.317 C  
BRANCH  18  19
HETATM   19  N   UNL     1     -11.171  12.317  67.256  1.00  0.00    -0.281 NA 
BRANCH  19  20
HETATM   20  C   UNL     1      -9.830  12.971  67.538  1.00  0.00    -0.209 C  
HETATM   21  O   UNL     1      -7.545  12.143  67.578  1.00  0.00    -0.130 OA 
HETATM   22  O   UNL     1      -8.947  11.365  65.980  1.00  0.00    -0.206 OA 
HETATM   23  C   UNL     1      -8.653  12.121  67.064  1.00  0.00    -0.191 C  
ENDBRANCH  19  20
BRANCH  19  24
HETATM   24  C   UNL     1     -12.155  13.435  66.991  1.00  0.00    -0.339 C  
HETATM   25  C   UNL     1     -12.560  13.536  65.524  1.00  0.00    -0.481 C  
HETATM   26  O   UNL     1     -12.900  14.574  64.979  1.00  0.00    -0.562 OA 
HETATM   27  O   UNL     1     -12.576  12.333  64.902  1.00  0.00    -0.547 OA 
ENDBRANCH  19  24
ENDBRANCH  18  19
ENDBRANCH  17  18
ENDBRANCH   5  17
ENDBRANCH   3   5
TORSDOF 11
ENDMDL
MODEL      435
REMARK 921   NORMALIZED FREE ENERGY PREDICTED BY IDOCK:   -1.80 KCAL/MOL
REMARK 922        TOTAL FREE ENERGY PREDICTED BY IDOCK:   -4.70 KCAL/MOL
REMARK 923 INTER-LIGAND FREE ENERGY PREDICTED BY IDOCK:   -4.71 KCAL/MOL
REMARK 924 INTRA-LIGAND FREE ENERGY PREDICTED BY IDOCK:    0.01 KCAL/MOL
REMARK 927      BINDING AFFINITY PREDICTED BY RF-SCORE:    0.00 PKD
ROOT
HETATM    1  O   UNL     1     -10.799   9.771  71.295  1.00  0.00    -0.334 OA 
HETATM    2  C   UNL     1     -11.786   9.984  70.394  1.00  0.00    -0.262 C  
HETATM    3  C   UNL     1     -11.301   9.867  68.952  1.00  0.00    -0.007 C  
HETATM    4  O   UNL     1     -12.929  10.282  70.709  1.00  0.00    -0.370 OA 
ENDROOT
BRANCH   3   5
HETATM    5  N   UNL     1     -10.188   8.868  68.789  1.00  0.00    -0.202 NA 
BRANCH   5   6
HETATM    6  C   UNL     1     -10.737   7.486  68.996  1.00  0.00    -0.134 C  
BRANCH   6   7
HETATM    7  C   UNL     1      -9.652   6.372  69.106  1.00  0.00    -0.136 C  
BRANCH   7   8
HETATM    8  N   UNL     1      -9.919   5.274  70.099  1.00  0.00    -0.221 NA 
BRANCH   8   9
HETATM    9  C   UNL     1      -9.604   5.826  71.478  1.00  0.00    -0.154 C  
HETATM   10  O   UNL     1     -11.971   5.680  71.879  1.00  0.00    -0.010 OA 
HETATM   11  C   UNL     1     -10.843   6.359  72.196  1.00  0.00    -0.237 C  
HETATM   12  O   UNL     1     -10.826   7.283  72.994  1.00  0.00    -0.298 OA 
ENDBRANCH   8   9
BRANCH   8  13
HETATM   13  C   UNL     1      -8.932   4.161  69.836  1.00  0.00    -0.099 C  
HETATM   14  O   UNL     1      -9.798   4.162  67.600  1.00  0.00    -0.154 OA 
HETATM   15  O   UNL     1      -8.982   2.205  68.399  1.00  0.00    -0.098 OA 
HETATM   16  C   UNL     1      -9.247   3.384  68.562  1.00  0.00    -0.171 C  
ENDBRANCH   8  13
ENDBRANCH   7   8
ENDBRANCH   6   7
ENDBRANCH   5   6
BRANCH   5  17
HETATM   17  C   UNL     1      -9.660   8.960  67.390  1.00  0.00    -0.157 C  
BRANCH  17  18
HETATM   18  C   UNL     1      -8.450   9.908  67.154  1.00  0.00    -0.121 C  
BRANCH  18  19
HETATM   19  N   UNL     1      -8.555  10.791  65.933  1.00  0.00    -0.175 NA 
BRANCH  19  20
HETATM   20  C   UNL     1      -9.996  10.736  65.460  1.00  0.00    -0.263 C  
HETATM   21  O   UNL     1     -11.874  12.267  65.651  1.00  0.00    -0.406 OA 
HETATM   22  O   UNL     1      -9.814  13.127  65.275  1.00  0.00    -0.196 OA 
HETATM   23  C   UNL     1     -10.675  12.104  65.489  1.00  0.00    -0.283 C  
ENDBRANCH  19  20
BRANCH  19  24
HETATM   24  C   UNL     1      -7.713  10.174  64.838  1.00  0.00    -0.143 C  
HETATM   25  C   UNL     1      -6.310  10.768  64.761  1.00  0.00     0.186 C  
HETATM   26  O   UNL     1      -5.650  10.830  63.736  1.00  0.00    -0.120 OA 
HETATM   27  O   UNL     1      -5.838  11.153  65.970  1.00  0.00    -0.144 OA 
ENDBRANCH  19  24
ENDBRANCH  18  19
ENDBRANCH  17  18
ENDBRANCH   5  17
ENDBRANCH   3   5
TORSDOF 11
ENDMDL
MODEL      436
REMARK 921   NORMALIZED FREE ENERGY PREDICTED BY IDOCK:   -1.80 KCAL/MOL
REMARK 922        TOTAL FREE ENERGY PREDICTED BY IDOCK:   -4.69 KCAL/MOL
REMARK 923 INTER-LIGAND FREE ENERGY PREDICTED BY IDOCK:   -6.24 KCAL/MOL
REMARK 924 INTRA-LIGAND FREE ENERGY PREDICTED BY IDOCK:    1.55 KCAL/MOL
REMARK 927      BINDING AFFINITY PREDICTED BY RF-SCORE:    0.00 PKD
ROOT
HETATM    1  O   UNL     1     -11.402   7.726  70.472  1.00  0.00    -0.274 OA 
HETATM    2  C   UNL     1     -11.143   8.948  70.993  1.00  0.00    -0.276 C  
HETATM    3  C   UNL     1     -10.069   9.704  70.215  1.00  0.00    -0.275 C  
HETATM    4  O   UNL     1     -11.682   9.375  72.005  1.00  0.00    -0.355 OA 
ENDROOT
BRANCH   3   5
HETATM    5  N   UNL     1     -10.074   9.377  68.746  1.00  0.00    -0.186 NA 
BRANCH   5   6
HETATM    6  C   UNL     1     -10.143   7.887  68.577  1.00  0.00    -0.197 C  
BRANCH   6   7
HETATM    7  C   UNL     1      -9.131   7.309  67.543  1.00  0.00    -0.124 C  
BRANCH   7   8
HETATM    8  N   UNL     1      -9.439   5.941  66.998  1.00  0.00    -0.122 NA 
BRANCH   8   9
HETATM    9  C   UNL     1      -9.859   5.072  68.171  1.00  0.00    -0.146 C  
HETATM   10  O   UNL     1      -7.578   5.273  68.905  1.00  0.00    -0.079 OA 
HETATM   11  C   UNL     1      -8.668   4.471  68.915  1.00  0.00    -0.086 C  
HETATM   12  O   UNL     1      -8.693   3.391  69.485  1.00  0.00    -0.065 OA 
ENDBRANCH   8   9
BRANCH   8  13
HETATM   13  C   UNL     1      -8.155   5.357  66.458  1.00  0.00    -0.105 C  
HETATM   14  O   UNL     1      -9.402   4.925  64.457  1.00  0.00    -0.078 OA 
HETATM   15  O   UNL     1      -7.677   3.533  64.927  1.00  0.00    -0.076 OA 
HETATM   16  C   UNL     1      -8.377   4.487  65.225  1.00  0.00    -0.121 C  
ENDBRANCH   8  13
ENDBRANCH   7   8
ENDBRANCH   6   7
ENDBRANCH   5   6
BRANCH   5  17
HETATM   17  C   UNL     1     -11.296   9.980  68.125  1.00  0.00    -0.028 C  
BRANCH  17  18
HETATM   18  C   UNL     1     -11.286  11.518  67.895  1.00  0.00    -0.279 C  
BRANCH  18  19
HETATM   19  N   UNL     1     -11.209  11.951  66.451  1.00  0.00    -0.321 NA 
BRANCH  19  20
HETATM   20  C   UNL     1      -9.747  11.901  66.043  1.00  0.00    -0.237 C  
HETATM   21  O   UNL     1      -8.404  10.268  64.845  1.00  0.00    -0.163 OA 
HETATM   22  O   UNL     1     -10.528  10.637  64.152  1.00  0.00    -0.336 OA 
HETATM   23  C   UNL     1      -9.473  10.845  64.975  1.00  0.00    -0.233 C  
ENDBRANCH  19  20
BRANCH  19  24
HETATM   24  C   UNL     1     -11.634  13.401  66.375  1.00  0.00    -0.346 C  
HETATM   25  C   UNL     1     -12.590  13.681  65.221  1.00  0.00    -0.469 C  
HETATM   26  O   UNL     1     -12.676  14.757  64.650  1.00  0.00    -0.523 OA 
HETATM   27  O   UNL     1     -13.394  12.629  64.940  1.00  0.00    -0.741 OA 
ENDBRANCH  19  24
ENDBRANCH  18  19
ENDBRANCH  17  18
ENDBRANCH   5  17
ENDBRANCH   3   5
TORSDOF 11
ENDMDL
MODEL      437
REMARK 921   NORMALIZED FREE ENERGY PREDICTED BY IDOCK:   -1.76 KCAL/MOL
REMARK 922        TOTAL FREE ENERGY PREDICTED BY IDOCK:   -4.64 KCAL/MOL
REMARK 923 INTER-LIGAND FREE ENERGY PREDICTED BY IDOCK:   -4.74 KCAL/MOL
REMARK 924 INTRA-LIGAND FREE ENERGY PREDICTED BY IDOCK:    0.10 KCAL/MOL
REMARK 927      BINDING AFFINITY PREDICTED BY RF-SCORE:    0.00 PKD
ROOT
HETATM    1  O   UNL     1      -8.522   4.723  66.982  1.00  0.00    -0.106 OA 
HETATM    2  C   UNL     1      -7.578   4.360  67.882  1.00  0.00    -0.076 C  
HETATM    3  C   UNL     1      -7.085   5.536  68.722  1.00  0.00    -0.065 C  
HETATM    4  O   UNL     1      -7.139   3.223  67.974  1.00  0.00    -0.049 OA 
ENDROOT
BRANCH   3   5
HETATM    5  N   UNL     1      -8.151   6.570  68.962  1.00  0.00    -0.111 NA 
BRANCH   5   6
HETATM    6  C   UNL     1      -8.005   7.107  70.357  1.00  0.00    -0.112 C  
BRANCH   6   7
HETATM    7  C   UNL     1      -8.925   6.420  71.411  1.00  0.00    -0.138 C  
BRANCH   7   8
HETATM    8  N   UNL     1      -9.900   5.402  70.885  1.00  0.00    -0.179 NA 
BRANCH   8   9
HETATM    9  C   UNL     1     -11.191   6.137  70.565  1.00  0.00    -0.334 C  
HETATM   10  O   UNL     1     -11.189   6.778  72.883  1.00  0.00    -0.255 OA 
HETATM   11  C   UNL     1     -11.981   6.511  71.818  1.00  0.00    -0.344 C  
HETATM   12  O   UNL     1     -13.199   6.590  71.859  1.00  0.00    -0.203 OA 
ENDBRANCH   8   9
BRANCH   8  13
HETATM   13  C   UNL     1     -10.211   4.436  72.004  1.00  0.00    -0.163 C  
HETATM   14  O   UNL     1      -8.573   3.011  70.989  1.00  0.00    -0.064 OA 
HETATM   15  O   UNL     1     -10.249   2.012  72.141  1.00  0.00    -0.158 OA 
HETATM   16  C   UNL     1      -9.714   3.023  71.717  1.00  0.00    -0.160 C  
ENDBRANCH   8  13
ENDBRANCH   7   8
ENDBRANCH   6   7
ENDBRANCH   5   6
BRANCH   5  17
HETATM   17  C   UNL     1      -7.951   7.699  67.999  1.00  0.00    -0.122 C  
BRANCH  17  18
HETATM   18  C   UNL     1      -9.225   8.302  67.344  1.00  0.00    -0.141 C  
BRANCH  18  19
HETATM   19  N   UNL     1      -9.348   9.804  67.440  1.00  0.00    -0.133 NA 
BRANCH  19  20
HETATM   20  C   UNL     1      -8.751  10.219  68.774  1.00  0.00    -0.144 C  
HETATM   21  O   UNL     1      -6.709  11.379  69.399  1.00  0.00    -0.103 OA 
HETATM   22  O   UNL     1      -7.821  12.069  67.551  1.00  0.00    -0.136 OA 
HETATM   23  C   UNL     1      -7.644  11.259  68.621  1.00  0.00    -0.129 C  
ENDBRANCH  19  20
BRANCH  19  24
HETATM   24  C   UNL     1     -10.820  10.150  67.495  1.00  0.00    -0.290 C  
HETATM   25  C   UNL     1     -11.209  11.251  66.514  1.00  0.00    -0.152 C  
HETATM   26  O   UNL     1     -12.134  12.027  66.690  1.00  0.00    -0.615 OA 
HETATM   27  O   UNL     1     -10.464  11.231  65.383  1.00  0.00    -0.259 OA 
ENDBRANCH  19  24
ENDBRANCH  18  19
ENDBRANCH  17  18
ENDBRANCH   5  17
ENDBRANCH   3   5
TORSDOF 11
ENDMDL
MODEL      438
REMARK 921   NORMALIZED FREE ENERGY PREDICTED BY IDOCK:   -1.75 KCAL/MOL
REMARK 922        TOTAL FREE ENERGY PREDICTED BY IDOCK:   -4.61 KCAL/MOL
REMARK 923 INTER-LIGAND FREE ENERGY PREDICTED BY IDOCK:   -4.05 KCAL/MOL
REMARK 924 INTRA-LIGAND FREE ENERGY PREDICTED BY IDOCK:   -0.56 KCAL/MOL
REMARK 927      BINDING AFFINITY PREDICTED BY RF-SCORE:    0.00 PKD
ROOT
HETATM    1  O   UNL     1      -6.799   7.742  71.280  1.00  0.00    -0.048 OA 
HETATM    2  C   UNL     1      -7.666   6.768  71.642  1.00  0.00    -0.096 C  
HETATM    3  C   UNL     1      -9.053   6.960  71.034  1.00  0.00    -0.155 C  
HETATM    4  O   UNL     1      -7.376   5.862  72.410  1.00  0.00    -0.088 OA 
ENDROOT
BRANCH   3   5
HETATM    5  N   UNL     1      -9.012   7.617  69.681  1.00  0.00    -0.140 NA 
BRANCH   5   6
HETATM    6  C   UNL     1      -9.457   6.627  68.644  1.00  0.00    -0.128 C  
BRANCH   6   7
HETATM    7  C   UNL     1      -8.295   5.853  67.952  1.00  0.00    -0.111 C  
BRANCH   7   8
HETATM    8  N   UNL     1      -8.465   4.363  67.828  1.00  0.00    -0.098 NA 
BRANCH   8   9
HETATM    9  C   UNL     1      -9.761   4.118  67.076  1.00  0.00    -0.197 C  
HETATM   10  O   UNL     1      -8.395   2.981  65.455  1.00  0.00    -0.093 OA 
HETATM   11  C   UNL     1      -9.529   3.700  65.624  1.00  0.00    -0.156 C  
HETATM   12  O   UNL     1     -10.294   3.961  64.709  1.00  0.00    -0.213 OA 
ENDBRANCH   8   9
BRANCH   8  13
HETATM   13  C   UNL     1      -8.651   3.800  69.217  1.00  0.00    -0.075 C  
HETATM   14  O   UNL     1      -7.164   2.055  68.516  1.00  0.00    -0.043 OA 
HETATM   15  O   UNL     1      -8.703   1.537  70.097  1.00  0.00    -0.047 OA 
HETATM   16  C   UNL     1      -8.210   2.344  69.326  1.00  0.00    -0.051 C  
ENDBRANCH   8  13
ENDBRANCH   7   8
ENDBRANCH   6   7
ENDBRANCH   5   6
BRANCH   5  17
HETATM   17  C   UNL     1      -9.970   8.768  69.677  1.00  0.00    -0.191 C  
BRANCH  17  18
HETATM   18  C   UNL     1     -10.167   9.517  68.329  1.00  0.00    -0.193 C  
BRANCH  18  19
HETATM   19  N   UNL     1      -9.675  10.945  68.310  1.00  0.00    -0.159 NA 
BRANCH  19  20
HETATM   20  C   UNL     1     -10.123  11.557  66.995  1.00  0.00    -0.210 C  
HETATM   21  O   UNL     1     -12.115  12.771  66.313  1.00  0.00    -0.466 OA 
HETATM   22  O   UNL     1     -11.255  13.175  68.367  1.00  0.00    -0.240 OA 
HETATM   23  C   UNL     1     -11.276  12.542  67.171  1.00  0.00    -0.300 C  
ENDBRANCH  19  20
BRANCH  19  24
HETATM   24  C   UNL     1      -8.162  10.917  68.285  1.00  0.00    -0.127 C  
HETATM   25  C   UNL     1      -7.550  12.240  67.839  1.00  0.00    -0.127 C  
HETATM   26  O   UNL     1      -6.474  12.339  67.272  1.00  0.00    -0.144 OA 
HETATM   27  O   UNL     1      -8.294  13.311  68.206  1.00  0.00    -0.152 OA 
ENDBRANCH  19  24
ENDBRANCH  18  19
ENDBRANCH  17  18
ENDBRANCH   5  17
ENDBRANCH   3   5
TORSDOF 11
ENDMDL
MODEL      439
REMARK 921   NORMALIZED FREE ENERGY PREDICTED BY IDOCK:   -1.70 KCAL/MOL
REMARK 922        TOTAL FREE ENERGY PREDICTED BY IDOCK:   -4.54 KCAL/MOL
REMARK 923 INTER-LIGAND FREE ENERGY PREDICTED BY IDOCK:   -3.67 KCAL/MOL
REMARK 924 INTRA-LIGAND FREE ENERGY PREDICTED BY IDOCK:   -0.87 KCAL/MOL
REMARK 927      BINDING AFFINITY PREDICTED BY RF-SCORE:    0.00 PKD
ROOT
HETATM    1  O   UNL     1     -10.531   8.158  68.597  1.00  0.00    -0.207 OA 
HETATM    2  C   UNL     1     -10.970   7.607  69.752  1.00  0.00    -0.170 C  
HETATM    3  C   UNL     1     -10.858   6.084  69.758  1.00  0.00    -0.363 C  
HETATM    4  O   UNL     1     -11.447   8.259  70.669  1.00  0.00    -0.274 OA 
ENDROOT
BRANCH   3   5
HETATM    5  N   UNL     1      -9.688   5.583  68.954  1.00  0.00    -0.135 NA 
BRANCH   5   6
HETATM    6  C   UNL     1      -8.751   4.844  69.865  1.00  0.00    -0.093 C  
BRANCH   6   7
HETATM    7  C   UNL     1      -8.318   5.645  71.130  1.00  0.00    -0.122 C  
BRANCH   7   8
HETATM    8  N   UNL     1      -8.922   5.207  72.437  1.00  0.00    -0.131 NA 
BRANCH   8   9
HETATM    9  C   UNL     1      -7.776   4.955  73.401  1.00  0.00    -0.096 C  
HETATM   10  O   UNL     1      -8.416   7.036  74.423  1.00  0.00    -0.154 OA 
HETATM   11  C   UNL     1      -7.374   6.208  74.178  1.00  0.00    -0.087 C  
HETATM   12  O   UNL     1      -6.238   6.436  74.564  1.00  0.00    -0.068 OA 
ENDBRANCH   8   9
BRANCH   8  13
HETATM   13  C   UNL     1      -9.605   3.879  72.211  1.00  0.00    -0.142 C  
HETATM   14  O   UNL     1     -11.514   4.885  73.255  1.00  0.00    -0.336 OA 
HETATM   15  O   UNL     1     -11.280   2.641  73.460  1.00  0.00    -0.207 OA 
HETATM   16  C   UNL     1     -10.865   3.714  73.054  1.00  0.00    -0.110 C  
ENDBRANCH   8  13
ENDBRANCH   7   8
ENDBRANCH   6   7
ENDBRANCH   5   6
BRANCH   5  17
HETATM   17  C   UNL     1     -10.193   4.624  67.920  1.00  0.00     0.048 C  
BRANCH  17  18
HETATM   18  C   UNL     1     -10.285   5.148  66.458  1.00  0.00    -0.264 C  
BRANCH  18  19
HETATM   19  N   UNL     1      -9.418   4.418  65.459  1.00  0.00    -0.163 NA 
BRANCH  19  20
HETATM   20  C   UNL     1      -8.342   3.689  66.245  1.00  0.00    -0.105 C  
HETATM   21  O   UNL     1      -8.270   1.538  67.374  1.00  0.00    -0.064 OA 
HETATM   22  O   UNL     1      -9.369   1.686  65.400  1.00  0.00    -0.081 OA 
HETATM   23  C   UNL     1      -8.654   2.206  66.425  1.00  0.00    -0.112 C  
ENDBRANCH  19  20
BRANCH  19  24
HETATM   24  C   UNL     1      -8.712   5.453  64.611  1.00  0.00    -0.054 C  
HETATM   25  C   UNL     1      -7.764   4.837  63.588  1.00  0.00    -0.071 C  
HETATM   26  O   UNL     1      -6.762   5.391  63.164  1.00  0.00    -0.029 OA 
HETATM   27  O   UNL     1      -8.190   3.634  63.137  1.00  0.00    -0.082 OA 
ENDBRANCH  19  24
ENDBRANCH  18  19
ENDBRANCH  17  18
ENDBRANCH   5  17
ENDBRANCH   3   5
TORSDOF 11
ENDMDL
MODEL      440
REMARK 921   NORMALIZED FREE ENERGY PREDICTED BY IDOCK:   -1.52 KCAL/MOL
REMARK 922        TOTAL FREE ENERGY PREDICTED BY IDOCK:   -4.23 KCAL/MOL
REMARK 923 INTER-LIGAND FREE ENERGY PREDICTED BY IDOCK:   -5.13 KCAL/MOL
REMARK 924 INTRA-LIGAND FREE ENERGY PREDICTED BY IDOCK:    0.90 KCAL/MOL
REMARK 927      BINDING AFFINITY PREDICTED BY RF-SCORE:    0.00 PKD
ROOT
HETATM    1  O   UNL     1      -5.523  14.020  67.537  1.00  0.00    -0.340 OA 
HETATM    2  C   UNL     1      -5.879  13.238  68.583  1.00  0.00    -0.083 C  
HETATM    3  C   UNL     1      -7.331  12.774  68.502  1.00  0.00    -0.115 C  
HETATM    4  O   UNL     1      -5.128  12.973  69.510  1.00  0.00    -0.075 OA 
ENDROOT
BRANCH   3   5
HETATM    5  N   UNL     1      -7.808  12.589  67.087  1.00  0.00    -0.155 NA 
BRANCH   5   6
HETATM    6  C   UNL     1      -8.463  11.244  66.964  1.00  0.00    -0.150 C  
BRANCH   6   7
HETATM    7  C   UNL     1      -7.473  10.067  66.710  1.00  0.00    -0.096 C  
BRANCH   7   8
HETATM    8  N   UNL     1      -7.656   9.304  65.426  1.00  0.00    -0.097 NA 
BRANCH   8   9
HETATM    9  C   UNL     1      -9.056   9.603  64.919  1.00  0.00    -0.232 C  
HETATM   10  O   UNL     1      -8.102   9.428  62.719  1.00  0.00    -0.128 OA 
HETATM   11  C   UNL     1      -9.073  10.023  63.450  1.00  0.00    -0.273 C  
HETATM   12  O   UNL     1      -9.889  10.795  62.970  1.00  0.00    -0.322 OA 
ENDBRANCH   8   9
BRANCH   8  13
HETATM   13  C   UNL     1      -7.614   7.830  65.753  1.00  0.00    -0.084 C  
HETATM   14  O   UNL     1      -6.398   7.592  63.700  1.00  0.00    -0.052 OA 
HETATM   15  O   UNL     1      -7.643   5.825  64.382  1.00  0.00    -0.073 OA 
HETATM   16  C   UNL     1      -7.253   6.970  64.546  1.00  0.00    -0.073 C  
ENDBRANCH   8  13
ENDBRANCH   7   8
ENDBRANCH   6   7
ENDBRANCH   5   6
BRANCH   5  17
HETATM   17  C   UNL     1      -8.830  13.641  66.784  1.00  0.00    -0.133 C  
BRANCH  17  18
HETATM   18  C   UNL     1      -8.850  14.892  67.707  1.00  0.00    -0.173 C  
BRANCH  18  19
HETATM   19  N   UNL     1      -9.728  16.026  67.232  1.00  0.00    -0.230 NA 
BRANCH  19  20
HETATM   20  C   UNL     1      -9.189  17.302  67.853  1.00  0.00    -0.247 C  
HETATM   21  O   UNL     1      -7.789  19.104  67.015  1.00  0.00    -0.243 OA 
HETATM   22  O   UNL     1      -9.341  18.208  65.631  1.00  0.00    -0.338 OA 
HETATM   23  C   UNL     1      -8.678  18.291  66.809  1.00  0.00    -0.272 C  
ENDBRANCH  19  20
BRANCH  19  24
HETATM   24  C   UNL     1     -11.113  15.815  67.803  1.00  0.00    -0.313 C  
HETATM   25  C   UNL     1     -11.099  15.092  69.146  1.00  0.00    -0.258 C  
HETATM   26  O   UNL     1     -12.007  14.385  69.551  1.00  0.00    -0.297 OA 
HETATM   27  O   UNL     1      -9.999  15.378  69.882  1.00  0.00    -0.277 OA 
ENDBRANCH  19  24
ENDBRANCH  18  19
ENDBRANCH  17  18
ENDBRANCH   5  17
ENDBRANCH   3   5
TORSDOF 11
ENDMDL
MODEL      441
REMARK 921   NORMALIZED FREE ENERGY PREDICTED BY IDOCK:   -1.44 KCAL/MOL
REMARK 922        TOTAL FREE ENERGY PREDICTED BY IDOCK:   -4.12 KCAL/MOL
REMARK 923 INTER-LIGAND FREE ENERGY PREDICTED BY IDOCK:   -3.38 KCAL/MOL
REMARK 924 INTRA-LIGAND FREE ENERGY PREDICTED BY IDOCK:   -0.74 KCAL/MOL
REMARK 927      BINDING AFFINITY PREDICTED BY RF-SCORE:    0.00 PKD
ROOT
HETATM    1  O   UNL     1      -6.713   7.674  71.367  1.00  0.00    -0.048 OA 
HETATM    2  C   UNL     1      -7.487   6.637  71.765  1.00  0.00    -0.091 C  
HETATM    3  C   UNL     1      -8.870   6.654  71.120  1.00  0.00    -0.137 C  
HETATM    4  O   UNL     1      -7.126   5.806  72.586  1.00  0.00    -0.081 OA 
ENDROOT
BRANCH   3   5
HETATM    5  N   UNL     1      -8.862   7.241  69.734  1.00  0.00    -0.142 NA 
BRANCH   5   6
HETATM    6  C   UNL     1      -9.156   6.153  68.742  1.00  0.00    -0.126 C  
BRANCH   6   7
HETATM    7  C   UNL     1      -7.891   5.437  68.179  1.00  0.00    -0.092 C  
BRANCH   7   8
HETATM    8  N   UNL     1      -7.629   5.602  66.706  1.00  0.00    -0.091 NA 
BRANCH   8   9
HETATM    9  C   UNL     1      -8.185   6.955  66.298  1.00  0.00    -0.117 C  
HETATM   10  O   UNL     1      -5.933   7.482  65.642  1.00  0.00    -0.037 OA 
HETATM   11  C   UNL     1      -7.094   8.006  66.101  1.00  0.00    -0.062 C  
HETATM   12  O   UNL     1      -7.249   9.199  66.308  1.00  0.00    -0.089 OA 
ENDBRANCH   8   9
BRANCH   8  13
HETATM   13  C   UNL     1      -8.434   4.557  65.972  1.00  0.00    -0.114 C  
HETATM   14  O   UNL     1      -6.452   4.199  64.672  1.00  0.00    -0.039 OA 
HETATM   15  O   UNL     1      -8.441   3.783  63.670  1.00  0.00    -0.090 OA 
HETATM   16  C   UNL     1      -7.804   4.156  64.641  1.00  0.00    -0.085 C  
ENDBRANCH   8  13
ENDBRANCH   7   8
ENDBRANCH   6   7
ENDBRANCH   5   6
BRANCH   5  17
HETATM   17  C   UNL     1      -9.946   8.269  69.641  1.00  0.00    -0.193 C  
BRANCH  17  18
HETATM   18  C   UNL     1      -9.962   9.165  68.370  1.00  0.00    -0.181 C  
BRANCH  18  19
HETATM   19  N   UNL     1      -9.706  10.633  68.616  1.00  0.00    -0.170 NA 
BRANCH  19  20
HETATM   20  C   UNL     1      -9.800  11.337  67.274  1.00  0.00    -0.182 C  
HETATM   21  O   UNL     1     -11.667  12.114  65.926  1.00  0.00    -0.411 OA 
HETATM   22  O   UNL     1     -11.787  12.351  68.175  1.00  0.00    -0.338 OA 
HETATM   23  C   UNL     1     -11.176  11.955  67.033  1.00  0.00    -0.323 C  
ENDBRANCH  19  20
BRANCH  19  24
HETATM   24  C   UNL     1      -8.276  10.785  69.088  1.00  0.00    -0.120 C  
HETATM   25  C   UNL     1      -7.705  12.173  68.817  1.00  0.00    -0.034 C  
HETATM   26  O   UNL     1      -6.520  12.399  68.630  1.00  0.00    -0.067 OA 
HETATM   27  O   UNL     1      -8.643  13.147  68.879  1.00  0.00     0.079 OA 
ENDBRANCH  19  24
ENDBRANCH  18  19
ENDBRANCH  17  18
ENDBRANCH   5  17
ENDBRANCH   3   5
TORSDOF 11
ENDMDL
MODEL      442
REMARK 921   NORMALIZED FREE ENERGY PREDICTED BY IDOCK:   -1.15 KCAL/MOL
REMARK 922        TOTAL FREE ENERGY PREDICTED BY IDOCK:   -3.62 KCAL/MOL
REMARK 923 INTER-LIGAND FREE ENERGY PREDICTED BY IDOCK:   -2.98 KCAL/MOL
REMARK 924 INTRA-LIGAND FREE ENERGY PREDICTED BY IDOCK:   -0.64 KCAL/MOL
REMARK 927      BINDING AFFINITY PREDICTED BY RF-SCORE:    0.00 PKD
ROOT
HETATM    1  O   UNL     1      -6.887   9.121  64.295  1.00  0.00    -0.083 OA 
HETATM    2  C   UNL     1      -6.292   8.055  64.879  1.00  0.00    -0.048 C  
HETATM    3  C   UNL     1      -6.019   8.275  66.365  1.00  0.00    -0.041 C  
HETATM    4  O   UNL     1      -5.970   7.046  64.268  1.00  0.00    -0.035 OA 
ENDROOT
BRANCH   3   5
HETATM    5  N   UNL     1      -7.046   9.156  67.023  1.00  0.00    -0.085 NA 
BRANCH   5   6
HETATM    6  C   UNL     1      -8.400   8.529  66.867  1.00  0.00    -0.109 C  
BRANCH   6   7
HETATM    7  C   UNL     1      -9.409   8.884  68.001  1.00  0.00    -0.142 C  
BRANCH   7   8
HETATM    8  N   UNL     1      -9.547   7.880  69.113  1.00  0.00    -0.152 NA 
BRANCH   8   9
HETATM    9  C   UNL     1     -10.307   6.690  68.554  1.00  0.00    -0.192 C  
HETATM   10  O   UNL     1      -8.562   5.349  69.523  1.00  0.00    -0.101 OA 
HETATM   11  C   UNL     1      -9.462   5.418  68.514  1.00  0.00    -0.123 C  
HETATM   12  O   UNL     1      -9.594   4.536  67.680  1.00  0.00    -0.150 OA 
ENDBRANCH   8   9
BRANCH   8  13
HETATM   13  C   UNL     1     -10.418   8.492  70.185  1.00  0.00    -0.220 C  
HETATM   14  O   UNL     1      -8.496   8.300  71.605  1.00  0.00    -0.122 OA 
HETATM   15  O   UNL     1     -10.532   8.204  72.594  1.00  0.00    -0.301 OA 
HETATM   16  C   UNL     1      -9.849   8.297  71.587  1.00  0.00    -0.199 C  
ENDBRANCH   8  13
ENDBRANCH   7   8
ENDBRANCH   6   7
ENDBRANCH   5   6
BRANCH   5  17
HETATM   17  C   UNL     1      -6.734   9.247  68.485  1.00  0.00    -0.058 C  
BRANCH  17  18
HETATM   18  C   UNL     1      -5.516  10.124  68.894  1.00  0.00    -0.034 C  
BRANCH  18  19
HETATM   19  N   UNL     1      -5.855  11.527  69.338  1.00  0.00    -0.059 NA 
BRANCH  19  20
HETATM   20  C   UNL     1      -6.084  11.481  70.838  1.00  0.00     0.345 C  
HETATM   21  O   UNL     1      -5.224  12.787  72.698  1.00  0.00    -0.375 OA 
HETATM   22  O   UNL     1      -5.715  13.856  70.764  1.00  0.00    -0.161 OA 
HETATM   23  C   UNL     1      -5.615  12.752  71.542  1.00  0.00     0.147 C  
ENDBRANCH  19  20
BRANCH  19  24
HETATM   24  C   UNL     1      -7.175  11.911  68.707  1.00  0.00    -0.112 C  
HETATM   25  C   UNL     1      -7.021  12.917  67.572  1.00  0.00    -0.149 C  
HETATM   26  O   UNL     1      -7.877  13.729  67.258  1.00  0.00    -0.162 OA 
HETATM   27  O   UNL     1      -5.859  12.768  66.894  1.00  0.00    -0.256 OA 
ENDBRANCH  19  24
ENDBRANCH  18  19
ENDBRANCH  17  18
ENDBRANCH   5  17
ENDBRANCH   3   5
TORSDOF 11
ENDMDL
MODEL      443
REMARK 921   NORMALIZED FREE ENERGY PREDICTED BY IDOCK:   -1.02 KCAL/MOL
REMARK 922        TOTAL FREE ENERGY PREDICTED BY IDOCK:   -3.42 KCAL/MOL
REMARK 923 INTER-LIGAND FREE ENERGY PREDICTED BY IDOCK:   -3.63 KCAL/MOL
REMARK 924 INTRA-LIGAND FREE ENERGY PREDICTED BY IDOCK:    0.21 KCAL/MOL
REMARK 927      BINDING AFFINITY PREDICTED BY RF-SCORE:    0.00 PKD
ROOT
HETATM    1  O   UNL     1     -11.426   7.198  69.620  1.00  0.00    -0.134 OA 
HETATM    2  C   UNL     1     -11.372   6.348  70.672  1.00  0.00    -0.357 C  
HETATM    3  C   UNL     1     -10.299   5.275  70.507  1.00  0.00    -0.266 C  
HETATM    4  O   UNL     1     -12.135   6.410  71.626  1.00  0.00    -0.332 OA 
ENDROOT
BRANCH   3   5
HETATM    5  N   UNL     1      -9.105   5.759  69.728  1.00  0.00    -0.135 NA 
BRANCH   5   6
HETATM    6  C   UNL     1      -7.966   5.996  70.677  1.00  0.00    -0.111 C  
BRANCH   6   7
HETATM    7  C   UNL     1      -6.910   7.024  70.171  1.00  0.00    -0.060 C  
BRANCH   7   8
HETATM    8  N   UNL     1      -6.732   8.265  71.002  1.00  0.00    -0.042 NA 
BRANCH   8   9
HETATM    9  C   UNL     1      -7.733   8.192  72.141  1.00  0.00    -0.118 C  
HETATM   10  O   UNL     1      -6.150   9.512  73.379  1.00  0.00    -0.301 OA 
HETATM   11  C   UNL     1      -7.123   8.577  73.488  1.00  0.00    -0.014 C  
HETATM   12  O   UNL     1      -7.485   8.116  74.559  1.00  0.00    -0.175 OA 
ENDBRANCH   8   9
BRANCH   8  13
HETATM   13  C   UNL     1      -7.120   9.452  70.152  1.00  0.00    -0.083 C  
HETATM   14  O   UNL     1      -9.357   9.036  70.907  1.00  0.00    -0.219 OA 
HETATM   15  O   UNL     1      -9.109   9.995  68.869  1.00  0.00    -0.142 OA 
HETATM   16  C   UNL     1      -8.619   9.515  69.878  1.00  0.00    -0.204 C  
ENDBRANCH   8  13
ENDBRANCH   7   8
ENDBRANCH   6   7
ENDBRANCH   5   6
BRANCH   5  17
HETATM   17  C   UNL     1      -8.698   4.690  68.761  1.00  0.00    -0.093 C  
BRANCH  17  18
HETATM   18  C   UNL     1      -9.015   4.941  67.259  1.00  0.00    -0.111 C  
BRANCH  18  19
HETATM   19  N   UNL     1      -7.817   5.248  66.392  1.00  0.00    -0.103 NA 
BRANCH  19  20
HETATM   20  C   UNL     1      -8.277   6.210  65.312  1.00  0.00    -0.142 C  
HETATM   21  O   UNL     1      -9.076   8.505  65.354  1.00  0.00    -0.152 OA 
HETATM   22  O   UNL     1      -7.388   7.925  66.745  1.00  0.00    -0.086 OA 
HETATM   23  C   UNL     1      -8.316   7.658  65.797  1.00  0.00    -0.141 C  
ENDBRANCH  19  20
BRANCH  19  24
HETATM   24  C   UNL     1      -7.408   3.970  65.692  1.00  0.00    -0.076 C  
HETATM   25  C   UNL     1      -5.907   3.706  65.766  1.00  0.00    -0.019 C  
HETATM   26  O   UNL     1      -5.281   3.086  64.921  1.00  0.00    -0.008 OA 
HETATM   27  O   UNL     1      -5.350   4.169  66.909  1.00  0.00    -0.012 OA 
ENDBRANCH  19  24
ENDBRANCH  18  19
ENDBRANCH  17  18
ENDBRANCH   5  17
ENDBRANCH   3   5
TORSDOF 11
ENDMDL
MODEL      444
REMARK 921   NORMALIZED FREE ENERGY PREDICTED BY IDOCK:   -0.83 KCAL/MOL
REMARK 922        TOTAL FREE ENERGY PREDICTED BY IDOCK:   -3.10 KCAL/MOL
REMARK 923 INTER-LIGAND FREE ENERGY PREDICTED BY IDOCK:   -3.43 KCAL/MOL
REMARK 924 INTRA-LIGAND FREE ENERGY PREDICTED BY IDOCK:    0.33 KCAL/MOL
REMARK 927      BINDING AFFINITY PREDICTED BY RF-SCORE:    0.00 PKD
ROOT
HETATM    1  O   UNL     1     -10.884   7.303  68.297  1.00  0.00    -0.157 OA 
HETATM    2  C   UNL     1     -11.099   6.744  69.510  1.00  0.00    -0.273 C  
HETATM    3  C   UNL     1     -10.421   5.384  69.660  1.00  0.00    -0.291 C  
HETATM    4  O   UNL     1     -11.799   7.256  70.371  1.00  0.00    -0.236 OA 
ENDROOT
BRANCH   3   5
HETATM    5  N   UNL     1      -9.139   5.282  68.880  1.00  0.00    -0.109 NA 
BRANCH   5   6
HETATM    6  C   UNL     1      -8.000   5.076  69.836  1.00  0.00    -0.074 C  
BRANCH   6   7
HETATM    7  C   UNL     1      -8.093   5.925  71.140  1.00  0.00    -0.121 C  
BRANCH   7   8
HETATM    8  N   UNL     1      -7.717   5.229  72.420  1.00  0.00    -0.099 NA 
BRANCH   8   9
HETATM    9  C   UNL     1      -8.445   3.896  72.440  1.00  0.00    -0.098 C  
HETATM   10  O   UNL     1      -6.443   3.022  73.444  1.00  0.00    -0.019 OA 
HETATM   11  C   UNL     1      -7.503   2.714  72.661  1.00  0.00    -0.044 C  
HETATM   12  O   UNL     1      -7.691   1.597  72.205  1.00  0.00    -0.042 OA 
ENDBRANCH   8   9
BRANCH   8  13
HETATM   13  C   UNL     1      -8.262   6.044  73.569  1.00  0.00    -0.109 C  
HETATM   14  O   UNL     1     -10.293   4.812  73.246  1.00  0.00    -0.158 OA 
HETATM   15  O   UNL     1     -10.471   6.908  74.089  1.00  0.00    -0.357 OA 
HETATM   16  C   UNL     1      -9.784   5.999  73.652  1.00  0.00    -0.163 C  
ENDBRANCH   8  13
ENDBRANCH   7   8
ENDBRANCH   6   7
ENDBRANCH   5   6
BRANCH   5  17
HETATM   17  C   UNL     1      -9.218   4.089  67.978  1.00  0.00    -0.154 C  
BRANCH  17  18
HETATM   18  C   UNL     1      -9.604   4.350  66.495  1.00  0.00    -0.197 C  
BRANCH  18  19
HETATM   19  N   UNL     1      -8.467   4.243  65.507  1.00  0.00    -0.113 NA 
BRANCH  19  20
HETATM   20  C   UNL     1      -8.519   5.479  64.626  1.00  0.00    -0.108 C  
HETATM   21  O   UNL     1      -8.059   7.832  65.023  1.00  0.00    -0.131 OA 
HETATM   22  O   UNL     1      -6.724   6.290  66.004  1.00  0.00    -0.049 OA 
HETATM   23  C   UNL     1      -7.772   6.663  65.234  1.00  0.00    -0.099 C  
ENDBRANCH  19  20
BRANCH  19  24
HETATM   24  C   UNL     1      -8.738   3.056  64.610  1.00  0.00    -0.102 C  
HETATM   25  C   UNL     1      -7.471   2.297  64.228  1.00  0.00    -0.059 C  
HETATM   26  O   UNL     1      -7.336   1.671  63.189  1.00  0.00    -0.041 OA 
HETATM   27  O   UNL     1      -6.529   2.328  65.201  1.00  0.00    -0.023 OA 
ENDBRANCH  19  24
ENDBRANCH  18  19
ENDBRANCH  17  18
ENDBRANCH   5  17
ENDBRANCH   3   5
TORSDOF 11
ENDMDL
MODEL      445
REMARK 921   NORMALIZED FREE ENERGY PREDICTED BY IDOCK:   -0.61 KCAL/MOL
REMARK 922        TOTAL FREE ENERGY PREDICTED BY IDOCK:   -2.74 KCAL/MOL
REMARK 923 INTER-LIGAND FREE ENERGY PREDICTED BY IDOCK:   -6.50 KCAL/MOL
REMARK 924 INTRA-LIGAND FREE ENERGY PREDICTED BY IDOCK:    3.76 KCAL/MOL
REMARK 927      BINDING AFFINITY PREDICTED BY RF-SCORE:    0.00 PKD
ROOT
HETATM    1  O   UNL     1      -6.169  15.687  68.126  1.00  0.00    -0.109 OA 
HETATM    2  C   UNL     1      -6.654  14.943  69.148  1.00  0.00    -0.117 C  
HETATM    3  C   UNL     1      -8.021  15.424  69.628  1.00  0.00    -0.138 C  
HETATM    4  O   UNL     1      -6.038  14.018  69.656  1.00  0.00    -0.107 OA 
ENDROOT
BRANCH   3   5
HETATM    5  N   UNL     1      -8.853  16.015  68.522  1.00  0.00    -0.190 NA 
BRANCH   5   6
HETATM    6  C   UNL     1      -8.720  15.157  67.298  1.00  0.00    -0.202 C  
BRANCH   6   7
HETATM    7  C   UNL     1      -8.949  15.913  65.954  1.00  0.00    -0.216 C  
BRANCH   7   8
HETATM    8  N   UNL     1      -8.427  17.322  65.882  1.00  0.00    -0.542 NA 
BRANCH   8   9
HETATM    9  C   UNL     1      -6.913  17.248  65.973  1.00  0.00    -0.131 C  
HETATM   10  O   UNL     1      -6.930  19.472  65.060  1.00  0.00    -0.402 OA 
HETATM   11  C   UNL     1      -6.220  18.323  65.137  1.00  0.00    -0.089 C  
HETATM   12  O   UNL     1      -5.128  18.179  64.610  1.00  0.00    -0.079 OA 
ENDBRANCH   8   9
BRANCH   8  13
HETATM   13  C   UNL     1      -8.905  18.056  67.113  1.00  0.00    -0.248 C  
HETATM   14  O   UNL     1     -10.401  19.202  65.630  1.00  0.00    -0.511 OA 
HETATM   15  O   UNL     1      -9.723  20.313  67.486  1.00  0.00    -0.393 OA 
HETATM   16  C   UNL     1      -9.690  19.320  66.776  1.00  0.00    -0.341 C  
ENDBRANCH   8  13
ENDBRANCH   7   8
ENDBRANCH   6   7
ENDBRANCH   5   6
BRANCH   5  17
HETATM   17  C   UNL     1     -10.289  16.010  68.947  1.00  0.00    -0.235 C  
BRANCH  17  18
HETATM   18  C   UNL     1     -10.726  14.899  69.944  1.00  0.00    -0.175 C  
BRANCH  18  19
HETATM   19  N   UNL     1     -12.170  14.469  69.833  1.00  0.00    -0.327 NA 
BRANCH  19  20
HETATM   20  C   UNL     1     -12.915  15.090  71.001  1.00  0.00    -0.404 C  
HETATM   21  O   UNL     1     -12.584  15.038  73.408  1.00  0.00    -0.450 OA 
HETATM   22  O   UNL     1     -10.763  15.168  72.071  1.00  0.00     0.097 OA 
HETATM   23  C   UNL     1     -12.096  15.081  72.289  1.00  0.00    -0.362 C  
ENDBRANCH  19  20
BRANCH  19  24
HETATM   24  C   UNL     1     -12.226  12.970  70.027  1.00  0.00    -0.236 C  
HETATM   25  C   UNL     1     -12.083  12.195  68.721  1.00  0.00    -0.113 C  
HETATM   26  O   UNL     1     -12.571  11.094  68.523  1.00  0.00    -0.224 OA 
HETATM   27  O   UNL     1     -11.289  12.826  67.823  1.00  0.00    -0.258 OA 
ENDBRANCH  19  24
ENDBRANCH  18  19
ENDBRANCH  17  18
ENDBRANCH   5  17
ENDBRANCH   3   5
TORSDOF 11
ENDMDL
MODEL      446
REMARK 921   NORMALIZED FREE ENERGY PREDICTED BY IDOCK:   -0.51 KCAL/MOL
REMARK 922        TOTAL FREE ENERGY PREDICTED BY IDOCK:   -2.58 KCAL/MOL
REMARK 923 INTER-LIGAND FREE ENERGY PREDICTED BY IDOCK:   -5.20 KCAL/MOL
REMARK 924 INTRA-LIGAND FREE ENERGY PREDICTED BY IDOCK:    2.62 KCAL/MOL
REMARK 927      BINDING AFFINITY PREDICTED BY RF-SCORE:    0.00 PKD
ROOT
HETATM    1  O   UNL     1      -6.988  13.067  68.226  1.00  0.00    -0.081 OA 
HETATM    2  C   UNL     1      -6.806  12.198  69.248  1.00  0.00    -0.052 C  
HETATM    3  C   UNL     1      -7.584  10.898  69.059  1.00  0.00    -0.135 C  
HETATM    4  O   UNL     1      -6.128  12.452  70.233  1.00  0.00    -0.153 OA 
ENDROOT
BRANCH   3   5
HETATM    5  N   UNL     1      -7.729  10.509  67.613  1.00  0.00    -0.096 NA 
BRANCH   5   6
HETATM    6  C   UNL     1      -8.545   9.252  67.524  1.00  0.00    -0.116 C  
BRANCH   6   7
HETATM    7  C   UNL     1      -7.706   7.954  67.319  1.00  0.00    -0.105 C  
BRANCH   7   8
HETATM    8  N   UNL     1      -7.231   7.678  65.918  1.00  0.00    -0.068 NA 
BRANCH   8   9
HETATM    9  C   UNL     1      -8.264   8.261  64.969  1.00  0.00    -0.158 C  
HETATM   10  O   UNL     1      -6.388   8.887  63.601  1.00  0.00    -0.087 OA 
HETATM   11  C   UNL     1      -7.652   9.223  63.952  1.00  0.00    -0.113 C  
HETATM   12  O   UNL     1      -8.241  10.182  63.479  1.00  0.00    -0.154 OA 
ENDBRANCH   8   9
BRANCH   8  13
HETATM   13  C   UNL     1      -7.241   6.182  65.711  1.00  0.00    -0.075 C  
HETATM   14  O   UNL     1      -9.543   6.284  66.371  1.00  0.00    -0.162 OA 
HETATM   15  O   UNL     1      -8.422   4.364  66.804  1.00  0.00    -0.105 OA 
HETATM   16  C   UNL     1      -8.437   5.504  66.371  1.00  0.00    -0.119 C  
ENDBRANCH   8  13
ENDBRANCH   7   8
ENDBRANCH   6   7
ENDBRANCH   5   6
BRANCH   5  17
HETATM   17  C   UNL     1      -8.464  11.599  66.894  1.00  0.00    -0.168 C  
BRANCH  17  18
HETATM   18  C   UNL     1     -10.018  11.564  66.960  1.00  0.00    -0.200 C  
BRANCH  18  19
HETATM   19  N   UNL     1     -10.633  12.398  68.058  1.00  0.00    -0.214 NA 
BRANCH  19  20
HETATM   20  C   UNL     1     -11.835  11.634  68.585  1.00  0.00    -0.308 C  
HETATM   21  O   UNL     1     -12.673  11.176  70.819  1.00  0.00    -0.330 OA 
HETATM   22  O   UNL     1     -11.796  13.219  70.392  1.00  0.00    -0.293 OA 
HETATM   23  C   UNL     1     -12.140  11.957  70.045  1.00  0.00    -0.291 C  
ENDBRANCH  19  20
BRANCH  19  24
HETATM   24  C   UNL     1     -11.164  13.671  67.436  1.00  0.00    -0.302 C  
HETATM   25  C   UNL     1     -11.664  13.471  66.009  1.00  0.00    -0.359 C  
HETATM   26  O   UNL     1     -11.660  14.343  65.155  1.00  0.00    -0.335 OA 
HETATM   27  O   UNL     1     -12.187  12.239  65.806  1.00  0.00    -0.622 OA 
ENDBRANCH  19  24
ENDBRANCH  18  19
ENDBRANCH  17  18
ENDBRANCH   5  17
ENDBRANCH   3   5
TORSDOF 11
ENDMDL
MODEL      447
REMARK 921   NORMALIZED FREE ENERGY PREDICTED BY IDOCK:   -0.29 KCAL/MOL
REMARK 922        TOTAL FREE ENERGY PREDICTED BY IDOCK:   -2.22 KCAL/MOL
REMARK 923 INTER-LIGAND FREE ENERGY PREDICTED BY IDOCK:   -2.81 KCAL/MOL
REMARK 924 INTRA-LIGAND FREE ENERGY PREDICTED BY IDOCK:    0.59 KCAL/MOL
REMARK 927      BINDING AFFINITY PREDICTED BY RF-SCORE:    0.00 PKD
ROOT
HETATM    1  O   UNL     1     -11.106   4.860  64.842  1.00  0.00     0.203 OA 
HETATM    2  C   UNL     1     -10.033   4.043  64.721  1.00  0.00    -0.205 C  
HETATM    3  C   UNL     1      -8.711   4.771  64.954  1.00  0.00    -0.148 C  
HETATM    4  O   UNL     1     -10.118   2.864  64.412  1.00  0.00    -0.115 OA 
ENDROOT
BRANCH   3   5
HETATM    5  N   UNL     1      -8.831   5.895  65.948  1.00  0.00    -0.150 NA 
BRANCH   5   6
HETATM    6  C   UNL     1      -8.956   5.316  67.327  1.00  0.00    -0.111 C  
BRANCH   6   7
HETATM    7  C   UNL     1     -10.291   5.663  68.052  1.00  0.00    -0.202 C  
BRANCH   7   8
HETATM    8  N   UNL     1     -10.175   6.464  69.320  1.00  0.00    -0.181 NA 
BRANCH   8   9
HETATM    9  C   UNL     1      -8.723   6.886  69.456  1.00  0.00    -0.133 C  
HETATM   10  O   UNL     1      -9.580   8.829  70.583  1.00  0.00    -0.174 OA 
HETATM   11  C   UNL     1      -8.570   8.364  69.812  1.00  0.00    -0.132 C  
HETATM   12  O   UNL     1      -7.626   9.056  69.464  1.00  0.00    -0.073 OA 
ENDBRANCH   8   9
BRANCH   8  13
HETATM   13  C   UNL     1     -10.474   5.544  70.480  1.00  0.00    -0.277 C  
HETATM   14  O   UNL     1     -12.537   6.749  70.673  1.00  0.00    -0.268 OA 
HETATM   15  O   UNL     1     -11.682   5.841  72.565  1.00  0.00    -0.309 OA 
HETATM   16  C   UNL     1     -11.600   6.063  71.368  1.00  0.00    -0.143 C  
ENDBRANCH   8  13
ENDBRANCH   7   8
ENDBRANCH   6   7
ENDBRANCH   5   6
BRANCH   5  17
HETATM   17  C   UNL     1      -7.581   6.718  65.894  1.00  0.00    -0.087 C  
BRANCH  17  18
HETATM   18  C   UNL     1      -6.427   6.313  66.854  1.00  0.00    -0.046 C  
BRANCH  18  19
HETATM   19  N   UNL     1      -6.418   4.861  67.270  1.00  0.00    -0.044 NA 
BRANCH  19  20
HETATM   20  C   UNL     1      -5.700   4.780  68.605  1.00  0.00    -0.016 C  
HETATM   21  O   UNL     1      -6.350   3.969  70.803  1.00  0.00    -0.021 OA 
HETATM   22  O   UNL     1      -7.043   2.821  68.979  1.00  0.00    -0.044 OA 
HETATM   23  C   UNL     1      -6.396   3.842  69.589  1.00  0.00    -0.028 C  
ENDBRANCH  19  20
BRANCH  19  24
HETATM   24  C   UNL     1      -5.574   4.096  66.274  1.00  0.00    -0.018 C  
HETATM   25  C   UNL     1      -5.974   2.629  66.159  1.00  0.00    -0.023 C  
HETATM   26  O   UNL     1      -5.204   1.732  65.854  1.00  0.00    -0.004 OA 
HETATM   27  O   UNL     1      -7.298   2.430  66.358  1.00  0.00    -0.063 OA 
ENDBRANCH  19  24
ENDBRANCH  18  19
ENDBRANCH  17  18
ENDBRANCH   5  17
ENDBRANCH   3   5
TORSDOF 11
ENDMDL
MODEL      448
REMARK 921   NORMALIZED FREE ENERGY PREDICTED BY IDOCK:   -0.19 KCAL/MOL
REMARK 922        TOTAL FREE ENERGY PREDICTED BY IDOCK:   -2.06 KCAL/MOL
REMARK 923 INTER-LIGAND FREE ENERGY PREDICTED BY IDOCK:   -3.52 KCAL/MOL
REMARK 924 INTRA-LIGAND FREE ENERGY PREDICTED BY IDOCK:    1.46 KCAL/MOL
REMARK 927      BINDING AFFINITY PREDICTED BY RF-SCORE:    0.00 PKD
ROOT
HETATM    1  O   UNL     1      -6.920   9.155  64.324  1.00  0.00    -0.089 OA 
HETATM    2  C   UNL     1      -6.224   8.169  64.938  1.00  0.00    -0.049 C  
HETATM    3  C   UNL     1      -5.866   8.514  66.381  1.00  0.00    -0.047 C  
HETATM    4  O   UNL     1      -5.882   7.139  64.377  1.00  0.00    -0.036 OA 
ENDROOT
BRANCH   3   5
HETATM    5  N   UNL     1      -6.899   9.382  67.047  1.00  0.00    -0.083 NA 
BRANCH   5   6
HETATM    6  C   UNL     1      -8.135   8.567  67.298  1.00  0.00    -0.105 C  
BRANCH   6   7
HETATM    7  C   UNL     1      -9.361   9.392  67.792  1.00  0.00    -0.128 C  
BRANCH   7   8
HETATM    8  N   UNL     1      -9.503   9.554  69.281  1.00  0.00    -0.161 NA 
BRANCH   8   9
HETATM    9  C   UNL     1      -9.905   8.203  69.845  1.00  0.00    -0.186 C  
HETATM   10  O   UNL     1      -8.213   8.595  71.508  1.00  0.00    -0.145 OA 
HETATM   11  C   UNL     1      -8.867   7.636  70.812  1.00  0.00    -0.144 C  
HETATM   12  O   UNL     1      -8.659   6.443  70.968  1.00  0.00    -0.129 OA 
ENDBRANCH   8   9
BRANCH   8  13
HETATM   13  C   UNL     1     -10.655  10.497  69.537  1.00  0.00    -0.246 C  
HETATM   14  O   UNL     1     -11.491   9.769  67.412  1.00  0.00     0.081 OA 
HETATM   15  O   UNL     1     -12.035  11.865  68.080  1.00  0.00    -0.496 OA 
HETATM   16  C   UNL     1     -11.450  10.812  68.274  1.00  0.00    -0.280 C  
ENDBRANCH   8  13
ENDBRANCH   7   8
ENDBRANCH   6   7
ENDBRANCH   5   6
BRANCH   5  17
HETATM   17  C   UNL     1      -6.361   9.841  68.368  1.00  0.00    -0.054 C  
BRANCH  17  18
HETATM   18  C   UNL     1      -5.467  11.114  68.361  1.00  0.00    -0.042 C  
BRANCH  18  19
HETATM   19  N   UNL     1      -6.148  12.379  68.828  1.00  0.00    -0.065 NA 
BRANCH  19  20
HETATM   20  C   UNL     1      -6.006  12.435  70.339  1.00  0.00    -0.095 C  
HETATM   21  O   UNL     1      -5.504  14.227  71.902  1.00  0.00    -0.190 OA 
HETATM   22  O   UNL     1      -6.839  14.681  70.131  1.00  0.00    -0.166 OA 
HETATM   23  C   UNL     1      -6.064  13.861  70.880  1.00  0.00    -0.098 C  
ENDBRANCH  19  20
BRANCH  19  24
HETATM   24  C   UNL     1      -7.626  12.250  68.533  1.00  0.00    -0.118 C  
HETATM   25  C   UNL     1      -8.226  13.519  67.939  1.00  0.00    -0.168 C  
HETATM   26  O   UNL     1      -9.392  13.853  68.077  1.00  0.00    -0.190 OA 
HETATM   27  O   UNL     1      -7.346  14.206  67.173  1.00  0.00    -0.088 OA 
ENDBRANCH  19  24
ENDBRANCH  18  19
ENDBRANCH  17  18
ENDBRANCH   5  17
ENDBRANCH   3   5
TORSDOF 11
ENDMDL
MODEL      449
REMARK 921   NORMALIZED FREE ENERGY PREDICTED BY IDOCK:    0.67 KCAL/MOL
REMARK 922        TOTAL FREE ENERGY PREDICTED BY IDOCK:   -0.64 KCAL/MOL
REMARK 923 INTER-LIGAND FREE ENERGY PREDICTED BY IDOCK:   -6.61 KCAL/MOL
REMARK 924 INTRA-LIGAND FREE ENERGY PREDICTED BY IDOCK:    5.98 KCAL/MOL
REMARK 927      BINDING AFFINITY PREDICTED BY RF-SCORE:    0.00 PKD
ROOT
HETATM    1  O   UNL     1      -8.699  19.620  67.831  1.00  0.00    -0.313 OA 
HETATM    2  C   UNL     1      -9.886  19.353  68.425  1.00  0.00    -0.428 C  
HETATM    3  C   UNL     1     -10.553  18.098  67.867  1.00  0.00    -0.371 C  
HETATM    4  O   UNL     1     -10.385  20.069  69.281  1.00  0.00    -0.310 OA 
ENDROOT
BRANCH   3   5
HETATM    5  N   UNL     1      -9.561  17.059  67.420  1.00  0.00    -0.243 NA 
BRANCH   5   6
HETATM    6  C   UNL     1      -8.419  17.022  68.394  1.00  0.00    -0.239 C  
BRANCH   6   7
HETATM    7  C   UNL     1      -7.125  16.351  67.844  1.00  0.00    -0.135 C  
BRANCH   7   8
HETATM    8  N   UNL     1      -6.285  17.181  66.911  1.00  0.00    -0.177 NA 
BRANCH   8   9
HETATM    9  C   UNL     1      -5.740  18.349  67.713  1.00  0.00    -0.163 C  
HETATM   10  O   UNL     1      -5.192  16.711  69.386  1.00  0.00    -0.130 OA 
HETATM   11  C   UNL     1      -5.534  18.005  69.188  1.00  0.00    -0.196 C  
HETATM   12  O   UNL     1      -5.639  18.812  70.098  1.00  0.00    -0.219 OA 
ENDBRANCH   8   9
BRANCH   8  13
HETATM   13  C   UNL     1      -7.199  17.761  65.857  1.00  0.00    -0.225 C  
HETATM   14  O   UNL     1      -5.400  19.273  65.384  1.00  0.00    -0.149 OA 
HETATM   15  O   UNL     1      -7.506  20.005  64.981  1.00  0.00    -0.270 OA 
HETATM   16  C   UNL     1      -6.747  19.137  65.379  1.00  0.00    -0.244 C  
ENDBRANCH   8  13
ENDBRANCH   7   8
ENDBRANCH   6   7
ENDBRANCH   5   6
BRANCH   5  17
HETATM   17  C   UNL     1     -10.231  15.720  67.428  1.00  0.00    -0.270 C  
BRANCH  17  18
HETATM   18  C   UNL     1      -9.401  14.519  67.965  1.00  0.00    -0.201 C  
BRANCH  18  19
HETATM   19  N   UNL     1     -10.213  13.329  68.420  1.00  0.00    -0.249 NA 
BRANCH  19  20
HETATM   20  C   UNL     1      -9.701  12.118  67.661  1.00  0.00    -0.188 C  
HETATM   21  O   UNL     1      -7.516  11.491  66.800  1.00  0.00    -0.144 OA 
HETATM   22  O   UNL     1      -7.628  12.530  68.808  1.00  0.00    -0.102 OA 
HETATM   23  C   UNL     1      -8.178  12.015  67.683  1.00  0.00    -0.155 C  
ENDBRANCH  19  20
BRANCH  19  24
HETATM   24  C   UNL     1     -11.645  13.546  67.980  1.00  0.00    -0.337 C  
HETATM   25  C   UNL     1     -11.882  13.171  66.521  1.00  0.00    -0.400 C  
HETATM   26  O   UNL     1     -12.732  13.687  65.813  1.00  0.00    -0.471 OA 
HETATM   27  O   UNL     1     -11.097  12.148  66.109  1.00  0.00    -0.285 OA 
ENDBRANCH  19  24
ENDBRANCH  18  19
ENDBRANCH  17  18
ENDBRANCH   5  17
ENDBRANCH   3   5
TORSDOF 11
ENDMDL
MODEL      450
REMARK 921   NORMALIZED FREE ENERGY PREDICTED BY IDOCK:    0.82 KCAL/MOL
REMARK 922        TOTAL FREE ENERGY PREDICTED BY IDOCK:   -0.40 KCAL/MOL
REMARK 923 INTER-LIGAND FREE ENERGY PREDICTED BY IDOCK:   -5.96 KCAL/MOL
REMARK 924 INTRA-LIGAND FREE ENERGY PREDICTED BY IDOCK:    5.56 KCAL/MOL
REMARK 927      BINDING AFFINITY PREDICTED BY RF-SCORE:    0.00 PKD
ROOT
HETATM    1  O   UNL     1      -8.920  17.230  65.765  1.00  0.00    -0.521 OA 
HETATM    2  C   UNL     1      -8.013  17.421  66.751  1.00  0.00    -0.244 C  
HETATM    3  C   UNL     1      -8.600  17.193  68.142  1.00  0.00    -0.232 C  
HETATM    4  O   UNL     1      -6.864  17.782  66.545  1.00  0.00    -0.187 OA 
ENDROOT
BRANCH   3   5
HETATM    5  N   UNL     1      -9.679  16.144  68.156  1.00  0.00    -0.220 NA 
BRANCH   5   6
HETATM    6  C   UNL     1      -9.040  14.786  68.106  1.00  0.00    -0.180 C  
BRANCH   6   7
HETATM    7  C   UNL     1     -10.012  13.633  67.710  1.00  0.00    -0.235 C  
BRANCH   7   8
HETATM    8  N   UNL     1     -10.081  13.289  66.247  1.00  0.00    -0.288 NA 
BRANCH   8   9
HETATM    9  C   UNL     1      -9.852  14.574  65.471  1.00  0.00    -0.285 C  
HETATM   10  O   UNL     1     -12.032  15.223  66.250  1.00  0.00     0.066 OA 
HETATM   11  C   UNL     1     -11.140  15.362  65.241  1.00  0.00    -0.360 C  
HETATM   12  O   UNL     1     -11.345  16.067  64.265  1.00  0.00    -0.484 OA 
ENDBRANCH   8   9
BRANCH   8  13
HETATM   13  C   UNL     1     -11.491  12.839  65.943  1.00  0.00    -0.356 C  
HETATM   14  O   UNL     1     -10.526  11.667  64.088  1.00  0.00    -0.291 OA 
HETATM   15  O   UNL     1     -12.671  12.365  63.875  1.00  0.00    -0.673 OA 
HETATM   16  C   UNL     1     -11.642  12.295  64.526  1.00  0.00    -0.353 C  
ENDBRANCH   8  13
ENDBRANCH   7   8
ENDBRANCH   6   7
ENDBRANCH   5   6
BRANCH   5  17
HETATM   17  C   UNL     1     -10.443  16.259  69.439  1.00  0.00    -0.292 C  
BRANCH  17  18
HETATM   18  C   UNL     1      -9.854  15.528  70.679  1.00  0.00     0.759 C  
BRANCH  18  19
HETATM   19  N   UNL     1     -10.875  14.922  71.612  1.00  0.00     0.278 NA 
BRANCH  19  20
HETATM   20  C   UNL     1     -11.863  14.149  70.758  1.00  0.00    -0.242 C  
HETATM   21  O   UNL     1     -14.271  14.284  70.458  1.00  0.00     0.601 OA 
HETATM   22  O   UNL     1     -13.102  16.209  70.687  1.00  0.00    -0.096 OA 
HETATM   23  C   UNL     1     -13.208  14.860  70.630  1.00  0.00    -0.274 C  
ENDBRANCH  19  20
BRANCH  19  24
HETATM   24  C   UNL     1     -11.646  16.053  72.257  1.00  0.00    -0.369 C  
HETATM   25  C   UNL     1     -12.591  15.577  73.355  1.00  0.00    -0.525 C  
HETATM   26  O   UNL     1     -13.627  16.147  73.660  1.00  0.00    -0.584 OA 
HETATM   27  O   UNL     1     -12.123  14.491  74.015  1.00  0.00    -0.372 OA 
ENDBRANCH  19  24
ENDBRANCH  18  19
ENDBRANCH  17  18
ENDBRANCH   5  17
ENDBRANCH   3   5
TORSDOF 11
ENDMDL
MODEL      451
REMARK 921   NORMALIZED FREE ENERGY PREDICTED BY IDOCK:    0.94 KCAL/MOL
REMARK 922        TOTAL FREE ENERGY PREDICTED BY IDOCK:   -0.20 KCAL/MOL
REMARK 923 INTER-LIGAND FREE ENERGY PREDICTED BY IDOCK:   -4.99 KCAL/MOL
REMARK 924 INTRA-LIGAND FREE ENERGY PREDICTED BY IDOCK:    4.79 KCAL/MOL
REMARK 927      BINDING AFFINITY PREDICTED BY RF-SCORE:    0.00 PKD
ROOT
HETATM    1  O   UNL     1     -10.344  15.542  65.440  1.00  0.00    -0.350 OA 
HETATM    2  C   UNL     1     -11.335  14.675  65.752  1.00  0.00    -0.340 C  
HETATM    3  C   UNL     1     -11.012  13.829  66.981  1.00  0.00    -0.290 C  
HETATM    4  O   UNL     1     -12.356  14.556  65.090  1.00  0.00    -0.384 OA 
ENDROOT
BRANCH   3   5
HETATM    5  N   UNL     1     -10.158  14.558  67.983  1.00  0.00    -0.222 NA 
BRANCH   5   6
HETATM    6  C   UNL     1      -9.118  13.615  68.517  1.00  0.00    -0.112 C  
BRANCH   6   7
HETATM    7  C   UNL     1      -9.419  12.109  68.253  1.00  0.00    -0.204 C  
BRANCH   7   8
HETATM    8  N   UNL     1      -8.273  11.277  67.745  1.00  0.00    -0.117 NA 
BRANCH   8   9
HETATM    9  C   UNL     1      -8.219  11.455  66.238  1.00  0.00    -0.088 C  
HETATM   10  O   UNL     1     -10.273  10.204  66.198  1.00  0.00    -0.242 OA 
HETATM   11  C   UNL     1      -9.151  10.496  65.499  1.00  0.00    -0.186 C  
HETATM   12  O   UNL     1      -8.930  10.054  64.382  1.00  0.00    -0.193 OA 
ENDBRANCH   8   9
BRANCH   8  13
HETATM   13  C   UNL     1      -8.603   9.826  68.005  1.00  0.00    -0.122 C  
HETATM   14  O   UNL     1      -6.386   9.667  68.903  1.00  0.00    -0.042 OA 
HETATM   15  O   UNL     1      -7.274   7.794  67.988  1.00  0.00    -0.082 OA 
HETATM   16  C   UNL     1      -7.363   8.978  68.267  1.00  0.00    -0.082 C  
ENDBRANCH   8  13
ENDBRANCH   7   8
ENDBRANCH   6   7
ENDBRANCH   5   6
BRANCH   5  17
HETATM   17  C   UNL     1      -9.459  15.686  67.288  1.00  0.00    -0.216 C  
BRANCH  17  18
HETATM   18  C   UNL     1      -8.083  16.125  67.865  1.00  0.00    -0.145 C  
BRANCH  18  19
HETATM   19  N   UNL     1      -7.644  17.520  67.486  1.00  0.00    -0.194 NA 
BRANCH  19  20
HETATM   20  C   UNL     1      -7.596  18.339  68.763  1.00  0.00    -0.279 C  
HETATM   21  O   UNL     1      -6.229  18.225  70.769  1.00  0.00     0.308 OA 
HETATM   22  O   UNL     1      -5.248  17.820  68.769  1.00  0.00    -0.152 OA 
HETATM   23  C   UNL     1      -6.310  18.115  69.555  1.00  0.00    -0.220 C  
ENDBRANCH  19  20
BRANCH  19  24
HETATM   24  C   UNL     1      -8.722  18.129  66.617  1.00  0.00    -0.264 C  
HETATM   25  C   UNL     1     -10.008  18.422  67.383  1.00  0.00    -0.334 C  
HETATM   26  O   UNL     1     -11.119  18.425  66.877  1.00  0.00    -0.086 OA 
HETATM   27  O   UNL     1      -9.783  18.754  68.676  1.00  0.00    -0.354 OA 
ENDBRANCH  19  24
ENDBRANCH  18  19
ENDBRANCH  17  18
ENDBRANCH   5  17
ENDBRANCH   3   5
TORSDOF 11
ENDMDL
MODEL      452
REMARK 921   NORMALIZED FREE ENERGY PREDICTED BY IDOCK:    1.35 KCAL/MOL
REMARK 922        TOTAL FREE ENERGY PREDICTED BY IDOCK:    0.47 KCAL/MOL
REMARK 923 INTER-LIGAND FREE ENERGY PREDICTED BY IDOCK:    0.26 KCAL/MOL
REMARK 924 INTRA-LIGAND FREE ENERGY PREDICTED BY IDOCK:    0.21 KCAL/MOL
REMARK 927      BINDING AFFINITY PREDICTED BY RF-SCORE:    0.00 PKD
ROOT
HETATM    1  O   UNL     1     -11.492   5.636  64.625  1.00  0.00     2.962 OA 
HETATM    2  C   UNL     1     -10.808   4.477  64.764  1.00  0.00     0.065 C  
HETATM    3  C   UNL     1      -9.361   4.696  65.201  1.00  0.00    -0.150 C  
HETATM    4  O   UNL     1     -11.288   3.380  64.519  1.00  0.00     0.131 OA 
ENDROOT
BRANCH   3   5
HETATM    5  N   UNL     1      -9.195   5.906  66.081  1.00  0.00    -0.160 NA 
BRANCH   5   6
HETATM    6  C   UNL     1      -9.534   5.532  67.495  1.00  0.00    -0.117 C  
BRANCH   6   7
HETATM    7  C   UNL     1     -10.877   6.130  68.014  1.00  0.00    -0.313 C  
BRANCH   7   8
HETATM    8  N   UNL     1     -10.816   7.527  68.568  1.00  0.00    -0.058 NA 
BRANCH   8   9
HETATM    9  C   UNL     1     -10.701   8.476  67.388  1.00  0.00    -0.145 C  
HETATM   10  O   UNL     1     -10.685  10.231  69.032  1.00  0.00    -0.202 OA 
HETATM   11  C   UNL     1     -11.030   9.921  67.760  1.00  0.00    -0.217 C  
HETATM   12  O   UNL     1     -11.528  10.728  66.991  1.00  0.00    -0.349 OA 
ENDBRANCH   8   9
BRANCH   8  13
HETATM   13  C   UNL     1      -9.537   7.657  69.361  1.00  0.00    -0.159 C  
HETATM   14  O   UNL     1     -10.872   7.088  71.270  1.00  0.00    -0.231 OA 
HETATM   15  O   UNL     1      -9.056   8.395  71.624  1.00  0.00    -0.164 OA 
HETATM   16  C   UNL     1      -9.785   7.783  70.861  1.00  0.00    -0.168 C  
ENDBRANCH   8  13
ENDBRANCH   7   8
ENDBRANCH   6   7
ENDBRANCH   5   6
BRANCH   5  17
HETATM   17  C   UNL     1      -7.761   6.336  66.039  1.00  0.00    -0.092 C  
BRANCH  17  18
HETATM   18  C   UNL     1      -6.768   5.573  66.961  1.00  0.00    -0.062 C  
BRANCH  18  19
HETATM   19  N   UNL     1      -6.709   4.079  66.743  1.00  0.00    -0.046 NA 
BRANCH  19  20
HETATM   20  C   UNL     1      -6.107   3.466  67.995  1.00  0.00    -0.031 C  
HETATM   21  O   UNL     1      -6.976   1.976  69.706  1.00  0.00    -0.033 OA 
HETATM   22  O   UNL     1      -7.583   1.619  67.555  1.00  0.00    -0.057 OA 
HETATM   23  C   UNL     1      -6.932   2.297  68.529  1.00  0.00    -0.040 C  
ENDBRANCH  19  20
BRANCH  19  24
HETATM   24  C   UNL     1      -5.737   3.810  65.615  1.00  0.00    -0.018 C  
HETATM   25  C   UNL     1      -6.055   2.530  64.849  1.00  0.00    -0.019 C  
HETATM   26  O   UNL     1      -5.217   1.849  64.280  1.00  0.00    -0.004 OA 
HETATM   27  O   UNL     1      -7.381   2.264  64.802  1.00  0.00    -0.059 OA 
ENDBRANCH  19  24
ENDBRANCH  18  19
ENDBRANCH  17  18
ENDBRANCH   5  17
ENDBRANCH   3   5
TORSDOF 11
ENDMDL
MODEL      453
REMARK 921   NORMALIZED FREE ENERGY PREDICTED BY IDOCK:    1.57 KCAL/MOL
REMARK 922        TOTAL FREE ENERGY PREDICTED BY IDOCK:    0.85 KCAL/MOL
REMARK 923 INTER-LIGAND FREE ENERGY PREDICTED BY IDOCK:   -5.48 KCAL/MOL
REMARK 924 INTRA-LIGAND FREE ENERGY PREDICTED BY IDOCK:    6.32 KCAL/MOL
REMARK 927      BINDING AFFINITY PREDICTED BY RF-SCORE:    0.00 PKD
ROOT
HETATM    1  O   UNL     1      -8.703  19.650  67.778  1.00  0.00    -0.309 OA 
HETATM    2  C   UNL     1      -9.993  19.507  68.161  1.00  0.00    -0.418 C  
HETATM    3  C   UNL     1     -10.711  18.391  67.407  1.00  0.00    -0.361 C  
HETATM    4  O   UNL     1     -10.531  20.228  68.989  1.00  0.00    -0.252 OA 
ENDROOT
BRANCH   3   5
HETATM    5  N   UNL     1      -9.795  17.259  67.029  1.00  0.00    -0.271 NA 
BRANCH   5   6
HETATM    6  C   UNL     1      -8.867  16.978  68.175  1.00  0.00    -0.227 C  
BRANCH   6   7
HETATM    7  C   UNL     1      -7.631  16.104  67.804  1.00  0.00    -0.138 C  
BRANCH   7   8
HETATM    8  N   UNL     1      -6.603  16.744  66.910  1.00  0.00    -0.199 NA 
BRANCH   8   9
HETATM    9  C   UNL     1      -5.850  17.762  67.748  1.00  0.00    -0.146 C  
HETATM   10  O   UNL     1      -6.306  16.306  69.605  1.00  0.00    -0.189 OA 
HETATM   11  C   UNL     1      -6.099  17.594  69.245  1.00  0.00    -0.233 C  
HETATM   12  O   UNL     1      -6.090  18.515  70.047  1.00  0.00    -0.222 OA 
ENDBRANCH   8   9
BRANCH   8  13
HETATM   13  C   UNL     1      -7.336  17.514  65.837  1.00  0.00    -0.145 C  
HETATM   14  O   UNL     1      -5.169  18.281  65.157  1.00  0.00    -0.160 OA 
HETATM   15  O   UNL     1      -6.930  19.651  64.758  1.00  0.00    -0.325 OA 
HETATM   16  C   UNL     1      -6.481  18.611  65.212  1.00  0.00    -0.236 C  
ENDBRANCH   8  13
ENDBRANCH   7   8
ENDBRANCH   6   7
ENDBRANCH   5   6
BRANCH   5  17
HETATM   17  C   UNL     1     -10.622  16.035  66.782  1.00  0.00    -0.297 C  
BRANCH  17  18
HETATM   18  C   UNL     1     -10.051  14.682  67.296  1.00  0.00    -0.236 C  
BRANCH  18  19
HETATM   19  N   UNL     1     -11.080  13.606  67.550  1.00  0.00    -0.271 NA 
BRANCH  19  20
HETATM   20  C   UNL     1     -10.976  13.222  69.015  1.00  0.00    -0.206 C  
HETATM   21  O   UNL     1     -10.552  14.488  71.046  1.00  0.00     0.541 OA 
HETATM   22  O   UNL     1     -11.853  15.419  69.445  1.00  0.00    -0.322 OA 
HETATM   23  C   UNL     1     -11.079  14.428  69.946  1.00  0.00    -0.121 C  
ENDBRANCH  19  20
BRANCH  19  24
HETATM   24  C   UNL     1     -10.685  12.385  66.750  1.00  0.00    -0.234 C  
HETATM   25  C   UNL     1      -9.724  11.468  67.499  1.00  0.00    -0.179 C  
HETATM   26  O   UNL     1      -8.902  10.748  66.955  1.00  0.00    -0.137 OA 
HETATM   27  O   UNL     1      -9.927  11.478  68.838  1.00  0.00    -0.187 OA 
ENDBRANCH  19  24
ENDBRANCH  18  19
ENDBRANCH  17  18
ENDBRANCH   5  17
ENDBRANCH   3   5
TORSDOF 11
ENDMDL
MODEL      454
REMARK 921   NORMALIZED FREE ENERGY PREDICTED BY IDOCK:    1.97 KCAL/MOL
REMARK 922        TOTAL FREE ENERGY PREDICTED BY IDOCK:    1.50 KCAL/MOL
REMARK 923 INTER-LIGAND FREE ENERGY PREDICTED BY IDOCK:   -5.56 KCAL/MOL
REMARK 924 INTRA-LIGAND FREE ENERGY PREDICTED BY IDOCK:    7.06 KCAL/MOL
REMARK 927      BINDING AFFINITY PREDICTED BY RF-SCORE:    0.00 PKD
ROOT
HETATM    1  O   UNL     1     -11.193  16.065  65.690  1.00  0.00    -0.116 OA 
HETATM    2  C   UNL     1     -10.444  17.189  65.595  1.00  0.00    -0.197 C  
HETATM    3  C   UNL     1      -9.155  17.107  66.408  1.00  0.00    -0.256 C  
HETATM    4  O   UNL     1     -10.791  18.175  64.962  1.00  0.00    -0.707 OA 
ENDROOT
BRANCH   3   5
HETATM    5  N   UNL     1      -8.604  15.709  66.489  1.00  0.00    -0.287 NA 
BRANCH   5   6
HETATM    6  C   UNL     1      -7.583  15.649  67.589  1.00  0.00    -0.158 C  
BRANCH   6   7
HETATM    7  C   UNL     1      -6.644  14.407  67.529  1.00  0.00    -0.076 C  
BRANCH   7   8
HETATM    8  N   UNL     1      -7.233  13.100  67.987  1.00  0.00    -0.109 NA 
BRANCH   8   9
HETATM    9  C   UNL     1      -6.423  12.636  69.185  1.00  0.00    -0.106 C  
HETATM   10  O   UNL     1      -7.247  14.612  70.281  1.00  0.00     0.020 OA 
HETATM   11  C   UNL     1      -6.211  13.743  70.217  1.00  0.00    -0.090 C  
HETATM   12  O   UNL     1      -5.226  13.828  70.934  1.00  0.00    -0.109 OA 
ENDBRANCH   8   9
BRANCH   8  13
HETATM   13  C   UNL     1      -7.018  12.084  66.891  1.00  0.00    -0.033 C  
HETATM   14  O   UNL     1      -5.630  10.936  68.473  1.00  0.00    -0.044 OA 
HETATM   15  O   UNL     1      -5.133  10.680  66.277  1.00  0.00    -0.051 OA 
HETATM   16  C   UNL     1      -5.818  11.179  67.155  1.00  0.00    -0.072 C  
ENDBRANCH   8  13
ENDBRANCH   7   8
ENDBRANCH   6   7
ENDBRANCH   5   6
BRANCH   5  17
HETATM   17  C   UNL     1      -9.721  14.772  66.832  1.00  0.00    -0.240 C  
BRANCH  17  18
HETATM   18  C   UNL     1     -10.393  14.014  65.652  1.00  0.00    -0.329 C  
BRANCH  18  19
HETATM   19  N   UNL     1     -11.241  12.829  66.050  1.00  0.00    -0.288 NA 
BRANCH  19  20
HETATM   20  C   UNL     1     -10.526  11.581  65.561  1.00  0.00    -0.275 C  
HETATM   21  O   UNL     1      -9.584   9.648  66.692  1.00  0.00    -0.166 OA 
HETATM   22  O   UNL     1     -11.531  10.507  67.463  1.00  0.00    -0.431 OA 
HETATM   23  C   UNL     1     -10.470  10.486  66.623  1.00  0.00    -0.228 C  
ENDBRANCH  19  20
BRANCH  19  24
HETATM   24  C   UNL     1     -12.545  12.911  65.288  1.00  0.00    -0.439 C  
HETATM   25  C   UNL     1     -12.381  12.641  63.796  1.00  0.00    -0.478 C  
HETATM   26  O   UNL     1     -13.103  13.112  62.933  1.00  0.00     0.122 OA 
HETATM   27  O   UNL     1     -11.389  11.758  63.531  1.00  0.00    -0.418 OA 
ENDBRANCH  19  24
ENDBRANCH  18  19
ENDBRANCH  17  18
ENDBRANCH   5  17
ENDBRANCH   3   5
TORSDOF 11
ENDMDL
MODEL      455
REMARK 921   NORMALIZED FREE ENERGY PREDICTED BY IDOCK:    2.69 KCAL/MOL
REMARK 922        TOTAL FREE ENERGY PREDICTED BY IDOCK:    2.68 KCAL/MOL
REMARK 923 INTER-LIGAND FREE ENERGY PREDICTED BY IDOCK:   -4.41 KCAL/MOL
REMARK 924 INTRA-LIGAND FREE ENERGY PREDICTED BY IDOCK:    7.09 KCAL/MOL
REMARK 927      BINDING AFFINITY PREDICTED BY RF-SCORE:    0.00 PKD
ROOT
HETATM    1  O   UNL     1     -11.192  16.066  65.690  1.00  0.00    -0.116 OA 
HETATM    2  C   UNL     1     -10.440  17.187  65.591  1.00  0.00    -0.197 C  
HETATM    3  C   UNL     1      -9.153  17.107  66.409  1.00  0.00    -0.256 C  
HETATM    4  O   UNL     1     -10.782  18.171  64.951  1.00  0.00    -0.466 OA 
ENDROOT
BRANCH   3   5
HETATM    5  N   UNL     1      -8.606  15.708  66.500  1.00  0.00    -0.287 NA 
BRANCH   5   6
HETATM    6  C   UNL     1      -7.589  15.652  67.603  1.00  0.00    -0.158 C  
BRANCH   6   7
HETATM    7  C   UNL     1      -6.655  14.405  67.555  1.00  0.00    -0.076 C  
BRANCH   7   8
HETATM    8  N   UNL     1      -7.254  13.104  68.016  1.00  0.00    -0.109 NA 
BRANCH   8   9
HETATM    9  C   UNL     1      -6.455  12.643  69.222  1.00  0.00    -0.106 C  
HETATM   10  O   UNL     1      -7.277  14.629  70.300  1.00  0.00     0.020 OA 
HETATM   11  C   UNL     1      -6.245  13.754  70.250  1.00  0.00    -0.090 C  
HETATM   12  O   UNL     1      -5.265  13.839  70.973  1.00  0.00    -0.117 OA 
ENDBRANCH   8   9
BRANCH   8  13
HETATM   13  C   UNL     1      -7.034  12.080  66.927  1.00  0.00    -0.033 C  
HETATM   14  O   UNL     1      -5.664  10.935  68.526  1.00  0.00    -0.044 OA 
HETATM   15  O   UNL     1      -5.151  10.666  66.335  1.00  0.00    -0.048 OA 
HETATM   16  C   UNL     1      -5.841  11.172  67.205  1.00  0.00    -0.063 C  
ENDBRANCH   8  13
ENDBRANCH   7   8
ENDBRANCH   6   7
ENDBRANCH   5   6
BRANCH   5  17
HETATM   17  C   UNL     1      -9.727  14.776  66.847  1.00  0.00    -0.240 C  
BRANCH  17  18
HETATM   18  C   UNL     1      -9.674  13.350  66.229  1.00  0.00    -0.272 C  
BRANCH  18  19
HETATM   19  N   UNL     1     -10.466  13.172  64.955  1.00  0.00    -0.327 NA 
BRANCH  19  20
HETATM   20  C   UNL     1     -11.634  12.255  65.276  1.00  0.00    -0.355 C  
HETATM   21  O   UNL     1     -13.905  12.087  64.428  1.00  0.00     0.058 OA 
HETATM   22  O   UNL     1     -12.238  12.553  62.968  1.00  0.00    -0.340 OA 
HETATM   23  C   UNL     1     -12.722  12.298  64.206  1.00  0.00    -0.315 C  
ENDBRANCH  19  20
BRANCH  19  24
HETATM   24  C   UNL     1      -9.594  12.436  63.962  1.00  0.00     0.153 C  
HETATM   25  C   UNL     1      -9.359  10.978  64.344  1.00  0.00    -0.195 C  
HETATM   26  O   UNL     1      -8.361  10.345  64.039  1.00  0.00    -0.166 OA 
HETATM   27  O   UNL     1     -10.412  10.431  64.996  1.00  0.00    -0.262 OA 
ENDBRANCH  19  24
ENDBRANCH  18  19
ENDBRANCH  17  18
ENDBRANCH   5  17
ENDBRANCH   3   5
TORSDOF 11
ENDMDL
MODEL      456
REMARK 921   NORMALIZED FREE ENERGY PREDICTED BY IDOCK:    2.73 KCAL/MOL
REMARK 922        TOTAL FREE ENERGY PREDICTED BY IDOCK:    2.74 KCAL/MOL
REMARK 923 INTER-LIGAND FREE ENERGY PREDICTED BY IDOCK:   -1.10 KCAL/MOL
REMARK 924 INTRA-LIGAND FREE ENERGY PREDICTED BY IDOCK:    3.85 KCAL/MOL
REMARK 927      BINDING AFFINITY PREDICTED BY RF-SCORE:    0.00 PKD
ROOT
HETATM    1  O   UNL     1     -11.743  15.891  66.018  1.00  0.00     0.372 OA 
HETATM    2  C   UNL     1     -11.013  16.191  64.919  1.00  0.00    -0.349 C  
HETATM    3  C   UNL     1      -9.596  15.627  64.982  1.00  0.00     0.553 C  
HETATM    4  O   UNL     1     -11.435  16.879  64.000  1.00  0.00    -1.130 OA 
ENDROOT
BRANCH   3   5
HETATM    5  N   UNL     1      -9.517  14.330  65.740  1.00  0.00    -0.143 NA 
BRANCH   5   6
HETATM    6  C   UNL     1      -9.409  13.197  64.760  1.00  0.00     0.840 C  
BRANCH   6   7
HETATM    7  C   UNL     1      -9.723  11.794  65.362  1.00  0.00    -0.217 C  
BRANCH   7   8
HETATM    8  N   UNL     1      -8.619  11.141  66.148  1.00  0.00    -0.176 NA 
BRANCH   8   9
HETATM    9  C   UNL     1      -8.303   9.819  65.470  1.00  0.00    -0.136 C  
HETATM   10  O   UNL     1      -7.502  11.156  63.640  1.00  0.00     0.542 OA 
HETATM   11  C   UNL     1      -8.064   9.970  63.969  1.00  0.00    -0.153 C  
HETATM   12  O   UNL     1      -8.326   9.107  63.146  1.00  0.00    -0.172 OA 
ENDBRANCH   8   9
BRANCH   8  13
HETATM   13  C   UNL     1      -9.159  10.812  67.520  1.00  0.00    -0.139 C  
HETATM   14  O   UNL     1      -8.811   8.520  66.913  1.00  0.00    -0.131 OA 
HETATM   15  O   UNL     1     -10.473   8.963  68.387  1.00  0.00    -0.210 OA 
HETATM   16  C   UNL     1      -9.580   9.352  67.653  1.00  0.00    -0.134 C  
ENDBRANCH   8  13
ENDBRANCH   7   8
ENDBRANCH   6   7
ENDBRANCH   5   6
BRANCH   5  17
HETATM   17  C   UNL     1      -8.281  14.342  66.585  1.00  0.00     0.323 C  
BRANCH  17  18
HETATM   18  C   UNL     1      -8.390  15.006  67.987  1.00  0.00    -0.148 C  
BRANCH  18  19
HETATM   19  N   UNL     1      -9.297  16.212  68.057  1.00  0.00    -0.202 NA 
BRANCH  19  20
HETATM   20  C   UNL     1      -8.636  17.218  68.982  1.00  0.00    -0.078 C  
HETATM   21  O   UNL     1      -7.533  19.352  68.610  1.00  0.00    -0.323 OA 
HETATM   22  O   UNL     1      -9.376  18.862  67.390  1.00  0.00    -0.286 OA 
HETATM   23  C   UNL     1      -8.431  18.577  68.317  1.00  0.00    -0.318 C  
ENDBRANCH  19  20
BRANCH  19  24
HETATM   24  C   UNL     1     -10.587  15.787  68.725  1.00  0.00    -0.239 C  
HETATM   25  C   UNL     1     -10.375  15.239  70.132  1.00  0.00    -0.187 C  
HETATM   26  O   UNL     1     -11.101  14.411  70.659  1.00  0.00    -0.026 OA 
HETATM   27  O   UNL     1      -9.334  15.823  70.770  1.00  0.00     1.165 OA 
ENDBRANCH  19  24
ENDBRANCH  18  19
ENDBRANCH  17  18
ENDBRANCH   5  17
ENDBRANCH   3   5
TORSDOF 11
ENDMDL
MODEL      457
REMARK 921   NORMALIZED FREE ENERGY PREDICTED BY IDOCK:   10.66 KCAL/MOL
REMARK 922        TOTAL FREE ENERGY PREDICTED BY IDOCK:   15.78 KCAL/MOL
REMARK 923 INTER-LIGAND FREE ENERGY PREDICTED BY IDOCK:   12.00 KCAL/MOL
REMARK 924 INTRA-LIGAND FREE ENERGY PREDICTED BY IDOCK:    3.78 KCAL/MOL
REMARK 927      BINDING AFFINITY PREDICTED BY RF-SCORE:    0.00 PKD
ROOT
HETATM    1  O   UNL     1     -10.626  20.773  65.739  1.00  0.00     0.352 OA 
HETATM    2  C   UNL     1      -9.394  20.239  65.905  1.00  0.00    -0.041 C  
HETATM    3  C   UNL     1      -9.185  19.664  67.304  1.00  0.00    -0.328 C  
HETATM    4  O   UNL     1      -8.530  20.261  65.040  1.00  0.00     0.327 OA 
ENDROOT
BRANCH   3   5
HETATM    5  N   UNL     1     -10.450  19.112  67.902  1.00  0.00    -0.407 NA 
BRANCH   5   6
HETATM    6  C   UNL     1     -10.481  17.625  67.693  1.00  0.00    -0.372 C  
BRANCH   6   7
HETATM    7  C   UNL     1     -11.482  17.150  66.597  1.00  0.00     1.134 C  
BRANCH   7   8
HETATM    8  N   UNL     1     -11.172  15.837  65.932  1.00  0.00    -0.088 NA 
BRANCH   8   9
HETATM    9  C   UNL     1     -12.032  14.779  66.601  1.00  0.00    -0.183 C  
HETATM   10  O   UNL     1     -11.629  13.462  64.630  1.00  0.00    -0.329 OA 
HETATM   11  C   UNL     1     -12.514  13.708  65.624  1.00  0.00    -0.496 C  
HETATM   12  O   UNL     1     -13.573  13.111  65.733  1.00  0.00     0.211 OA 
ENDBRANCH   8   9
BRANCH   8  13
HETATM   13  C   UNL     1      -9.734  15.490  66.238  1.00  0.00    -0.302 C  
HETATM   14  O   UNL     1      -9.748  14.345  64.132  1.00  0.00     0.890 OA 
HETATM   15  O   UNL     1      -8.348  13.561  65.732  1.00  0.00     1.440 OA 
HETATM   16  C   UNL     1      -9.206  14.351  65.373  1.00  0.00     0.729 C  
ENDBRANCH   8  13
ENDBRANCH   7   8
ENDBRANCH   6   7
ENDBRANCH   5   6
BRANCH   5  17
HETATM   17  C   UNL     1     -10.442  19.380  69.376  1.00  0.00     0.446 C  
BRANCH  17  18
HETATM   18  C   UNL     1      -9.359  18.650  70.220  1.00  0.00     2.047 C  
BRANCH  18  19
HETATM   19  N   UNL     1      -8.904  17.319  69.668  1.00  0.00     0.643 NA 
BRANCH  19  20
HETATM   20  C   UNL     1      -8.753  16.373  70.845  1.00  0.00     4.368 C  
HETATM   21  O   UNL     1     -10.232  14.741  71.874  1.00  0.00     1.615 OA 
HETATM   22  O   UNL     1     -10.239  14.934  69.618  1.00  0.00    -0.187 OA 
HETATM   23  C   UNL     1      -9.820  15.280  70.858  1.00  0.00     1.148 C  
ENDBRANCH  19  20
BRANCH  19  24
HETATM   24  C   UNL     1      -7.523  17.506  69.078  1.00  0.00    -0.179 C  
HETATM   25  C   UNL     1      -6.689  16.229  69.103  1.00  0.00    -0.196 C  
HETATM   26  O   UNL     1      -5.471  16.210  69.170  1.00  0.00    -0.110 OA 
HETATM   27  O   UNL     1      -7.440  15.111  68.966  1.00  0.00    -0.134 OA 
ENDBRANCH  19  24
ENDBRANCH  18  19
ENDBRANCH  17  18
ENDBRANCH   5  17
ENDBRANCH   3   5
TORSDOF 11
ENDMDL
MODEL      458
REMARK 921   NORMALIZED FREE ENERGY PREDICTED BY IDOCK:   12.55 KCAL/MOL
REMARK 922        TOTAL FREE ENERGY PREDICTED BY IDOCK:   18.88 KCAL/MOL
REMARK 923 INTER-LIGAND FREE ENERGY PREDICTED BY IDOCK:    8.37 KCAL/MOL
REMARK 924 INTRA-LIGAND FREE ENERGY PREDICTED BY IDOCK:   10.52 KCAL/MOL
REMARK 927      BINDING AFFINITY PREDICTED BY RF-SCORE:    0.00 PKD
ROOT
HETATM    1  O   UNL     1     -11.884  16.875  65.387  1.00  0.00     1.038 OA 
HETATM    2  C   UNL     1     -11.449  18.119  65.080  1.00  0.00     2.273 C  
HETATM    3  C   UNL     1     -10.209  18.521  65.875  1.00  0.00    -0.240 C  
HETATM    4  O   UNL     1     -12.019  18.853  64.285  1.00  0.00     4.128 OA 
ENDROOT
BRANCH   3   5
HETATM    5  N   UNL     1      -9.318  17.352  66.198  1.00  0.00    -0.464 NA 
BRANCH   5   6
HETATM    6  C   UNL     1      -8.455  17.706  67.374  1.00  0.00    -0.221 C  
BRANCH   6   7
HETATM    7  C   UNL     1      -7.600  16.525  67.923  1.00  0.00    -0.152 C  
BRANCH   7   8
HETATM    8  N   UNL     1      -6.106  16.700  67.874  1.00  0.00    -0.121 NA 
BRANCH   8   9
HETATM    9  C   UNL     1      -5.489  15.313  67.874  1.00  0.00    -0.119 C  
HETATM   10  O   UNL     1      -7.738  14.508  67.603  1.00  0.00    -0.147 OA 
HETATM   11  C   UNL     1      -6.519  14.210  68.110  1.00  0.00    -0.126 C  
HETATM   12  O   UNL     1      -6.273  13.155  68.673  1.00  0.00    -0.074 OA 
ENDBRANCH   8   9
BRANCH   8  13
HETATM   13  C   UNL     1      -5.676  17.373  69.156  1.00  0.00    -0.189 C  
HETATM   14  O   UNL     1      -5.150  15.165  69.928  1.00  0.00    -0.094 OA 
HETATM   15  O   UNL     1      -5.745  16.697  71.488  1.00  0.00     0.437 OA 
HETATM   16  C   UNL     1      -5.555  16.395  70.321  1.00  0.00    -0.176 C  
ENDBRANCH   8  13
ENDBRANCH   7   8
ENDBRANCH   6   7
ENDBRANCH   5   6
BRANCH   5  17
HETATM   17  C   UNL     1     -10.177  16.185  66.578  1.00  0.00    -0.297 C  
BRANCH  17  18
HETATM   18  C   UNL     1      -9.734  14.786  66.062  1.00  0.00    -0.321 C  
BRANCH  18  19
HETATM   19  N   UNL     1     -10.315  14.380  64.729  1.00  0.00    -0.402 NA 
BRANCH  19  20
HETATM   20  C   UNL     1     -11.722  13.870  64.988  1.00  0.00    -0.359 C  
HETATM   21  O   UNL     1     -13.931  14.706  64.418  1.00  0.00     2.422 OA 
HETATM   22  O   UNL     1     -12.270  14.919  62.895  1.00  0.00     1.014 OA 
HETATM   23  C   UNL     1     -12.763  14.546  64.100  1.00  0.00     0.206 C  
ENDBRANCH  19  20
BRANCH  19  24
HETATM   24  C   UNL     1      -9.515  13.206  64.209  1.00  0.00     1.058 C  
HETATM   25  C   UNL     1      -9.889  11.888  64.879  1.00  0.00    -0.199 C  
HETATM   26  O   UNL     1      -9.118  10.953  65.024  1.00  0.00    -0.197 OA 
HETATM   27  O   UNL     1     -11.194  11.832  65.232  1.00  0.00    -0.307 OA 
ENDBRANCH  19  24
ENDBRANCH  18  19
ENDBRANCH  17  18
ENDBRANCH   5  17
ENDBRANCH   3   5
TORSDOF 11
ENDMDL
MODEL      459
REMARK 921   NORMALIZED FREE ENERGY PREDICTED BY IDOCK:   45.58 KCAL/MOL
REMARK 922        TOTAL FREE ENERGY PREDICTED BY IDOCK:   73.15 KCAL/MOL
REMARK 923 INTER-LIGAND FREE ENERGY PREDICTED BY IDOCK:   52.63 KCAL/MOL
REMARK 924 INTRA-LIGAND FREE ENERGY PREDICTED BY IDOCK:   20.52 KCAL/MOL
REMARK 927      BINDING AFFINITY PREDICTED BY RF-SCORE:    0.00 PKD
ROOT
HETATM    1  O   UNL     1      -7.186  15.558  65.512  1.00  0.00     3.507 OA 
HETATM    2  C   UNL     1      -6.557  16.175  66.540  1.00  0.00     0.549 C  
HETATM    3  C   UNL     1      -7.531  16.826  67.518  1.00  0.00    -0.159 C  
HETATM    4  O   UNL     1      -5.341  16.239  66.642  1.00  0.00    -0.297 OA 
ENDROOT
BRANCH   3   5
HETATM    5  N   UNL     1      -8.834  16.082  67.628  1.00  0.00    -0.184 NA 
BRANCH   5   6
HETATM    6  C   UNL     1      -8.728  14.796  66.860  1.00  0.00    -0.236 C  
BRANCH   6   7
HETATM    7  C   UNL     1     -10.045  13.964  66.815  1.00  0.00    -0.265 C  
BRANCH   7   8
HETATM    8  N   UNL     1     -10.878  14.097  65.569  1.00  0.00    -0.298 NA 
BRANCH   8   9
HETATM    9  C   UNL     1     -11.045  15.581  65.294  1.00  0.00    -0.338 C  
HETATM   10  O   UNL     1     -10.320  15.899  67.564  1.00  0.00    -0.270 OA 
HETATM   11  C   UNL     1     -11.083  16.416  66.573  1.00  0.00     0.171 C  
HETATM   12  O   UNL     1     -11.712  17.456  66.691  1.00  0.00     1.361 OA 
ENDBRANCH   8   9
BRANCH   8  13
HETATM   13  C   UNL     1     -12.253  13.548  65.869  1.00  0.00    -0.460 C  
HETATM   14  O   UNL     1     -13.020  15.800  65.575  1.00  0.00     1.646 OA 
HETATM   15  O   UNL     1     -14.202  14.475  66.983  1.00  0.00     6.785 OA 
HETATM   16  C   UNL     1     -13.256  14.639  66.231  1.00  0.00     1.552 C  
ENDBRANCH   8  13
ENDBRANCH   7   8
ENDBRANCH   6   7
ENDBRANCH   5   6
BRANCH   5  17
HETATM   17  C   UNL     1      -9.078  15.752  69.068  1.00  0.00    -0.245 C  
BRANCH  17  18
HETATM   18  C   UNL     1      -8.978  14.255  69.476  1.00  0.00     0.575 C  
BRANCH  18  19
HETATM   19  N   UNL     1     -10.098  13.752  70.356  1.00  0.00     2.083 NA 
BRANCH  19  20
HETATM   20  C   UNL     1      -9.464  13.204  71.622  1.00  0.00    14.252 C  
HETATM   21  O   UNL     1      -7.900  11.395  72.056  1.00  0.00     8.572 OA 
HETATM   22  O   UNL     1      -7.592  12.669  70.210  1.00  0.00     1.681 OA 
HETATM   23  C   UNL     1      -8.258  12.313  71.334  1.00  0.00    12.291 C  
ENDBRANCH  19  20
BRANCH  19  24
HETATM   24  C   UNL     1     -10.753  12.582  69.655  1.00  0.00     0.461 C  
HETATM   25  C   UNL     1     -12.265  12.542  69.852  1.00  0.00    -0.163 C  
HETATM   26  O   UNL     1     -12.928  11.518  69.843  1.00  0.00     0.196 OA 
HETATM   27  O   UNL     1     -12.811  13.776  69.965  1.00  0.00    -0.132 OA 
ENDBRANCH  19  24
ENDBRANCH  18  19
ENDBRANCH  17  18
ENDBRANCH   5  17
ENDBRANCH   3   5
TORSDOF 11
ENDMDL
