MODEL        1
REMARK 921   NORMALIZED FREE ENERGY PREDICTED BY IDOCK:   -7.52 KCAL/MOL
REMARK 922        TOTAL FREE ENERGY PREDICTED BY IDOCK:   -9.09 KCAL/MOL
REMARK 923 INTER-LIGAND FREE ENERGY PREDICTED BY IDOCK:   -8.40 KCAL/MOL
REMARK 924 INTRA-LIGAND FREE ENERGY PREDICTED BY IDOCK:   -0.69 KCAL/MOL
REMARK 927      BINDING AFFINITY PREDICTED BY RF-SCORE:    0.00 PKD
ROOT
HETATM    1  O5* UNL     1     -11.309  16.699  63.835  1.00  0.00    -1.558 OA 
HETATM    2  C5* UNL     1     -10.648  16.117  64.959  1.00  0.00    -0.276 C  
HETATM    3  H5* UNL     1     -11.137  17.631  63.781  1.00  0.00     0.000 HD 
ENDROOT
BRANCH   2   4
HETATM    4  C4* UNL     1     -10.926  14.617  65.046  1.00  0.00    -0.405 C  
HETATM    5  O4* UNL     1     -10.624  14.145  66.373  1.00  0.00    -0.275 OA 
HETATM    6  C1* UNL     1     -11.494  13.030  66.642  1.00  0.00    -0.336 C  
HETATM    7  H3* UNL     1     -13.402  13.469  63.277  1.00  0.00     0.000 HD 
HETATM    8  C2* UNL     1     -12.755  13.242  65.815  1.00  0.00    -0.300 C  
HETATM    9  C3* UNL     1     -12.377  14.255  64.761  1.00  0.00    -0.426 C  
HETATM   10  O3* UNL     1     -12.496  13.695  63.455  1.00  0.00    -0.784 OA 
BRANCH   6  11
HETATM   11  N   UNL     1     -11.731  12.919  68.071  1.00  0.00    -0.343 NA 
HETATM   12  C   UNL     1     -11.686  11.782  68.829  1.00  0.00    -0.329 A  
HETATM   13  C   UNL     1     -12.202  13.375  70.152  1.00  0.00    -0.315 A  
HETATM   14  N   UNL     1     -11.961  12.020  70.091  1.00  0.00    -0.345 NA 
HETATM   15  C   UNL     1     -12.033  13.967  68.911  1.00  0.00    -0.358 A  
HETATM   16  N   UNL     1     -12.087  15.248  68.474  1.00  0.00    -0.572 NA 
HETATM   17  C   UNL     1     -11.647  16.141  69.296  1.00  0.00    -0.270 C  
HETATM   18  H   UNL     1     -12.452  15.492  67.553  1.00  0.00     0.000 HD 
HETATM   19  N   UNL     1     -11.141  16.048  70.572  1.00  0.00    -0.360 NA 
HETATM   20  C   UNL     1     -11.882  15.412  71.669  1.00  0.00    -0.401 C  
HETATM   21  H   UNL     1     -10.218  16.436  70.763  1.00  0.00     0.000 HD 
HETATM   22  C   UNL     1     -12.592  14.060  71.411  1.00  0.00    -0.372 C  
HETATM   23  O   UNL     1     -14.019  14.267  71.460  1.00  0.00    -0.380 OA 
HETATM   24  H   UNL     1     -14.269  14.705  72.265  1.00  0.00     0.000 HD 
ENDBRANCH   6  11
ENDBRANCH   2   4
TORSDOF 2
ENDMDL
MODEL        2
REMARK 921   NORMALIZED FREE ENERGY PREDICTED BY IDOCK:   -6.75 KCAL/MOL
REMARK 922        TOTAL FREE ENERGY PREDICTED BY IDOCK:   -8.23 KCAL/MOL
REMARK 923 INTER-LIGAND FREE ENERGY PREDICTED BY IDOCK:   -7.49 KCAL/MOL
REMARK 924 INTRA-LIGAND FREE ENERGY PREDICTED BY IDOCK:   -0.73 KCAL/MOL
REMARK 927      BINDING AFFINITY PREDICTED BY RF-SCORE:    0.00 PKD
ROOT
HETATM    1  O5* UNL     1     -11.557  16.433  63.708  1.00  0.00    -1.605 OA 
HETATM    2  C5* UNL     1     -12.049  15.119  63.970  1.00  0.00    -0.049 C  
HETATM    3  H5* UNL     1     -12.100  16.882  63.071  1.00  0.00     0.000 HD 
ENDROOT
BRANCH   2   4
HETATM    4  C4* UNL     1     -11.174  14.397  64.994  1.00  0.00    -0.375 C  
HETATM    5  O4* UNL     1     -10.122  15.274  65.435  1.00  0.00    -0.354 OA 
HETATM    6  C1* UNL     1      -9.793  14.907  66.789  1.00  0.00    -0.246 C  
HETATM    7  H3* UNL     1     -12.654  12.273  66.963  1.00  0.00     0.000 HD 
HETATM    8  C2* UNL     1     -11.052  14.310  67.403  1.00  0.00    -0.314 C  
HETATM    9  C3* UNL     1     -11.938  13.954  66.234  1.00  0.00    -0.434 C  
HETATM   10  O3* UNL     1     -12.177  12.549  66.190  1.00  0.00    -0.609 OA 
BRANCH   6  11
HETATM   11  N   UNL     1      -9.270  16.060  67.503  1.00  0.00    -0.210 NA 
HETATM   12  C   UNL     1      -8.228  16.079  68.387  1.00  0.00    -0.165 A  
HETATM   13  C   UNL     1      -8.968  18.078  68.273  1.00  0.00    -0.282 A  
HETATM   14  N   UNL     1      -8.014  17.282  68.870  1.00  0.00    -0.235 NA 
HETATM   15  C   UNL     1      -9.745  17.347  67.390  1.00  0.00    -0.269 A  
HETATM   16  N   UNL     1     -10.742  17.675  66.534  1.00  0.00    -0.176 NA 
HETATM   17  C   UNL     1     -10.631  18.825  65.958  1.00  0.00    -0.386 C  
HETATM   18  H   UNL     1     -11.530  17.053  66.355  1.00  0.00     0.000 HD 
HETATM   19  N   UNL     1      -9.687  19.821  66.061  1.00  0.00    -0.396 NA 
HETATM   20  C   UNL     1      -9.329  20.437  67.346  1.00  0.00    -0.402 C  
HETATM   21  H   UNL     1      -9.219  20.142  65.215  1.00  0.00     0.000 HD 
HETATM   22  C   UNL     1      -9.101  19.526  68.577  1.00  0.00    -0.352 C  
HETATM   23  O   UNL     1     -10.163  19.753  69.527  1.00  0.00    -0.633 OA 
HETATM   24  H   UNL     1     -10.249  20.679  69.722  1.00  0.00     0.000 HD 
ENDBRANCH   6  11
ENDBRANCH   2   4
TORSDOF 2
ENDMDL
MODEL        3
REMARK 921   NORMALIZED FREE ENERGY PREDICTED BY IDOCK:   -6.72 KCAL/MOL
REMARK 922        TOTAL FREE ENERGY PREDICTED BY IDOCK:   -8.19 KCAL/MOL
REMARK 923 INTER-LIGAND FREE ENERGY PREDICTED BY IDOCK:   -7.78 KCAL/MOL
REMARK 924 INTRA-LIGAND FREE ENERGY PREDICTED BY IDOCK:   -0.42 KCAL/MOL
REMARK 927      BINDING AFFINITY PREDICTED BY RF-SCORE:    0.00 PKD
ROOT
HETATM    1  O5* UNL     1     -11.582  16.673  63.897  1.00  0.00    -1.582 OA 
HETATM    2  C5* UNL     1     -11.029  15.959  65.003  1.00  0.00    -0.412 C  
HETATM    3  H5* UNL     1     -11.587  17.609  64.061  1.00  0.00     0.000 HD 
ENDROOT
BRANCH   2   4
HETATM    4  C4* UNL     1     -11.022  14.454  64.740  1.00  0.00    -0.397 C  
HETATM    5  O4* UNL     1     -10.492  13.764  65.887  1.00  0.00    -0.284 OA 
HETATM    6  C1* UNL     1     -11.111  12.465  65.934  1.00  0.00    -0.313 C  
HETATM    7  H3* UNL     1     -13.437  13.263  62.915  1.00  0.00     0.000 HD 
HETATM    8  C2* UNL     1     -12.476  12.602  65.271  1.00  0.00    -0.483 C  
HETATM    9  C3* UNL     1     -12.407  13.882  64.473  1.00  0.00    -0.372 C  
HETATM   10  O3* UNL     1     -12.572  13.620  63.081  1.00  0.00    -0.792 OA 
BRANCH   6  11
HETATM   11  N   UNL     1     -11.160  11.988  67.306  1.00  0.00    -0.268 NA 
HETATM   12  C   UNL     1     -11.715  12.625  68.380  1.00  0.00    -0.333 A  
HETATM   13  C   UNL     1     -10.903  10.791  69.111  1.00  0.00    -0.237 A  
HETATM   14  N   UNL     1     -11.583  11.930  69.487  1.00  0.00    -0.312 NA 
HETATM   15  C   UNL     1     -10.656  10.787  67.748  1.00  0.00    -0.228 A  
HETATM   16  N   UNL     1     -10.095   9.887  66.906  1.00  0.00    -0.213 NA 
HETATM   17  C   UNL     1     -10.327   8.645  67.175  1.00  0.00    -0.299 C  
HETATM   18  H   UNL     1      -9.525  10.171  66.110  1.00  0.00     0.000 HD 
HETATM   19  N   UNL     1     -11.033   8.039  68.188  1.00  0.00    -0.441 NA 
HETATM   20  C   UNL     1     -10.743   8.285  69.607  1.00  0.00    -0.194 C  
HETATM   21  H   UNL     1     -11.784   7.394  67.945  1.00  0.00     0.000 HD 
HETATM   22  C   UNL     1     -10.510   9.740  70.084  1.00  0.00    -0.286 C  
HETATM   23  O   UNL     1      -9.127   9.888  70.467  1.00  0.00    -0.331 OA 
HETATM   24  H   UNL     1      -8.875   9.216  71.089  1.00  0.00     0.000 HD 
ENDBRANCH   6  11
ENDBRANCH   2   4
TORSDOF 2
ENDMDL
MODEL        4
REMARK 921   NORMALIZED FREE ENERGY PREDICTED BY IDOCK:   -6.68 KCAL/MOL
REMARK 922        TOTAL FREE ENERGY PREDICTED BY IDOCK:   -8.15 KCAL/MOL
REMARK 923 INTER-LIGAND FREE ENERGY PREDICTED BY IDOCK:   -7.71 KCAL/MOL
REMARK 924 INTRA-LIGAND FREE ENERGY PREDICTED BY IDOCK:   -0.43 KCAL/MOL
REMARK 927      BINDING AFFINITY PREDICTED BY RF-SCORE:    0.00 PKD
ROOT
HETATM    1  O5* UNL     1     -12.141  14.963  74.543  1.00  0.00    -0.773 OA 
HETATM    2  C5* UNL     1     -12.576  15.934  73.590  1.00  0.00    -0.591 C  
HETATM    3  H5* UNL     1     -11.780  15.381  75.316  1.00  0.00     0.000 HD 
ENDROOT
BRANCH   2   4
HETATM    4  C4* UNL     1     -13.157  15.263  72.346  1.00  0.00    -0.391 C  
HETATM    5  O4* UNL     1     -12.653  15.914  71.165  1.00  0.00    -0.456 OA 
HETATM    6  C1* UNL     1     -12.606  14.929  70.116  1.00  0.00    -0.264 C  
HETATM    7  H3* UNL     1     -13.695  12.060  72.511  1.00  0.00     0.000 HD 
HETATM    8  C2* UNL     1     -12.413  13.576  70.789  1.00  0.00    -0.428 C  
HETATM    9  C3* UNL     1     -12.798  13.788  72.233  1.00  0.00    -0.261 C  
HETATM   10  O3* UNL     1     -13.919  12.980  72.582  1.00  0.00    -0.657 OA 
BRANCH   6  11
HETATM   11  N   UNL     1     -11.567  15.272  69.160  1.00  0.00    -0.312 NA 
HETATM   12  C   UNL     1     -10.387  15.912  69.418  1.00  0.00    -0.265 A  
HETATM   13  C   UNL     1     -10.427  15.531  67.318  1.00  0.00    -0.279 A  
HETATM   14  N   UNL     1      -9.671  16.083  68.330  1.00  0.00    -0.209 NA 
HETATM   15  C   UNL     1     -11.601  14.989  67.813  1.00  0.00    -0.319 A  
HETATM   16  N   UNL     1     -12.618  14.295  67.248  1.00  0.00    -0.442 NA 
HETATM   17  C   UNL     1     -12.285  13.482  66.301  1.00  0.00    -0.416 C  
HETATM   18  H   UNL     1     -13.585  14.407  67.551  1.00  0.00     0.000 HD 
HETATM   19  N   UNL     1     -11.072  13.190  65.722  1.00  0.00    -0.272 NA 
HETATM   20  C   UNL     1     -10.213  14.224  65.128  1.00  0.00    -0.385 C  
HETATM   21  H   UNL     1     -10.758  12.221  65.704  1.00  0.00     0.000 HD 
HETATM   22  C   UNL     1      -9.991  15.549  65.898  1.00  0.00    -0.349 C  
HETATM   23  O   UNL     1     -10.636  16.619  65.178  1.00  0.00    -0.645 OA 
HETATM   24  H   UNL     1     -10.358  16.631  64.269  1.00  0.00     0.000 HD 
ENDBRANCH   6  11
ENDBRANCH   2   4
TORSDOF 2
ENDMDL
MODEL        5
REMARK 921   NORMALIZED FREE ENERGY PREDICTED BY IDOCK:   -6.65 KCAL/MOL
REMARK 922        TOTAL FREE ENERGY PREDICTED BY IDOCK:   -8.12 KCAL/MOL
REMARK 923 INTER-LIGAND FREE ENERGY PREDICTED BY IDOCK:   -7.57 KCAL/MOL
REMARK 924 INTRA-LIGAND FREE ENERGY PREDICTED BY IDOCK:   -0.55 KCAL/MOL
REMARK 927      BINDING AFFINITY PREDICTED BY RF-SCORE:    0.00 PKD
ROOT
HETATM    1  O5* UNL     1     -12.066  15.995  63.807  1.00  0.00    -1.318 OA 
HETATM    2  C5* UNL     1     -12.220  14.617  64.149  1.00  0.00    -0.315 C  
HETATM    3  H5* UNL     1     -12.637  16.235  63.087  1.00  0.00     0.000 HD 
ENDROOT
BRANCH   2   4
HETATM    4  C4* UNL     1     -11.301  14.230  65.306  1.00  0.00    -0.336 C  
HETATM    5  O4* UNL     1     -10.467  15.350  65.657  1.00  0.00    -0.319 OA 
HETATM    6  C1* UNL     1     -10.172  15.245  67.062  1.00  0.00    -0.260 C  
HETATM    7  H3* UNL     1     -12.491  12.150  67.505  1.00  0.00     0.000 HD 
HETATM    8  C2* UNL     1     -11.337  14.503  67.704  1.00  0.00    -0.354 C  
HETATM    9  C3* UNL     1     -12.055  13.822  66.564  1.00  0.00    -0.443 C  
HETATM   10  O3* UNL     1     -12.021  12.404  66.720  1.00  0.00    -0.559 OA 
BRANCH   6  11
HETATM   11  N   UNL     1      -9.929  16.566  67.618  1.00  0.00    -0.249 NA 
HETATM   12  C   UNL     1     -10.471  17.094  68.756  1.00  0.00    -0.351 A  
HETATM   13  C   UNL     1      -9.207  18.601  67.927  1.00  0.00    -0.294 A  
HETATM   14  N   UNL     1     -10.055  18.321  68.977  1.00  0.00    -0.347 NA 
HETATM   15  C   UNL     1      -9.085  17.511  67.081  1.00  0.00    -0.243 A  
HETATM   16  N   UNL     1      -8.339  17.267  65.977  1.00  0.00    -0.532 NA 
HETATM   17  C   UNL     1      -7.158  17.789  65.971  1.00  0.00    -0.300 C  
HETATM   18  H   UNL     1      -8.688  16.708  65.199  1.00  0.00     0.000 HD 
HETATM   19  N   UNL     1      -6.497  18.583  66.879  1.00  0.00    -0.181 NA 
HETATM   20  C   UNL     1      -7.049  19.856  67.362  1.00  0.00    -0.235 C  
HETATM   21  H   UNL     1      -5.590  18.277  67.230  1.00  0.00     0.000 HD 
HETATM   22  C   UNL     1      -8.541  19.919  67.771  1.00  0.00    -0.317 C  
HETATM   23  O   UNL     1      -9.250  20.742  66.822  1.00  0.00    -0.614 OA 
HETATM   24  H   UNL     1      -8.823  21.585  66.722  1.00  0.00     0.000 HD 
ENDBRANCH   6  11
ENDBRANCH   2   4
TORSDOF 2
ENDMDL
MODEL        6
REMARK 921   NORMALIZED FREE ENERGY PREDICTED BY IDOCK:   -6.64 KCAL/MOL
REMARK 922        TOTAL FREE ENERGY PREDICTED BY IDOCK:   -8.11 KCAL/MOL
REMARK 923 INTER-LIGAND FREE ENERGY PREDICTED BY IDOCK:   -7.48 KCAL/MOL
REMARK 924 INTRA-LIGAND FREE ENERGY PREDICTED BY IDOCK:   -0.63 KCAL/MOL
REMARK 927      BINDING AFFINITY PREDICTED BY RF-SCORE:    0.00 PKD
ROOT
HETATM    1  O5* UNL     1      -9.625  20.544  65.984  1.00  0.00    -0.654 OA 
HETATM    2  C5* UNL     1     -10.626  19.596  66.358  1.00  0.00    -0.486 C  
HETATM    3  H5* UNL     1      -9.938  21.118  65.296  1.00  0.00     0.000 HD 
ENDROOT
BRANCH   2   4
HETATM    4  C4* UNL     1     -10.122  18.671  67.466  1.00  0.00    -0.360 C  
HETATM    5  O4* UNL     1     -10.781  17.395  67.367  1.00  0.00    -0.333 OA 
HETATM    6  C1* UNL     1      -9.871  16.399  67.872  1.00  0.00    -0.238 C  
HETATM    7  H3* UNL     1      -7.013  18.997  68.361  1.00  0.00     0.000 HD 
HETATM    8  C2* UNL     1      -8.462  16.928  67.636  1.00  0.00    -0.206 C  
HETATM    9  C3* UNL     1      -8.624  18.409  67.398  1.00  0.00    -0.257 C  
HETATM   10  O3* UNL     1      -7.947  19.160  68.404  1.00  0.00    -0.313 OA 
BRANCH   6  11
HETATM   11  N   UNL     1     -10.140  15.117  67.245  1.00  0.00    -0.234 NA 
HETATM   12  C   UNL     1     -10.115  13.886  67.840  1.00  0.00    -0.242 A  
HETATM   13  C   UNL     1     -10.601  13.561  65.787  1.00  0.00    -0.283 A  
HETATM   14  N   UNL     1     -10.393  12.923  66.991  1.00  0.00    -0.241 NA 
HETATM   15  C   UNL     1     -10.480  14.934  65.924  1.00  0.00    -0.315 A  
HETATM   16  N   UNL     1     -10.654  15.974  65.074  1.00  0.00    -0.606 NA 
HETATM   17  C   UNL     1     -11.601  15.838  64.206  1.00  0.00    -0.191 C  
HETATM   18  H   UNL     1     -10.073  16.811  65.116  1.00  0.00     0.000 HD 
HETATM   19  N   UNL     1     -12.478  14.809  63.954  1.00  0.00    -1.049 NA 
HETATM   20  C   UNL     1     -12.026  13.442  63.665  1.00  0.00    -0.446 C  
HETATM   21  H   UNL     1     -13.479  15.003  63.968  1.00  0.00     0.000 HD 
HETATM   22  C   UNL     1     -10.907  12.821  64.536  1.00  0.00    -0.347 C  
HETATM   23  O   UNL     1      -9.721  12.667  63.729  1.00  0.00    -0.678 OA 
HETATM   24  H   UNL     1      -9.916  12.193  62.929  1.00  0.00     0.000 HD 
ENDBRANCH   6  11
ENDBRANCH   2   4
TORSDOF 2
ENDMDL
MODEL        7
REMARK 921   NORMALIZED FREE ENERGY PREDICTED BY IDOCK:   -6.45 KCAL/MOL
REMARK 922        TOTAL FREE ENERGY PREDICTED BY IDOCK:   -7.89 KCAL/MOL
REMARK 923 INTER-LIGAND FREE ENERGY PREDICTED BY IDOCK:   -7.52 KCAL/MOL
REMARK 924 INTRA-LIGAND FREE ENERGY PREDICTED BY IDOCK:   -0.37 KCAL/MOL
REMARK 927      BINDING AFFINITY PREDICTED BY RF-SCORE:    0.00 PKD
ROOT
HETATM    1  O5* UNL     1     -12.487  13.513  62.908  1.00  0.00    -0.891 OA 
HETATM    2  C5* UNL     1     -11.923  12.391  63.589  1.00  0.00    -0.539 C  
HETATM    3  H5* UNL     1     -12.950  13.240  62.125  1.00  0.00     0.000 HD 
ENDROOT
BRANCH   2   4
HETATM    4  C4* UNL     1     -11.177  12.830  64.848  1.00  0.00    -0.297 C  
HETATM    5  O4* UNL     1     -10.594  14.130  64.637  1.00  0.00    -0.420 OA 
HETATM    6  C1* UNL     1     -10.542  14.792  65.915  1.00  0.00    -0.314 C  
HETATM    7  H3* UNL     1     -12.415  11.886  67.704  1.00  0.00     0.000 HD 
HETATM    8  C2* UNL     1     -11.678  14.224  66.754  1.00  0.00    -0.424 C  
HETATM    9  C3* UNL     1     -12.073  12.934  66.075  1.00  0.00    -0.422 C  
HETATM   10  O3* UNL     1     -11.856  11.820  66.938  1.00  0.00    -0.591 OA 
BRANCH   6  11
HETATM   11  N   UNL     1     -10.600  16.232  65.730  1.00  0.00    -0.343 NA 
HETATM   12  C   UNL     1     -11.218  16.909  64.715  1.00  0.00     0.169 A  
HETATM   13  C   UNL     1     -10.324  18.382  65.975  1.00  0.00    -0.375 A  
HETATM   14  N   UNL     1     -11.076  18.210  64.833  1.00  0.00    -0.391 NA 
HETATM   15  C   UNL     1     -10.041  17.165  66.573  1.00  0.00    -0.310 A  
HETATM   16  N   UNL     1      -9.409  16.815  67.719  1.00  0.00    -0.231 NA 
HETATM   17  C   UNL     1      -9.579  17.611  68.720  1.00  0.00    -0.280 C  
HETATM   18  H   UNL     1      -8.835  15.975  67.786  1.00  0.00     0.000 HD 
HETATM   19  N   UNL     1     -10.276  18.790  68.852  1.00  0.00    -0.481 NA 
HETATM   20  C   UNL     1     -10.038  19.948  67.980  1.00  0.00    -0.440 C  
HETATM   21  H   UNL     1     -10.984  18.863  69.582  1.00  0.00     0.000 HD 
HETATM   22  C   UNL     1      -9.899  19.722  66.454  1.00  0.00    -0.449 C  
HETATM   23  O   UNL     1      -8.537  19.996  66.065  1.00  0.00    -0.492 OA 
HETATM   24  H   UNL     1      -8.264  20.853  66.372  1.00  0.00     0.000 HD 
ENDBRANCH   6  11
ENDBRANCH   2   4
TORSDOF 2
ENDMDL
MODEL        8
REMARK 921   NORMALIZED FREE ENERGY PREDICTED BY IDOCK:   -6.43 KCAL/MOL
REMARK 922        TOTAL FREE ENERGY PREDICTED BY IDOCK:   -7.87 KCAL/MOL
REMARK 923 INTER-LIGAND FREE ENERGY PREDICTED BY IDOCK:   -7.35 KCAL/MOL
REMARK 924 INTRA-LIGAND FREE ENERGY PREDICTED BY IDOCK:   -0.52 KCAL/MOL
REMARK 927      BINDING AFFINITY PREDICTED BY RF-SCORE:    0.00 PKD
ROOT
HETATM    1  O5* UNL     1     -12.509  14.269  63.285  1.00  0.00    -1.133 OA 
HETATM    2  C5* UNL     1     -11.982  12.946  63.399  1.00  0.00    -0.537 C  
HETATM    3  H5* UNL     1     -13.236  14.296  62.675  1.00  0.00     0.000 HD 
ENDROOT
BRANCH   2   4
HETATM    4  C4* UNL     1     -10.812  12.902  64.381  1.00  0.00    -0.380 C  
HETATM    5  O4* UNL     1     -10.567  14.221  64.902  1.00  0.00    -0.393 OA 
HETATM    6  C1* UNL     1     -10.030  14.069  66.229  1.00  0.00    -0.307 C  
HETATM    7  H3* UNL     1     -10.484  10.203  66.166  1.00  0.00     0.000 HD 
HETATM    8  C2* UNL     1     -10.576  12.757  66.779  1.00  0.00    -0.266 C  
HETATM    9  C3* UNL     1     -11.060  11.988  65.573  1.00  0.00    -0.313 C  
HETATM   10  O3* UNL     1     -10.329  10.773  65.422  1.00  0.00    -0.270 OA 
BRANCH   6  11
HETATM   11  N   UNL     1     -10.356  15.234  67.034  1.00  0.00    -0.272 NA 
HETATM   12  C   UNL     1     -11.254  15.299  68.062  1.00  0.00    -0.326 A  
HETATM   13  C   UNL     1     -10.435  17.258  67.842  1.00  0.00    -0.382 A  
HETATM   14  N   UNL     1     -11.325  16.506  68.578  1.00  0.00    -0.311 NA 
HETATM   15  C   UNL     1      -9.792  16.481  66.893  1.00  0.00    -0.257 A  
HETATM   16  N   UNL     1      -8.809  16.730  65.995  1.00  0.00    -0.502 NA 
HETATM   17  C   UNL     1      -7.894  17.556  66.378  1.00  0.00    -0.294 C  
HETATM   18  H   UNL     1      -8.793  16.293  65.074  1.00  0.00     0.000 HD 
HETATM   19  N   UNL     1      -7.728  18.271  67.542  1.00  0.00    -0.221 NA 
HETATM   20  C   UNL     1      -8.757  19.179  68.064  1.00  0.00    -0.310 C  
HETATM   21  H   UNL     1      -6.857  18.166  68.062  1.00  0.00     0.000 HD 
HETATM   22  C   UNL     1     -10.233  18.710  68.079  1.00  0.00    -0.385 C  
HETATM   23  O   UNL     1     -10.979  19.493  67.123  1.00  0.00    -0.492 OA 
HETATM   24  H   UNL     1     -10.851  20.422  67.274  1.00  0.00     0.000 HD 
ENDBRANCH   6  11
ENDBRANCH   2   4
TORSDOF 2
ENDMDL
MODEL        9
REMARK 921   NORMALIZED FREE ENERGY PREDICTED BY IDOCK:   -6.27 KCAL/MOL
REMARK 922        TOTAL FREE ENERGY PREDICTED BY IDOCK:   -7.69 KCAL/MOL
REMARK 923 INTER-LIGAND FREE ENERGY PREDICTED BY IDOCK:   -7.22 KCAL/MOL
REMARK 924 INTRA-LIGAND FREE ENERGY PREDICTED BY IDOCK:   -0.47 KCAL/MOL
REMARK 927      BINDING AFFINITY PREDICTED BY RF-SCORE:    0.00 PKD
ROOT
HETATM    1  O5* UNL     1     -14.229  12.860  72.751  1.00  0.00    -0.683 OA 
HETATM    2  C5* UNL     1     -14.143  13.962  71.847  1.00  0.00    -0.401 C  
HETATM    3  H5* UNL     1     -15.133  12.660  72.962  1.00  0.00     0.000 HD 
ENDROOT
BRANCH   2   4
HETATM    4  C4* UNL     1     -12.689  14.286  71.508  1.00  0.00    -0.350 C  
HETATM    5  O4* UNL     1     -12.345  13.697  70.240  1.00  0.00    -0.333 OA 
HETATM    6  C1* UNL     1     -11.338  14.530  69.636  1.00  0.00    -0.273 C  
HETATM    7  H3* UNL     1     -11.550  17.170  72.490  1.00  0.00     0.000 HD 
HETATM    8  C2* UNL     1     -11.557  15.942  70.166  1.00  0.00    -0.357 C  
HETATM    9  C3* UNL     1     -12.413  15.779  71.399  1.00  0.00    -0.455 C  
HETATM   10  O3* UNL     1     -11.722  16.238  72.559  1.00  0.00    -0.501 OA 
BRANCH   6  11
HETATM   11  N   UNL     1     -11.406  14.421  68.189  1.00  0.00    -0.280 NA 
HETATM   12  C   UNL     1     -11.281  15.433  67.278  1.00  0.00    -0.270 A  
HETATM   13  C   UNL     1     -11.626  13.647  66.161  1.00  0.00    -0.347 A  
HETATM   14  N   UNL     1     -11.404  15.002  66.043  1.00  0.00    -0.313 NA 
HETATM   15  C   UNL     1     -11.600  13.252  67.488  1.00  0.00    -0.346 A  
HETATM   16  N   UNL     1     -11.695  12.050  68.104  1.00  0.00    -0.391 NA 
HETATM   17  C   UNL     1     -11.155  11.055  67.482  1.00  0.00    -0.302 C  
HETATM   18  H   UNL     1     -12.164  11.937  69.003  1.00  0.00     0.000 HD 
HETATM   19  N   UNL     1     -10.503  10.969  66.274  1.00  0.00    -0.255 NA 
HETATM   20  C   UNL     1     -11.114  11.416  65.015  1.00  0.00    -0.145 C  
HETATM   21  H   UNL     1      -9.561  10.581  66.251  1.00  0.00     0.000 HD 
HETATM   22  C   UNL     1     -11.860  12.773  64.983  1.00  0.00    -0.382 C  
HETATM   23  O   UNL     1     -13.269  12.526  64.801  1.00  0.00    -0.839 OA 
HETATM   24  H   UNL     1     -13.419  11.966  64.048  1.00  0.00     0.000 HD 
ENDBRANCH   6  11
ENDBRANCH   2   4
TORSDOF 2
ENDMDL
MODEL       10
REMARK 921   NORMALIZED FREE ENERGY PREDICTED BY IDOCK:   -6.27 KCAL/MOL
REMARK 922        TOTAL FREE ENERGY PREDICTED BY IDOCK:   -7.69 KCAL/MOL
REMARK 923 INTER-LIGAND FREE ENERGY PREDICTED BY IDOCK:   -7.19 KCAL/MOL
REMARK 924 INTRA-LIGAND FREE ENERGY PREDICTED BY IDOCK:   -0.50 KCAL/MOL
REMARK 927      BINDING AFFINITY PREDICTED BY RF-SCORE:    0.00 PKD
ROOT
HETATM    1  O5* UNL     1      -8.386  16.362  69.184  1.00  0.00    -0.239 OA 
HETATM    2  C5* UNL     1      -9.431  17.306  68.948  1.00  0.00    -0.210 C  
HETATM    3  H5* UNL     1      -7.532  16.770  69.102  1.00  0.00     0.000 HD 
ENDROOT
BRANCH   2   4
HETATM    4  C4* UNL     1     -10.805  16.651  69.080  1.00  0.00    -0.315 C  
HETATM    5  O4* UNL     1     -11.070  15.845  67.917  1.00  0.00    -0.331 OA 
HETATM    6  C1* UNL     1     -11.924  14.761  68.328  1.00  0.00    -0.223 C  
HETATM    7  H3* UNL     1     -11.759  15.810  72.074  1.00  0.00     0.000 HD 
HETATM    8  C2* UNL     1     -11.629  14.499  69.799  1.00  0.00    -0.345 C  
HETATM    9  C3* UNL     1     -10.925  15.740  70.294  1.00  0.00    -0.357 C  
HETATM   10  O3* UNL     1     -11.685  16.379  71.316  1.00  0.00    -0.403 OA 
BRANCH   6  11
HETATM   11  N   UNL     1     -11.717  13.611  67.465  1.00  0.00    -0.349 NA 
HETATM   12  C   UNL     1     -11.700  12.295  67.835  1.00  0.00    -0.347 A  
HETATM   13  C   UNL     1     -11.335  12.341  65.733  1.00  0.00    -0.355 A  
HETATM   14  N   UNL     1     -11.476  11.499  66.815  1.00  0.00    -0.466 NA 
HETATM   15  C   UNL     1     -11.513  13.663  66.105  1.00  0.00    -0.325 A  
HETATM   16  N   UNL     1     -11.540  14.830  65.417  1.00  0.00    -0.338 NA 
HETATM   17  C   UNL     1     -12.064  14.775  64.238  1.00  0.00    -0.394 C  
HETATM   18  H   UNL     1     -11.169  15.697  65.806  1.00  0.00     0.000 HD 
HETATM   19  N   UNL     1     -12.595  13.732  63.514  1.00  0.00    -0.947 NA 
HETATM   20  C   UNL     1     -11.839  12.505  63.229  1.00  0.00    -0.413 C  
HETATM   21  H   UNL     1     -13.548  13.815  63.163  1.00  0.00     0.000 HD 
HETATM   22  C   UNL     1     -11.027  11.842  64.368  1.00  0.00    -0.339 C  
HETATM   23  O   UNL     1      -9.621  11.977  64.078  1.00  0.00    -0.495 OA 
HETATM   24  H   UNL     1      -9.424  11.657  63.205  1.00  0.00     0.000 HD 
ENDBRANCH   6  11
ENDBRANCH   2   4
TORSDOF 2
ENDMDL
MODEL       11
REMARK 921   NORMALIZED FREE ENERGY PREDICTED BY IDOCK:   -6.22 KCAL/MOL
REMARK 922        TOTAL FREE ENERGY PREDICTED BY IDOCK:   -7.64 KCAL/MOL
REMARK 923 INTER-LIGAND FREE ENERGY PREDICTED BY IDOCK:   -7.35 KCAL/MOL
REMARK 924 INTRA-LIGAND FREE ENERGY PREDICTED BY IDOCK:   -0.29 KCAL/MOL
REMARK 927      BINDING AFFINITY PREDICTED BY RF-SCORE:    0.00 PKD
ROOT
HETATM    1  O5* UNL     1     -12.656  14.385  63.277  1.00  0.00    -1.043 OA 
HETATM    2  C5* UNL     1     -12.079  15.040  64.407  1.00  0.00    -0.359 C  
HETATM    3  H5* UNL     1     -13.265  14.956  62.824  1.00  0.00     0.000 HD 
ENDROOT
BRANCH   2   4
HETATM    4  C4* UNL     1     -11.099  14.121  65.136  1.00  0.00    -0.348 C  
HETATM    5  O4* UNL     1     -11.102  14.428  66.542  1.00  0.00    -0.317 OA 
HETATM    6  C1* UNL     1     -10.789  13.214  67.250  1.00  0.00    -0.257 C  
HETATM    7  H3* UNL     1     -10.776  11.096  63.984  1.00  0.00     0.000 HD 
HETATM    8  C2* UNL     1     -11.267  12.059  66.380  1.00  0.00    -0.389 C  
HETATM    9  C3* UNL     1     -11.443  12.644  64.999  1.00  0.00    -0.329 C  
HETATM   10  O3* UNL     1     -10.562  12.017  64.069  1.00  0.00    -0.309 OA 
BRANCH   6  11
HETATM   11  N   UNL     1     -11.382  13.246  68.576  1.00  0.00    -0.264 NA 
HETATM   12  C   UNL     1     -11.605  12.182  69.405  1.00  0.00    -0.317 A  
HETATM   13  C   UNL     1     -12.325  13.912  70.427  1.00  0.00    -0.363 A  
HETATM   14  N   UNL     1     -12.169  12.547  70.534  1.00  0.00    -0.352 NA 
HETATM   15  C   UNL     1     -11.813  14.379  69.228  1.00  0.00    -0.325 A  
HETATM   16  N   UNL     1     -11.668  15.615  68.695  1.00  0.00    -0.427 NA 
HETATM   17  C   UNL     1     -11.388  16.559  69.531  1.00  0.00    -0.087 C  
HETATM   18  H   UNL     1     -11.775  15.791  67.696  1.00  0.00     0.000 HD 
HETATM   19  N   UNL     1     -11.224  16.560  70.897  1.00  0.00    -0.404 NA 
HETATM   20  C   UNL     1     -12.257  16.062  71.815  1.00  0.00    -0.469 C  
HETATM   21  H   UNL     1     -10.354  16.920  71.286  1.00  0.00     0.000 HD 
HETATM   22  C   UNL     1     -12.970  14.726  71.489  1.00  0.00    -0.336 C  
HETATM   23  O   UNL     1     -14.347  15.002  71.157  1.00  0.00    -0.654 OA 
HETATM   24  H   UNL     1     -14.759  15.523  71.836  1.00  0.00     0.000 HD 
ENDBRANCH   6  11
ENDBRANCH   2   4
TORSDOF 2
ENDMDL
MODEL       12
REMARK 921   NORMALIZED FREE ENERGY PREDICTED BY IDOCK:   -6.22 KCAL/MOL
REMARK 922        TOTAL FREE ENERGY PREDICTED BY IDOCK:   -7.64 KCAL/MOL
REMARK 923 INTER-LIGAND FREE ENERGY PREDICTED BY IDOCK:   -7.12 KCAL/MOL
REMARK 924 INTRA-LIGAND FREE ENERGY PREDICTED BY IDOCK:   -0.52 KCAL/MOL
REMARK 927      BINDING AFFINITY PREDICTED BY RF-SCORE:    0.00 PKD
ROOT
HETATM    1  O5* UNL     1     -12.398  13.720  63.089  1.00  0.00    -1.099 OA 
HETATM    2  C5* UNL     1     -12.399  12.662  64.048  1.00  0.00    -0.443 C  
HETATM    3  H5* UNL     1     -12.582  13.392  62.217  1.00  0.00     0.000 HD 
ENDROOT
BRANCH   2   4
HETATM    4  C4* UNL     1     -12.102  13.190  65.451  1.00  0.00    -0.433 C  
HETATM    5  O4* UNL     1     -12.107  12.098  66.390  1.00  0.00    -0.630 OA 
HETATM    6  C1* UNL     1     -11.194  12.437  67.451  1.00  0.00    -0.297 C  
HETATM    7  H3* UNL     1     -10.062  15.712  65.678  1.00  0.00     0.000 HD 
HETATM    8  C2* UNL     1     -10.143  13.362  66.851  1.00  0.00    -0.255 C  
HETATM    9  C3* UNL     1     -10.745  13.871  65.564  1.00  0.00    -0.302 C  
HETATM   10  O3* UNL     1     -10.908  15.287  65.608  1.00  0.00    -0.333 OA 
BRANCH   6  11
HETATM   11  N   UNL     1     -10.653  11.226  68.045  1.00  0.00    -0.186 NA 
HETATM   12  C   UNL     1      -9.414  10.688  67.837  1.00  0.00    -0.159 A  
HETATM   13  C   UNL     1     -10.423   9.386  69.194  1.00  0.00    -0.217 A  
HETATM   14  N   UNL     1      -9.238   9.578  68.517  1.00  0.00    -0.131 NA 
HETATM   15  C   UNL     1     -11.313  10.417  68.942  1.00  0.00    -0.219 A  
HETATM   16  N   UNL     1     -12.549  10.716  69.408  1.00  0.00    -0.678 NA 
HETATM   17  C   UNL     1     -12.769  10.422  70.646  1.00  0.00    -0.333 C  
HETATM   18  H   UNL     1     -13.261  11.145  68.818  1.00  0.00     0.000 HD 
HETATM   19  N   UNL     1     -11.981   9.829  71.606  1.00  0.00    -0.396 NA 
HETATM   20  C   UNL     1     -11.358   8.514  71.411  1.00  0.00    -0.271 C  
HETATM   21  H   UNL     1     -11.825  10.322  72.485  1.00  0.00     0.000 HD 
HETATM   22  C   UNL     1     -10.662   8.205  70.063  1.00  0.00    -0.243 C  
HETATM   23  O   UNL     1     -11.427   7.201  69.363  1.00  0.00    -0.495 OA 
HETATM   24  H   UNL     1     -11.580   6.446  69.919  1.00  0.00     0.000 HD 
ENDBRANCH   6  11
ENDBRANCH   2   4
TORSDOF 2
ENDMDL
MODEL       13
REMARK 921   NORMALIZED FREE ENERGY PREDICTED BY IDOCK:   -6.21 KCAL/MOL
REMARK 922        TOTAL FREE ENERGY PREDICTED BY IDOCK:   -7.62 KCAL/MOL
REMARK 923 INTER-LIGAND FREE ENERGY PREDICTED BY IDOCK:   -7.28 KCAL/MOL
REMARK 924 INTRA-LIGAND FREE ENERGY PREDICTED BY IDOCK:   -0.34 KCAL/MOL
REMARK 927      BINDING AFFINITY PREDICTED BY RF-SCORE:    0.00 PKD
ROOT
HETATM    1  O5* UNL     1      -6.794  19.546  65.040  1.00  0.00    -0.408 OA 
HETATM    2  C5* UNL     1      -7.378  19.846  66.308  1.00  0.00    -0.288 C  
HETATM    3  H5* UNL     1      -5.881  19.806  65.013  1.00  0.00     0.000 HD 
ENDROOT
BRANCH   2   4
HETATM    4  C4* UNL     1      -8.847  19.428  66.351  1.00  0.00    -0.359 C  
HETATM    5  O4* UNL     1      -9.005  18.148  65.711  1.00  0.00    -0.462 OA 
HETATM    6  C1* UNL     1     -10.117  17.484  66.341  1.00  0.00    -0.345 C  
HETATM    7  H3* UNL     1     -10.562  20.325  68.965  1.00  0.00     0.000 HD 
HETATM    8  C2* UNL     1     -10.199  18.014  67.766  1.00  0.00    -0.385 C  
HETATM    9  C3* UNL     1      -9.394  19.292  67.765  1.00  0.00    -0.312 C  
HETATM   10  O3* UNL     1     -10.221  20.410  68.083  1.00  0.00    -0.338 OA 
BRANCH   6  11
HETATM   11  N   UNL     1      -9.952  16.044  66.249  1.00  0.00    -0.288 NA 
HETATM   12  C   UNL     1      -9.164  15.252  67.038  1.00  0.00    -0.218 A  
HETATM   13  C   UNL     1     -10.095  13.961  65.616  1.00  0.00    -0.313 A  
HETATM   14  N   UNL     1      -9.228  13.988  66.688  1.00  0.00    -0.263 NA 
HETATM   15  C   UNL     1     -10.586  15.226  65.342  1.00  0.00    -0.394 A  
HETATM   16  N   UNL     1     -11.493  15.702  64.455  1.00  0.00    -0.709 NA 
HETATM   17  C   UNL     1     -12.497  14.928  64.208  1.00  0.00    -0.157 C  
HETATM   18  H   UNL     1     -11.390  16.613  64.010  1.00  0.00     0.000 HD 
HETATM   19  N   UNL     1     -12.825  13.671  64.664  1.00  0.00    -0.677 NA 
HETATM   20  C   UNL     1     -11.916  12.524  64.535  1.00  0.00    -0.404 C  
HETATM   21  H   UNL     1     -13.732  13.532  65.107  1.00  0.00     0.000 HD 
HETATM   22  C   UNL     1     -10.419  12.710  64.885  1.00  0.00    -0.309 C  
HETATM   23  O   UNL     1      -9.642  12.607  63.674  1.00  0.00    -0.654 OA 
HETATM   24  H   UNL     1      -9.849  11.807  63.206  1.00  0.00     0.000 HD 
ENDBRANCH   6  11
ENDBRANCH   2   4
TORSDOF 2
ENDMDL
MODEL       14
REMARK 921   NORMALIZED FREE ENERGY PREDICTED BY IDOCK:   -6.18 KCAL/MOL
REMARK 922        TOTAL FREE ENERGY PREDICTED BY IDOCK:   -7.59 KCAL/MOL
REMARK 923 INTER-LIGAND FREE ENERGY PREDICTED BY IDOCK:   -7.07 KCAL/MOL
REMARK 924 INTRA-LIGAND FREE ENERGY PREDICTED BY IDOCK:   -0.52 KCAL/MOL
REMARK 927      BINDING AFFINITY PREDICTED BY RF-SCORE:    0.00 PKD
ROOT
HETATM    1  O5* UNL     1     -10.607  14.767  70.542  1.00  0.00    -0.494 OA 
HETATM    2  C5* UNL     1     -10.808  16.132  70.176  1.00  0.00    -0.328 C  
HETATM    3  H5* UNL     1     -11.137  14.533  71.295  1.00  0.00     0.000 HD 
ENDROOT
BRANCH   2   4
HETATM    4  C4* UNL     1      -9.954  16.510  68.966  1.00  0.00    -0.275 C  
HETATM    5  O4* UNL     1     -10.146  15.541  67.918  1.00  0.00    -0.222 OA 
HETATM    6  C1* UNL     1      -9.954  16.220  66.663  1.00  0.00    -0.264 C  
HETATM    7  H3* UNL     1      -9.529  19.682  68.390  1.00  0.00     0.000 HD 
HETATM    8  C2* UNL     1     -10.328  17.679  66.888  1.00  0.00    -0.329 C  
HETATM    9  C3* UNL     1     -10.302  17.873  68.385  1.00  0.00    -0.374 C  
HETATM   10  O3* UNL     1      -9.312  18.832  68.753  1.00  0.00    -0.338 OA 
BRANCH   6  11
HETATM   11  N   UNL     1     -10.724  15.562  65.620  1.00  0.00    -0.348 NA 
HETATM   12  C   UNL     1     -11.473  16.161  64.646  1.00  0.00    -0.224 A  
HETATM   13  C   UNL     1     -11.673  14.055  64.361  1.00  0.00    -0.397 A  
HETATM   14  N   UNL     1     -12.057  15.282  63.863  1.00  0.00    -0.468 NA 
HETATM   15  C   UNL     1     -10.815  14.201  65.438  1.00  0.00    -0.337 A  
HETATM   16  N   UNL     1     -10.128  13.323  66.208  1.00  0.00    -0.288 NA 
HETATM   17  C   UNL     1      -9.675  12.278  65.600  1.00  0.00    -0.192 C  
HETATM   18  H   UNL     1      -9.978  13.478  67.204  1.00  0.00     0.000 HD 
HETATM   19  N   UNL     1      -9.774  11.856  64.294  1.00  0.00    -0.454 NA 
HETATM   20  C   UNL     1     -11.066  11.682  63.618  1.00  0.00    -0.425 C  
HETATM   21  H   UNL     1      -8.918  11.658  63.777  1.00  0.00     0.000 HD 
HETATM   22  C   UNL     1     -12.151  12.774  63.779  1.00  0.00    -0.517 C  
HETATM   23  O   UNL     1     -13.243  12.237  64.554  1.00  0.00    -0.799 OA 
HETATM   24  H   UNL     1     -13.549  11.417  64.183  1.00  0.00     0.000 HD 
ENDBRANCH   6  11
ENDBRANCH   2   4
TORSDOF 2
ENDMDL
MODEL       15
REMARK 921   NORMALIZED FREE ENERGY PREDICTED BY IDOCK:   -6.17 KCAL/MOL
REMARK 922        TOTAL FREE ENERGY PREDICTED BY IDOCK:   -7.58 KCAL/MOL
REMARK 923 INTER-LIGAND FREE ENERGY PREDICTED BY IDOCK:   -6.75 KCAL/MOL
REMARK 924 INTRA-LIGAND FREE ENERGY PREDICTED BY IDOCK:   -0.83 KCAL/MOL
REMARK 927      BINDING AFFINITY PREDICTED BY RF-SCORE:    0.00 PKD
ROOT
HETATM    1  O5* UNL     1     -11.253   7.745  69.311  1.00  0.00    -0.439 OA 
HETATM    2  C5* UNL     1     -10.674   8.021  70.587  1.00  0.00    -0.228 C  
HETATM    3  H5* UNL     1     -10.913   6.936  68.948  1.00  0.00     0.000 HD 
ENDROOT
BRANCH   2   4
HETATM    4  C4* UNL     1     -11.221   9.322  71.171  1.00  0.00    -0.343 C  
HETATM    5  O4* UNL     1     -10.801  10.432  70.356  1.00  0.00    -0.289 OA 
HETATM    6  C1* UNL     1     -11.815  11.450  70.458  1.00  0.00    -0.297 C  
HETATM    7  H3* UNL     1     -14.133   9.185  72.614  1.00  0.00     0.000 HD 
HETATM    8  C2* UNL     1     -13.130  10.737  70.745  1.00  0.00    -0.245 C  
HETATM    9  C3* UNL     1     -12.742   9.363  71.235  1.00  0.00    -0.314 C  
HETATM   10  O3* UNL     1     -13.184   9.159  72.575  1.00  0.00    -0.444 OA 
BRANCH   6  11
HETATM   11  N   UNL     1     -11.828  12.260  69.251  1.00  0.00    -0.313 NA 
HETATM   12  C   UNL     1     -11.928  13.621  69.172  1.00  0.00    -0.351 A  
HETATM   13  C   UNL     1     -11.820  12.900  67.166  1.00  0.00    -0.362 A  
HETATM   14  N   UNL     1     -11.923  14.044  67.928  1.00  0.00    -0.371 NA 
HETATM   15  C   UNL     1     -11.727  11.775  67.967  1.00  0.00    -0.293 A  
HETATM   16  N   UNL     1     -11.547  10.458  67.706  1.00  0.00    -0.653 NA 
HETATM   17  C   UNL     1     -10.775  10.183  66.708  1.00  0.00    -0.121 C  
HETATM   18  H   UNL     1     -11.993   9.729  68.263  1.00  0.00     0.000 HD 
HETATM   19  N   UNL     1     -10.099  10.986  65.818  1.00  0.00    -0.242 NA 
HETATM   20  C   UNL     1     -10.775  12.007  65.007  1.00  0.00    -0.296 C  
HETATM   21  H   UNL     1      -9.092  10.867  65.719  1.00  0.00     0.000 HD 
HETATM   22  C   UNL     1     -11.819  12.930  65.681  1.00  0.00    -0.417 C  
HETATM   23  O   UNL     1     -13.127  12.612  65.161  1.00  0.00    -0.726 OA 
HETATM   24  H   UNL     1     -13.126  12.631  64.211  1.00  0.00     0.000 HD 
ENDBRANCH   6  11
ENDBRANCH   2   4
TORSDOF 2
ENDMDL
MODEL       16
REMARK 921   NORMALIZED FREE ENERGY PREDICTED BY IDOCK:   -6.16 KCAL/MOL
REMARK 922        TOTAL FREE ENERGY PREDICTED BY IDOCK:   -7.57 KCAL/MOL
REMARK 923 INTER-LIGAND FREE ENERGY PREDICTED BY IDOCK:   -7.08 KCAL/MOL
REMARK 924 INTRA-LIGAND FREE ENERGY PREDICTED BY IDOCK:   -0.49 KCAL/MOL
REMARK 927      BINDING AFFINITY PREDICTED BY RF-SCORE:    0.00 PKD
ROOT
HETATM    1  O5* UNL     1     -11.093  16.780  64.274  1.00  0.00    -1.301 OA 
HETATM    2  C5* UNL     1     -10.808  15.823  65.295  1.00  0.00    -0.395 C  
HETATM    3  H5* UNL     1     -11.130  17.659  64.630  1.00  0.00     0.000 HD 
ENDROOT
BRANCH   2   4
HETATM    4  C4* UNL     1     -10.750  14.407  64.723  1.00  0.00    -0.403 C  
HETATM    5  O4* UNL     1     -10.253  13.501  65.725  1.00  0.00    -0.286 OA 
HETATM    6  C1* UNL     1     -10.840  12.210  65.469  1.00  0.00    -0.283 C  
HETATM    7  H3* UNL     1     -13.048  13.587  62.573  1.00  0.00     0.000 HD 
HETATM    8  C2* UNL     1     -12.176  12.461  64.783  1.00  0.00    -0.493 C  
HETATM    9  C3* UNL     1     -12.106  13.881  64.275  1.00  0.00    -0.440 C  
HETATM   10  O3* UNL     1     -12.202  13.915  62.852  1.00  0.00    -0.339 OA 
BRANCH   6  11
HETATM   11  N   UNL     1     -10.938  11.455  66.706  1.00  0.00    -0.287 NA 
HETATM   12  C   UNL     1     -10.386  10.233  66.971  1.00  0.00    -0.243 A  
HETATM   13  C   UNL     1     -11.452  10.814  68.727  1.00  0.00    -0.295 A  
HETATM   14  N   UNL     1     -10.672   9.816  68.184  1.00  0.00    -0.237 NA 
HETATM   15  C   UNL     1     -11.607  11.864  67.837  1.00  0.00    -0.323 A  
HETATM   16  N   UNL     1     -12.210  13.074  67.919  1.00  0.00    -0.157 NA 
HETATM   17  C   UNL     1     -12.142  13.659  69.067  1.00  0.00    -0.309 C  
HETATM   18  H   UNL     1     -12.689  13.496  67.123  1.00  0.00     0.000 HD 
HETATM   19  N   UNL     1     -11.580  13.277  70.264  1.00  0.00    -0.529 NA 
HETATM   20  C   UNL     1     -11.934  12.018  70.934  1.00  0.00     0.079 C  
HETATM   21  H   UNL     1     -10.894  13.890  70.702  1.00  0.00     0.000 HD 
HETATM   22  C   UNL     1     -12.028  10.722  70.092  1.00  0.00    -0.349 C  
HETATM   23  O   UNL     1     -13.407  10.301  70.038  1.00  0.00    -0.492 OA 
HETATM   24  H   UNL     1     -13.776  10.242  70.912  1.00  0.00     0.000 HD 
ENDBRANCH   6  11
ENDBRANCH   2   4
TORSDOF 2
ENDMDL
MODEL       17
REMARK 921   NORMALIZED FREE ENERGY PREDICTED BY IDOCK:   -6.10 KCAL/MOL
REMARK 922        TOTAL FREE ENERGY PREDICTED BY IDOCK:   -7.50 KCAL/MOL
REMARK 923 INTER-LIGAND FREE ENERGY PREDICTED BY IDOCK:   -6.95 KCAL/MOL
REMARK 924 INTRA-LIGAND FREE ENERGY PREDICTED BY IDOCK:   -0.55 KCAL/MOL
REMARK 927      BINDING AFFINITY PREDICTED BY RF-SCORE:    0.00 PKD
ROOT
HETATM    1  O5* UNL     1     -12.333  10.634  69.003  1.00  0.00    -0.770 OA 
HETATM    2  C5* UNL     1     -11.373  11.540  68.460  1.00  0.00    -0.277 C  
HETATM    3  H5* UNL     1     -12.232  10.551  69.944  1.00  0.00     0.000 HD 
ENDROOT
BRANCH   2   4
HETATM    4  C4* UNL     1     -11.535  11.672  66.946  1.00  0.00    -0.247 C  
HETATM    5  O4* UNL     1     -11.965  13.007  66.620  1.00  0.00    -0.399 OA 
HETATM    6  C1* UNL     1     -11.451  13.318  65.311  1.00  0.00    -0.295 C  
HETATM    7  H3* UNL     1      -9.481   9.968  65.087  1.00  0.00     0.000 HD 
HETATM    8  C2* UNL     1     -10.177  12.502  65.131  1.00  0.00    -0.299 C  
HETATM    9  C3* UNL     1     -10.246  11.416  66.177  1.00  0.00    -0.239 C  
HETATM   10  O3* UNL     1     -10.285  10.127  65.567  1.00  0.00    -0.286 OA 
BRANCH   6  11
HETATM   11  N   UNL     1     -11.261  14.753  65.181  1.00  0.00    -0.364 NA 
HETATM   12  C   UNL     1     -11.663  15.547  64.143  1.00  0.00    -0.086 A  
HETATM   13  C   UNL     1     -10.672  16.823  65.537  1.00  0.00    -0.196 A  
HETATM   14  N   UNL     1     -11.328  16.804  64.325  1.00  0.00    -1.111 NA 
HETATM   15  C   UNL     1     -10.644  15.561  66.108  1.00  0.00    -0.315 A  
HETATM   16  N   UNL     1     -10.189  15.084  67.291  1.00  0.00    -0.240 NA 
HETATM   17  C   UNL     1     -10.325  15.871  68.305  1.00  0.00    -0.242 C  
HETATM   18  H   UNL     1      -9.765  14.160  67.375  1.00  0.00     0.000 HD 
HETATM   19  N   UNL     1     -10.835  17.144  68.421  1.00  0.00    -0.349 NA 
HETATM   20  C   UNL     1     -10.333  18.270  67.621  1.00  0.00    -0.396 C  
HETATM   21  H   UNL     1     -11.589  17.311  69.086  1.00  0.00     0.000 HD 
HETATM   22  C   UNL     1     -10.086  18.063  66.107  1.00  0.00    -0.334 C  
HETATM   23  O   UNL     1      -8.667  18.122  65.854  1.00  0.00    -0.505 OA 
HETATM   24  H   UNL     1      -8.292  18.916  66.219  1.00  0.00     0.000 HD 
ENDBRANCH   6  11
ENDBRANCH   2   4
TORSDOF 2
ENDMDL
MODEL       18
REMARK 921   NORMALIZED FREE ENERGY PREDICTED BY IDOCK:   -6.07 KCAL/MOL
REMARK 922        TOTAL FREE ENERGY PREDICTED BY IDOCK:   -7.47 KCAL/MOL
REMARK 923 INTER-LIGAND FREE ENERGY PREDICTED BY IDOCK:   -6.76 KCAL/MOL
REMARK 924 INTRA-LIGAND FREE ENERGY PREDICTED BY IDOCK:   -0.71 KCAL/MOL
REMARK 927      BINDING AFFINITY PREDICTED BY RF-SCORE:    0.00 PKD
ROOT
HETATM    1  O5* UNL     1     -10.704  12.696  63.366  1.00  0.00    -0.483 OA 
HETATM    2  C5* UNL     1     -12.042  13.197  63.333  1.00  0.00    -0.486 C  
HETATM    3  H5* UNL     1     -10.546  12.095  62.648  1.00  0.00     0.000 HD 
ENDROOT
BRANCH   2   4
HETATM    4  C4* UNL     1     -12.297  14.163  64.489  1.00  0.00    -0.392 C  
HETATM    5  O4* UNL     1     -12.600  13.419  65.684  1.00  0.00    -0.466 OA 
HETATM    6  C1* UNL     1     -12.150  14.202  66.805  1.00  0.00    -0.442 C  
HETATM    7  H3* UNL     1     -10.583  16.927  64.508  1.00  0.00     0.000 HD 
HETATM    8  C2* UNL     1     -10.991  15.058  66.311  1.00  0.00    -0.338 C  
HETATM    9  C3* UNL     1     -11.103  15.053  64.805  1.00  0.00    -0.376 C  
HETATM   10  O3* UNL     1     -11.328  16.372  64.311  1.00  0.00    -0.892 OA 
BRANCH   6  11
HETATM   11  N   UNL     1     -11.814  13.329  67.917  1.00  0.00    -0.352 NA 
HETATM   12  C   UNL     1     -12.136  13.510  69.234  1.00  0.00    -0.288 A  
HETATM   13  C   UNL     1     -11.012  11.699  69.124  1.00  0.00    -0.219 A  
HETATM   14  N   UNL     1     -11.672  12.543  69.992  1.00  0.00    -0.270 NA 
HETATM   15  C   UNL     1     -11.113  12.149  67.818  1.00  0.00    -0.250 A  
HETATM   16  N   UNL     1     -10.704  11.652  66.627  1.00  0.00    -0.258 NA 
HETATM   17  C   UNL     1     -10.754  10.367  66.508  1.00  0.00    -0.092 C  
HETATM   18  H   UNL     1     -10.378  12.254  65.871  1.00  0.00     0.000 HD 
HETATM   19  N   UNL     1     -11.129   9.375  67.384  1.00  0.00    -0.357 NA 
HETATM   20  C   UNL     1     -10.517   9.222  68.710  1.00  0.00    -0.210 C  
HETATM   21  H   UNL     1     -11.859   8.721  67.102  1.00  0.00     0.000 HD 
HETATM   22  C   UNL     1     -10.299  10.480  69.586  1.00  0.00    -0.193 C  
HETATM   23  O   UNL     1      -8.882  10.728  69.699  1.00  0.00    -0.392 OA 
HETATM   24  H   UNL     1      -8.426   9.949  69.995  1.00  0.00     0.000 HD 
ENDBRANCH   6  11
ENDBRANCH   2   4
TORSDOF 2
ENDMDL
MODEL       19
REMARK 921   NORMALIZED FREE ENERGY PREDICTED BY IDOCK:   -6.04 KCAL/MOL
REMARK 922        TOTAL FREE ENERGY PREDICTED BY IDOCK:   -7.43 KCAL/MOL
REMARK 923 INTER-LIGAND FREE ENERGY PREDICTED BY IDOCK:   -7.07 KCAL/MOL
REMARK 924 INTRA-LIGAND FREE ENERGY PREDICTED BY IDOCK:   -0.36 KCAL/MOL
REMARK 927      BINDING AFFINITY PREDICTED BY RF-SCORE:    0.00 PKD
ROOT
HETATM    1  O5* UNL     1     -12.312  13.617  63.022  1.00  0.00    -1.041 OA 
HETATM    2  C5* UNL     1     -12.345  12.428  63.813  1.00  0.00    -0.528 C  
HETATM    3  H5* UNL     1     -12.960  13.585  62.328  1.00  0.00     0.000 HD 
ENDROOT
BRANCH   2   4
HETATM    4  C4* UNL     1     -11.301  12.480  64.928  1.00  0.00    -0.310 C  
HETATM    5  O4* UNL     1     -10.448  13.624  64.739  1.00  0.00    -0.387 OA 
HETATM    6  C1* UNL     1     -10.002  14.049  66.041  1.00  0.00    -0.315 C  
HETATM    7  H3* UNL     1     -12.222  11.420  67.862  1.00  0.00     0.000 HD 
HETATM    8  C2* UNL     1     -11.082  13.639  67.034  1.00  0.00    -0.313 C  
HETATM    9  C3* UNL     1     -11.910  12.599  66.318  1.00  0.00    -0.410 C  
HETATM   10  O3* UNL     1     -11.842  11.345  66.994  1.00  0.00    -0.530 OA 
BRANCH   6  11
HETATM   11  N   UNL     1      -9.716  15.474  66.027  1.00  0.00    -0.318 NA 
HETATM   12  C   UNL     1     -10.564  16.481  65.661  1.00  0.00    -0.304 A  
HETATM   13  C   UNL     1      -8.713  17.404  66.187  1.00  0.00    -0.147 A  
HETATM   14  N   UNL     1      -9.994  17.662  65.749  1.00  0.00    -0.564 NA 
HETATM   15  C   UNL     1      -8.522  16.049  66.399  1.00  0.00    -0.327 A  
HETATM   16  N   UNL     1      -7.488  15.317  66.879  1.00  0.00    -0.255 NA 
HETATM   17  C   UNL     1      -6.797  15.870  67.819  1.00  0.00    -0.153 C  
HETATM   18  H   UNL     1      -7.269  14.388  66.521  1.00  0.00     0.000 HD 
HETATM   19  N   UNL     1      -6.893  17.099  68.431  1.00  0.00    -0.183 NA 
HETATM   20  C   UNL     1      -6.864  18.359  67.677  1.00  0.00    -0.207 C  
HETATM   21  H   UNL     1      -6.986  17.135  69.446  1.00  0.00     0.000 HD 
HETATM   22  C   UNL     1      -7.707  18.479  66.384  1.00  0.00    -0.264 C  
HETATM   23  O   UNL     1      -6.815  18.560  65.253  1.00  0.00    -0.513 OA 
HETATM   24  H   UNL     1      -6.172  19.247  65.379  1.00  0.00     0.000 HD 
ENDBRANCH   6  11
ENDBRANCH   2   4
TORSDOF 2
ENDMDL
MODEL       20
REMARK 921   NORMALIZED FREE ENERGY PREDICTED BY IDOCK:   -6.04 KCAL/MOL
REMARK 922        TOTAL FREE ENERGY PREDICTED BY IDOCK:   -7.43 KCAL/MOL
REMARK 923 INTER-LIGAND FREE ENERGY PREDICTED BY IDOCK:   -6.97 KCAL/MOL
REMARK 924 INTRA-LIGAND FREE ENERGY PREDICTED BY IDOCK:   -0.46 KCAL/MOL
REMARK 927      BINDING AFFINITY PREDICTED BY RF-SCORE:    0.00 PKD
ROOT
HETATM    1  O5* UNL     1     -11.938  11.271  67.475  1.00  0.00    -0.612 OA 
HETATM    2  C5* UNL     1     -11.869  12.516  68.170  1.00  0.00    -0.317 C  
HETATM    3  H5* UNL     1     -11.762  10.543  68.060  1.00  0.00     0.000 HD 
ENDROOT
BRANCH   2   4
HETATM    4  C4* UNL     1     -12.152  13.688  67.231  1.00  0.00    -0.345 C  
HETATM    5  O4* UNL     1     -11.352  14.821  67.616  1.00  0.00    -0.313 OA 
HETATM    6  C1* UNL     1     -11.085  15.585  66.425  1.00  0.00    -0.174 C  
HETATM    7  H3* UNL     1     -12.827  12.966  64.132  1.00  0.00     0.000 HD 
HETATM    8  C2* UNL     1     -11.111  14.608  65.257  1.00  0.00    -0.363 C  
HETATM    9  C3* UNL     1     -11.828  13.384  65.775  1.00  0.00    -0.377 C  
HETATM   10  O3* UNL     1     -13.029  13.155  65.041  1.00  0.00    -0.729 OA 
BRANCH   6  11
HETATM   11  N   UNL     1      -9.833  16.308  66.570  1.00  0.00    -0.255 NA 
HETATM   12  C   UNL     1      -8.585  15.875  66.216  1.00  0.00    -0.313 A  
HETATM   13  C   UNL     1      -8.339  17.822  67.055  1.00  0.00    -0.226 A  
HETATM   14  N   UNL     1      -7.659  16.765  66.490  1.00  0.00    -0.273 NA 
HETATM   15  C   UNL     1      -9.702  17.577  67.087  1.00  0.00    -0.279 A  
HETATM   16  N   UNL     1     -10.772  18.312  67.472  1.00  0.00    -0.406 NA 
HETATM   17  C   UNL     1     -10.699  19.579  67.233  1.00  0.00    -0.484 C  
HETATM   18  H   UNL     1     -11.584  17.892  67.923  1.00  0.00     0.000 HD 
HETATM   19  N   UNL     1      -9.712  20.354  66.669  1.00  0.00    -0.614 NA 
HETATM   20  C   UNL     1      -8.337  20.378  67.185  1.00  0.00    -0.318 C  
HETATM   21  H   UNL     1      -9.944  20.933  65.863  1.00  0.00     0.000 HD 
HETATM   22  C   UNL     1      -7.649  19.040  67.550  1.00  0.00    -0.235 C  
HETATM   23  O   UNL     1      -7.472  18.982  68.981  1.00  0.00    -0.336 OA 
HETATM   24  H   UNL     1      -7.031  19.762  69.298  1.00  0.00     0.000 HD 
ENDBRANCH   6  11
ENDBRANCH   2   4
TORSDOF 2
ENDMDL
MODEL       21
REMARK 921   NORMALIZED FREE ENERGY PREDICTED BY IDOCK:   -6.00 KCAL/MOL
REMARK 922        TOTAL FREE ENERGY PREDICTED BY IDOCK:   -7.40 KCAL/MOL
REMARK 923 INTER-LIGAND FREE ENERGY PREDICTED BY IDOCK:   -6.81 KCAL/MOL
REMARK 924 INTRA-LIGAND FREE ENERGY PREDICTED BY IDOCK:   -0.59 KCAL/MOL
REMARK 927      BINDING AFFINITY PREDICTED BY RF-SCORE:    0.00 PKD
ROOT
HETATM    1  O5* UNL     1     -10.297  11.747  62.912  1.00  0.00    -0.641 OA 
HETATM    2  C5* UNL     1      -9.933  12.034  64.263  1.00  0.00    -0.240 C  
HETATM    3  H5* UNL     1      -9.527  11.635  62.367  1.00  0.00     0.000 HD 
ENDROOT
BRANCH   2   4
HETATM    4  C4* UNL     1     -11.171  12.215  65.140  1.00  0.00    -0.329 C  
HETATM    5  O4* UNL     1     -10.814  12.926  66.340  1.00  0.00    -0.270 OA 
HETATM    6  C1* UNL     1     -11.972  13.670  66.762  1.00  0.00    -0.414 C  
HETATM    7  H3* UNL     1     -14.014  12.626  63.616  1.00  0.00     0.000 HD 
HETATM    8  C2* UNL     1     -12.784  13.972  65.508  1.00  0.00    -0.517 C  
HETATM    9  C3* UNL     1     -12.280  13.007  64.462  1.00  0.00    -0.416 C  
HETATM   10  O3* UNL     1     -13.323  12.131  64.039  1.00  0.00    -0.706 OA 
BRANCH   6  11
HETATM   11  N   UNL     1     -11.561  14.850  67.504  1.00  0.00    -0.353 NA 
HETATM   12  C   UNL     1     -11.908  15.180  68.784  1.00  0.00    -0.303 A  
HETATM   13  C   UNL     1     -10.659  16.755  68.065  1.00  0.00    -0.347 A  
HETATM   14  N   UNL     1     -11.378  16.322  69.159  1.00  0.00    -0.317 NA 
HETATM   15  C   UNL     1     -10.730  15.838  67.029  1.00  0.00    -0.306 A  
HETATM   16  N   UNL     1     -10.157  15.771  65.803  1.00  0.00    -0.344 NA 
HETATM   17  C   UNL     1      -8.953  16.228  65.720  1.00  0.00    -0.030 C  
HETATM   18  H   UNL     1     -10.647  15.385  64.997  1.00  0.00     0.000 HD 
HETATM   19  N   UNL     1      -8.120  16.806  66.651  1.00  0.00    -0.235 NA 
HETATM   20  C   UNL     1      -8.509  17.990  67.429  1.00  0.00    -0.240 C  
HETATM   21  H   UNL     1      -7.200  16.397  66.807  1.00  0.00     0.000 HD 
HETATM   22  C   UNL     1      -9.925  18.046  68.054  1.00  0.00    -0.343 C  
HETATM   23  O   UNL     1     -10.692  19.065  67.379  1.00  0.00    -0.461 OA 
HETATM   24  H   UNL     1     -10.222  19.891  67.372  1.00  0.00     0.000 HD 
ENDBRANCH   6  11
ENDBRANCH   2   4
TORSDOF 2
ENDMDL
MODEL       22
REMARK 921   NORMALIZED FREE ENERGY PREDICTED BY IDOCK:   -5.93 KCAL/MOL
REMARK 922        TOTAL FREE ENERGY PREDICTED BY IDOCK:   -7.31 KCAL/MOL
REMARK 923 INTER-LIGAND FREE ENERGY PREDICTED BY IDOCK:   -6.97 KCAL/MOL
REMARK 924 INTRA-LIGAND FREE ENERGY PREDICTED BY IDOCK:   -0.34 KCAL/MOL
REMARK 927      BINDING AFFINITY PREDICTED BY RF-SCORE:    0.00 PKD
ROOT
HETATM    1  O5* UNL     1     -13.556   8.734  73.090  1.00  0.00    -0.970 OA 
HETATM    2  C5* UNL     1     -13.080   9.906  72.427  1.00  0.00    -0.207 C  
HETATM    3  H5* UNL     1     -13.970   8.953  73.917  1.00  0.00     0.000 HD 
ENDROOT
BRANCH   2   4
HETATM    4  C4* UNL     1     -12.414   9.554  71.097  1.00  0.00    -0.315 C  
HETATM    5  O4* UNL     1     -12.834  10.488  70.085  1.00  0.00    -0.264 OA 
HETATM    6  C1* UNL     1     -11.759  10.605  69.134  1.00  0.00    -0.253 C  
HETATM    7  H3* UNL     1      -9.409   8.317  71.231  1.00  0.00     0.000 HD 
HETATM    8  C2* UNL     1     -10.468  10.313  69.888  1.00  0.00    -0.304 C  
HETATM    9  C3* UNL     1     -10.894   9.606  71.152  1.00  0.00    -0.334 C  
HETATM   10  O3* UNL     1     -10.358   8.285  71.197  1.00  0.00    -0.195 OA 
BRANCH   6  11
HETATM   11  N   UNL     1     -11.796  11.913  68.502  1.00  0.00    -0.368 NA 
HETATM   12  C   UNL     1     -11.984  13.120  69.115  1.00  0.00    -0.281 A  
HETATM   13  C   UNL     1     -11.780  13.522  67.029  1.00  0.00    -0.383 A  
HETATM   14  N   UNL     1     -11.977  14.115  68.258  1.00  0.00    -0.351 NA 
HETATM   15  C   UNL     1     -11.632  12.151  67.156  1.00  0.00    -0.335 A  
HETATM   16  N   UNL     1     -11.359  11.158  66.277  1.00  0.00    -0.179 NA 
HETATM   17  C   UNL     1     -10.547  11.462  65.320  1.00  0.00    -0.277 C  
HETATM   18  H   UNL     1     -11.769  10.228  66.365  1.00  0.00     0.000 HD 
HETATM   19  N   UNL     1      -9.903  12.634  64.996  1.00  0.00    -0.476 NA 
HETATM   20  C   UNL     1     -10.626  13.894  64.775  1.00  0.00    -0.426 C  
HETATM   21  H   UNL     1      -8.888  12.628  64.905  1.00  0.00     0.000 HD 
HETATM   22  C   UNL     1     -11.745  14.301  65.765  1.00  0.00    -0.359 C  
HETATM   23  O   UNL     1     -13.015  14.232  65.085  1.00  0.00    -0.692 OA 
HETATM   24  H   UNL     1     -12.993  14.730  64.276  1.00  0.00     0.000 HD 
ENDBRANCH   6  11
ENDBRANCH   2   4
TORSDOF 2
ENDMDL
MODEL       23
REMARK 921   NORMALIZED FREE ENERGY PREDICTED BY IDOCK:   -5.92 KCAL/MOL
REMARK 922        TOTAL FREE ENERGY PREDICTED BY IDOCK:   -7.30 KCAL/MOL
REMARK 923 INTER-LIGAND FREE ENERGY PREDICTED BY IDOCK:   -6.64 KCAL/MOL
REMARK 924 INTRA-LIGAND FREE ENERGY PREDICTED BY IDOCK:   -0.65 KCAL/MOL
REMARK 927      BINDING AFFINITY PREDICTED BY RF-SCORE:    0.00 PKD
ROOT
HETATM    1  O5* UNL     1     -10.075  10.937  62.815  1.00  0.00    -0.630 OA 
HETATM    2  C5* UNL     1      -9.959  11.361  64.173  1.00  0.00    -0.290 C  
HETATM    3  H5* UNL     1      -9.303  10.458  62.539  1.00  0.00     0.000 HD 
ENDROOT
BRANCH   2   4
HETATM    4  C4* UNL     1     -11.201  12.133  64.618  1.00  0.00    -0.323 C  
HETATM    5  O4* UNL     1     -10.823  13.163  65.549  1.00  0.00    -0.278 OA 
HETATM    6  C1* UNL     1     -11.765  14.243  65.405  1.00  0.00    -0.354 C  
HETATM    7  H3* UNL     1     -13.568  12.513  62.419  1.00  0.00     0.000 HD 
HETATM    8  C2* UNL     1     -12.274  14.196  63.970  1.00  0.00    -0.369 C  
HETATM    9  C3* UNL     1     -11.931  12.814  63.468  1.00  0.00    -0.555 C  
HETATM   10  O3* UNL     1     -13.113  12.088  63.136  1.00  0.00    -0.624 OA 
BRANCH   6  11
HETATM   11  N   UNL     1     -11.138  15.501  65.773  1.00  0.00    -0.268 NA 
HETATM   12  C   UNL     1     -10.930  16.586  64.967  1.00  0.00    -0.210 A  
HETATM   13  C   UNL     1     -10.126  17.085  66.880  1.00  0.00    -0.298 A  
HETATM   14  N   UNL     1     -10.325  17.563  65.603  1.00  0.00    -0.633 NA 
HETATM   15  C   UNL     1     -10.652  15.812  67.023  1.00  0.00    -0.316 A  
HETATM   16  N   UNL     1     -10.768  14.963  68.072  1.00  0.00    -0.248 NA 
HETATM   17  C   UNL     1     -10.995  15.514  69.218  1.00  0.00    -0.268 C  
HETATM   18  H   UNL     1     -10.680  13.953  67.964  1.00  0.00     0.000 HD 
HETATM   19  N   UNL     1     -11.124  16.830  69.597  1.00  0.00    -0.359 NA 
HETATM   20  C   UNL     1     -10.086  17.834  69.328  1.00  0.00    -0.135 C  
HETATM   21  H   UNL     1     -11.972  17.119  70.084  1.00  0.00     0.000 HD 
HETATM   22  C   UNL     1      -9.428  17.874  67.927  1.00  0.00    -0.272 C  
HETATM   23  O   UNL     1      -8.051  17.460  68.047  1.00  0.00    -0.214 OA 
HETATM   24  H   UNL     1      -7.604  17.965  68.717  1.00  0.00     0.000 HD 
ENDBRANCH   6  11
ENDBRANCH   2   4
TORSDOF 2
ENDMDL
MODEL       24
REMARK 921   NORMALIZED FREE ENERGY PREDICTED BY IDOCK:   -5.89 KCAL/MOL
REMARK 922        TOTAL FREE ENERGY PREDICTED BY IDOCK:   -7.27 KCAL/MOL
REMARK 923 INTER-LIGAND FREE ENERGY PREDICTED BY IDOCK:   -6.73 KCAL/MOL
REMARK 924 INTRA-LIGAND FREE ENERGY PREDICTED BY IDOCK:   -0.54 KCAL/MOL
REMARK 927      BINDING AFFINITY PREDICTED BY RF-SCORE:    0.00 PKD
ROOT
HETATM    1  O5* UNL     1     -12.249   8.040  73.179  1.00  0.00    -0.659 OA 
HETATM    2  C5* UNL     1     -13.145   8.764  72.335  1.00  0.00    -0.391 C  
HETATM    3  H5* UNL     1     -12.623   7.909  74.043  1.00  0.00     0.000 HD 
ENDROOT
BRANCH   2   4
HETATM    4  C4* UNL     1     -12.544   8.975  70.946  1.00  0.00    -0.030 C  
HETATM    5  O4* UNL     1     -12.987  10.238  70.414  1.00  0.00    -0.272 OA 
HETATM    6  C1* UNL     1     -11.951  10.726  69.541  1.00  0.00    -0.292 C  
HETATM    7  H3* UNL     1      -9.562   7.783  70.431  1.00  0.00     0.000 HD 
HETATM    8  C2* UNL     1     -10.636  10.152  70.053  1.00  0.00    -0.338 C  
HETATM    9  C3* UNL     1     -11.022   8.998  70.945  1.00  0.00    -0.268 C  
HETATM   10  O3* UNL     1     -10.512   7.769  70.432  1.00  0.00    -0.213 OA 
BRANCH   6  11
HETATM   11  N   UNL     1     -11.988  12.177  69.490  1.00  0.00    -0.297 NA 
HETATM   12  C   UNL     1     -11.677  12.973  68.422  1.00  0.00    -0.351 A  
HETATM   13  C   UNL     1     -12.207  14.281  70.023  1.00  0.00    -0.359 A  
HETATM   14  N   UNL     1     -11.802  14.249  68.707  1.00  0.00    -0.334 NA 
HETATM   15  C   UNL     1     -12.363  13.000  70.527  1.00  0.00    -0.287 A  
HETATM   16  N   UNL     1     -12.796  12.512  71.714  1.00  0.00    -0.288 NA 
HETATM   17  C   UNL     1     -13.745  13.178  72.282  1.00  0.00    -0.551 C  
HETATM   18  H   UNL     1     -12.398  11.672  72.133  1.00  0.00     0.000 HD 
HETATM   19  N   UNL     1     -14.407  14.329  71.922  1.00  0.00    -0.514 NA 
HETATM   20  C   UNL     1     -13.703  15.587  71.639  1.00  0.00    -0.466 C  
HETATM   21  H   UNL     1     -15.423  14.308  71.848  1.00  0.00     0.000 HD 
HETATM   22  C   UNL     1     -12.430  15.552  70.758  1.00  0.00    -0.440 C  
HETATM   23  O   UNL     1     -11.288  15.877  71.578  1.00  0.00    -0.379 OA 
HETATM   24  H   UNL     1     -11.430  16.690  72.048  1.00  0.00     0.000 HD 
ENDBRANCH   6  11
ENDBRANCH   2   4
TORSDOF 2
ENDMDL
MODEL       25
REMARK 921   NORMALIZED FREE ENERGY PREDICTED BY IDOCK:   -5.88 KCAL/MOL
REMARK 922        TOTAL FREE ENERGY PREDICTED BY IDOCK:   -7.25 KCAL/MOL
REMARK 923 INTER-LIGAND FREE ENERGY PREDICTED BY IDOCK:   -6.89 KCAL/MOL
REMARK 924 INTRA-LIGAND FREE ENERGY PREDICTED BY IDOCK:   -0.37 KCAL/MOL
REMARK 927      BINDING AFFINITY PREDICTED BY RF-SCORE:    0.00 PKD
ROOT
HETATM    1  O5* UNL     1      -9.899  20.290  65.633  1.00  0.00    -0.574 OA 
HETATM    2  C5* UNL     1     -10.185  20.046  67.011  1.00  0.00    -0.451 C  
HETATM    3  H5* UNL     1     -10.115  21.183  65.392  1.00  0.00     0.000 HD 
ENDROOT
BRANCH   2   4
HETATM    4  C4* UNL     1      -9.839  18.609  67.398  1.00  0.00    -0.318 C  
HETATM    5  O4* UNL     1     -10.850  17.715  66.894  1.00  0.00    -0.203 OA 
HETATM    6  C1* UNL     1     -10.215  16.449  66.635  1.00  0.00    -0.294 C  
HETATM    7  H3* UNL     1      -6.684  17.829  67.518  1.00  0.00     0.000 HD 
HETATM    8  C2* UNL     1      -8.755  16.743  66.318  1.00  0.00    -0.342 C  
HETATM    9  C3* UNL     1      -8.504  18.137  66.839  1.00  0.00    -0.253 C  
HETATM   10  O3* UNL     1      -7.517  18.123  67.867  1.00  0.00    -0.219 OA 
BRANCH   6  11
HETATM   11  N   UNL     1     -10.924  15.746  65.579  1.00  0.00    -0.302 NA 
HETATM   12  C   UNL     1     -11.634  16.301  64.551  1.00  0.00    -0.091 A  
HETATM   13  C   UNL     1     -11.788  14.185  64.324  1.00  0.00    -0.397 A  
HETATM   14  N   UNL     1     -12.166  15.389  63.770  1.00  0.00    -0.429 NA 
HETATM   15  C   UNL     1     -10.985  14.379  65.436  1.00  0.00    -0.339 A  
HETATM   16  N   UNL     1     -10.322  13.537  66.265  1.00  0.00    -0.287 NA 
HETATM   17  C   UNL     1      -9.825  12.481  65.713  1.00  0.00    -0.234 C  
HETATM   18  H   UNL     1     -10.223  13.725  67.262  1.00  0.00     0.000 HD 
HETATM   19  N   UNL     1      -9.855  12.017  64.418  1.00  0.00    -0.440 NA 
HETATM   20  C   UNL     1     -11.110  11.800  63.688  1.00  0.00    -0.439 C  
HETATM   21  H   UNL     1      -8.972  11.817  63.949  1.00  0.00     0.000 HD 
HETATM   22  C   UNL     1     -12.218  12.879  63.762  1.00  0.00    -0.476 C  
HETATM   23  O   UNL     1     -13.337  12.347  64.502  1.00  0.00    -0.800 OA 
HETATM   24  H   UNL     1     -13.613  11.511  64.142  1.00  0.00     0.000 HD 
ENDBRANCH   6  11
ENDBRANCH   2   4
TORSDOF 2
ENDMDL
MODEL       26
REMARK 921   NORMALIZED FREE ENERGY PREDICTED BY IDOCK:   -5.80 KCAL/MOL
REMARK 922        TOTAL FREE ENERGY PREDICTED BY IDOCK:   -7.16 KCAL/MOL
REMARK 923 INTER-LIGAND FREE ENERGY PREDICTED BY IDOCK:   -6.61 KCAL/MOL
REMARK 924 INTRA-LIGAND FREE ENERGY PREDICTED BY IDOCK:   -0.55 KCAL/MOL
REMARK 927      BINDING AFFINITY PREDICTED BY RF-SCORE:    0.00 PKD
ROOT
HETATM    1  O5* UNL     1     -14.158   9.197  72.870  1.00  0.00    -0.989 OA 
HETATM    2  C5* UNL     1     -13.272  10.174  72.321  1.00  0.00    -0.261 C  
HETATM    3  H5* UNL     1     -14.575   9.520  73.660  1.00  0.00     0.000 HD 
ENDROOT
BRANCH   2   4
HETATM    4  C4* UNL     1     -12.600   9.655  71.050  1.00  0.00    -0.283 C  
HETATM    5  O4* UNL     1     -12.769  10.613  69.988  1.00  0.00    -0.278 OA 
HETATM    6  C1* UNL     1     -11.631  10.492  69.113  1.00  0.00    -0.224 C  
HETATM    7  H3* UNL     1      -9.898   7.884  71.426  1.00  0.00     0.000 HD 
HETATM    8  C2* UNL     1     -10.471   9.991  69.964  1.00  0.00    -0.337 C  
HETATM    9  C3* UNL     1     -11.104   9.423  71.211  1.00  0.00    -0.376 C  
HETATM   10  O3* UNL     1     -10.832   8.028  71.326  1.00  0.00    -0.227 OA 
BRANCH   6  11
HETATM   11  N   UNL     1     -11.380  11.760  68.449  1.00  0.00    -0.245 NA 
HETATM   12  C   UNL     1     -11.177  11.964  67.113  1.00  0.00    -0.319 A  
HETATM   13  C   UNL     1     -11.025  13.875  68.052  1.00  0.00    -0.251 A  
HETATM   14  N   UNL     1     -10.964  13.231  66.835  1.00  0.00    -0.280 NA 
HETATM   15  C   UNL     1     -11.315  12.985  69.072  1.00  0.00    -0.289 A  
HETATM   16  N   UNL     1     -11.542  13.131  70.400  1.00  0.00    -0.520 NA 
HETATM   17  C   UNL     1     -12.168  14.205  70.748  1.00  0.00    -0.365 C  
HETATM   18  H   UNL     1     -11.236  12.437  71.081  1.00  0.00     0.000 HD 
HETATM   19  N   UNL     1     -12.645  15.271  70.020  1.00  0.00    -0.597 NA 
HETATM   20  C   UNL     1     -11.785  16.067  69.134  1.00  0.00    -0.307 C  
HETATM   21  H   UNL     1     -13.631  15.517  70.099  1.00  0.00     0.000 HD 
HETATM   22  C   UNL     1     -10.797  15.336  68.192  1.00  0.00    -0.273 C  
HETATM   23  O   UNL     1      -9.449  15.604  68.633  1.00  0.00    -0.190 OA 
HETATM   24  H   UNL     1      -9.303  16.539  68.723  1.00  0.00     0.000 HD 
ENDBRANCH   6  11
ENDBRANCH   2   4
TORSDOF 2
ENDMDL
MODEL       27
REMARK 921   NORMALIZED FREE ENERGY PREDICTED BY IDOCK:   -5.77 KCAL/MOL
REMARK 922        TOTAL FREE ENERGY PREDICTED BY IDOCK:   -7.13 KCAL/MOL
REMARK 923 INTER-LIGAND FREE ENERGY PREDICTED BY IDOCK:   -6.42 KCAL/MOL
REMARK 924 INTRA-LIGAND FREE ENERGY PREDICTED BY IDOCK:   -0.72 KCAL/MOL
REMARK 927      BINDING AFFINITY PREDICTED BY RF-SCORE:    0.00 PKD
ROOT
HETATM    1  O5* UNL     1     -12.456  14.109  67.489  1.00  0.00    -0.542 OA 
HETATM    2  C5* UNL     1     -11.472  14.861  66.779  1.00  0.00    -0.301 C  
HETATM    3  H5* UNL     1     -12.702  14.544  68.297  1.00  0.00     0.000 HD 
ENDROOT
BRANCH   2   4
HETATM    4  C4* UNL     1     -11.076  14.161  65.479  1.00  0.00    -0.310 C  
HETATM    5  O4* UNL     1     -10.177  13.075  65.769  1.00  0.00    -0.282 OA 
HETATM    6  C1* UNL     1     -10.376  12.068  64.759  1.00  0.00    -0.280 C  
HETATM    7  H3* UNL     1     -13.325  14.022  63.133  1.00  0.00     0.000 HD 
HETATM    8  C2* UNL     1     -11.816  12.201  64.280  1.00  0.00    -0.460 C  
HETATM    9  C3* UNL     1     -12.262  13.573  64.726  1.00  0.00    -0.409 C  
HETATM   10  O3* UNL     1     -12.585  14.389  63.603  1.00  0.00    -0.817 OA 
BRANCH   6  11
HETATM   11  N   UNL     1     -10.044  10.758  65.292  1.00  0.00    -0.273 NA 
HETATM   12  C   UNL     1      -9.174   9.848  64.759  1.00  0.00    -0.254 A  
HETATM   13  C   UNL     1      -9.980   8.960  66.525  1.00  0.00    -0.288 A  
HETATM   14  N   UNL     1      -9.107   8.751  65.479  1.00  0.00    -0.192 NA 
HETATM   15  C   UNL     1     -10.554  10.218  66.450  1.00  0.00    -0.107 A  
HETATM   16  N   UNL     1     -11.401  10.905  67.253  1.00  0.00    -0.444 NA 
HETATM   17  C   UNL     1     -11.249  10.717  68.521  1.00  0.00    -0.279 C  
HETATM   18  H   UNL     1     -12.115  11.530  66.880  1.00  0.00     0.000 HD 
HETATM   19  N   UNL     1     -10.388   9.919  69.238  1.00  0.00    -0.205 NA 
HETATM   20  C   UNL     1     -10.290   8.470  69.018  1.00  0.00    -0.216 C  
HETATM   21  H   UNL     1      -9.795  10.349  69.947  1.00  0.00     0.000 HD 
HETATM   22  C   UNL     1     -10.236   7.933  67.567  1.00  0.00    -0.242 C  
HETATM   23  O   UNL     1     -11.457   7.216  67.289  1.00  0.00    -0.516 OA 
HETATM   24  H   UNL     1     -11.621   6.558  67.956  1.00  0.00     0.000 HD 
ENDBRANCH   6  11
ENDBRANCH   2   4
TORSDOF 2
ENDMDL
MODEL       28
REMARK 921   NORMALIZED FREE ENERGY PREDICTED BY IDOCK:   -5.74 KCAL/MOL
REMARK 922        TOTAL FREE ENERGY PREDICTED BY IDOCK:   -7.10 KCAL/MOL
REMARK 923 INTER-LIGAND FREE ENERGY PREDICTED BY IDOCK:   -6.58 KCAL/MOL
REMARK 924 INTRA-LIGAND FREE ENERGY PREDICTED BY IDOCK:   -0.52 KCAL/MOL
REMARK 927      BINDING AFFINITY PREDICTED BY RF-SCORE:    0.00 PKD
ROOT
HETATM    1  O5* UNL     1     -10.662   8.119  67.882  1.00  0.00    -0.417 OA 
HETATM    2  C5* UNL     1      -9.901   8.289  69.078  1.00  0.00    -0.176 C  
HETATM    3  H5* UNL     1     -10.461   7.290  67.464  1.00  0.00     0.000 HD 
ENDROOT
BRANCH   2   4
HETATM    4  C4* UNL     1     -10.223   9.623  69.752  1.00  0.00    -0.237 C  
HETATM    5  O4* UNL     1     -10.079  10.693  68.799  1.00  0.00    -0.174 OA 
HETATM    6  C1* UNL     1     -11.000  11.733  69.177  1.00  0.00    -0.209 C  
HETATM    7  H3* UNL     1     -12.518   9.597  72.056  1.00  0.00     0.000 HD 
HETATM    8  C2* UNL     1     -12.158  11.058  69.900  1.00  0.00    -0.435 C  
HETATM    9  C3* UNL     1     -11.642   9.695  70.297  1.00  0.00    -0.198 C  
HETATM   10  O3* UNL     1     -11.632   9.552  71.716  1.00  0.00    -0.385 OA 
BRANCH   6  11
HETATM   11  N   UNL     1     -11.394  12.497  68.005  1.00  0.00    -0.267 NA 
HETATM   12  C   UNL     1     -11.905  13.765  67.980  1.00  0.00    -0.373 A  
HETATM   13  C   UNL     1     -11.821  13.102  65.953  1.00  0.00    -0.406 A  
HETATM   14  N   UNL     1     -12.170  14.165  66.757  1.00  0.00    -0.444 NA 
HETATM   15  C   UNL     1     -11.304  12.059  66.703  1.00  0.00    -0.340 A  
HETATM   16  N   UNL     1     -10.771  10.855  66.383  1.00  0.00    -0.229 NA 
HETATM   17  C   UNL     1     -10.075  10.820  65.296  1.00  0.00    -0.290 C  
HETATM   18  H   UNL     1     -10.911  10.029  66.964  1.00  0.00     0.000 HD 
HETATM   19  N   UNL     1      -9.777  11.785  64.362  1.00  0.00    -0.410 NA 
HETATM   20  C   UNL     1     -10.816  12.553  63.664  1.00  0.00    -0.441 C  
HETATM   21  H   UNL     1      -8.799  11.974  64.146  1.00  0.00     0.000 HD 
HETATM   22  C   UNL     1     -12.002  13.124  64.479  1.00  0.00    -0.389 C  
HETATM   23  O   UNL     1     -13.207  12.427  64.100  1.00  0.00    -0.761 OA 
HETATM   24  H   UNL     1     -13.323  12.441  63.157  1.00  0.00     0.000 HD 
ENDBRANCH   6  11
ENDBRANCH   2   4
TORSDOF 2
ENDMDL
MODEL       29
REMARK 921   NORMALIZED FREE ENERGY PREDICTED BY IDOCK:   -5.74 KCAL/MOL
REMARK 922        TOTAL FREE ENERGY PREDICTED BY IDOCK:   -7.10 KCAL/MOL
REMARK 923 INTER-LIGAND FREE ENERGY PREDICTED BY IDOCK:   -6.87 KCAL/MOL
REMARK 924 INTRA-LIGAND FREE ENERGY PREDICTED BY IDOCK:   -0.23 KCAL/MOL
REMARK 927      BINDING AFFINITY PREDICTED BY RF-SCORE:    0.00 PKD
ROOT
HETATM    1  O5* UNL     1      -7.486  18.680  65.535  1.00  0.00    -0.505 OA 
HETATM    2  C5* UNL     1      -8.063  19.632  66.429  1.00  0.00    -0.326 C  
HETATM    3  H5* UNL     1      -6.652  18.988  65.199  1.00  0.00     0.000 HD 
ENDROOT
BRANCH   2   4
HETATM    4  C4* UNL     1      -9.404  19.137  66.969  1.00  0.00    -0.309 C  
HETATM    5  O4* UNL     1      -9.709  17.850  66.402  1.00  0.00    -0.310 OA 
HETATM    6  C1* UNL     1     -10.501  17.130  67.365  1.00  0.00    -0.334 C  
HETATM    7  H3* UNL     1     -10.153  19.947  70.029  1.00  0.00     0.000 HD 
HETATM    8  C2* UNL     1     -10.111  17.657  68.740  1.00  0.00    -0.377 C  
HETATM    9  C3* UNL     1      -9.422  18.975  68.483  1.00  0.00    -0.383 C  
HETATM   10  O3* UNL     1     -10.142  20.049  69.085  1.00  0.00    -0.366 OA 
BRANCH   6  11
HETATM   11  N   UNL     1     -10.306  15.700  67.199  1.00  0.00    -0.279 NA 
HETATM   12  C   UNL     1      -9.328  15.080  66.471  1.00  0.00    -0.281 A  
HETATM   13  C   UNL     1     -10.543  13.533  67.302  1.00  0.00    -0.263 A  
HETATM   14  N   UNL     1      -9.437  13.771  66.514  1.00  0.00    -0.281 NA 
HETATM   15  C   UNL     1     -11.085  14.719  67.769  1.00  0.00    -0.299 A  
HETATM   16  N   UNL     1     -12.108  15.009  68.609  1.00  0.00    -0.583 NA 
HETATM   17  C   UNL     1     -12.273  14.191  69.595  1.00  0.00    -0.326 C  
HETATM   18  H   UNL     1     -12.709  15.821  68.472  1.00  0.00     0.000 HD 
HETATM   19  N   UNL     1     -11.613  13.040  69.958  1.00  0.00    -0.525 NA 
HETATM   20  C   UNL     1     -11.458  11.899  69.046  1.00  0.00    -0.297 C  
HETATM   21  H   UNL     1     -11.216  12.977  70.895  1.00  0.00     0.000 HD 
HETATM   22  C   UNL     1     -11.045  12.163  67.577  1.00  0.00    -0.275 C  
HETATM   23  O   UNL     1     -12.156  11.842  66.716  1.00  0.00    -0.547 OA 
HETATM   24  H   UNL     1     -12.478  10.965  66.892  1.00  0.00     0.000 HD 
ENDBRANCH   6  11
ENDBRANCH   2   4
TORSDOF 2
ENDMDL
MODEL       30
REMARK 921   NORMALIZED FREE ENERGY PREDICTED BY IDOCK:   -5.69 KCAL/MOL
REMARK 922        TOTAL FREE ENERGY PREDICTED BY IDOCK:   -7.05 KCAL/MOL
REMARK 923 INTER-LIGAND FREE ENERGY PREDICTED BY IDOCK:   -6.72 KCAL/MOL
REMARK 924 INTRA-LIGAND FREE ENERGY PREDICTED BY IDOCK:   -0.33 KCAL/MOL
REMARK 927      BINDING AFFINITY PREDICTED BY RF-SCORE:    0.00 PKD
ROOT
HETATM    1  O5* UNL     1     -12.031   8.216  72.791  1.00  0.00    -0.559 OA 
HETATM    2  C5* UNL     1     -11.122   8.412  71.707  1.00  0.00    -0.290 C  
HETATM    3  H5* UNL     1     -11.975   7.330  73.128  1.00  0.00     0.000 HD 
ENDROOT
BRANCH   2   4
HETATM    4  C4* UNL     1     -11.212   9.837  71.163  1.00  0.00    -0.374 C  
HETATM    5  O4* UNL     1     -10.458   9.937  69.940  1.00  0.00    -0.232 OA 
HETATM    6  C1* UNL     1     -11.084  10.948  69.128  1.00  0.00    -0.245 C  
HETATM    7  H3* UNL     1     -14.001  11.434  71.660  1.00  0.00     0.000 HD 
HETATM    8  C2* UNL     1     -12.558  10.973  69.512  1.00  0.00    -0.002 C  
HETATM    9  C3* UNL     1     -12.636  10.273  70.848  1.00  0.00    -0.371 C  
HETATM   10  O3* UNL     1     -13.113  11.162  71.857  1.00  0.00    -0.488 OA 
BRANCH   6  11
HETATM   11  N   UNL     1     -10.840  10.676  67.722  1.00  0.00    -0.263 NA 
HETATM   12  C   UNL     1     -10.377   9.512  67.175  1.00  0.00    -0.253 A  
HETATM   13  C   UNL     1     -10.650  10.878  65.558  1.00  0.00    -0.170 A  
HETATM   14  N   UNL     1     -10.254   9.595  65.870  1.00  0.00    -0.221 NA 
HETATM   15  C   UNL     1     -11.052  11.564  66.692  1.00  0.00    -0.295 A  
HETATM   16  N   UNL     1     -11.575  12.796  66.899  1.00  0.00    -0.347 NA 
HETATM   17  C   UNL     1     -12.380  13.226  65.985  1.00  0.00    -0.386 C  
HETATM   18  H   UNL     1     -11.348  13.350  67.725  1.00  0.00     0.000 HD 
HETATM   19  N   UNL     1     -12.805  12.673  64.799  1.00  0.00    -0.830 NA 
HETATM   20  C   UNL     1     -11.870  12.227  63.758  1.00  0.00    -0.498 C  
HETATM   21  H   UNL     1     -13.806  12.570  64.637  1.00  0.00     0.000 HD 
HETATM   22  C   UNL     1     -10.625  11.404  64.170  1.00  0.00    -0.369 C  
HETATM   23  O   UNL     1      -9.444  12.203  63.946  1.00  0.00    -0.527 OA 
HETATM   24  H   UNL     1      -9.428  12.540  63.058  1.00  0.00     0.000 HD 
ENDBRANCH   6  11
ENDBRANCH   2   4
TORSDOF 2
ENDMDL
MODEL       31
REMARK 921   NORMALIZED FREE ENERGY PREDICTED BY IDOCK:   -5.66 KCAL/MOL
REMARK 922        TOTAL FREE ENERGY PREDICTED BY IDOCK:   -7.01 KCAL/MOL
REMARK 923 INTER-LIGAND FREE ENERGY PREDICTED BY IDOCK:   -6.62 KCAL/MOL
REMARK 924 INTRA-LIGAND FREE ENERGY PREDICTED BY IDOCK:   -0.39 KCAL/MOL
REMARK 927      BINDING AFFINITY PREDICTED BY RF-SCORE:    0.00 PKD
ROOT
HETATM    1  O5* UNL     1      -8.851  11.741  65.421  1.00  0.00    -0.403 OA 
HETATM    2  C5* UNL     1      -8.990  11.327  66.781  1.00  0.00    -0.171 C  
HETATM    3  H5* UNL     1      -8.223  11.197  64.961  1.00  0.00     0.000 HD 
ENDROOT
BRANCH   2   4
HETATM    4  C4* UNL     1     -10.000  12.202  67.523  1.00  0.00    -0.197 C  
HETATM    5  O4* UNL     1      -9.626  13.587  67.395  1.00  0.00    -0.215 OA 
HETATM    6  C1* UNL     1     -10.836  14.366  67.442  1.00  0.00    -0.292 C  
HETATM    7  H3* UNL     1     -13.093  11.196  67.542  1.00  0.00     0.000 HD 
HETATM    8  C2* UNL     1     -11.955  13.479  66.911  1.00  0.00    -0.447 C  
HETATM    9  C3* UNL     1     -11.419  12.070  66.988  1.00  0.00    -0.338 C  
HETATM   10  O3* UNL     1     -12.207  11.278  67.875  1.00  0.00    -0.570 OA 
BRANCH   6  11
HETATM   11  N   UNL     1     -10.657  15.605  66.705  1.00  0.00    -0.306 NA 
HETATM   12  C   UNL     1     -10.982  15.841  65.398  1.00  0.00    -0.309 A  
HETATM   13  C   UNL     1     -10.128  17.647  66.149  1.00  0.00    -0.301 A  
HETATM   14  N   UNL     1     -10.681  17.065  65.029  1.00  0.00    -0.693 NA 
HETATM   15  C   UNL     1     -10.131  16.768  67.219  1.00  0.00    -0.281 A  
HETATM   16  N   UNL     1      -9.769  16.882  68.520  1.00  0.00    -0.253 NA 
HETATM   17  C   UNL     1     -10.000  18.027  69.069  1.00  0.00    -0.284 C  
HETATM   18  H   UNL     1      -9.340  16.111  69.032  1.00  0.00     0.000 HD 
HETATM   19  N   UNL     1     -10.536  19.194  68.575  1.00  0.00    -0.446 NA 
HETATM   20  C   UNL     1      -9.985  19.877  67.397  1.00  0.00    -0.423 C  
HETATM   21  H   UNL     1     -11.344  19.599  69.045  1.00  0.00     0.000 HD 
HETATM   22  C   UNL     1      -9.610  19.039  66.151  1.00  0.00    -0.259 C  
HETATM   23  O   UNL     1      -8.175  19.051  65.996  1.00  0.00    -0.431 OA 
HETATM   24  H   UNL     1      -7.843  19.942  65.997  1.00  0.00     0.000 HD 
ENDBRANCH   6  11
ENDBRANCH   2   4
TORSDOF 2
ENDMDL
MODEL       32
REMARK 921   NORMALIZED FREE ENERGY PREDICTED BY IDOCK:   -5.62 KCAL/MOL
REMARK 922        TOTAL FREE ENERGY PREDICTED BY IDOCK:   -6.96 KCAL/MOL
REMARK 923 INTER-LIGAND FREE ENERGY PREDICTED BY IDOCK:   -6.39 KCAL/MOL
REMARK 924 INTRA-LIGAND FREE ENERGY PREDICTED BY IDOCK:   -0.57 KCAL/MOL
REMARK 927      BINDING AFFINITY PREDICTED BY RF-SCORE:    0.00 PKD
ROOT
HETATM    1  O5* UNL     1      -8.357  10.527  70.373  1.00  0.00    -0.258 OA 
HETATM    2  C5* UNL     1      -8.862   9.377  69.692  1.00  0.00    -0.172 C  
HETATM    3  H5* UNL     1      -7.479  10.372  70.700  1.00  0.00     0.000 HD 
ENDROOT
BRANCH   2   4
HETATM    4  C4* UNL     1     -10.275   9.626  69.166  1.00  0.00    -0.202 C  
HETATM    5  O4* UNL     1     -10.864  10.737  69.866  1.00  0.00    -0.261 OA 
HETATM    6  C1* UNL     1     -11.788  11.375  68.964  1.00  0.00    -0.348 C  
HETATM    7  H3* UNL     1     -10.800   9.040  66.010  1.00  0.00     0.000 HD 
HETATM    8  C2* UNL     1     -11.279  11.114  67.552  1.00  0.00    -0.369 C  
HETATM    9  C3* UNL     1     -10.316   9.959  67.681  1.00  0.00    -0.225 C  
HETATM   10  O3* UNL     1     -10.774   8.832  66.936  1.00  0.00    -0.240 OA 
BRANCH   6  11
HETATM   11  N   UNL     1     -11.918  12.783  69.300  1.00  0.00    -0.276 NA 
HETATM   12  C   UNL     1     -11.683  13.851  68.479  1.00  0.00    -0.355 A  
HETATM   13  C   UNL     1     -12.256  14.651  70.373  1.00  0.00    -0.329 A  
HETATM   14  N   UNL     1     -11.881  14.996  69.092  1.00  0.00    -0.312 NA 
HETATM   15  C   UNL     1     -12.318  13.276  70.521  1.00  0.00    -0.316 A  
HETATM   16  N   UNL     1     -12.690  12.463  71.539  1.00  0.00    -0.289 NA 
HETATM   17  C   UNL     1     -13.665  12.890  72.270  1.00  0.00    -0.458 C  
HETATM   18  H   UNL     1     -12.230  11.571  71.717  1.00  0.00     0.000 HD 
HETATM   19  N   UNL     1     -14.407  14.049  72.232  1.00  0.00    -0.619 NA 
HETATM   20  C   UNL     1     -13.790  15.381  72.288  1.00  0.00    -0.548 C  
HETATM   21  H   UNL     1     -15.421  13.980  72.163  1.00  0.00     0.000 HD 
HETATM   22  C   UNL     1     -12.539  15.666  71.421  1.00  0.00    -0.457 C  
HETATM   23  O   UNL     1     -11.400  15.838  72.289  1.00  0.00    -0.360 OA 
HETATM   24  H   UNL     1     -11.582  16.487  72.959  1.00  0.00     0.000 HD 
ENDBRANCH   6  11
ENDBRANCH   2   4
TORSDOF 2
ENDMDL
MODEL       33
REMARK 921   NORMALIZED FREE ENERGY PREDICTED BY IDOCK:   -5.58 KCAL/MOL
REMARK 922        TOTAL FREE ENERGY PREDICTED BY IDOCK:   -6.92 KCAL/MOL
REMARK 923 INTER-LIGAND FREE ENERGY PREDICTED BY IDOCK:   -6.39 KCAL/MOL
REMARK 924 INTRA-LIGAND FREE ENERGY PREDICTED BY IDOCK:   -0.53 KCAL/MOL
REMARK 927      BINDING AFFINITY PREDICTED BY RF-SCORE:    0.00 PKD
ROOT
HETATM    1  O5* UNL     1     -11.315   6.214  66.595  1.00  0.00    -0.727 OA 
HETATM    2  C5* UNL     1     -11.123   6.335  68.005  1.00  0.00    -0.265 C  
HETATM    3  H5* UNL     1     -11.928   5.518  66.391  1.00  0.00     0.000 HD 
ENDROOT
BRANCH   2   4
HETATM    4  C4* UNL     1     -10.135   7.454  68.333  1.00  0.00    -0.177 C  
HETATM    5  O4* UNL     1     -10.324   8.549  67.418  1.00  0.00    -0.243 OA 
HETATM    6  C1* UNL     1      -9.961   9.758  68.111  1.00  0.00    -0.154 C  
HETATM    7  H3* UNL     1      -9.366   7.874  71.465  1.00  0.00     0.000 HD 
HETATM    8  C2* UNL     1     -10.215   9.511  69.592  1.00  0.00    -0.234 C  
HETATM    9  C3* UNL     1     -10.301   8.011  69.740  1.00  0.00    -0.219 C  
HETATM   10  O3* UNL     1      -9.262   7.526  70.587  1.00  0.00    -0.158 OA 
BRANCH   6  11
HETATM   11  N   UNL     1     -10.695  10.885  67.561  1.00  0.00    -0.234 NA 
HETATM   12  C   UNL     1     -11.309  11.889  68.258  1.00  0.00    -0.277 A  
HETATM   13  C   UNL     1     -11.660  12.280  66.189  1.00  0.00    -0.390 A  
HETATM   14  N   UNL     1     -11.899  12.752  67.462  1.00  0.00    -0.363 NA 
HETATM   15  C   UNL     1     -10.884  11.134  66.220  1.00  0.00    -0.205 A  
HETATM   16  N   UNL     1     -10.338  10.351  65.259  1.00  0.00    -0.255 NA 
HETATM   17  C   UNL     1      -9.926  10.966  64.201  1.00  0.00    -0.344 C  
HETATM   18  H   UNL     1     -10.258   9.340  65.364  1.00  0.00     0.000 HD 
HETATM   19  N   UNL     1      -9.952  12.293  63.838  1.00  0.00    -0.566 NA 
HETATM   20  C   UNL     1     -11.195  13.075  63.801  1.00  0.00    -0.349 C  
HETATM   21  H   UNL     1      -9.077  12.750  63.585  1.00  0.00     0.000 HD 
HETATM   22  C   UNL     1     -12.195  12.952  64.977  1.00  0.00    -0.464 C  
HETATM   23  O   UNL     1     -13.387  12.289  64.508  1.00  0.00    -0.769 OA 
HETATM   24  H   UNL     1     -13.729  12.719  63.732  1.00  0.00     0.000 HD 
ENDBRANCH   6  11
ENDBRANCH   2   4
TORSDOF 2
ENDMDL
MODEL       34
REMARK 921   NORMALIZED FREE ENERGY PREDICTED BY IDOCK:   -5.58 KCAL/MOL
REMARK 922        TOTAL FREE ENERGY PREDICTED BY IDOCK:   -6.92 KCAL/MOL
REMARK 923 INTER-LIGAND FREE ENERGY PREDICTED BY IDOCK:   -6.55 KCAL/MOL
REMARK 924 INTRA-LIGAND FREE ENERGY PREDICTED BY IDOCK:   -0.37 KCAL/MOL
REMARK 927      BINDING AFFINITY PREDICTED BY RF-SCORE:    0.00 PKD
ROOT
HETATM    1  O5* UNL     1     -11.886   6.719  69.841  1.00  0.00    -0.622 OA 
HETATM    2  C5* UNL     1     -12.144   6.804  71.243  1.00  0.00    -0.370 C  
HETATM    3  H5* UNL     1     -11.856   5.814  69.553  1.00  0.00     0.000 HD 
ENDROOT
BRANCH   2   4
HETATM    4  C4* UNL     1     -12.191   8.259  71.708  1.00  0.00    -0.326 C  
HETATM    5  O4* UNL     1     -11.315   9.056  70.889  1.00  0.00    -0.267 OA 
HETATM    6  C1* UNL     1     -11.863  10.387  70.840  1.00  0.00    -0.377 C  
HETATM    7  H3* UNL     1     -15.032   9.353  72.851  1.00  0.00     0.000 HD 
HETATM    8  C2* UNL     1     -13.369  10.251  71.024  1.00  0.00    -0.299 C  
HETATM    9  C3* UNL     1     -13.579   8.877  71.614  1.00  0.00    -0.383 C  
HETATM   10  O3* UNL     1     -14.166   8.967  72.910  1.00  0.00    -0.528 OA 
BRANCH   6  11
HETATM   11  N   UNL     1     -11.471  11.039  69.602  1.00  0.00    -0.275 NA 
HETATM   12  C   UNL     1     -11.201  10.439  68.403  1.00  0.00    -0.258 A  
HETATM   13  C   UNL     1     -10.909  12.534  68.116  1.00  0.00    -0.222 A  
HETATM   14  N   UNL     1     -10.862  11.311  67.481  1.00  0.00    -0.228 NA 
HETATM   15  C   UNL     1     -11.318  12.396  69.432  1.00  0.00    -0.220 A  
HETATM   16  N   UNL     1     -11.578  13.280  70.425  1.00  0.00    -0.527 NA 
HETATM   17  C   UNL     1     -12.116  14.395  70.057  1.00  0.00    -0.343 C  
HETATM   18  H   UNL     1     -11.364  13.079  71.401  1.00  0.00     0.000 HD 
HETATM   19  N   UNL     1     -12.465  14.885  68.819  1.00  0.00    -0.529 NA 
HETATM   20  C   UNL     1     -11.504  14.991  67.713  1.00  0.00    -0.334 C  
HETATM   21  H   UNL     1     -13.426  15.186  68.664  1.00  0.00     0.000 HD 
HETATM   22  C   UNL     1     -10.553  13.802  67.430  1.00  0.00    -0.260 C  
HETATM   23  O   UNL     1      -9.204  14.198  67.754  1.00  0.00    -0.181 OA 
HETATM   24  H   UNL     1      -8.976  15.009  67.315  1.00  0.00     0.000 HD 
ENDBRANCH   6  11
ENDBRANCH   2   4
TORSDOF 2
ENDMDL
MODEL       35
REMARK 921   NORMALIZED FREE ENERGY PREDICTED BY IDOCK:   -5.56 KCAL/MOL
REMARK 922        TOTAL FREE ENERGY PREDICTED BY IDOCK:   -6.90 KCAL/MOL
REMARK 923 INTER-LIGAND FREE ENERGY PREDICTED BY IDOCK:   -6.35 KCAL/MOL
REMARK 924 INTRA-LIGAND FREE ENERGY PREDICTED BY IDOCK:   -0.54 KCAL/MOL
REMARK 927      BINDING AFFINITY PREDICTED BY RF-SCORE:    0.00 PKD
ROOT
HETATM    1  O5* UNL     1      -7.508  11.289  66.187  1.00  0.00    -0.326 OA 
HETATM    2  C5* UNL     1      -8.051  11.816  67.398  1.00  0.00    -0.161 C  
HETATM    3  H5* UNL     1      -6.564  11.398  66.160  1.00  0.00     0.000 HD 
ENDROOT
BRANCH   2   4
HETATM    4  C4* UNL     1      -9.568  11.641  67.443  1.00  0.00    -0.166 C  
HETATM    5  O4* UNL     1     -10.102  12.336  68.586  1.00  0.00    -0.212 OA 
HETATM    6  C1* UNL     1     -11.438  12.756  68.251  1.00  0.00    -0.314 C  
HETATM    7  H3* UNL     1     -11.120  11.470  64.590  1.00  0.00     0.000 HD 
HETATM    8  C2* UNL     1     -11.477  12.941  66.740  1.00  0.00    -0.391 C  
HETATM    9  C3* UNL     1     -10.276  12.193  66.213  1.00  0.00    -0.223 C  
HETATM   10  O3* UNL     1     -10.679  11.126  65.358  1.00  0.00    -0.258 OA 
BRANCH   6  11
HETATM   11  N   UNL     1     -11.787  13.947  69.006  1.00  0.00    -0.338 NA 
HETATM   12  C   UNL     1     -11.809  15.236  68.549  1.00  0.00    -0.281 A  
HETATM   13  C   UNL     1     -12.365  15.309  70.609  1.00  0.00    -0.377 A  
HETATM   14  N   UNL     1     -12.158  16.085  69.489  1.00  0.00    -0.214 NA 
HETATM   15  C   UNL     1     -12.172  13.967  70.327  1.00  0.00    -0.361 A  
HETATM   16  N   UNL     1     -12.315  12.833  71.053  1.00  0.00    -0.389 NA 
HETATM   17  C   UNL     1     -13.291  12.826  71.899  1.00  0.00    -0.413 C  
HETATM   18  H   UNL     1     -11.692  12.034  70.939  1.00  0.00     0.000 HD 
HETATM   19  N   UNL     1     -14.226  13.779  72.234  1.00  0.00    -0.631 NA 
HETATM   20  C   UNL     1     -13.851  15.126  72.685  1.00  0.00    -0.469 C  
HETATM   21  H   UNL     1     -15.214  13.541  72.167  1.00  0.00     0.000 HD 
HETATM   22  C   UNL     1     -12.741  15.891  71.923  1.00  0.00    -0.424 C  
HETATM   23  O   UNL     1     -11.587  16.011  72.779  1.00  0.00    -0.402 OA 
HETATM   24  H   UNL     1     -11.827  16.383  73.620  1.00  0.00     0.000 HD 
ENDBRANCH   6  11
ENDBRANCH   2   4
TORSDOF 2
ENDMDL
MODEL       36
REMARK 921   NORMALIZED FREE ENERGY PREDICTED BY IDOCK:   -5.52 KCAL/MOL
REMARK 922        TOTAL FREE ENERGY PREDICTED BY IDOCK:   -6.86 KCAL/MOL
REMARK 923 INTER-LIGAND FREE ENERGY PREDICTED BY IDOCK:   -6.21 KCAL/MOL
REMARK 924 INTRA-LIGAND FREE ENERGY PREDICTED BY IDOCK:   -0.65 KCAL/MOL
REMARK 927      BINDING AFFINITY PREDICTED BY RF-SCORE:    0.00 PKD
ROOT
HETATM    1  O5* UNL     1      -7.537  11.262  66.639  1.00  0.00    -0.146 OA 
HETATM    2  C5* UNL     1      -7.257  10.019  65.995  1.00  0.00    -0.112 C  
HETATM    3  H5* UNL     1      -6.922  11.429  67.343  1.00  0.00     0.000 HD 
ENDROOT
BRANCH   2   4
HETATM    4  C4* UNL     1      -8.246   9.750  64.862  1.00  0.00    -0.142 C  
HETATM    5  O4* UNL     1      -9.480  10.445  65.122  1.00  0.00    -0.206 OA 
HETATM    6  C1* UNL     1     -10.069  10.769  63.848  1.00  0.00    -0.333 C  
HETATM    7  H3* UNL     1      -7.010   9.390  61.875  1.00  0.00     0.000 HD 
HETATM    8  C2* UNL     1      -8.924  10.902  62.853  1.00  0.00    -0.294 C  
HETATM    9  C3* UNL     1      -7.747  10.216  63.502  1.00  0.00    -0.144 C  
HETATM   10  O3* UNL     1      -7.321   9.098  62.724  1.00  0.00    -0.098 OA 
BRANCH   6  11
HETATM   11  N   UNL     1     -10.893  11.960  63.971  1.00  0.00    -0.343 NA 
HETATM   12  C   UNL     1     -12.101  12.191  63.374  1.00  0.00    -0.507 A  
HETATM   13  C   UNL     1     -11.637  13.938  64.511  1.00  0.00    -0.393 A  
HETATM   14  N   UNL     1     -12.583  13.375  63.681  1.00  0.00    -0.727 NA 
HETATM   15  C   UNL     1     -10.587  13.063  64.735  1.00  0.00    -0.362 A  
HETATM   16  N   UNL     1      -9.477  13.118  65.509  1.00  0.00    -0.470 NA 
HETATM   17  C   UNL     1      -9.611  13.726  66.641  1.00  0.00    -0.288 C  
HETATM   18  H   UNL     1      -8.591  12.707  65.216  1.00  0.00     0.000 HD 
HETATM   19  N   UNL     1     -10.682  14.364  67.222  1.00  0.00    -0.282 NA 
HETATM   20  C   UNL     1     -11.403  15.458  66.557  1.00  0.00    -0.098 C  
HETATM   21  H   UNL     1     -10.986  14.067  68.149  1.00  0.00     0.000 HD 
HETATM   22  C   UNL     1     -11.777  15.310  65.062  1.00  0.00    -0.174 C  
HETATM   23  O   UNL     1     -11.000  16.252  64.293  1.00  0.00    -1.086 OA 
HETATM   24  H   UNL     1     -11.089  17.130  64.645  1.00  0.00     0.000 HD 
ENDBRANCH   6  11
ENDBRANCH   2   4
TORSDOF 2
ENDMDL
MODEL       37
REMARK 921   NORMALIZED FREE ENERGY PREDICTED BY IDOCK:   -5.49 KCAL/MOL
REMARK 922        TOTAL FREE ENERGY PREDICTED BY IDOCK:   -6.82 KCAL/MOL
REMARK 923 INTER-LIGAND FREE ENERGY PREDICTED BY IDOCK:   -6.37 KCAL/MOL
REMARK 924 INTRA-LIGAND FREE ENERGY PREDICTED BY IDOCK:   -0.45 KCAL/MOL
REMARK 927      BINDING AFFINITY PREDICTED BY RF-SCORE:    0.00 PKD
ROOT
HETATM    1  O5* UNL     1      -9.526   9.657  64.204  1.00  0.00    -0.409 OA 
HETATM    2  C5* UNL     1      -9.939  10.932  63.710  1.00  0.00    -0.351 C  
HETATM    3  H5* UNL     1      -8.705   9.387  63.810  1.00  0.00     0.000 HD 
ENDROOT
BRANCH   2   4
HETATM    4  C4* UNL     1     -11.260  11.367  64.344  1.00  0.00    -0.207 C  
HETATM    5  O4* UNL     1     -11.004  11.987  65.618  1.00  0.00    -0.279 OA 
HETATM    6  C1* UNL     1     -12.044  12.956  65.843  1.00  0.00    -0.444 C  
HETATM    7  H3* UNL     1     -13.608  12.365  62.327  1.00  0.00     0.000 HD 
HETATM    8  C2* UNL     1     -12.518  13.423  64.473  1.00  0.00    -0.359 C  
HETATM    9  C3* UNL     1     -12.030  12.374  63.502  1.00  0.00    -0.538 C  
HETATM   10  O3* UNL     1     -13.128  11.736  62.853  1.00  0.00    -0.387 OA 
BRANCH   6  11
HETATM   11  N   UNL     1     -11.552  14.023  66.698  1.00  0.00    -0.363 NA 
HETATM   12  C   UNL     1     -11.210  15.292  66.319  1.00  0.00    -0.223 A  
HETATM   13  C   UNL     1     -10.854  15.166  68.420  1.00  0.00    -0.255 A  
HETATM   14  N   UNL     1     -10.788  16.012  67.334  1.00  0.00    -0.307 NA 
HETATM   15  C   UNL     1     -11.358  13.928  68.057  1.00  0.00    -0.288 A  
HETATM   16  N   UNL     1     -11.670  12.808  68.753  1.00  0.00    -0.306 NA 
HETATM   17  C   UNL     1     -12.157  12.998  69.934  1.00  0.00    -0.277 C  
HETATM   18  H   UNL     1     -11.530  11.875  68.368  1.00  0.00     0.000 HD 
HETATM   19  N   UNL     1     -12.407  14.144  70.654  1.00  0.00    -0.342 NA 
HETATM   20  C   UNL     1     -11.368  15.145  70.928  1.00  0.00    -0.307 C  
HETATM   21  H   UNL     1     -13.348  14.303  71.010  1.00  0.00     0.000 HD 
HETATM   22  C   UNL     1     -10.424  15.580  69.780  1.00  0.00    -0.301 C  
HETATM   23  O   UNL     1      -9.093  15.100  70.064  1.00  0.00    -0.424 OA 
HETATM   24  H   UNL     1      -8.817  15.365  70.934  1.00  0.00     0.000 HD 
ENDBRANCH   6  11
ENDBRANCH   2   4
TORSDOF 2
ENDMDL
MODEL       38
REMARK 921   NORMALIZED FREE ENERGY PREDICTED BY IDOCK:   -5.48 KCAL/MOL
REMARK 922        TOTAL FREE ENERGY PREDICTED BY IDOCK:   -6.81 KCAL/MOL
REMARK 923 INTER-LIGAND FREE ENERGY PREDICTED BY IDOCK:   -6.23 KCAL/MOL
REMARK 924 INTRA-LIGAND FREE ENERGY PREDICTED BY IDOCK:   -0.58 KCAL/MOL
REMARK 927      BINDING AFFINITY PREDICTED BY RF-SCORE:    0.00 PKD
ROOT
HETATM    1  O5* UNL     1      -9.245  15.085  69.821  1.00  0.00    -0.447 OA 
HETATM    2  C5* UNL     1     -10.166  15.714  68.929  1.00  0.00    -0.214 C  
HETATM    3  H5* UNL     1      -8.524  15.667  70.035  1.00  0.00     0.000 HD 
ENDROOT
BRANCH   2   4
HETATM    4  C4* UNL     1     -11.324  14.779  68.584  1.00  0.00    -0.285 C  
HETATM    5  O4* UNL     1     -10.966  13.962  67.454  1.00  0.00    -0.280 OA 
HETATM    6  C1* UNL     1     -11.670  12.713  67.584  1.00  0.00    -0.361 C  
HETATM    7  H3* UNL     1     -13.128  13.687  71.059  1.00  0.00     0.000 HD 
HETATM    8  C2* UNL     1     -11.895  12.486  69.073  1.00  0.00    -0.344 C  
HETATM    9  C3* UNL     1     -11.696  13.836  69.719  1.00  0.00    -0.302 C  
HETATM   10  O3* UNL     1     -12.896  14.276  70.351  1.00  0.00    -0.336 OA 
BRANCH   6  11
HETATM   11  N   UNL     1     -10.925  11.653  66.926  1.00  0.00    -0.277 NA 
HETATM   12  C   UNL     1     -10.578  10.440  67.453  1.00  0.00    -0.269 A  
HETATM   13  C   UNL     1      -9.788  10.492  65.470  1.00  0.00    -0.265 A  
HETATM   14  N   UNL     1      -9.894   9.710  66.601  1.00  0.00    -0.209 NA 
HETATM   15  C   UNL     1     -10.450  11.697  65.635  1.00  0.00    -0.268 A  
HETATM   16  N   UNL     1     -10.689  12.749  64.815  1.00  0.00    -0.300 NA 
HETATM   17  C   UNL     1     -10.893  12.459  63.574  1.00  0.00    -0.438 C  
HETATM   18  H   UNL     1     -10.706  13.710  65.157  1.00  0.00     0.000 HD 
HETATM   19  N   UNL     1     -10.895  11.262  62.896  1.00  0.00    -0.806 NA 
HETATM   20  C   UNL     1      -9.748  10.344  62.915  1.00  0.00    -0.223 C  
HETATM   21  H   UNL     1     -11.722  11.002  62.361  1.00  0.00     0.000 HD 
HETATM   22  C   UNL     1      -9.044  10.051  64.263  1.00  0.00    -0.255 C  
HETATM   23  O   UNL     1      -7.724  10.632  64.234  1.00  0.00    -0.351 OA 
HETATM   24  H   UNL     1      -7.247  10.350  63.462  1.00  0.00     0.000 HD 
ENDBRANCH   6  11
ENDBRANCH   2   4
TORSDOF 2
ENDMDL
MODEL       39
REMARK 921   NORMALIZED FREE ENERGY PREDICTED BY IDOCK:   -5.45 KCAL/MOL
REMARK 922        TOTAL FREE ENERGY PREDICTED BY IDOCK:   -6.77 KCAL/MOL
REMARK 923 INTER-LIGAND FREE ENERGY PREDICTED BY IDOCK:   -6.27 KCAL/MOL
REMARK 924 INTRA-LIGAND FREE ENERGY PREDICTED BY IDOCK:   -0.50 KCAL/MOL
REMARK 927      BINDING AFFINITY PREDICTED BY RF-SCORE:    0.00 PKD
ROOT
HETATM    1  O5* UNL     1     -12.107  13.490  62.589  1.00  0.00    -0.673 OA 
HETATM    2  C5* UNL     1     -12.248  12.537  63.643  1.00  0.00    -0.550 C  
HETATM    3  H5* UNL     1     -12.080  13.061  61.742  1.00  0.00     0.000 HD 
ENDROOT
BRANCH   2   4
HETATM    4  C4* UNL     1     -12.290  13.225  65.007  1.00  0.00    -0.448 C  
HETATM    5  O4* UNL     1     -12.497  12.243  66.039  1.00  0.00    -0.503 OA 
HETATM    6  C1* UNL     1     -11.858  12.731  67.234  1.00  0.00    -0.350 C  
HETATM    7  H3* UNL     1     -10.391  15.836  65.401  1.00  0.00     0.000 HD 
HETATM    8  C2* UNL     1     -10.709  13.626  66.787  1.00  0.00    -0.272 C  
HETATM    9  C3* UNL     1     -11.005  13.968  65.346  1.00  0.00    -0.321 C  
HETATM   10  O3* UNL     1     -11.193  15.373  65.189  1.00  0.00    -0.369 OA 
BRANCH   6  11
HETATM   11  N   UNL     1     -11.453  11.615  68.071  1.00  0.00    -0.322 NA 
HETATM   12  C   UNL     1     -11.853  11.357  69.352  1.00  0.00    -0.351 A  
HETATM   13  C   UNL     1     -10.485   9.809  68.818  1.00  0.00    -0.218 A  
HETATM   14  N   UNL     1     -11.292  10.272  69.835  1.00  0.00    -0.271 NA 
HETATM   15  C   UNL     1     -10.591  10.610  67.694  1.00  0.00    -0.246 A  
HETATM   16  N   UNL     1     -10.066  10.541  66.447  1.00  0.00    -0.221 NA 
HETATM   17  C   UNL     1      -9.931   9.353  65.960  1.00  0.00    -0.281 C  
HETATM   18  H   UNL     1      -9.794  11.374  65.927  1.00  0.00     0.000 HD 
HETATM   19  N   UNL     1     -10.202   8.108  66.479  1.00  0.00    -0.456 NA 
HETATM   20  C   UNL     1      -9.633   7.644  67.751  1.00  0.00    -0.144 C  
HETATM   21  H   UNL     1     -10.821   7.485  65.962  1.00  0.00     0.000 HD 
HETATM   22  C   UNL     1      -9.630   8.603  68.966  1.00  0.00    -0.163 C  
HETATM   23  O   UNL     1      -8.268   8.974  69.263  1.00  0.00    -0.112 OA 
HETATM   24  H   UNL     1      -7.720   8.203  69.357  1.00  0.00     0.000 HD 
ENDBRANCH   6  11
ENDBRANCH   2   4
TORSDOF 2
ENDMDL
MODEL       40
REMARK 921   NORMALIZED FREE ENERGY PREDICTED BY IDOCK:   -5.43 KCAL/MOL
REMARK 922        TOTAL FREE ENERGY PREDICTED BY IDOCK:   -6.75 KCAL/MOL
REMARK 923 INTER-LIGAND FREE ENERGY PREDICTED BY IDOCK:   -6.22 KCAL/MOL
REMARK 924 INTRA-LIGAND FREE ENERGY PREDICTED BY IDOCK:   -0.53 KCAL/MOL
REMARK 927      BINDING AFFINITY PREDICTED BY RF-SCORE:    0.00 PKD
ROOT
HETATM    1  O5* UNL     1      -7.030  18.187  65.294  1.00  0.00    -0.484 OA 
HETATM    2  C5* UNL     1      -7.334  19.165  66.289  1.00  0.00    -0.260 C  
HETATM    3  H5* UNL     1      -6.095  18.142  65.133  1.00  0.00     0.000 HD 
ENDROOT
BRANCH   2   4
HETATM    4  C4* UNL     1      -8.839  19.240  66.547  1.00  0.00    -0.346 C  
HETATM    5  O4* UNL     1      -9.361  17.913  66.745  1.00  0.00    -0.259 OA 
HETATM    6  C1* UNL     1     -10.493  18.022  67.629  1.00  0.00    -0.409 C  
HETATM    7  H3* UNL     1      -9.931  21.836  68.174  1.00  0.00     0.000 HD 
HETATM    8  C2* UNL     1     -10.255  19.248  68.501  1.00  0.00    -0.471 C  
HETATM    9  C3* UNL     1      -9.198  20.052  67.783  1.00  0.00    -0.329 C  
HETATM   10  O3* UNL     1      -9.706  21.329  67.402  1.00  0.00    -0.259 OA 
BRANCH   6  11
HETATM   11  N   UNL     1     -10.663  16.786  68.373  1.00  0.00    -0.348 NA 
HETATM   12  C   UNL     1     -10.817  16.651  69.724  1.00  0.00    -0.237 A  
HETATM   13  C   UNL     1     -10.846  14.679  68.909  1.00  0.00    -0.250 A  
HETATM   14  N   UNL     1     -10.935  15.393  70.084  1.00  0.00    -0.287 NA 
HETATM   15  C   UNL     1     -10.708  15.526  67.821  1.00  0.00    -0.297 A  
HETATM   16  N   UNL     1     -10.650  15.322  66.483  1.00  0.00    -0.298 NA 
HETATM   17  C   UNL     1     -11.385  14.363  66.028  1.00  0.00    -0.335 C  
HETATM   18  H   UNL     1     -10.062  15.890  65.874  1.00  0.00     0.000 HD 
HETATM   19  N   UNL     1     -12.222  13.468  66.654  1.00  0.00    -0.386 NA 
HETATM   20  C   UNL     1     -11.769  12.595  67.744  1.00  0.00    -0.356 C  
HETATM   21  H   UNL     1     -13.193  13.409  66.348  1.00  0.00     0.000 HD 
HETATM   22  C   UNL     1     -10.894  13.195  68.872  1.00  0.00    -0.204 C  
HETATM   23  O   UNL     1      -9.565  12.642  68.776  1.00  0.00    -0.403 OA 
HETATM   24  H   UNL     1      -9.596  11.693  68.752  1.00  0.00     0.000 HD 
ENDBRANCH   6  11
ENDBRANCH   2   4
TORSDOF 2
ENDMDL
MODEL       41
REMARK 921   NORMALIZED FREE ENERGY PREDICTED BY IDOCK:   -5.42 KCAL/MOL
REMARK 922        TOTAL FREE ENERGY PREDICTED BY IDOCK:   -6.75 KCAL/MOL
REMARK 923 INTER-LIGAND FREE ENERGY PREDICTED BY IDOCK:   -6.29 KCAL/MOL
REMARK 924 INTRA-LIGAND FREE ENERGY PREDICTED BY IDOCK:   -0.45 KCAL/MOL
REMARK 927      BINDING AFFINITY PREDICTED BY RF-SCORE:    0.00 PKD
ROOT
HETATM    1  O5* UNL     1     -12.348  11.971  66.189  1.00  0.00    -0.449 OA 
HETATM    2  C5* UNL     1     -12.312  13.235  65.527  1.00  0.00    -0.480 C  
HETATM    3  H5* UNL     1     -13.240  11.661  66.288  1.00  0.00     0.000 HD 
ENDROOT
BRANCH   2   4
HETATM    4  C4* UNL     1     -10.876  13.734  65.369  1.00  0.00    -0.312 C  
HETATM    5  O4* UNL     1     -10.840  15.164  65.536  1.00  0.00    -0.325 OA 
HETATM    6  C1* UNL     1      -9.548  15.503  66.075  1.00  0.00    -0.345 C  
HETATM    7  H3* UNL     1      -8.506  11.768  66.415  1.00  0.00     0.000 HD 
HETATM    8  C2* UNL     1      -9.070  14.295  66.869  1.00  0.00    -0.268 C  
HETATM    9  C3* UNL     1      -9.916  13.140  66.390  1.00  0.00    -0.282 C  
HETATM   10  O3* UNL     1      -9.105  12.139  65.778  1.00  0.00    -0.096 OA 
BRANCH   6  11
HETATM   11  N   UNL     1      -9.641  16.728  66.852  1.00  0.00    -0.236 NA 
HETATM   12  C   UNL     1     -10.491  16.981  67.892  1.00  0.00    -0.354 A  
HETATM   13  C   UNL     1      -9.332  18.751  67.605  1.00  0.00    -0.292 A  
HETATM   14  N   UNL     1     -10.330  18.193  68.375  1.00  0.00    -0.375 NA 
HETATM   15  C   UNL     1      -8.862  17.847  66.667  1.00  0.00    -0.268 A  
HETATM   16  N   UNL     1      -7.869  17.890  65.747  1.00  0.00    -0.546 NA 
HETATM   17  C   UNL     1      -6.811  18.545  66.093  1.00  0.00    -0.250 C  
HETATM   18  H   UNL     1      -7.952  17.435  64.839  1.00  0.00     0.000 HD 
HETATM   19  N   UNL     1      -6.493  19.245  67.234  1.00  0.00    -0.189 NA 
HETATM   20  C   UNL     1      -7.329  20.338  67.747  1.00  0.00    -0.290 C  
HETATM   21  H   UNL     1      -5.645  18.995  67.742  1.00  0.00     0.000 HD 
HETATM   22  C   UNL     1      -8.865  20.148  67.797  1.00  0.00    -0.265 C  
HETATM   23  O   UNL     1      -9.476  21.030  66.832  1.00  0.00    -0.672 OA 
HETATM   24  H   UNL     1      -9.177  21.923  66.955  1.00  0.00     0.000 HD 
ENDBRANCH   6  11
ENDBRANCH   2   4
TORSDOF 2
ENDMDL
MODEL       42
REMARK 921   NORMALIZED FREE ENERGY PREDICTED BY IDOCK:   -5.41 KCAL/MOL
REMARK 922        TOTAL FREE ENERGY PREDICTED BY IDOCK:   -6.73 KCAL/MOL
REMARK 923 INTER-LIGAND FREE ENERGY PREDICTED BY IDOCK:   -6.25 KCAL/MOL
REMARK 924 INTRA-LIGAND FREE ENERGY PREDICTED BY IDOCK:   -0.48 KCAL/MOL
REMARK 927      BINDING AFFINITY PREDICTED BY RF-SCORE:    0.00 PKD
ROOT
HETATM    1  O5* UNL     1     -11.641  16.662  63.588  1.00  0.00    -1.321 OA 
HETATM    2  C5* UNL     1     -10.969  15.949  64.626  1.00  0.00    -0.305 C  
HETATM    3  H5* UNL     1     -11.374  17.574  63.569  1.00  0.00     0.000 HD 
ENDROOT
BRANCH   2   4
HETATM    4  C4* UNL     1     -11.399  14.483  64.656  1.00  0.00    -0.370 C  
HETATM    5  O4* UNL     1     -10.235  13.638  64.702  1.00  0.00    -0.404 OA 
HETATM    6  C1* UNL     1     -10.601  12.437  65.408  1.00  0.00    -0.284 C  
HETATM    7  H3* UNL     1     -14.159  13.787  66.231  1.00  0.00     0.000 HD 
HETATM    8  C2* UNL     1     -11.721  12.814  66.369  1.00  0.00    -0.464 C  
HETATM    9  C3* UNL     1     -12.257  14.132  65.864  1.00  0.00    -0.439 C  
HETATM   10  O3* UNL     1     -13.624  14.007  65.477  1.00  0.00    -0.596 OA 
BRANCH   6  11
HETATM   11  N   UNL     1      -9.431  11.864  66.052  1.00  0.00    -0.234 NA 
HETATM   12  C   UNL     1      -8.936  10.601  65.887  1.00  0.00    -0.175 A  
HETATM   13  C   UNL     1      -7.669  11.572  67.304  1.00  0.00    -0.150 A  
HETATM   14  N   UNL     1      -7.869  10.390  66.625  1.00  0.00    -0.116 NA 
HETATM   15  C   UNL     1      -8.611  12.520  66.941  1.00  0.00    -0.158 A  
HETATM   16  N   UNL     1      -8.796  13.822  67.266  1.00  0.00    -0.210 NA 
HETATM   17  C   UNL     1      -7.722  14.516  67.442  1.00  0.00    -0.192 C  
HETATM   18  H   UNL     1      -9.726  14.229  67.367  1.00  0.00     0.000 HD 
HETATM   19  N   UNL     1      -6.389  14.180  67.384  1.00  0.00    -0.368 NA 
HETATM   20  C   UNL     1      -5.813  13.096  68.191  1.00  0.00    -0.097 C  
HETATM   21  H   UNL     1      -5.778  14.703  66.757  1.00  0.00     0.000 HD 
HETATM   22  C   UNL     1      -6.572  11.750  68.289  1.00  0.00    -0.056 C  
HETATM   23  O   UNL     1      -7.062  11.588  69.636  1.00  0.00    -0.316 OA 
HETATM   24  H   UNL     1      -6.360  11.702  70.267  1.00  0.00     0.000 HD 
ENDBRANCH   6  11
ENDBRANCH   2   4
TORSDOF 2
ENDMDL
MODEL       43
REMARK 921   NORMALIZED FREE ENERGY PREDICTED BY IDOCK:   -5.39 KCAL/MOL
REMARK 922        TOTAL FREE ENERGY PREDICTED BY IDOCK:   -6.71 KCAL/MOL
REMARK 923 INTER-LIGAND FREE ENERGY PREDICTED BY IDOCK:   -6.18 KCAL/MOL
REMARK 924 INTRA-LIGAND FREE ENERGY PREDICTED BY IDOCK:   -0.52 KCAL/MOL
REMARK 927      BINDING AFFINITY PREDICTED BY RF-SCORE:    0.00 PKD
ROOT
HETATM    1  O5* UNL     1      -6.993  17.904  65.424  1.00  0.00    -0.434 OA 
HETATM    2  C5* UNL     1      -7.834  18.667  66.289  1.00  0.00    -0.262 C  
HETATM    3  H5* UNL     1      -6.106  18.243  65.423  1.00  0.00     0.000 HD 
ENDROOT
BRANCH   2   4
HETATM    4  C4* UNL     1      -9.262  18.122  66.291  1.00  0.00    -0.199 C  
HETATM    5  O4* UNL     1      -9.245  16.719  65.970  1.00  0.00    -0.421 OA 
HETATM    6  C1* UNL     1     -10.370  16.111  66.632  1.00  0.00    -0.296 C  
HETATM    7  H3* UNL     1     -11.336  19.425  68.431  1.00  0.00     0.000 HD 
HETATM    8  C2* UNL     1     -10.659  16.948  67.871  1.00  0.00    -0.361 C  
HETATM    9  C3* UNL     1      -9.960  18.265  67.637  1.00  0.00    -0.338 C  
HETATM   10  O3* UNL     1     -10.901  19.336  67.592  1.00  0.00    -0.458 OA 
BRANCH   6  11
HETATM   11  N   UNL     1     -10.085  14.713  66.910  1.00  0.00    -0.252 NA 
HETATM   12  C   UNL     1      -9.909  14.136  68.137  1.00  0.00    -0.229 A  
HETATM   13  C   UNL     1      -9.659  12.585  66.692  1.00  0.00    -0.239 A  
HETATM   14  N   UNL     1      -9.653  12.851  68.044  1.00  0.00    -0.215 NA 
HETATM   15  C   UNL     1      -9.958  13.724  65.962  1.00  0.00    -0.306 A  
HETATM   16  N   UNL     1     -10.144  13.962  64.642  1.00  0.00    -0.633 NA 
HETATM   17  C   UNL     1     -10.719  13.017  63.976  1.00  0.00    -0.357 C  
HETATM   18  H   UNL     1      -9.849  14.833  64.201  1.00  0.00     0.000 HD 
HETATM   19  N   UNL     1     -11.172  11.772  64.348  1.00  0.00    -0.326 NA 
HETATM   20  C   UNL     1     -10.305  10.779  64.997  1.00  0.00    -0.287 C  
HETATM   21  H   UNL     1     -12.146  11.530  64.167  1.00  0.00     0.000 HD 
HETATM   22  C   UNL     1      -9.370  11.235  66.144  1.00  0.00    -0.211 C  
HETATM   23  O   UNL     1      -8.003  11.147  65.692  1.00  0.00    -0.357 OA 
HETATM   24  H   UNL     1      -7.818  10.283  65.342  1.00  0.00     0.000 HD 
ENDBRANCH   6  11
ENDBRANCH   2   4
TORSDOF 2
ENDMDL
MODEL       44
REMARK 921   NORMALIZED FREE ENERGY PREDICTED BY IDOCK:   -5.38 KCAL/MOL
REMARK 922        TOTAL FREE ENERGY PREDICTED BY IDOCK:   -6.70 KCAL/MOL
REMARK 923 INTER-LIGAND FREE ENERGY PREDICTED BY IDOCK:   -6.19 KCAL/MOL
REMARK 924 INTRA-LIGAND FREE ENERGY PREDICTED BY IDOCK:   -0.51 KCAL/MOL
REMARK 927      BINDING AFFINITY PREDICTED BY RF-SCORE:    0.00 PKD
ROOT
HETATM    1  O5* UNL     1      -9.907  13.067  63.711  1.00  0.00    -0.730 OA 
HETATM    2  C5* UNL     1     -10.978  12.551  64.502  1.00  0.00    -0.323 C  
HETATM    3  H5* UNL     1     -10.105  13.005  62.784  1.00  0.00     0.000 HD 
ENDROOT
BRANCH   2   4
HETATM    4  C4* UNL     1     -10.660  12.651  65.993  1.00  0.00    -0.270 C  
HETATM    5  O4* UNL     1      -9.974  13.888  66.260  1.00  0.00    -0.288 OA 
HETATM    6  C1* UNL     1     -10.306  14.284  67.604  1.00  0.00    -0.248 C  
HETATM    7  H3* UNL     1     -12.806  11.335  68.052  1.00  0.00     0.000 HD 
HETATM    8  C2* UNL     1     -11.681  13.706  67.909  1.00  0.00    -0.395 C  
HETATM    9  C3* UNL     1     -11.899  12.625  66.877  1.00  0.00    -0.355 C  
HETATM   10  O3* UNL     1     -12.033  11.350  67.500  1.00  0.00    -0.626 OA 
BRANCH   6  11
HETATM   11  N   UNL     1     -10.226  15.730  67.729  1.00  0.00    -0.246 NA 
HETATM   12  C   UNL     1     -11.098  16.549  68.391  1.00  0.00    -0.333 A  
HETATM   13  C   UNL     1      -9.599  17.811  67.545  1.00  0.00    -0.268 A  
HETATM   14  N   UNL     1     -10.748  17.812  68.305  1.00  0.00    -0.306 NA 
HETATM   15  C   UNL     1      -9.233  16.521  67.199  1.00  0.00    -0.214 A  
HETATM   16  N   UNL     1      -8.174  15.999  66.535  1.00  0.00    -0.296 NA 
HETATM   17  C   UNL     1      -7.043  16.593  66.724  1.00  0.00    -0.236 C  
HETATM   18  H   UNL     1      -8.264  15.188  65.923  1.00  0.00     0.000 HD 
HETATM   19  N   UNL     1      -6.696  17.695  67.471  1.00  0.00    -0.161 NA 
HETATM   20  C   UNL     1      -7.346  19.001  67.298  1.00  0.00    -0.223 C  
HETATM   21  H   UNL     1      -5.960  17.602  68.170  1.00  0.00     0.000 HD 
HETATM   22  C   UNL     1      -8.888  19.061  67.172  1.00  0.00    -0.288 C  
HETATM   23  O   UNL     1      -9.230  19.463  65.829  1.00  0.00    -0.379 OA 
HETATM   24  H   UNL     1      -8.776  20.262  65.590  1.00  0.00     0.000 HD 
ENDBRANCH   6  11
ENDBRANCH   2   4
TORSDOF 2
ENDMDL
MODEL       45
REMARK 921   NORMALIZED FREE ENERGY PREDICTED BY IDOCK:   -5.37 KCAL/MOL
REMARK 922        TOTAL FREE ENERGY PREDICTED BY IDOCK:   -6.68 KCAL/MOL
REMARK 923 INTER-LIGAND FREE ENERGY PREDICTED BY IDOCK:   -6.34 KCAL/MOL
REMARK 924 INTRA-LIGAND FREE ENERGY PREDICTED BY IDOCK:   -0.34 KCAL/MOL
REMARK 927      BINDING AFFINITY PREDICTED BY RF-SCORE:    0.00 PKD
ROOT
HETATM    1  O5* UNL     1     -12.489  14.564  67.861  1.00  0.00    -0.599 OA 
HETATM    2  C5* UNL     1     -11.077  14.704  67.705  1.00  0.00    -0.298 C  
HETATM    3  H5* UNL     1     -12.921  15.410  67.838  1.00  0.00     0.000 HD 
ENDROOT
BRANCH   2   4
HETATM    4  C4* UNL     1     -10.381  13.344  67.744  1.00  0.00    -0.241 C  
HETATM    5  O4* UNL     1     -10.572  12.739  69.036  1.00  0.00    -0.169 OA 
HETATM    6  C1* UNL     1     -10.567  11.311  68.850  1.00  0.00    -0.207 C  
HETATM    7  H3* UNL     1     -10.328  11.634  64.978  1.00  0.00     0.000 HD 
HETATM    8  C2* UNL     1     -11.061  11.049  67.433  1.00  0.00    -0.370 C  
HETATM    9  C3* UNL     1     -10.915  12.365  66.707  1.00  0.00    -0.263 C  
HETATM   10  O3* UNL     1      -9.995  12.245  65.624  1.00  0.00    -0.250 OA 
BRANCH   6  11
HETATM   11  N   UNL     1     -11.361  10.673  69.885  1.00  0.00    -0.290 NA 
HETATM   12  C   UNL     1     -12.376  11.233  70.610  1.00  0.00    -0.383 A  
HETATM   13  C   UNL     1     -12.159   9.230  71.314  1.00  0.00    -0.337 A  
HETATM   14  N   UNL     1     -12.884  10.390  71.479  1.00  0.00    -0.426 NA 
HETATM   15  C   UNL     1     -11.223   9.369  70.303  1.00  0.00    -0.246 A  
HETATM   16  N   UNL     1     -10.338   8.518  69.729  1.00  0.00    -0.208 NA 
HETATM   17  C   UNL     1     -10.731   7.294  69.611  1.00  0.00    -0.236 C  
HETATM   18  H   UNL     1      -9.419   8.825  69.410  1.00  0.00     0.000 HD 
HETATM   19  N   UNL     1     -11.894   6.660  69.984  1.00  0.00    -0.638 NA 
HETATM   20  C   UNL     1     -12.396   6.682  71.364  1.00  0.00    -0.294 C  
HETATM   21  H   UNL     1     -12.427   6.157  69.275  1.00  0.00     0.000 HD 
HETATM   22  C   UNL     1     -12.391   8.020  72.143  1.00  0.00    -0.315 C  
HETATM   23  O   UNL     1     -11.421   7.935  73.208  1.00  0.00    -0.573 OA 
HETATM   24  H   UNL     1     -11.569   7.161  73.738  1.00  0.00     0.000 HD 
ENDBRANCH   6  11
ENDBRANCH   2   4
TORSDOF 2
ENDMDL
MODEL       46
REMARK 921   NORMALIZED FREE ENERGY PREDICTED BY IDOCK:   -5.35 KCAL/MOL
REMARK 922        TOTAL FREE ENERGY PREDICTED BY IDOCK:   -6.66 KCAL/MOL
REMARK 923 INTER-LIGAND FREE ENERGY PREDICTED BY IDOCK:   -5.86 KCAL/MOL
REMARK 924 INTRA-LIGAND FREE ENERGY PREDICTED BY IDOCK:   -0.80 KCAL/MOL
REMARK 927      BINDING AFFINITY PREDICTED BY RF-SCORE:    0.00 PKD
ROOT
HETATM    1  O5* UNL     1      -9.275  11.614  64.861  1.00  0.00    -0.410 OA 
HETATM    2  C5* UNL     1     -10.597  11.137  64.607  1.00  0.00    -0.318 C  
HETATM    3  H5* UNL     1      -8.626  10.954  64.645  1.00  0.00     0.000 HD 
ENDROOT
BRANCH   2   4
HETATM    4  C4* UNL     1     -11.641  12.198  64.954  1.00  0.00    -0.316 C  
HETATM    5  O4* UNL     1     -11.431  12.659  66.302  1.00  0.00    -0.323 OA 
HETATM    6  C1* UNL     1     -11.879  14.027  66.364  1.00  0.00    -0.418 C  
HETATM    7  H3* UNL     1     -12.621  14.149  62.544  1.00  0.00     0.000 HD 
HETATM    8  C2* UNL     1     -11.711  14.610  64.967  1.00  0.00    -0.385 C  
HETATM    9  C3* UNL     1     -11.583  13.420  64.048  1.00  0.00    -0.385 C  
HETATM   10  O3* UNL     1     -12.657  13.387  63.109  1.00  0.00    -0.710 OA 
BRANCH   6  11
HETATM   11  N   UNL     1     -11.150  14.741  67.399  1.00  0.00    -0.314 NA 
HETATM   12  C   UNL     1     -11.664  15.619  68.312  1.00  0.00    -0.242 A  
HETATM   13  C   UNL     1      -9.564  15.515  68.680  1.00  0.00    -0.203 A  
HETATM   14  N   UNL     1     -10.735  16.104  69.105  1.00  0.00    -0.269 NA 
HETATM   15  C   UNL     1      -9.799  14.635  67.637  1.00  0.00    -0.218 A  
HETATM   16  N   UNL     1      -9.008  13.786  66.938  1.00  0.00    -0.312 NA 
HETATM   17  C   UNL     1      -8.067  13.212  67.610  1.00  0.00    -0.176 C  
HETATM   18  H   UNL     1      -9.147  13.611  65.943  1.00  0.00     0.000 HD 
HETATM   19  N   UNL     1      -7.684  13.313  68.928  1.00  0.00    -0.317 NA 
HETATM   20  C   UNL     1      -7.339  14.597  69.553  1.00  0.00    -0.107 C  
HETATM   21  H   UNL     1      -7.637  12.464  69.491  1.00  0.00     0.000 HD 
HETATM   22  C   UNL     1      -8.248  15.824  69.295  1.00  0.00    -0.247 C  
HETATM   23  O   UNL     1      -7.521  16.781  68.497  1.00  0.00    -0.191 OA 
HETATM   24  H   UNL     1      -6.679  16.979  68.890  1.00  0.00     0.000 HD 
ENDBRANCH   6  11
ENDBRANCH   2   4
TORSDOF 2
ENDMDL
MODEL       47
REMARK 921   NORMALIZED FREE ENERGY PREDICTED BY IDOCK:   -5.35 KCAL/MOL
REMARK 922        TOTAL FREE ENERGY PREDICTED BY IDOCK:   -6.66 KCAL/MOL
REMARK 923 INTER-LIGAND FREE ENERGY PREDICTED BY IDOCK:   -5.98 KCAL/MOL
REMARK 924 INTRA-LIGAND FREE ENERGY PREDICTED BY IDOCK:   -0.68 KCAL/MOL
REMARK 927      BINDING AFFINITY PREDICTED BY RF-SCORE:    0.00 PKD
ROOT
HETATM    1  O5* UNL     1     -13.825   8.922  73.292  1.00  0.00    -1.163 OA 
HETATM    2  C5* UNL     1     -13.637   8.664  71.901  1.00  0.00    -0.410 C  
HETATM    3  H5* UNL     1     -14.665   9.336  73.453  1.00  0.00     0.000 HD 
ENDROOT
BRANCH   2   4
HETATM    4  C4* UNL     1     -12.286   7.998  71.641  1.00  0.00    -0.314 C  
HETATM    5  O4* UNL     1     -11.771   8.429  70.368  1.00  0.00    -0.151 OA 
HETATM    6  C1* UNL     1     -10.333   8.401  70.453  1.00  0.00    -0.205 C  
HETATM    7  H3* UNL     1     -10.391   7.448  74.227  1.00  0.00     0.000 HD 
HETATM    8  C2* UNL     1      -9.972   8.626  71.915  1.00  0.00    -0.392 C  
HETATM    9  C3* UNL     1     -11.236   8.338  72.689  1.00  0.00    -0.340 C  
HETATM   10  O3* UNL     1     -11.047   7.235  73.573  1.00  0.00    -0.280 OA 
BRANCH   6  11
HETATM   11  N   UNL     1      -9.763   9.378  69.541  1.00  0.00    -0.173 NA 
HETATM   12  C   UNL     1      -8.771   9.168  68.624  1.00  0.00    -0.129 A  
HETATM   13  C   UNL     1      -9.311  11.229  68.480  1.00  0.00    -0.182 A  
HETATM   14  N   UNL     1      -8.474  10.264  67.961  1.00  0.00    -0.117 NA 
HETATM   15  C   UNL     1     -10.148  10.695  69.445  1.00  0.00    -0.174 A  
HETATM   16  N   UNL     1     -11.165  11.204  70.181  1.00  0.00    -0.480 NA 
HETATM   17  C   UNL     1     -11.907  12.077  69.586  1.00  0.00    -0.333 C  
HETATM   18  H   UNL     1     -11.333  10.917  71.145  1.00  0.00     0.000 HD 
HETATM   19  N   UNL     1     -11.855  12.624  68.324  1.00  0.00    -0.328 NA 
HETATM   20  C   UNL     1     -10.657  13.299  67.807  1.00  0.00    -0.241 C  
HETATM   21  H   UNL     1     -12.678  12.558  67.727  1.00  0.00     0.000 HD 
HETATM   22  C   UNL     1      -9.272  12.643  68.027  1.00  0.00    -0.208 C  
HETATM   23  O   UNL     1      -8.513  13.455  68.947  1.00  0.00    -0.360 OA 
HETATM   24  H   UNL     1      -8.489  14.359  68.658  1.00  0.00     0.000 HD 
ENDBRANCH   6  11
ENDBRANCH   2   4
TORSDOF 2
ENDMDL
MODEL       48
REMARK 921   NORMALIZED FREE ENERGY PREDICTED BY IDOCK:   -5.34 KCAL/MOL
REMARK 922        TOTAL FREE ENERGY PREDICTED BY IDOCK:   -6.66 KCAL/MOL
REMARK 923 INTER-LIGAND FREE ENERGY PREDICTED BY IDOCK:   -5.90 KCAL/MOL
REMARK 924 INTRA-LIGAND FREE ENERGY PREDICTED BY IDOCK:   -0.76 KCAL/MOL
REMARK 927      BINDING AFFINITY PREDICTED BY RF-SCORE:    0.00 PKD
ROOT
HETATM    1  O5* UNL     1      -7.129  16.482  67.996  1.00  0.00    -0.137 OA 
HETATM    2  C5* UNL     1      -7.058  17.882  67.724  1.00  0.00    -0.204 C  
HETATM    3  H5* UNL     1      -6.367  16.189  68.482  1.00  0.00     0.000 HD 
ENDROOT
BRANCH   2   4
HETATM    4  C4* UNL     1      -8.283  18.353  66.941  1.00  0.00    -0.247 C  
HETATM    5  O4* UNL     1      -8.669  17.342  65.992  1.00  0.00    -0.497 OA 
HETATM    6  C1* UNL     1     -10.093  17.446  65.806  1.00  0.00    -0.123 C  
HETATM    7  H3* UNL     1     -10.433  20.200  68.536  1.00  0.00     0.000 HD 
HETATM    8  C2* UNL     1     -10.667  18.013  67.098  1.00  0.00    -0.276 C  
HETATM    9  C3* UNL     1      -9.493  18.626  67.823  1.00  0.00    -0.300 C  
HETATM   10  O3* UNL     1      -9.677  20.031  67.986  1.00  0.00    -0.366 OA 
BRANCH   6  11
HETATM   11  N   UNL     1     -10.640  16.153  65.428  1.00  0.00    -0.473 NA 
HETATM   12  C   UNL     1     -11.517  15.895  64.412  1.00  0.00    -0.264 A  
HETATM   13  C   UNL     1     -11.120  14.026  65.365  1.00  0.00    -0.318 A  
HETATM   14  N   UNL     1     -11.826  14.620  64.341  1.00  0.00    -0.416 NA 
HETATM   15  C   UNL     1     -10.346  14.956  66.040  1.00  0.00    -0.299 A  
HETATM   16  N   UNL     1      -9.449  14.864  67.051  1.00  0.00    -0.220 NA 
HETATM   17  C   UNL     1      -8.718  13.800  67.058  1.00  0.00    -0.198 C  
HETATM   18  H   UNL     1      -9.358  15.590  67.762  1.00  0.00     0.000 HD 
HETATM   19  N   UNL     1      -8.683  12.701  66.231  1.00  0.00    -0.413 NA 
HETATM   20  C   UNL     1      -9.870  11.876  65.968  1.00  0.00    -0.235 C  
HETATM   21  H   UNL     1      -7.802  12.450  65.786  1.00  0.00     0.000 HD 
HETATM   22  C   UNL     1     -11.218  12.575  65.664  1.00  0.00    -0.317 C  
HETATM   23  O   UNL     1     -12.123  12.338  66.762  1.00  0.00    -0.593 OA 
HETATM   24  H   UNL     1     -12.185  11.409  66.953  1.00  0.00     0.000 HD 
ENDBRANCH   6  11
ENDBRANCH   2   4
TORSDOF 2
ENDMDL
MODEL       49
REMARK 921   NORMALIZED FREE ENERGY PREDICTED BY IDOCK:   -5.27 KCAL/MOL
REMARK 922        TOTAL FREE ENERGY PREDICTED BY IDOCK:   -6.58 KCAL/MOL
REMARK 923 INTER-LIGAND FREE ENERGY PREDICTED BY IDOCK:   -6.20 KCAL/MOL
REMARK 924 INTRA-LIGAND FREE ENERGY PREDICTED BY IDOCK:   -0.38 KCAL/MOL
REMARK 927      BINDING AFFINITY PREDICTED BY RF-SCORE:    0.00 PKD
ROOT
HETATM    1  O5* UNL     1     -10.705  16.638  67.836  1.00  0.00    -0.336 OA 
HETATM    2  C5* UNL     1     -10.153  17.101  66.602  1.00  0.00    -0.306 C  
HETATM    3  H5* UNL     1     -10.657  17.310  68.505  1.00  0.00     0.000 HD 
ENDROOT
BRANCH   2   4
HETATM    4  C4* UNL     1     -10.230  16.020  65.525  1.00  0.00    -0.360 C  
HETATM    5  O4* UNL     1      -9.865  14.747  66.089  1.00  0.00    -0.279 OA 
HETATM    6  C1* UNL     1     -10.579  13.731  65.360  1.00  0.00    -0.322 C  
HETATM    7  H3* UNL     1     -12.537  16.358  63.258  1.00  0.00     0.000 HD 
HETATM    8  C2* UNL     1     -11.859  14.375  64.844  1.00  0.00    -0.419 C  
HETATM    9  C3* UNL     1     -11.621  15.863  64.927  1.00  0.00    -0.058 C  
HETATM   10  O3* UNL     1     -11.669  16.456  63.630  1.00  0.00    -0.933 OA 
BRANCH   6  11
HETATM   11  N   UNL     1     -10.795  12.571  66.208  1.00  0.00    -0.262 NA 
HETATM   12  C   UNL     1     -11.816  12.379  67.097  1.00  0.00    -0.291 A  
HETATM   13  C   UNL     1     -10.573  10.647  67.211  1.00  0.00    -0.263 A  
HETATM   14  N   UNL     1     -11.717  11.225  67.718  1.00  0.00    -0.599 NA 
HETATM   15  C   UNL     1      -9.995  11.452  66.243  1.00  0.00    -0.224 A  
HETATM   16  N   UNL     1      -8.927  11.303  65.424  1.00  0.00    -0.343 NA 
HETATM   17  C   UNL     1      -8.716  10.107  64.988  1.00  0.00    -0.173 C  
HETATM   18  H   UNL     1      -8.327  12.087  65.168  1.00  0.00     0.000 HD 
HETATM   19  N   UNL     1      -9.366   8.915  65.214  1.00  0.00    -0.450 NA 
HETATM   20  C   UNL     1      -9.580   8.378  66.564  1.00  0.00    -0.236 C  
HETATM   21  H   UNL     1      -9.713   8.386  64.415  1.00  0.00     0.000 HD 
HETATM   22  C   UNL     1     -10.069   9.332  67.682  1.00  0.00    -0.214 C  
HETATM   23  O   UNL     1      -9.008   9.504  68.645  1.00  0.00    -0.130 OA 
HETATM   24  H   UNL     1      -8.686   8.663  68.946  1.00  0.00     0.000 HD 
ENDBRANCH   6  11
ENDBRANCH   2   4
TORSDOF 2
ENDMDL
MODEL       50
REMARK 921   NORMALIZED FREE ENERGY PREDICTED BY IDOCK:   -5.26 KCAL/MOL
REMARK 922        TOTAL FREE ENERGY PREDICTED BY IDOCK:   -6.56 KCAL/MOL
REMARK 923 INTER-LIGAND FREE ENERGY PREDICTED BY IDOCK:   -5.92 KCAL/MOL
REMARK 924 INTRA-LIGAND FREE ENERGY PREDICTED BY IDOCK:   -0.64 KCAL/MOL
REMARK 927      BINDING AFFINITY PREDICTED BY RF-SCORE:    0.00 PKD
ROOT
HETATM    1  O5* UNL     1     -10.280  19.050  68.983  1.00  0.00    -0.525 OA 
HETATM    2  C5* UNL     1     -10.123  17.637  69.122  1.00  0.00    -0.232 C  
HETATM    3  H5* UNL     1     -10.617  19.437  69.783  1.00  0.00     0.000 HD 
ENDROOT
BRANCH   2   4
HETATM    4  C4* UNL     1      -9.583  17.015  67.835  1.00  0.00    -0.249 C  
HETATM    5  O4* UNL     1      -9.701  15.581  67.905  1.00  0.00    -0.210 OA 
HETATM    6  C1* UNL     1      -9.874  15.096  66.560  1.00  0.00    -0.262 C  
HETATM    7  H3* UNL     1     -10.015  18.696  65.085  1.00  0.00     0.000 HD 
HETATM    8  C2* UNL     1     -10.542  16.214  65.770  1.00  0.00    -0.347 C  
HETATM    9  C3* UNL     1     -10.329  17.466  66.587  1.00  0.00    -0.306 C  
HETATM   10  O3* UNL     1      -9.549  18.415  65.864  1.00  0.00    -0.499 OA 
BRANCH   6  11
HETATM   11  N   UNL     1     -10.619  13.849  66.575  1.00  0.00    -0.277 NA 
HETATM   12  C   UNL     1     -11.702  13.527  65.804  1.00  0.00    -0.345 A  
HETATM   13  C   UNL     1     -11.327  11.845  67.064  1.00  0.00    -0.329 A  
HETATM   14  N   UNL     1     -12.154  12.322  66.069  1.00  0.00    -0.630 NA 
HETATM   15  C   UNL     1     -10.341  12.765  67.376  1.00  0.00    -0.222 A  
HETATM   16  N   UNL     1      -9.277  12.744  68.214  1.00  0.00    -0.251 NA 
HETATM   17  C   UNL     1      -8.677  11.607  68.330  1.00  0.00    -0.158 C  
HETATM   18  H   UNL     1      -8.970  13.573  68.722  1.00  0.00     0.000 HD 
HETATM   19  N   UNL     1      -8.924  10.373  67.773  1.00  0.00    -0.131 NA 
HETATM   20  C   UNL     1     -10.220   9.695  67.903  1.00  0.00    -0.198 C  
HETATM   21  H   UNL     1      -8.179   9.913  67.250  1.00  0.00     0.000 HD 
HETATM   22  C   UNL     1     -11.519  10.510  67.687  1.00  0.00     0.007 C  
HETATM   23  O   UNL     1     -12.210  10.628  68.948  1.00  0.00    -0.757 OA 
HETATM   24  H   UNL     1     -12.332   9.774  69.347  1.00  0.00     0.000 HD 
ENDBRANCH   6  11
ENDBRANCH   2   4
TORSDOF 2
ENDMDL
MODEL       51
REMARK 921   NORMALIZED FREE ENERGY PREDICTED BY IDOCK:   -5.25 KCAL/MOL
REMARK 922        TOTAL FREE ENERGY PREDICTED BY IDOCK:   -6.56 KCAL/MOL
REMARK 923 INTER-LIGAND FREE ENERGY PREDICTED BY IDOCK:   -5.88 KCAL/MOL
REMARK 924 INTRA-LIGAND FREE ENERGY PREDICTED BY IDOCK:   -0.68 KCAL/MOL
REMARK 927      BINDING AFFINITY PREDICTED BY RF-SCORE:    0.00 PKD
ROOT
HETATM    1  O5* UNL     1     -12.032  10.847  67.707  1.00  0.00    -0.691 OA 
HETATM    2  C5* UNL     1     -11.727  12.174  68.138  1.00  0.00    -0.341 C  
HETATM    3  H5* UNL     1     -11.769  10.207  68.358  1.00  0.00     0.000 HD 
ENDROOT
BRANCH   2   4
HETATM    4  C4* UNL     1     -12.149  13.204  67.090  1.00  0.00    -0.286 C  
HETATM    5  O4* UNL     1     -11.585  14.487  67.419  1.00  0.00    -0.353 OA 
HETATM    6  C1* UNL     1     -11.379  15.197  66.183  1.00  0.00    -0.220 C  
HETATM    7  H3* UNL     1     -12.484  12.147  64.032  1.00  0.00     0.000 HD 
HETATM    8  C2* UNL     1     -11.157  14.148  65.102  1.00  0.00    -0.349 C  
HETATM    9  C3* UNL     1     -11.682  12.857  65.683  1.00  0.00    -0.387 C  
HETATM   10  O3* UNL     1     -12.775  12.363  64.910  1.00  0.00    -0.620 OA 
BRANCH   6  11
HETATM   11  N   UNL     1     -10.284  16.141  66.330  1.00  0.00    -0.293 NA 
HETATM   12  C   UNL     1     -10.260  17.447  65.926  1.00  0.00    -0.256 A  
HETATM   13  C   UNL     1      -8.355  17.045  66.799  1.00  0.00    -0.234 A  
HETATM   14  N   UNL     1      -9.113  18.026  66.196  1.00  0.00    -0.504 NA 
HETATM   15  C   UNL     1      -9.073  15.868  66.925  1.00  0.00    -0.231 A  
HETATM   16  N   UNL     1      -8.803  14.668  67.493  1.00  0.00    -0.177 NA 
HETATM   17  C   UNL     1      -8.091  14.704  68.569  1.00  0.00    -0.146 C  
HETATM   18  H   UNL     1      -9.142  13.792  67.096  1.00  0.00     0.000 HD 
HETATM   19  N   UNL     1      -7.516  15.746  69.259  1.00  0.00    -0.209 NA 
HETATM   20  C   UNL     1      -6.595  16.698  68.625  1.00  0.00    -0.159 C  
HETATM   21  H   UNL     1      -7.738  15.861  70.247  1.00  0.00     0.000 HD 
HETATM   22  C   UNL     1      -6.953  17.276  67.234  1.00  0.00    -0.166 C  
HETATM   23  O   UNL     1      -6.023  16.758  66.261  1.00  0.00    -0.261 OA 
HETATM   24  H   UNL     1      -5.127  16.905  66.539  1.00  0.00     0.000 HD 
ENDBRANCH   6  11
ENDBRANCH   2   4
TORSDOF 2
ENDMDL
MODEL       52
REMARK 921   NORMALIZED FREE ENERGY PREDICTED BY IDOCK:   -5.22 KCAL/MOL
REMARK 922        TOTAL FREE ENERGY PREDICTED BY IDOCK:   -6.52 KCAL/MOL
REMARK 923 INTER-LIGAND FREE ENERGY PREDICTED BY IDOCK:   -6.11 KCAL/MOL
REMARK 924 INTRA-LIGAND FREE ENERGY PREDICTED BY IDOCK:   -0.41 KCAL/MOL
REMARK 927      BINDING AFFINITY PREDICTED BY RF-SCORE:    0.00 PKD
ROOT
HETATM    1  O5* UNL     1     -10.850  16.553  69.530  1.00  0.00    -0.310 OA 
HETATM    2  C5* UNL     1     -11.098  15.429  68.685  1.00  0.00    -0.289 C  
HETATM    3  H5* UNL     1     -10.162  17.103  69.175  1.00  0.00     0.000 HD 
ENDROOT
BRANCH   2   4
HETATM    4  C4* UNL     1     -12.204  14.543  69.256  1.00  0.00    -0.229 C  
HETATM    5  O4* UNL     1     -11.947  13.168  68.916  1.00  0.00    -0.309 OA 
HETATM    6  C1* UNL     1     -12.505  12.352  69.963  1.00  0.00     0.033 C  
HETATM    7  H3* UNL     1     -13.507  15.453  72.093  1.00  0.00     0.000 HD 
HETATM    8  C2* UNL     1     -12.482  13.190  71.235  1.00  0.00    -0.327 C  
HETATM    9  C3* UNL     1     -12.313  14.617  70.773  1.00  0.00    -0.328 C  
HETATM   10  O3* UNL     1     -13.439  15.407  71.147  1.00  0.00    -0.488 OA 
BRANCH   6  11
HETATM   11  N   UNL     1     -11.774  11.101  70.061  1.00  0.00    -0.327 NA 
HETATM   12  C   UNL     1     -10.499  10.855  69.635  1.00  0.00    -0.088 A  
HETATM   13  C   UNL     1     -11.230   9.025  70.455  1.00  0.00    -0.241 A  
HETATM   14  N   UNL     1     -10.134   9.613  69.860  1.00  0.00    -0.229 NA 
HETATM   15  C   UNL     1     -12.257   9.940  70.621  1.00  0.00    -0.238 A  
HETATM   16  N   UNL     1     -13.480   9.873  71.200  1.00  0.00    -0.430 NA 
HETATM   17  C   UNL     1     -13.563   9.129  72.252  1.00  0.00    -0.489 C  
HETATM   18  H   UNL     1     -14.284  10.377  70.827  1.00  0.00     0.000 HD 
HETATM   19  N   UNL     1     -12.636   8.353  72.908  1.00  0.00    -0.651 NA 
HETATM   20  C   UNL     1     -11.872   7.297  72.230  1.00  0.00    -0.248 C  
HETATM   21  H   UNL     1     -12.472   8.517  73.900  1.00  0.00     0.000 HD 
HETATM   22  C   UNL     1     -11.253   7.591  70.842  1.00  0.00    -0.269 C  
HETATM   23  O   UNL     1     -11.941   6.804  69.848  1.00  0.00    -0.651 OA 
HETATM   24  H   UNL     1     -11.955   5.886  70.096  1.00  0.00     0.000 HD 
ENDBRANCH   6  11
ENDBRANCH   2   4
TORSDOF 2
ENDMDL
MODEL       53
REMARK 921   NORMALIZED FREE ENERGY PREDICTED BY IDOCK:   -5.18 KCAL/MOL
REMARK 922        TOTAL FREE ENERGY PREDICTED BY IDOCK:   -6.48 KCAL/MOL
REMARK 923 INTER-LIGAND FREE ENERGY PREDICTED BY IDOCK:   -5.67 KCAL/MOL
REMARK 924 INTRA-LIGAND FREE ENERGY PREDICTED BY IDOCK:   -0.81 KCAL/MOL
REMARK 927      BINDING AFFINITY PREDICTED BY RF-SCORE:    0.00 PKD
ROOT
HETATM    1  O5* UNL     1     -12.195  15.463  68.704  1.00  0.00    -0.569 OA 
HETATM    2  C5* UNL     1     -11.179  16.451  68.525  1.00  0.00    -0.334 C  
HETATM    3  H5* UNL     1     -12.840  15.747  69.341  1.00  0.00     0.000 HD 
ENDROOT
BRANCH   2   4
HETATM    4  C4* UNL     1     -10.141  15.995  67.500  1.00  0.00    -0.247 C  
HETATM    5  O4* UNL     1      -9.444  14.839  68.000  1.00  0.00    -0.197 OA 
HETATM    6  C1* UNL     1      -9.045  14.051  66.863  1.00  0.00    -0.248 C  
HETATM    7  H3* UNL     1     -10.892  16.392  64.361  1.00  0.00     0.000 HD 
HETATM    8  C2* UNL     1     -10.054  14.328  65.757  1.00  0.00    -0.356 C  
HETATM    9  C3* UNL     1     -10.748  15.607  66.159  1.00  0.00    -0.303 C  
HETATM   10  O3* UNL     1     -10.513  16.634  65.197  1.00  0.00    -0.647 OA 
BRANCH   6  11
HETATM   11  N   UNL     1      -8.944  12.651  67.240  1.00  0.00    -0.186 NA 
HETATM   12  C   UNL     1      -7.882  11.816  67.034  1.00  0.00    -0.161 A  
HETATM   13  C   UNL     1      -9.391  10.656  68.000  1.00  0.00    -0.147 A  
HETATM   14  N   UNL     1      -8.114  10.604  67.484  1.00  0.00    -0.110 NA 
HETATM   15  C   UNL     1      -9.921  11.931  67.890  1.00  0.00    -0.191 A  
HETATM   16  N   UNL     1     -11.082  12.496  68.297  1.00  0.00    -0.240 NA 
HETATM   17  C   UNL     1     -11.549  12.071  69.424  1.00  0.00    -0.330 C  
HETATM   18  H   UNL     1     -11.559  13.211  67.749  1.00  0.00     0.000 HD 
HETATM   19  N   UNL     1     -11.098  11.117  70.306  1.00  0.00    -0.455 NA 
HETATM   20  C   UNL     1     -10.835   9.730  69.900  1.00  0.00    -0.272 C  
HETATM   21  H   UNL     1     -10.941  11.382  71.278  1.00  0.00     0.000 HD 
HETATM   22  C   UNL     1     -10.064   9.467  68.583  1.00  0.00    -0.181 C  
HETATM   23  O   UNL     1     -10.965   8.869  67.628  1.00  0.00    -0.493 OA 
HETATM   24  H   UNL     1     -11.396   8.109  68.000  1.00  0.00     0.000 HD 
ENDBRANCH   6  11
ENDBRANCH   2   4
TORSDOF 2
ENDMDL
MODEL       54
REMARK 921   NORMALIZED FREE ENERGY PREDICTED BY IDOCK:   -5.15 KCAL/MOL
REMARK 922        TOTAL FREE ENERGY PREDICTED BY IDOCK:   -6.44 KCAL/MOL
REMARK 923 INTER-LIGAND FREE ENERGY PREDICTED BY IDOCK:   -5.88 KCAL/MOL
REMARK 924 INTRA-LIGAND FREE ENERGY PREDICTED BY IDOCK:   -0.56 KCAL/MOL
REMARK 927      BINDING AFFINITY PREDICTED BY RF-SCORE:    0.00 PKD
ROOT
HETATM    1  O5* UNL     1     -12.456  15.891  71.211  1.00  0.00    -0.449 OA 
HETATM    2  C5* UNL     1     -12.124  14.502  71.231  1.00  0.00    -0.354 C  
HETATM    3  H5* UNL     1     -12.268  16.299  72.047  1.00  0.00     0.000 HD 
ENDROOT
BRANCH   2   4
HETATM    4  C4* UNL     1     -12.426  13.843  69.886  1.00  0.00    -0.229 C  
HETATM    5  O4* UNL     1     -12.387  14.835  68.842  1.00  0.00    -0.161 OA 
HETATM    6  C1* UNL     1     -11.973  14.172  67.633  1.00  0.00    -0.370 C  
HETATM    7  H3* UNL     1     -11.386  10.790  69.469  1.00  0.00     0.000 HD 
HETATM    8  C2* UNL     1     -11.114  12.986  68.050  1.00  0.00    -0.288 C  
HETATM    9  C3* UNL     1     -11.429  12.757  69.509  1.00  0.00    -0.225 C  
HETATM   10  O3* UNL     1     -12.008  11.468  69.704  1.00  0.00    -0.310 OA 
BRANCH   6  11
HETATM   11  N   UNL     1     -11.301  15.116  66.756  1.00  0.00    -0.296 NA 
HETATM   12  C   UNL     1     -11.395  15.186  65.393  1.00  0.00    -0.298 A  
HETATM   13  C   UNL     1     -10.038  16.722  65.991  1.00  0.00    -0.332 A  
HETATM   14  N   UNL     1     -10.649  16.147  64.897  1.00  0.00    -0.640 NA 
HETATM   15  C   UNL     1     -10.452  16.118  67.167  1.00  0.00    -0.305 A  
HETATM   16  N   UNL     1     -10.201  16.357  68.476  1.00  0.00    -0.245 NA 
HETATM   17  C   UNL     1     -10.068  17.599  68.805  1.00  0.00    -0.377 C  
HETATM   18  H   UNL     1     -10.121  15.605  69.159  1.00  0.00     0.000 HD 
HETATM   19  N   UNL     1     -10.110  18.758  68.064  1.00  0.00    -0.350 NA 
HETATM   20  C   UNL     1      -9.244  18.980  66.899  1.00  0.00    -0.303 C  
HETATM   21  H   UNL     1     -10.767  19.489  68.334  1.00  0.00     0.000 HD 
HETATM   22  C   UNL     1      -9.067  17.839  65.866  1.00  0.00     0.144 C  
HETATM   23  O   UNL     1      -7.712  17.350  65.939  1.00  0.00    -0.496 OA 
HETATM   24  H   UNL     1      -7.091  18.065  65.860  1.00  0.00     0.000 HD 
ENDBRANCH   6  11
ENDBRANCH   2   4
TORSDOF 2
ENDMDL
MODEL       55
REMARK 921   NORMALIZED FREE ENERGY PREDICTED BY IDOCK:   -5.14 KCAL/MOL
REMARK 922        TOTAL FREE ENERGY PREDICTED BY IDOCK:   -6.43 KCAL/MOL
REMARK 923 INTER-LIGAND FREE ENERGY PREDICTED BY IDOCK:   -5.97 KCAL/MOL
REMARK 924 INTRA-LIGAND FREE ENERGY PREDICTED BY IDOCK:   -0.46 KCAL/MOL
REMARK 927      BINDING AFFINITY PREDICTED BY RF-SCORE:    0.00 PKD
ROOT
HETATM    1  O5* UNL     1     -12.216  12.062  67.208  1.00  0.00    -0.496 OA 
HETATM    2  C5* UNL     1     -11.844  13.098  68.118  1.00  0.00    -0.348 C  
HETATM    3  H5* UNL     1     -12.200  11.212  67.632  1.00  0.00     0.000 HD 
ENDROOT
BRANCH   2   4
HETATM    4  C4* UNL     1     -11.869  14.465  67.436  1.00  0.00    -0.400 C  
HETATM    5  O4* UNL     1     -11.074  15.397  68.193  1.00  0.00    -0.284 OA 
HETATM    6  C1* UNL     1     -10.543  16.363  67.266  1.00  0.00    -0.293 C  
HETATM    7  H3* UNL     1     -12.019  14.492  64.187  1.00  0.00     0.000 HD 
HETATM    8  C2* UNL     1     -10.425  15.663  65.918  1.00  0.00    -0.358 C  
HETATM    9  C3* UNL     1     -11.308  14.443  66.021  1.00  0.00    -0.335 C  
HETATM   10  O3* UNL     1     -12.369  14.505  65.070  1.00  0.00    -0.403 OA 
BRANCH   6  11
HETATM   11  N   UNL     1      -9.290  16.898  67.771  1.00  0.00    -0.233 NA 
HETATM   12  C   UNL     1      -8.222  16.188  68.245  1.00  0.00    -0.162 A  
HETATM   13  C   UNL     1      -7.706  18.253  68.413  1.00  0.00    -0.299 A  
HETATM   14  N   UNL     1      -7.245  16.974  68.638  1.00  0.00    -0.210 NA 
HETATM   15  C   UNL     1      -8.967  18.234  67.842  1.00  0.00    -0.276 A  
HETATM   16  N   UNL     1      -9.797  19.201  67.383  1.00  0.00    -0.317 NA 
HETATM   17  C   UNL     1      -9.224  20.211  66.818  1.00  0.00    -0.367 C  
HETATM   18  H   UNL     1     -10.810  19.136  67.479  1.00  0.00     0.000 HD 
HETATM   19  N   UNL     1      -7.900  20.517  66.603  1.00  0.00    -0.513 NA 
HETATM   20  C   UNL     1      -6.919  20.580  67.694  1.00  0.00    -0.322 C  
HETATM   21  H   UNL     1      -7.589  20.708  65.651  1.00  0.00     0.000 HD 
HETATM   22  C   UNL     1      -6.912  19.459  68.762  1.00  0.00    -0.333 C  
HETATM   23  O   UNL     1      -7.348  20.013  70.021  1.00  0.00    -0.016 OA 
HETATM   24  H   UNL     1      -6.840  20.784  70.244  1.00  0.00     0.000 HD 
ENDBRANCH   6  11
ENDBRANCH   2   4
TORSDOF 2
ENDMDL
MODEL       56
REMARK 921   NORMALIZED FREE ENERGY PREDICTED BY IDOCK:   -5.13 KCAL/MOL
REMARK 922        TOTAL FREE ENERGY PREDICTED BY IDOCK:   -6.42 KCAL/MOL
REMARK 923 INTER-LIGAND FREE ENERGY PREDICTED BY IDOCK:   -6.09 KCAL/MOL
REMARK 924 INTRA-LIGAND FREE ENERGY PREDICTED BY IDOCK:   -0.34 KCAL/MOL
REMARK 927      BINDING AFFINITY PREDICTED BY RF-SCORE:    0.00 PKD
ROOT
HETATM    1  O5* UNL     1     -10.557  19.590  68.552  1.00  0.00    -0.468 OA 
HETATM    2  C5* UNL     1     -10.018  18.337  68.972  1.00  0.00    -0.271 C  
HETATM    3  H5* UNL     1     -10.872  20.093  69.293  1.00  0.00     0.000 HD 
ENDROOT
BRANCH   2   4
HETATM    4  C4* UNL     1      -9.512  17.527  67.779  1.00  0.00    -0.269 C  
HETATM    5  O4* UNL     1      -9.082  16.227  68.224  1.00  0.00    -0.189 OA 
HETATM    6  C1* UNL     1      -9.289  15.307  67.136  1.00  0.00    -0.216 C  
HETATM    7  H3* UNL     1     -10.989  18.023  64.924  1.00  0.00     0.000 HD 
HETATM    8  C2* UNL     1     -10.444  15.856  66.308  1.00  0.00    -0.324 C  
HETATM    9  C3* UNL     1     -10.571  17.306  66.708  1.00  0.00    -0.192 C  
HETATM   10  O3* UNL     1     -10.328  18.161  65.593  1.00  0.00    -0.603 OA 
BRANCH   6  11
HETATM   11  N   UNL     1      -9.510  13.968  67.653  1.00  0.00    -0.205 NA 
HETATM   12  C   UNL     1      -8.667  12.896  67.554  1.00  0.00    -0.190 A  
HETATM   13  C   UNL     1     -10.399  12.215  68.599  1.00  0.00    -0.195 A  
HETATM   14  N   UNL     1      -9.169  11.821  68.118  1.00  0.00    -0.181 NA 
HETATM   15  C   UNL     1     -10.624  13.559  68.350  1.00  0.00    -0.248 A  
HETATM   16  N   UNL     1     -11.625  14.412  68.675  1.00  0.00    -0.296 NA 
HETATM   17  C   UNL     1     -12.173  14.222  69.828  1.00  0.00    -0.339 C  
HETATM   18  H   UNL     1     -11.926  15.157  68.047  1.00  0.00     0.000 HD 
HETATM   19  N   UNL     1     -11.950  13.285  70.811  1.00  0.00    -0.513 NA 
HETATM   20  C   UNL     1     -12.012  11.840  70.551  1.00  0.00    -0.289 C  
HETATM   21  H   UNL     1     -11.735  13.605  71.754  1.00  0.00     0.000 HD 
HETATM   22  C   UNL     1     -11.325  11.276  69.283  1.00  0.00    -0.287 C  
HETATM   23  O   UNL     1     -12.341  10.805  68.373  1.00  0.00    -0.813 OA 
HETATM   24  H   UNL     1     -12.933  10.204  68.811  1.00  0.00     0.000 HD 
ENDBRANCH   6  11
ENDBRANCH   2   4
TORSDOF 2
ENDMDL
MODEL       57
REMARK 921   NORMALIZED FREE ENERGY PREDICTED BY IDOCK:   -5.13 KCAL/MOL
REMARK 922        TOTAL FREE ENERGY PREDICTED BY IDOCK:   -6.42 KCAL/MOL
REMARK 923 INTER-LIGAND FREE ENERGY PREDICTED BY IDOCK:   -6.07 KCAL/MOL
REMARK 924 INTRA-LIGAND FREE ENERGY PREDICTED BY IDOCK:   -0.34 KCAL/MOL
REMARK 927      BINDING AFFINITY PREDICTED BY RF-SCORE:    0.00 PKD
ROOT
HETATM    1  O5* UNL     1     -13.117  10.104  70.393  1.00  0.00    -0.590 OA 
HETATM    2  C5* UNL     1     -13.393  10.821  71.597  1.00  0.00    -0.290 C  
HETATM    3  H5* UNL     1     -13.606   9.290  70.359  1.00  0.00     0.000 HD 
ENDROOT
BRANCH   2   4
HETATM    4  C4* UNL     1     -12.607  12.130  71.651  1.00  0.00    -0.098 C  
HETATM    5  O4* UNL     1     -11.836  12.282  70.445  1.00  0.00    -0.303 OA 
HETATM    6  C1* UNL     1     -11.703  13.694  70.192  1.00  0.00    -0.218 C  
HETATM    7  H3* UNL     1     -14.009  14.631  73.186  1.00  0.00     0.000 HD 
HETATM    8  C2* UNL     1     -12.923  14.369  70.807  1.00  0.00    -0.388 C  
HETATM    9  C3* UNL     1     -13.494  13.361  71.775  1.00  0.00    -0.370 C  
HETATM   10  O3* UNL     1     -13.455  13.863  73.109  1.00  0.00    -0.555 OA 
BRANCH   6  11
HETATM   11  N   UNL     1     -11.546  13.930  68.767  1.00  0.00    -0.310 NA 
HETATM   12  C   UNL     1     -12.035  13.164  67.746  1.00  0.00    -0.307 A  
HETATM   13  C   UNL     1     -10.964  14.775  66.842  1.00  0.00    -0.328 A  
HETATM   14  N   UNL     1     -11.706  13.647  66.568  1.00  0.00    -0.362 NA 
HETATM   15  C   UNL     1     -10.876  14.994  68.207  1.00  0.00    -0.259 A  
HETATM   16  N   UNL     1     -10.329  15.978  68.960  1.00  0.00    -0.227 NA 
HETATM   17  C   UNL     1     -10.403  17.169  68.467  1.00  0.00    -0.364 C  
HETATM   18  H   UNL     1      -9.885  15.790  69.859  1.00  0.00     0.000 HD 
HETATM   19  N   UNL     1     -10.923  17.647  67.286  1.00  0.00    -0.124 NA 
HETATM   20  C   UNL     1     -10.498  17.138  65.975  1.00  0.00    -0.266 C  
HETATM   21  H   UNL     1     -11.629  18.381  67.323  1.00  0.00     0.000 HD 
HETATM   22  C   UNL     1     -10.358  15.609  65.773  1.00  0.00    -0.365 C  
HETATM   23  O   UNL     1      -8.962  15.288  65.603  1.00  0.00    -0.349 OA 
HETATM   24  H   UNL     1      -8.574  15.821  64.919  1.00  0.00     0.000 HD 
ENDBRANCH   6  11
ENDBRANCH   2   4
TORSDOF 2
ENDMDL
MODEL       58
REMARK 921   NORMALIZED FREE ENERGY PREDICTED BY IDOCK:   -5.13 KCAL/MOL
REMARK 922        TOTAL FREE ENERGY PREDICTED BY IDOCK:   -6.42 KCAL/MOL
REMARK 923 INTER-LIGAND FREE ENERGY PREDICTED BY IDOCK:   -5.64 KCAL/MOL
REMARK 924 INTRA-LIGAND FREE ENERGY PREDICTED BY IDOCK:   -0.78 KCAL/MOL
REMARK 927      BINDING AFFINITY PREDICTED BY RF-SCORE:    0.00 PKD
ROOT
HETATM    1  O5* UNL     1     -11.714  13.526  70.700  1.00  0.00    -0.517 OA 
HETATM    2  C5* UNL     1     -11.788  14.414  69.584  1.00  0.00    -0.321 C  
HETATM    3  H5* UNL     1     -12.187  13.875  71.447  1.00  0.00     0.000 HD 
ENDROOT
BRANCH   2   4
HETATM    4  C4* UNL     1     -11.027  13.854  68.383  1.00  0.00    -0.253 C  
HETATM    5  O4* UNL     1     -10.243  12.719  68.794  1.00  0.00    -0.187 OA 
HETATM    6  C1* UNL     1     -10.133  11.837  67.660  1.00  0.00    -0.193 C  
HETATM    7  H3* UNL     1     -12.497  14.038  65.488  1.00  0.00     0.000 HD 
HETATM    8  C2* UNL     1     -11.373  12.060  66.805  1.00  0.00    -0.398 C  
HETATM    9  C3* UNL     1     -11.939  13.385  67.257  1.00  0.00    -0.347 C  
HETATM   10  O3* UNL     1     -11.929  14.331  66.190  1.00  0.00    -0.391 OA 
BRANCH   6  11
HETATM   11  N   UNL     1      -9.960  10.467  68.113  1.00  0.00    -0.147 NA 
HETATM   12  C   UNL     1      -9.023   9.569  67.683  1.00  0.00    -0.117 A  
HETATM   13  C   UNL     1     -10.214   8.558  69.138  1.00  0.00    -0.211 A  
HETATM   14  N   UNL     1      -9.143   8.407  68.284  1.00  0.00    -0.139 NA 
HETATM   15  C   UNL     1     -10.723   9.845  69.075  1.00  0.00    -0.222 A  
HETATM   16  N   UNL     1     -11.703  10.494  69.748  1.00  0.00    -0.324 NA 
HETATM   17  C   UNL     1     -11.832  10.179  70.994  1.00  0.00    -0.383 C  
HETATM   18  H   UNL     1     -12.301  11.187  69.300  1.00  0.00     0.000 HD 
HETATM   19  N   UNL     1     -11.167   9.273  71.788  1.00  0.00    -0.374 NA 
HETATM   20  C   UNL     1     -11.066   7.849  71.445  1.00  0.00    -0.243 C  
HETATM   21  H   UNL     1     -10.729   9.604  72.647  1.00  0.00     0.000 HD 
HETATM   22  C   UNL     1     -10.717   7.451  69.990  1.00  0.00    -0.246 C  
HETATM   23  O   UNL     1     -11.870   6.825  69.389  1.00  0.00    -0.628 OA 
HETATM   24  H   UNL     1     -12.192   6.116  69.934  1.00  0.00     0.000 HD 
ENDBRANCH   6  11
ENDBRANCH   2   4
TORSDOF 2
ENDMDL
MODEL       59
REMARK 921   NORMALIZED FREE ENERGY PREDICTED BY IDOCK:   -5.10 KCAL/MOL
REMARK 922        TOTAL FREE ENERGY PREDICTED BY IDOCK:   -6.39 KCAL/MOL
REMARK 923 INTER-LIGAND FREE ENERGY PREDICTED BY IDOCK:   -6.04 KCAL/MOL
REMARK 924 INTRA-LIGAND FREE ENERGY PREDICTED BY IDOCK:   -0.35 KCAL/MOL
REMARK 927      BINDING AFFINITY PREDICTED BY RF-SCORE:    0.00 PKD
ROOT
HETATM    1  O5* UNL     1     -10.971  16.675  64.344  1.00  0.00    -1.092 OA 
HETATM    2  C5* UNL     1     -10.633  15.616  65.241  1.00  0.00    -0.426 C  
HETATM    3  H5* UNL     1     -10.821  17.523  64.744  1.00  0.00     0.000 HD 
ENDROOT
BRANCH   2   4
HETATM    4  C4* UNL     1     -10.875  14.251  64.597  1.00  0.00    -0.368 C  
HETATM    5  O4* UNL     1     -10.183  13.234  65.345  1.00  0.00    -0.299 OA 
HETATM    6  C1* UNL     1     -10.931  12.011  65.206  1.00  0.00    -0.308 C  
HETATM    7  H3* UNL     1     -13.777  13.765  63.212  1.00  0.00     0.000 HD 
HETATM    8  C2* UNL     1     -12.384  12.406  64.978  1.00  0.00    -0.441 C  
HETATM    9  C3* UNL     1     -12.345  13.855  64.557  1.00  0.00    -0.372 C  
HETATM   10  O3* UNL     1     -12.860  14.012  63.236  1.00  0.00    -0.538 OA 
BRANCH   6  11
HETATM   11  N   UNL     1     -10.719  11.165  66.368  1.00  0.00    -0.262 NA 
HETATM   12  C   UNL     1     -11.356  11.247  67.575  1.00  0.00    -0.288 A  
HETATM   13  C   UNL     1      -9.957   9.642  67.731  1.00  0.00    -0.171 A  
HETATM   14  N   UNL     1     -10.925  10.339  68.422  1.00  0.00    -0.254 NA 
HETATM   15  C   UNL     1      -9.831  10.116  66.436  1.00  0.00    -0.222 A  
HETATM   16  N   UNL     1      -9.087   9.731  65.372  1.00  0.00    -0.187 NA 
HETATM   17  C   UNL     1      -8.898   8.460  65.248  1.00  0.00    -0.069 C  
HETATM   18  H   UNL     1      -8.700  10.403  64.710  1.00  0.00     0.000 HD 
HETATM   19  N   UNL     1      -9.296   7.391  66.017  1.00  0.00    -0.388 NA 
HETATM   20  C   UNL     1      -8.984   7.291  67.449  1.00  0.00    -0.122 C  
HETATM   21  H   UNL     1      -9.826   6.640  65.577  1.00  0.00     0.000 HD 
HETATM   22  C   UNL     1      -9.178   8.537  68.348  1.00  0.00    -0.135 C  
HETATM   23  O   UNL     1      -7.885   9.004  68.784  1.00  0.00    -0.094 OA 
HETATM   24  H   UNL     1      -7.386   8.297  69.178  1.00  0.00     0.000 HD 
ENDBRANCH   6  11
ENDBRANCH   2   4
TORSDOF 2
ENDMDL
MODEL       60
REMARK 921   NORMALIZED FREE ENERGY PREDICTED BY IDOCK:   -5.10 KCAL/MOL
REMARK 922        TOTAL FREE ENERGY PREDICTED BY IDOCK:   -6.38 KCAL/MOL
REMARK 923 INTER-LIGAND FREE ENERGY PREDICTED BY IDOCK:   -6.00 KCAL/MOL
REMARK 924 INTRA-LIGAND FREE ENERGY PREDICTED BY IDOCK:   -0.38 KCAL/MOL
REMARK 927      BINDING AFFINITY PREDICTED BY RF-SCORE:    0.00 PKD
ROOT
HETATM    1  O5* UNL     1     -10.901  18.987  65.347  1.00  0.00    -0.541 OA 
HETATM    2  C5* UNL     1     -10.781  19.177  66.757  1.00  0.00    -0.397 C  
HETATM    3  H5* UNL     1     -11.450  19.657  64.957  1.00  0.00     0.000 HD 
ENDROOT
BRANCH   2   4
HETATM    4  C4* UNL     1      -9.898  18.099  67.385  1.00  0.00    -0.313 C  
HETATM    5  O4* UNL     1     -10.697  16.947  67.710  1.00  0.00    -0.339 OA 
HETATM    6  C1* UNL     1      -9.846  15.789  67.614  1.00  0.00    -0.232 C  
HETATM    7  H3* UNL     1      -6.837  17.885  66.305  1.00  0.00     0.000 HD 
HETATM    8  C2* UNL     1      -8.764  16.120  66.594  1.00  0.00    -0.300 C  
HETATM    9  C3* UNL     1      -8.781  17.625  66.466  1.00  0.00    -0.263 C  
HETATM   10  O3* UNL     1      -7.534  18.181  66.878  1.00  0.00    -0.196 OA 
BRANCH   6  11
HETATM   11  N   UNL     1     -10.638  14.617  67.282  1.00  0.00    -0.280 NA 
HETATM   12  C   UNL     1     -11.748  14.570  66.485  1.00  0.00    -0.368 A  
HETATM   13  C   UNL     1     -11.412  12.580  67.180  1.00  0.00    -0.351 A  
HETATM   14  N   UNL     1     -12.239  13.355  66.396  1.00  0.00    -0.399 NA 
HETATM   15  C   UNL     1     -10.385  13.337  67.719  1.00  0.00    -0.233 A  
HETATM   16  N   UNL     1      -9.306  13.036  68.480  1.00  0.00    -0.375 NA 
HETATM   17  C   UNL     1      -8.747  11.897  68.237  1.00  0.00    -0.170 C  
HETATM   18  H   UNL     1      -8.957  13.668  69.200  1.00  0.00     0.000 HD 
HETATM   19  N   UNL     1      -9.052  10.892  67.349  1.00  0.00    -0.140 NA 
HETATM   20  C   UNL     1     -10.370  10.246  67.313  1.00  0.00    -0.232 C  
HETATM   21  H   UNL     1      -8.336  10.586  66.691  1.00  0.00     0.000 HD 
HETATM   22  C   UNL     1     -11.641  11.127  67.387  1.00  0.00    -0.071 C  
HETATM   23  O   UNL     1     -12.301  10.888  68.647  1.00  0.00    -0.805 OA 
HETATM   24  H   UNL     1     -12.448   9.958  68.780  1.00  0.00     0.000 HD 
ENDBRANCH   6  11
ENDBRANCH   2   4
TORSDOF 2
ENDMDL
MODEL       61
REMARK 921   NORMALIZED FREE ENERGY PREDICTED BY IDOCK:   -5.09 KCAL/MOL
REMARK 922        TOTAL FREE ENERGY PREDICTED BY IDOCK:   -6.38 KCAL/MOL
REMARK 923 INTER-LIGAND FREE ENERGY PREDICTED BY IDOCK:   -5.76 KCAL/MOL
REMARK 924 INTRA-LIGAND FREE ENERGY PREDICTED BY IDOCK:   -0.62 KCAL/MOL
REMARK 927      BINDING AFFINITY PREDICTED BY RF-SCORE:    0.00 PKD
ROOT
HETATM    1  O5* UNL     1     -12.546  14.231  66.210  1.00  0.00    -0.488 OA 
HETATM    2  C5* UNL     1     -12.095  13.763  67.482  1.00  0.00    -0.331 C  
HETATM    3  H5* UNL     1     -13.380  14.678  66.287  1.00  0.00     0.000 HD 
ENDROOT
BRANCH   2   4
HETATM    4  C4* UNL     1     -10.752  13.043  67.360  1.00  0.00    -0.245 C  
HETATM    5  O4* UNL     1     -10.467  12.341  68.584  1.00  0.00    -0.227 OA 
HETATM    6  C1* UNL     1      -9.671  11.189  68.245  1.00  0.00    -0.188 C  
HETATM    7  H3* UNL     1      -9.959  11.886  64.425  1.00  0.00     0.000 HD 
HETATM    8  C2* UNL     1     -10.039  10.802  66.818  1.00  0.00    -0.267 C  
HETATM    9  C3* UNL     1     -10.718  12.017  66.235  1.00  0.00    -0.267 C  
HETATM   10  O3* UNL     1      -9.980  12.526  65.127  1.00  0.00    -0.263 OA 
BRANCH   6  11
HETATM   11  N   UNL     1      -9.882  10.135  69.222  1.00  0.00    -0.209 NA 
HETATM   12  C   UNL     1      -8.938   9.296  69.746  1.00  0.00    -0.172 A  
HETATM   13  C   UNL     1     -10.804   8.740  70.623  1.00  0.00    -0.232 A  
HETATM   14  N   UNL     1      -9.458   8.443  70.600  1.00  0.00    -0.163 NA 
HETATM   15  C   UNL     1     -11.090   9.814  69.796  1.00  0.00    -0.237 A  
HETATM   16  N   UNL     1     -12.222  10.511  69.533  1.00  0.00    -0.540 NA 
HETATM   17  C   UNL     1     -13.026  10.673  70.529  1.00  0.00    -0.205 C  
HETATM   18  H   UNL     1     -12.425  10.883  68.606  1.00  0.00     0.000 HD 
HETATM   19  N   UNL     1     -12.971  10.248  71.837  1.00  0.00    -0.448 NA 
HETATM   20  C   UNL     1     -12.818   8.832  72.199  1.00  0.00    -0.400 C  
HETATM   21  H   UNL     1     -13.039  10.941  72.581  1.00  0.00     0.000 HD 
HETATM   22  C   UNL     1     -11.775   7.973  71.444  1.00  0.00    -0.287 C  
HETATM   23  O   UNL     1     -12.470   6.999  70.638  1.00  0.00    -0.588 OA 
HETATM   24  H   UNL     1     -13.091   6.508  71.163  1.00  0.00     0.000 HD 
ENDBRANCH   6  11
ENDBRANCH   2   4
TORSDOF 2
ENDMDL
MODEL       62
REMARK 921   NORMALIZED FREE ENERGY PREDICTED BY IDOCK:   -5.08 KCAL/MOL
REMARK 922        TOTAL FREE ENERGY PREDICTED BY IDOCK:   -6.36 KCAL/MOL
REMARK 923 INTER-LIGAND FREE ENERGY PREDICTED BY IDOCK:   -5.98 KCAL/MOL
REMARK 924 INTRA-LIGAND FREE ENERGY PREDICTED BY IDOCK:   -0.38 KCAL/MOL
REMARK 927      BINDING AFFINITY PREDICTED BY RF-SCORE:    0.00 PKD
ROOT
HETATM    1  O5* UNL     1      -8.159  20.475  66.171  1.00  0.00    -0.523 OA 
HETATM    2  C5* UNL     1      -8.774  20.663  67.446  1.00  0.00    -0.203 C  
HETATM    3  H5* UNL     1      -8.097  21.295  65.697  1.00  0.00     0.000 HD 
ENDROOT
BRANCH   2   4
HETATM    4  C4* UNL     1      -8.874  19.343  68.210  1.00  0.00    -0.337 C  
HETATM    5  O4* UNL     1      -9.940  18.546  67.660  1.00  0.00    -0.312 OA 
HETATM    6  C1* UNL     1      -9.588  17.163  67.854  1.00  0.00    -0.266 C  
HETATM    7  H3* UNL     1      -6.097  18.066  69.321  1.00  0.00     0.000 HD 
HETATM    8  C2* UNL     1      -8.067  17.092  67.879  1.00  0.00    -0.201 C  
HETATM    9  C3* UNL     1      -7.605  18.506  68.136  1.00  0.00    -0.274 C  
HETATM   10  O3* UNL     1      -6.889  18.588  69.367  1.00  0.00    -0.250 OA 
BRANCH   6  11
HETATM   11  N   UNL     1     -10.206  16.344  66.825  1.00  0.00    -0.279 NA 
HETATM   12  C   UNL     1     -10.090  16.496  65.471  1.00  0.00    -0.174 A  
HETATM   13  C   UNL     1     -11.385  14.829  65.789  1.00  0.00    -0.336 A  
HETATM   14  N   UNL     1     -10.785  15.596  64.813  1.00  0.00    -0.465 NA 
HETATM   15  C   UNL     1     -11.015  15.255  67.054  1.00  0.00    -0.324 A  
HETATM   16  N   UNL     1     -11.274  14.799  68.303  1.00  0.00    -0.273 NA 
HETATM   17  C   UNL     1     -11.357  13.517  68.428  1.00  0.00    -0.292 C  
HETATM   18  H   UNL     1     -11.396  15.430  69.095  1.00  0.00     0.000 HD 
HETATM   19  N   UNL     1     -11.253  12.494  67.514  1.00  0.00    -0.274 NA 
HETATM   20  C   UNL     1     -12.092  12.425  66.310  1.00  0.00    -0.180 C  
HETATM   21  H   UNL     1     -10.568  11.757  67.678  1.00  0.00     0.000 HD 
HETATM   22  C   UNL     1     -12.304  13.707  65.468  1.00  0.00    -0.482 C  
HETATM   23  O   UNL     1     -13.680  14.122  65.590  1.00  0.00    -0.540 OA 
HETATM   24  H   UNL     1     -14.268  13.404  65.384  1.00  0.00     0.000 HD 
ENDBRANCH   6  11
ENDBRANCH   2   4
TORSDOF 2
ENDMDL
MODEL       63
REMARK 921   NORMALIZED FREE ENERGY PREDICTED BY IDOCK:   -5.06 KCAL/MOL
REMARK 922        TOTAL FREE ENERGY PREDICTED BY IDOCK:   -6.35 KCAL/MOL
REMARK 923 INTER-LIGAND FREE ENERGY PREDICTED BY IDOCK:   -5.58 KCAL/MOL
REMARK 924 INTRA-LIGAND FREE ENERGY PREDICTED BY IDOCK:   -0.76 KCAL/MOL
REMARK 927      BINDING AFFINITY PREDICTED BY RF-SCORE:    0.00 PKD
ROOT
HETATM    1  O5* UNL     1     -10.851  16.144  65.378  1.00  0.00    -0.356 OA 
HETATM    2  C5* UNL     1     -10.075  17.237  65.870  1.00  0.00    -0.211 C  
HETATM    3  H5* UNL     1     -10.665  15.976  64.462  1.00  0.00     0.000 HD 
ENDROOT
BRANCH   2   4
HETATM    4  C4* UNL     1     -10.375  17.507  67.344  1.00  0.00    -0.351 C  
HETATM    5  O4* UNL     1     -11.313  16.530  67.833  1.00  0.00    -0.218 OA 
HETATM    6  C1* UNL     1     -11.048  16.344  69.236  1.00  0.00    -0.297 C  
HETATM    7  H3* UNL     1      -7.946  18.694  69.152  1.00  0.00     0.000 HD 
HETATM    8  C2* UNL     1      -9.572  16.651  69.453  1.00  0.00    -0.057 C  
HETATM    9  C3* UNL     1      -9.142  17.430  68.234  1.00  0.00    -0.272 C  
HETATM   10  O3* UNL     1      -8.715  18.742  68.596  1.00  0.00    -0.337 OA 
BRANCH   6  11
HETATM   11  N   UNL     1     -11.444  15.006  69.643  1.00  0.00    -0.276 NA 
HETATM   12  C   UNL     1     -12.169  14.661  70.749  1.00  0.00    -0.324 A  
HETATM   13  C   UNL     1     -11.700  12.841  69.736  1.00  0.00    -0.282 A  
HETATM   14  N   UNL     1     -12.347  13.362  70.835  1.00  0.00    -0.375 NA 
HETATM   15  C   UNL     1     -11.154  13.848  68.957  1.00  0.00    -0.268 A  
HETATM   16  N   UNL     1     -10.497  13.858  67.772  1.00  0.00    -0.240 NA 
HETATM   17  C   UNL     1     -10.888  12.984  66.906  1.00  0.00    -0.264 C  
HETATM   18  H   UNL     1      -9.742  14.514  67.577  1.00  0.00     0.000 HD 
HETATM   19  N   UNL     1     -11.852  12.003  66.958  1.00  0.00    -0.611 NA 
HETATM   20  C   UNL     1     -11.867  10.968  68.000  1.00  0.00    -0.072 C  
HETATM   21  H   UNL     1     -12.581  11.994  66.246  1.00  0.00     0.000 HD 
HETATM   22  C   UNL     1     -11.624  11.382  69.472  1.00  0.00    -0.331 C  
HETATM   23  O   UNL     1     -10.355  10.848  69.902  1.00  0.00    -0.441 OA 
HETATM   24  H   UNL     1     -10.306   9.914  69.733  1.00  0.00     0.000 HD 
ENDBRANCH   6  11
ENDBRANCH   2   4
TORSDOF 2
ENDMDL
MODEL       64
REMARK 921   NORMALIZED FREE ENERGY PREDICTED BY IDOCK:   -5.06 KCAL/MOL
REMARK 922        TOTAL FREE ENERGY PREDICTED BY IDOCK:   -6.34 KCAL/MOL
REMARK 923 INTER-LIGAND FREE ENERGY PREDICTED BY IDOCK:   -5.91 KCAL/MOL
REMARK 924 INTRA-LIGAND FREE ENERGY PREDICTED BY IDOCK:   -0.43 KCAL/MOL
REMARK 927      BINDING AFFINITY PREDICTED BY RF-SCORE:    0.00 PKD
ROOT
HETATM    1  O5* UNL     1     -11.534   6.600  68.423  1.00  0.00    -0.571 OA 
HETATM    2  C5* UNL     1     -11.032   5.844  69.525  1.00  0.00    -0.368 C  
HETATM    3  H5* UNL     1     -11.719   6.039  67.679  1.00  0.00     0.000 HD 
ENDROOT
BRANCH   2   4
HETATM    4  C4* UNL     1     -10.734   6.746  70.722  1.00  0.00    -0.233 C  
HETATM    5  O4* UNL     1     -10.540   8.099  70.271  1.00  0.00    -0.219 OA 
HETATM    6  C1* UNL     1     -10.958   8.973  71.336  1.00  0.00    -0.324 C  
HETATM    7  H3* UNL     1     -12.200   6.006  73.529  1.00  0.00     0.000 HD 
HETATM    8  C2* UNL     1     -12.021   8.224  72.131  1.00  0.00    -0.429 C  
HETATM    9  C3* UNL     1     -11.856   6.772  71.751  1.00  0.00    -0.330 C  
HETATM   10  O3* UNL     1     -11.500   5.989  72.888  1.00  0.00    -0.237 OA 
BRANCH   6  11
HETATM   11  N   UNL     1     -11.408  10.242  70.790  1.00  0.00    -0.345 NA 
HETATM   12  C   UNL     1     -12.420  11.031  71.262  1.00  0.00    -0.370 A  
HETATM   13  C   UNL     1     -11.636  12.013  69.536  1.00  0.00    -0.321 A  
HETATM   14  N   UNL     1     -12.584  12.111  70.532  1.00  0.00    -0.164 NA 
HETATM   15  C   UNL     1     -10.867  10.871  69.692  1.00  0.00    -0.216 A  
HETATM   16  N   UNL     1      -9.795  10.373  69.031  1.00  0.00    -0.202 NA 
HETATM   17  C   UNL     1      -8.954  11.245  68.586  1.00  0.00    -0.147 C  
HETATM   18  H   UNL     1      -9.661   9.371  68.894  1.00  0.00     0.000 HD 
HETATM   19  N   UNL     1      -8.942  12.620  68.632  1.00  0.00    -0.392 NA 
HETATM   20  C   UNL     1     -10.050  13.435  68.117  1.00  0.00    -0.244 C  
HETATM   21  H   UNL     1      -8.134  13.090  69.038  1.00  0.00     0.000 HD 
HETATM   22  C   UNL     1     -11.504  13.026  68.458  1.00  0.00    -0.304 C  
HETATM   23  O   UNL     1     -12.158  12.579  67.252  1.00  0.00    -0.490 OA 
HETATM   24  H   UNL     1     -12.073  13.228  66.563  1.00  0.00     0.000 HD 
ENDBRANCH   6  11
ENDBRANCH   2   4
TORSDOF 2
ENDMDL
MODEL       65
REMARK 921   NORMALIZED FREE ENERGY PREDICTED BY IDOCK:   -5.06 KCAL/MOL
REMARK 922        TOTAL FREE ENERGY PREDICTED BY IDOCK:   -6.34 KCAL/MOL
REMARK 923 INTER-LIGAND FREE ENERGY PREDICTED BY IDOCK:   -5.80 KCAL/MOL
REMARK 924 INTRA-LIGAND FREE ENERGY PREDICTED BY IDOCK:   -0.54 KCAL/MOL
REMARK 927      BINDING AFFINITY PREDICTED BY RF-SCORE:    0.00 PKD
ROOT
HETATM    1  O5* UNL     1      -9.533  13.899  65.717  1.00  0.00    -0.498 OA 
HETATM    2  C5* UNL     1     -10.266  13.217  66.736  1.00  0.00    -0.254 C  
HETATM    3  H5* UNL     1      -9.493  13.383  64.921  1.00  0.00     0.000 HD 
ENDROOT
BRANCH   2   4
HETATM    4  C4* UNL     1     -10.330  14.048  68.017  1.00  0.00    -0.240 C  
HETATM    5  O4* UNL     1      -9.549  15.246  67.857  1.00  0.00    -0.198 OA 
HETATM    6  C1* UNL     1     -10.147  16.265  68.679  1.00  0.00    -0.233 C  
HETATM    7  H3* UNL     1     -13.115  13.959  69.694  1.00  0.00     0.000 HD 
HETATM    8  C2* UNL     1     -11.629  15.930  68.790  1.00  0.00    -0.389 C  
HETATM    9  C3* UNL     1     -11.743  14.480  68.384  1.00  0.00    -0.333 C  
HETATM   10  O3* UNL     1     -12.234  13.689  69.465  1.00  0.00    -0.319 OA 
BRANCH   6  11
HETATM   11  N   UNL     1      -9.874  17.578  68.120  1.00  0.00    -0.291 NA 
HETATM   12  C   UNL     1     -10.780  18.451  67.585  1.00  0.00    -0.357 A  
HETATM   13  C   UNL     1      -8.866  19.380  67.417  1.00  0.00    -0.301 A  
HETATM   14  N   UNL     1     -10.208  19.552  67.154  1.00  0.00    -0.394 NA 
HETATM   15  C   UNL     1      -8.634  18.170  68.049  1.00  0.00    -0.265 A  
HETATM   16  N   UNL     1      -7.525  17.583  68.560  1.00  0.00    -0.253 NA 
HETATM   17  C   UNL     1      -6.670  18.380  69.110  1.00  0.00    -0.260 C  
HETATM   18  H   UNL     1      -7.375  16.576  68.514  1.00  0.00     0.000 HD 
HETATM   19  N   UNL     1      -6.652  19.747  69.263  1.00  0.00    -0.338 NA 
HETATM   20  C   UNL     1      -6.771  20.669  68.126  1.00  0.00    -0.256 C  
HETATM   21  H   UNL     1      -6.552  20.134  70.201  1.00  0.00     0.000 HD 
HETATM   22  C   UNL     1      -7.845  20.392  67.045  1.00  0.00    -0.319 C  
HETATM   23  O   UNL     1      -7.184  20.026  65.816  1.00  0.00    -0.295 OA 
HETATM   24  H   UNL     1      -6.530  20.673  65.578  1.00  0.00     0.000 HD 
ENDBRANCH   6  11
ENDBRANCH   2   4
TORSDOF 2
ENDMDL
MODEL       66
REMARK 921   NORMALIZED FREE ENERGY PREDICTED BY IDOCK:   -5.03 KCAL/MOL
REMARK 922        TOTAL FREE ENERGY PREDICTED BY IDOCK:   -6.31 KCAL/MOL
REMARK 923 INTER-LIGAND FREE ENERGY PREDICTED BY IDOCK:   -5.96 KCAL/MOL
REMARK 924 INTRA-LIGAND FREE ENERGY PREDICTED BY IDOCK:   -0.35 KCAL/MOL
REMARK 927      BINDING AFFINITY PREDICTED BY RF-SCORE:    0.00 PKD
ROOT
HETATM    1  O5* UNL     1      -8.100  20.409  66.139  1.00  0.00    -0.519 OA 
HETATM    2  C5* UNL     1      -9.349  19.942  66.650  1.00  0.00    -0.395 C  
HETATM    3  H5* UNL     1      -8.231  21.042  65.442  1.00  0.00     0.000 HD 
ENDROOT
BRANCH   2   4
HETATM    4  C4* UNL     1      -9.140  18.924  67.770  1.00  0.00    -0.290 C  
HETATM    5  O4* UNL     1     -10.317  18.105  67.905  1.00  0.00    -0.361 OA 
HETATM    6  C1* UNL     1      -9.892  16.815  68.384  1.00  0.00    -0.253 C  
HETATM    7  H3* UNL     1      -6.125  17.775  68.176  1.00  0.00     0.000 HD 
HETATM    8  C2* UNL     1      -8.464  16.610  67.894  1.00  0.00    -0.194 C  
HETATM    9  C3* UNL     1      -7.967  17.986  67.520  1.00  0.00    -0.222 C  
HETATM   10  O3* UNL     1      -6.856  18.360  68.332  1.00  0.00    -0.226 OA 
BRANCH   6  11
HETATM   11  N   UNL     1     -10.825  15.791  67.945  1.00  0.00    -0.305 NA 
HETATM   12  C   UNL     1     -11.705  15.090  68.721  1.00  0.00    -0.334 A  
HETATM   13  C   UNL     1     -11.944  14.369  66.726  1.00  0.00    -0.399 A  
HETATM   14  N   UNL     1     -12.401  14.225  68.019  1.00  0.00    -0.113 NA 
HETATM   15  C   UNL     1     -10.982  15.363  66.646  1.00  0.00    -0.275 A  
HETATM   16  N   UNL     1     -10.295  15.914  65.617  1.00  0.00    -0.367 NA 
HETATM   17  C   UNL     1     -10.944  16.032  64.508  1.00  0.00    -0.159 C  
HETATM   18  H   UNL     1      -9.326  16.217  65.713  1.00  0.00     0.000 HD 
HETATM   19  N   UNL     1     -12.224  15.678  64.147  1.00  0.00    -0.798 NA 
HETATM   20  C   UNL     1     -12.734  14.308  64.293  1.00  0.00     0.076 C  
HETATM   21  H   UNL     1     -12.842  16.393  63.765  1.00  0.00     0.000 HD 
HETATM   22  C   UNL     1     -12.450  13.537  65.605  1.00  0.00    -0.479 C  
HETATM   23  O   UNL     1     -11.541  12.453  65.321  1.00  0.00    -0.344 OA 
HETATM   24  H   UNL     1     -11.864  11.921  64.604  1.00  0.00     0.000 HD 
ENDBRANCH   6  11
ENDBRANCH   2   4
TORSDOF 2
ENDMDL
MODEL       67
REMARK 921   NORMALIZED FREE ENERGY PREDICTED BY IDOCK:   -5.00 KCAL/MOL
REMARK 922        TOTAL FREE ENERGY PREDICTED BY IDOCK:   -6.27 KCAL/MOL
REMARK 923 INTER-LIGAND FREE ENERGY PREDICTED BY IDOCK:   -5.66 KCAL/MOL
REMARK 924 INTRA-LIGAND FREE ENERGY PREDICTED BY IDOCK:   -0.61 KCAL/MOL
REMARK 927      BINDING AFFINITY PREDICTED BY RF-SCORE:    0.00 PKD
ROOT
HETATM    1  O5* UNL     1      -8.562   7.634  64.188  1.00  0.00    -0.366 OA 
HETATM    2  C5* UNL     1      -8.019   8.772  64.858  1.00  0.00    -0.135 C  
HETATM    3  H5* UNL     1      -8.258   7.589  63.289  1.00  0.00     0.000 HD 
ENDROOT
BRANCH   2   4
HETATM    4  C4* UNL     1      -8.508   8.845  66.304  1.00  0.00    -0.123 C  
HETATM    5  O4* UNL     1      -8.802  10.213  66.646  1.00  0.00    -0.132 OA 
HETATM    6  C1* UNL     1      -9.851  10.194  67.633  1.00  0.00    -0.172 C  
HETATM    7  H3* UNL     1     -10.251   6.329  67.402  1.00  0.00     0.000 HD 
HETATM    8  C2* UNL     1     -10.659   8.926  67.396  1.00  0.00    -0.305 C  
HETATM    9  C3* UNL     1      -9.775   8.038  66.553  1.00  0.00    -0.227 C  
HETATM   10  O3* UNL     1      -9.461   6.832  67.247  1.00  0.00    -0.129 OA 
BRANCH   6  11
HETATM   11  N   UNL     1     -10.628  11.420  67.554  1.00  0.00    -0.204 NA 
HETATM   12  C   UNL     1     -11.146  12.136  68.597  1.00  0.00    -0.251 A  
HETATM   13  C   UNL     1     -11.723  13.153  66.811  1.00  0.00    -0.385 A  
HETATM   14  N   UNL     1     -11.811  13.192  68.186  1.00  0.00    -0.352 NA 
HETATM   15  C   UNL     1     -10.963  12.075  66.391  1.00  0.00    -0.296 A  
HETATM   16  N   UNL     1     -10.539  11.651  65.177  1.00  0.00    -0.280 NA 
HETATM   17  C   UNL     1     -10.240  12.579  64.330  1.00  0.00    -0.320 C  
HETATM   18  H   UNL     1     -10.460  10.661  64.946  1.00  0.00     0.000 HD 
HETATM   19  N   UNL     1     -10.291  13.951  64.412  1.00  0.00    -0.673 NA 
HETATM   20  C   UNL     1     -11.520  14.675  64.763  1.00  0.00    -0.410 C  
HETATM   21  H   UNL     1      -9.444  14.486  64.222  1.00  0.00     0.000 HD 
HETATM   22  C   UNL     1     -12.383  14.162  65.942  1.00  0.00    -0.463 C  
HETATM   23  O   UNL     1     -13.628  13.653  65.422  1.00  0.00    -0.440 OA 
HETATM   24  H   UNL     1     -14.050  14.298  64.866  1.00  0.00     0.000 HD 
ENDBRANCH   6  11
ENDBRANCH   2   4
TORSDOF 2
ENDMDL
MODEL       68
REMARK 921   NORMALIZED FREE ENERGY PREDICTED BY IDOCK:   -4.99 KCAL/MOL
REMARK 922        TOTAL FREE ENERGY PREDICTED BY IDOCK:   -6.26 KCAL/MOL
REMARK 923 INTER-LIGAND FREE ENERGY PREDICTED BY IDOCK:   -5.71 KCAL/MOL
REMARK 924 INTRA-LIGAND FREE ENERGY PREDICTED BY IDOCK:   -0.55 KCAL/MOL
REMARK 927      BINDING AFFINITY PREDICTED BY RF-SCORE:    0.00 PKD
ROOT
HETATM    1  O5* UNL     1     -10.220  10.923  66.039  1.00  0.00    -0.240 OA 
HETATM    2  C5* UNL     1     -10.995  11.364  67.154  1.00  0.00    -0.285 C  
HETATM    3  H5* UNL     1      -9.761  10.115  66.239  1.00  0.00     0.000 HD 
ENDROOT
BRANCH   2   4
HETATM    4  C4* UNL     1     -11.733  12.663  66.833  1.00  0.00    -0.383 C  
HETATM    5  O4* UNL     1     -11.006  13.780  67.379  1.00  0.00    -0.276 OA 
HETATM    6  C1* UNL     1     -11.263  14.917  66.533  1.00  0.00    -0.335 C  
HETATM    7  H3* UNL     1     -13.321  12.797  63.998  1.00  0.00     0.000 HD 
HETATM    8  C2* UNL     1     -11.556  14.375  65.140  1.00  0.00    -0.361 C  
HETATM    9  C3* UNL     1     -11.887  12.915  65.340  1.00  0.00    -0.403 C  
HETATM   10  O3* UNL     1     -13.225  12.640  64.929  1.00  0.00    -0.819 OA 
BRANCH   6  11
HETATM   11  N   UNL     1     -10.143  15.841  66.590  1.00  0.00    -0.269 NA 
HETATM   12  C   UNL     1      -9.248  16.113  65.593  1.00  0.00     0.013 A  
HETATM   13  C   UNL     1      -8.667  17.294  67.274  1.00  0.00    -0.211 A  
HETATM   14  N   UNL     1      -8.344  16.990  65.968  1.00  0.00    -0.517 NA 
HETATM   15  C   UNL     1      -9.805  16.615  67.676  1.00  0.00    -0.256 A  
HETATM   16  N   UNL     1     -10.542  16.624  68.812  1.00  0.00    -0.318 NA 
HETATM   17  C   UNL     1     -10.646  17.766  69.405  1.00  0.00     0.287 C  
HETATM   18  H   UNL     1     -10.987  15.782  69.177  1.00  0.00     0.000 HD 
HETATM   19  N   UNL     1     -10.123  19.005  69.115  1.00  0.00    -0.515 NA 
HETATM   20  C   UNL     1      -8.682  19.232  68.945  1.00  0.00    -0.298 C  
HETATM   21  H   UNL     1     -10.760  19.795  69.015  1.00  0.00     0.000 HD 
HETATM   22  C   UNL     1      -7.860  18.232  68.096  1.00  0.00    -0.288 C  
HETATM   23  O   UNL     1      -6.964  17.509  68.965  1.00  0.00    -0.236 OA 
HETATM   24  H   UNL     1      -6.448  18.109  69.491  1.00  0.00     0.000 HD 
ENDBRANCH   6  11
ENDBRANCH   2   4
TORSDOF 2
ENDMDL
MODEL       69
REMARK 921   NORMALIZED FREE ENERGY PREDICTED BY IDOCK:   -4.99 KCAL/MOL
REMARK 922        TOTAL FREE ENERGY PREDICTED BY IDOCK:   -6.26 KCAL/MOL
REMARK 923 INTER-LIGAND FREE ENERGY PREDICTED BY IDOCK:   -5.51 KCAL/MOL
REMARK 924 INTRA-LIGAND FREE ENERGY PREDICTED BY IDOCK:   -0.76 KCAL/MOL
REMARK 927      BINDING AFFINITY PREDICTED BY RF-SCORE:    0.00 PKD
ROOT
HETATM    1  O5* UNL     1      -7.117   9.011  65.350  1.00  0.00    -0.079 OA 
HETATM    2  C5* UNL     1      -7.272   7.728  65.957  1.00  0.00    -0.073 C  
HETATM    3  H5* UNL     1      -6.513   8.972  64.617  1.00  0.00     0.000 HD 
ENDROOT
BRANCH   2   4
HETATM    4  C4* UNL     1      -8.242   7.790  67.136  1.00  0.00    -0.118 C  
HETATM    5  O4* UNL     1      -8.658   9.152  67.349  1.00  0.00    -0.115 OA 
HETATM    6  C1* UNL     1      -9.987   9.116  67.902  1.00  0.00    -0.186 C  
HETATM    7  H3* UNL     1     -10.226   5.246  67.552  1.00  0.00     0.000 HD 
HETATM    8  C2* UNL     1     -10.642   7.837  67.396  1.00  0.00    -0.345 C  
HETATM    9  C3* UNL     1      -9.504   6.965  66.923  1.00  0.00    -0.158 C  
HETATM   10  O3* UNL     1      -9.439   5.761  67.685  1.00  0.00    -0.111 OA 
BRANCH   6  11
HETATM   11  N   UNL     1     -10.703  10.331  67.550  1.00  0.00    -0.276 NA 
HETATM   12  C   UNL     1     -11.397  11.152  68.394  1.00  0.00    -0.288 A  
HETATM   13  C   UNL     1     -11.590  11.985  66.438  1.00  0.00    -0.313 A  
HETATM   14  N   UNL     1     -11.943  12.164  67.759  1.00  0.00    -0.524 NA 
HETATM   15  C   UNL     1     -10.789  10.865  66.285  1.00  0.00    -0.124 A  
HETATM   16  N   UNL     1     -10.147  10.317  65.226  1.00  0.00    -0.308 NA 
HETATM   17  C   UNL     1      -9.667  11.152  64.366  1.00  0.00    -0.268 C  
HETATM   18  H   UNL     1     -10.049   9.308  65.114  1.00  0.00     0.000 HD 
HETATM   19  N   UNL     1      -9.698  12.526  64.300  1.00  0.00    -0.549 NA 
HETATM   20  C   UNL     1     -10.954  13.288  64.329  1.00  0.00    -0.395 C  
HETATM   21  H   UNL     1      -8.817  13.034  64.228  1.00  0.00     0.000 HD 
HETATM   22  C   UNL     1     -12.042  12.902  65.361  1.00  0.00    -0.454 C  
HETATM   23  O   UNL     1     -13.174  12.349  64.659  1.00  0.00    -0.822 OA 
HETATM   24  H   UNL     1     -13.463  12.936  63.970  1.00  0.00     0.000 HD 
ENDBRANCH   6  11
ENDBRANCH   2   4
TORSDOF 2
ENDMDL
MODEL       70
REMARK 921   NORMALIZED FREE ENERGY PREDICTED BY IDOCK:   -4.99 KCAL/MOL
REMARK 922        TOTAL FREE ENERGY PREDICTED BY IDOCK:   -6.26 KCAL/MOL
REMARK 923 INTER-LIGAND FREE ENERGY PREDICTED BY IDOCK:   -5.98 KCAL/MOL
REMARK 924 INTRA-LIGAND FREE ENERGY PREDICTED BY IDOCK:   -0.28 KCAL/MOL
REMARK 927      BINDING AFFINITY PREDICTED BY RF-SCORE:    0.00 PKD
ROOT
HETATM    1  O5* UNL     1      -9.611   7.508  66.178  1.00  0.00    -0.392 OA 
HETATM    2  C5* UNL     1     -10.453   8.180  67.116  1.00  0.00    -0.326 C  
HETATM    3  H5* UNL     1      -9.430   6.618  66.458  1.00  0.00     0.000 HD 
ENDROOT
BRANCH   2   4
HETATM    4  C4* UNL     1     -10.743   9.612  66.667  1.00  0.00    -0.032 C  
HETATM    5  O4* UNL     1     -11.660  10.231  67.588  1.00  0.00    -0.299 OA 
HETATM    6  C1* UNL     1     -11.380  11.643  67.592  1.00  0.00    -0.295 C  
HETATM    7  H3* UNL     1      -8.318  11.229  65.225  1.00  0.00     0.000 HD 
HETATM    8  C2* UNL     1      -9.907  11.803  67.238  1.00  0.00    -0.198 C  
HETATM    9  C3* UNL     1      -9.501  10.490  66.612  1.00  0.00    -0.168 C  
HETATM   10  O3* UNL     1      -9.093  10.680  65.259  1.00  0.00    -0.179 OA 
BRANCH   6  11
HETATM   11  N   UNL     1     -11.750  12.219  68.874  1.00  0.00    -0.313 NA 
HETATM   12  C   UNL     1     -12.019  11.546  70.033  1.00  0.00    -0.357 A  
HETATM   13  C   UNL     1     -12.274  13.622  70.460  1.00  0.00    -0.368 A  
HETATM   14  N   UNL     1     -12.335  12.361  71.014  1.00  0.00    -0.305 NA 
HETATM   15  C   UNL     1     -11.879  13.564  69.134  1.00  0.00    -0.340 A  
HETATM   16  N   UNL     1     -11.613  14.508  68.199  1.00  0.00    -0.314 NA 
HETATM   17  C   UNL     1     -11.053  15.587  68.635  1.00  0.00    -0.297 C  
HETATM   18  H   UNL     1     -11.839  14.374  67.214  1.00  0.00     0.000 HD 
HETATM   19  N   UNL     1     -10.685  15.989  69.898  1.00  0.00    -0.315 NA 
HETATM   20  C   UNL     1     -11.634  16.036  71.018  1.00  0.00    -0.431 C  
HETATM   21  H   UNL     1      -9.717  16.263  70.062  1.00  0.00     0.000 HD 
HETATM   22  C   UNL     1     -12.602  14.847  71.232  1.00  0.00    -0.331 C  
HETATM   23  O   UNL     1     -13.948  15.285  70.949  1.00  0.00    -0.717 OA 
HETATM   24  H   UNL     1     -14.158  16.070  71.442  1.00  0.00     0.000 HD 
ENDBRANCH   6  11
ENDBRANCH   2   4
TORSDOF 2
ENDMDL
MODEL       71
REMARK 921   NORMALIZED FREE ENERGY PREDICTED BY IDOCK:   -4.98 KCAL/MOL
REMARK 922        TOTAL FREE ENERGY PREDICTED BY IDOCK:   -6.25 KCAL/MOL
REMARK 923 INTER-LIGAND FREE ENERGY PREDICTED BY IDOCK:   -5.95 KCAL/MOL
REMARK 924 INTRA-LIGAND FREE ENERGY PREDICTED BY IDOCK:   -0.30 KCAL/MOL
REMARK 927      BINDING AFFINITY PREDICTED BY RF-SCORE:    0.00 PKD
ROOT
HETATM    1  O5* UNL     1      -7.923  11.661  69.127  1.00  0.00    -0.343 OA 
HETATM    2  C5* UNL     1      -8.345  12.013  67.809  1.00  0.00    -0.156 C  
HETATM    3  H5* UNL     1      -6.976  11.608  69.180  1.00  0.00     0.000 HD 
ENDROOT
BRANCH   2   4
HETATM    4  C4* UNL     1      -9.869  12.099  67.724  1.00  0.00    -0.199 C  
HETATM    5  O4* UNL     1     -10.456  10.982  68.416  1.00  0.00    -0.165 OA 
HETATM    6  C1* UNL     1     -11.733  11.412  68.925  1.00  0.00    -0.343 C  
HETATM    7  H3* UNL     1     -11.182  15.075  67.726  1.00  0.00     0.000 HD 
HETATM    8  C2* UNL     1     -11.634  12.915  69.154  1.00  0.00    -0.375 C  
HETATM    9  C3* UNL     1     -10.437  13.364  68.351  1.00  0.00    -0.250 C  
HETATM   10  O3* UNL     1     -10.827  14.285  67.334  1.00  0.00    -0.278 OA 
BRANCH   6  11
HETATM   11  N   UNL     1     -12.076  10.650  70.113  1.00  0.00    -0.315 NA 
HETATM   12  C   UNL     1     -12.907  11.035  71.128  1.00  0.00    -0.392 A  
HETATM   13  C   UNL     1     -12.181   9.094  71.638  1.00  0.00    -0.361 A  
HETATM   14  N   UNL     1     -12.998  10.118  72.065  1.00  0.00    -0.427 NA 
HETATM   15  C   UNL     1     -11.618   9.386  70.407  1.00  0.00    -0.192 A  
HETATM   16  N   UNL     1     -10.820   8.693  69.559  1.00  0.00    -0.376 NA 
HETATM   17  C   UNL     1     -11.033   7.421  69.500  1.00  0.00    -0.139 C  
HETATM   18  H   UNL     1     -10.096   9.148  69.003  1.00  0.00     0.000 HD 
HETATM   19  N   UNL     1     -11.921   6.604  70.162  1.00  0.00    -0.615 NA 
HETATM   20  C   UNL     1     -11.991   6.541  71.628  1.00  0.00    -0.335 C  
HETATM   21  H   UNL     1     -12.553   6.021  69.615  1.00  0.00     0.000 HD 
HETATM   22  C   UNL     1     -11.966   7.861  72.438  1.00  0.00    -0.320 C  
HETATM   23  O   UNL     1     -10.724   7.935  73.169  1.00  0.00    -0.368 OA 
HETATM   24  H   UNL     1     -10.586   7.146  73.681  1.00  0.00     0.000 HD 
ENDBRANCH   6  11
ENDBRANCH   2   4
TORSDOF 2
ENDMDL
MODEL       72
REMARK 921   NORMALIZED FREE ENERGY PREDICTED BY IDOCK:   -4.97 KCAL/MOL
REMARK 922        TOTAL FREE ENERGY PREDICTED BY IDOCK:   -6.24 KCAL/MOL
REMARK 923 INTER-LIGAND FREE ENERGY PREDICTED BY IDOCK:   -5.71 KCAL/MOL
REMARK 924 INTRA-LIGAND FREE ENERGY PREDICTED BY IDOCK:   -0.53 KCAL/MOL
REMARK 927      BINDING AFFINITY PREDICTED BY RF-SCORE:    0.00 PKD
ROOT
HETATM    1  O5* UNL     1     -13.063  15.951  72.531  1.00  0.00    -0.463 OA 
HETATM    2  C5* UNL     1     -11.825  15.956  71.819  1.00  0.00    -0.497 C  
HETATM    3  H5* UNL     1     -12.932  16.166  73.447  1.00  0.00     0.000 HD 
ENDROOT
BRANCH   2   4
HETATM    4  C4* UNL     1     -12.035  15.609  70.346  1.00  0.00    -0.376 C  
HETATM    5  O4* UNL     1     -11.278  16.515  69.523  1.00  0.00    -0.283 OA 
HETATM    6  C1* UNL     1     -10.916  15.808  68.322  1.00  0.00    -0.325 C  
HETATM    7  H3* UNL     1     -12.440  12.466  69.612  1.00  0.00     0.000 HD 
HETATM    8  C2* UNL     1     -10.836  14.331  68.686  1.00  0.00    -0.265 C  
HETATM    9  C3* UNL     1     -11.587  14.198  69.989  1.00  0.00    -0.248 C  
HETATM   10  O3* UNL     1     -12.720  13.346  69.835  1.00  0.00    -0.060 OA 
BRANCH   6  11
HETATM   11  N   UNL     1      -9.685  16.354  67.776  1.00  0.00    -0.233 NA 
HETATM   12  C   UNL     1      -8.601  15.654  67.325  1.00  0.00    -0.192 A  
HETATM   13  C   UNL     1      -8.127  17.723  67.099  1.00  0.00    -0.214 A  
HETATM   14  N   UNL     1      -7.642  16.447  66.904  1.00  0.00    -0.213 NA 
HETATM   15  C   UNL     1      -9.413  17.693  67.612  1.00  0.00    -0.258 A  
HETATM   16  N   UNL     1     -10.322  18.654  67.905  1.00  0.00    -0.389 NA 
HETATM   17  C   UNL     1     -10.335  19.675  67.114  1.00  0.00    -0.457 C  
HETATM   18  H   UNL     1     -10.955  18.577  68.701  1.00  0.00     0.000 HD 
HETATM   19  N   UNL     1      -9.573  19.998  66.015  1.00  0.00    -0.538 NA 
HETATM   20  C   UNL     1      -8.107  20.064  66.065  1.00  0.00    -0.255 C  
HETATM   21  H   UNL     1     -10.044  20.200  65.134  1.00  0.00     0.000 HD 
HETATM   22  C   UNL     1      -7.329  18.935  66.785  1.00  0.00    -0.213 C  
HETATM   23  O   UNL     1      -6.725  19.474  67.979  1.00  0.00    -0.233 OA 
HETATM   24  H   UNL     1      -6.214  20.250  67.778  1.00  0.00     0.000 HD 
ENDBRANCH   6  11
ENDBRANCH   2   4
TORSDOF 2
ENDMDL
MODEL       73
REMARK 921   NORMALIZED FREE ENERGY PREDICTED BY IDOCK:   -4.95 KCAL/MOL
REMARK 922        TOTAL FREE ENERGY PREDICTED BY IDOCK:   -6.22 KCAL/MOL
REMARK 923 INTER-LIGAND FREE ENERGY PREDICTED BY IDOCK:   -6.05 KCAL/MOL
REMARK 924 INTRA-LIGAND FREE ENERGY PREDICTED BY IDOCK:   -0.17 KCAL/MOL
REMARK 927      BINDING AFFINITY PREDICTED BY RF-SCORE:    0.00 PKD
ROOT
HETATM    1  O5* UNL     1      -9.842  10.104  62.333  1.00  0.00    -0.677 OA 
HETATM    2  C5* UNL     1      -9.809  11.355  63.021  1.00  0.00    -0.347 C  
HETATM    3  H5* UNL     1      -9.015   9.930  61.899  1.00  0.00     0.000 HD 
ENDROOT
BRANCH   2   4
HETATM    4  C4* UNL     1     -11.139  11.636  63.719  1.00  0.00    -0.420 C  
HETATM    5  O4* UNL     1     -11.160  10.981  65.000  1.00  0.00    -0.117 OA 
HETATM    6  C1* UNL     1     -11.994  11.766  65.873  1.00  0.00     0.293 C  
HETATM    7  H3* UNL     1     -12.498  14.544  63.192  1.00  0.00     0.000 HD 
HETATM    8  C2* UNL     1     -11.919  13.205  65.379  1.00  0.00    -0.448 C  
HETATM    9  C3* UNL     1     -11.388  13.117  63.969  1.00  0.00    -0.394 C  
HETATM   10  O3* UNL     1     -12.342  13.620  63.036  1.00  0.00    -0.672 OA 
BRANCH   6  11
HETATM   11  N   UNL     1     -11.575  11.588  67.253  1.00  0.00    -0.560 NA 
HETATM   12  C   UNL     1     -11.855  12.406  68.312  1.00  0.00    -0.309 A  
HETATM   13  C   UNL     1     -10.652  10.815  69.072  1.00  0.00    -0.219 A  
HETATM   14  N   UNL     1     -11.317  11.968  69.428  1.00  0.00    -0.264 NA 
HETATM   15  C   UNL     1     -10.823  10.537  67.726  1.00  0.00    -0.294 A  
HETATM   16  N   UNL     1     -10.437   9.511  66.930  1.00  0.00    -0.230 NA 
HETATM   17  C   UNL     1     -10.430   8.344  67.481  1.00  0.00    -0.257 C  
HETATM   18  H   UNL     1     -10.168   9.652  65.956  1.00  0.00     0.000 HD 
HETATM   19  N   UNL     1     -10.725   7.927  68.759  1.00  0.00    -0.394 NA 
HETATM   20  C   UNL     1     -10.056   8.483  69.943  1.00  0.00    -0.195 C  
HETATM   21  H   UNL     1     -11.433   7.205  68.889  1.00  0.00     0.000 HD 
HETATM   22  C   UNL     1      -9.865  10.016  70.046  1.00  0.00    -0.197 C  
HETATM   23  O   UNL     1      -8.458  10.318  69.938  1.00  0.00    -0.348 OA 
HETATM   24  H   UNL     1      -7.954   9.807  70.561  1.00  0.00     0.000 HD 
ENDBRANCH   6  11
ENDBRANCH   2   4
TORSDOF 2
ENDMDL
MODEL       74
REMARK 921   NORMALIZED FREE ENERGY PREDICTED BY IDOCK:   -4.95 KCAL/MOL
REMARK 922        TOTAL FREE ENERGY PREDICTED BY IDOCK:   -6.22 KCAL/MOL
REMARK 923 INTER-LIGAND FREE ENERGY PREDICTED BY IDOCK:   -5.79 KCAL/MOL
REMARK 924 INTRA-LIGAND FREE ENERGY PREDICTED BY IDOCK:   -0.43 KCAL/MOL
REMARK 927      BINDING AFFINITY PREDICTED BY RF-SCORE:    0.00 PKD
ROOT
HETATM    1  O5* UNL     1     -10.312  10.153  70.412  1.00  0.00    -0.386 OA 
HETATM    2  C5* UNL     1     -10.480   9.039  69.534  1.00  0.00    -0.219 C  
HETATM    3  H5* UNL     1     -10.100   9.867  71.292  1.00  0.00     0.000 HD 
ENDROOT
BRANCH   2   4
HETATM    4  C4* UNL     1     -10.820   9.500  68.118  1.00  0.00    -0.156 C  
HETATM    5  O4* UNL     1     -11.555  10.737  68.175  1.00  0.00    -0.441 OA 
HETATM    6  C1* UNL     1     -11.255  11.473  66.973  1.00  0.00    -0.300 C  
HETATM    7  H3* UNL     1      -8.654   8.831  65.786  1.00  0.00     0.000 HD 
HETATM    8  C2* UNL     1      -9.863  11.044  66.528  1.00  0.00    -0.241 C  
HETATM    9  C3* UNL     1      -9.592   9.747  67.252  1.00  0.00    -0.157 C  
HETATM   10  O3* UNL     1      -9.420   8.677  66.326  1.00  0.00    -0.207 OA 
BRANCH   6  11
HETATM   11  N   UNL     1     -11.389  12.899  67.218  1.00  0.00    -0.292 NA 
HETATM   12  C   UNL     1     -11.433  13.895  66.283  1.00  0.00    -0.339 A  
HETATM   13  C   UNL     1     -11.572  14.842  68.191  1.00  0.00    -0.334 A  
HETATM   14  N   UNL     1     -11.548  15.082  66.834  1.00  0.00    -0.282 NA 
HETATM   15  C   UNL     1     -11.507  13.485  68.458  1.00  0.00    -0.310 A  
HETATM   16  N   UNL     1     -11.565  12.755  69.598  1.00  0.00    -0.437 NA 
HETATM   17  C   UNL     1     -12.356  13.206  70.513  1.00  0.00    -0.304 C  
HETATM   18  H   UNL     1     -11.018  11.904  69.724  1.00  0.00     0.000 HD 
HETATM   19  N   UNL     1     -13.157  14.323  70.571  1.00  0.00    -0.403 NA 
HETATM   20  C   UNL     1     -12.633  15.680  70.365  1.00  0.00    -0.336 C  
HETATM   21  H   UNL     1     -14.151  14.204  70.764  1.00  0.00     0.000 HD 
HETATM   22  C   UNL     1     -11.655  15.936  69.192  1.00  0.00    -0.379 C  
HETATM   23  O   UNL     1     -10.351  16.237  69.731  1.00  0.00    -0.267 OA 
HETATM   24  H   UNL     1     -10.403  16.937  70.371  1.00  0.00     0.000 HD 
ENDBRANCH   6  11
ENDBRANCH   2   4
TORSDOF 2
ENDMDL
MODEL       75
REMARK 921   NORMALIZED FREE ENERGY PREDICTED BY IDOCK:   -4.92 KCAL/MOL
REMARK 922        TOTAL FREE ENERGY PREDICTED BY IDOCK:   -6.18 KCAL/MOL
REMARK 923 INTER-LIGAND FREE ENERGY PREDICTED BY IDOCK:   -5.42 KCAL/MOL
REMARK 924 INTRA-LIGAND FREE ENERGY PREDICTED BY IDOCK:   -0.76 KCAL/MOL
REMARK 927      BINDING AFFINITY PREDICTED BY RF-SCORE:    0.00 PKD
ROOT
HETATM    1  O5* UNL     1     -11.863  11.483  70.020  1.00  0.00    -0.310 OA 
HETATM    2  C5* UNL     1     -11.536  10.209  70.576  1.00  0.00    -0.337 C  
HETATM    3  H5* UNL     1     -12.451  11.964  70.590  1.00  0.00     0.000 HD 
ENDROOT
BRANCH   2   4
HETATM    4  C4* UNL     1     -10.590   9.435  69.658  1.00  0.00    -0.225 C  
HETATM    5  O4* UNL     1     -10.997   9.607  68.288  1.00  0.00    -0.206 OA 
HETATM    6  C1* UNL     1      -9.814   9.515  67.472  1.00  0.00    -0.167 C  
HETATM    7  H3* UNL     1      -7.475   9.242  70.572  1.00  0.00     0.000 HD 
HETATM    8  C2* UNL     1      -8.645   9.973  68.335  1.00  0.00    -0.113 C  
HETATM    9  C3* UNL     1      -9.142   9.895  69.758  1.00  0.00    -0.225 C  
HETATM   10  O3* UNL     1      -8.378   8.955  70.510  1.00  0.00    -0.124 OA 
BRANCH   6  11
HETATM   11  N   UNL     1      -9.991  10.284  66.252  1.00  0.00    -0.224 NA 
HETATM   12  C   UNL     1      -9.692   9.889  64.978  1.00  0.00    -0.288 A  
HETATM   13  C   UNL     1     -10.450  11.880  64.837  1.00  0.00    -0.287 A  
HETATM   14  N   UNL     1      -9.961  10.826  64.096  1.00  0.00    -0.319 NA 
HETATM   15  C   UNL     1     -10.509  11.557  66.183  1.00  0.00    -0.251 A  
HETATM   16  N   UNL     1     -10.967  12.209  67.278  1.00  0.00    -0.247 NA 
HETATM   17  C   UNL     1     -12.011  12.947  67.098  1.00  0.00    -0.310 C  
HETATM   18  H   UNL     1     -10.514  12.124  68.188  1.00  0.00     0.000 HD 
HETATM   19  N   UNL     1     -12.759  13.226  65.977  1.00  0.00    -0.350 NA 
HETATM   20  C   UNL     1     -12.166  13.777  64.752  1.00  0.00    -0.406 C  
HETATM   21  H   UNL     1     -13.762  13.044  65.999  1.00  0.00     0.000 HD 
HETATM   22  C   UNL     1     -10.843  13.173  64.221  1.00  0.00    -0.406 C  
HETATM   23  O   UNL     1      -9.792  14.151  64.369  1.00  0.00    -0.623 OA 
HETATM   24  H   UNL     1     -10.044  14.978  63.975  1.00  0.00     0.000 HD 
ENDBRANCH   6  11
ENDBRANCH   2   4
TORSDOF 2
ENDMDL
MODEL       76
REMARK 921   NORMALIZED FREE ENERGY PREDICTED BY IDOCK:   -4.91 KCAL/MOL
REMARK 922        TOTAL FREE ENERGY PREDICTED BY IDOCK:   -6.17 KCAL/MOL
REMARK 923 INTER-LIGAND FREE ENERGY PREDICTED BY IDOCK:   -5.57 KCAL/MOL
REMARK 924 INTRA-LIGAND FREE ENERGY PREDICTED BY IDOCK:   -0.60 KCAL/MOL
REMARK 927      BINDING AFFINITY PREDICTED BY RF-SCORE:    0.00 PKD
ROOT
HETATM    1  O5* UNL     1     -12.730  11.932  70.961  1.00  0.00    -0.342 OA 
HETATM    2  C5* UNL     1     -11.840  10.932  70.466  1.00  0.00    -0.360 C  
HETATM    3  H5* UNL     1     -12.716  11.963  71.911  1.00  0.00     0.000 HD 
ENDROOT
BRANCH   2   4
HETATM    4  C4* UNL     1     -11.863  10.881  68.939  1.00  0.00    -0.270 C  
HETATM    5  O4* UNL     1     -12.125  12.196  68.415  1.00  0.00    -0.369 OA 
HETATM    6  C1* UNL     1     -11.477  12.287  67.132  1.00  0.00    -0.352 C  
HETATM    7  H3* UNL     1      -9.851   8.769  67.501  1.00  0.00     0.000 HD 
HETATM    8  C2* UNL     1     -10.284  11.340  67.172  1.00  0.00    -0.235 C  
HETATM    9  C3* UNL     1     -10.549  10.410  68.331  1.00  0.00    -0.208 C  
HETATM   10  O3* UNL     1     -10.671   9.062  67.880  1.00  0.00    -0.217 OA 
BRANCH   6  11
HETATM   11  N   UNL     1     -11.131  13.669  66.848  1.00  0.00    -0.299 NA 
HETATM   12  C   UNL     1     -11.332  14.345  65.676  1.00  0.00    -0.330 A  
HETATM   13  C   UNL     1     -10.379  15.710  67.012  1.00  0.00    -0.289 A  
HETATM   14  N   UNL     1     -10.895  15.582  65.740  1.00  0.00    -0.338 NA 
HETATM   15  C   UNL     1     -10.542  14.541  67.735  1.00  0.00    -0.250 A  
HETATM   16  N   UNL     1     -10.272  14.191  69.016  1.00  0.00    -0.390 NA 
HETATM   17  C   UNL     1     -10.440  15.119  69.899  1.00  0.00    -0.216 C  
HETATM   18  H   UNL     1      -9.955  13.255  69.267  1.00  0.00     0.000 HD 
HETATM   19  N   UNL     1     -10.829  16.434  69.790  1.00  0.00    -0.347 NA 
HETATM   20  C   UNL     1     -10.131  17.393  68.924  1.00  0.00    -0.330 C  
HETATM   21  H   UNL     1     -11.632  16.754  70.331  1.00  0.00     0.000 HD 
HETATM   22  C   UNL     1      -9.738  16.962  67.490  1.00  0.00    -0.249 C  
HETATM   23  O   UNL     1      -8.301  16.865  67.409  1.00  0.00    -0.181 OA 
HETATM   24  H   UNL     1      -7.891  17.666  67.715  1.00  0.00     0.000 HD 
ENDBRANCH   6  11
ENDBRANCH   2   4
TORSDOF 2
ENDMDL
MODEL       77
REMARK 921   NORMALIZED FREE ENERGY PREDICTED BY IDOCK:   -4.88 KCAL/MOL
REMARK 922        TOTAL FREE ENERGY PREDICTED BY IDOCK:   -6.14 KCAL/MOL
REMARK 923 INTER-LIGAND FREE ENERGY PREDICTED BY IDOCK:   -5.69 KCAL/MOL
REMARK 924 INTRA-LIGAND FREE ENERGY PREDICTED BY IDOCK:   -0.45 KCAL/MOL
REMARK 927      BINDING AFFINITY PREDICTED BY RF-SCORE:    0.00 PKD
ROOT
HETATM    1  O5* UNL     1     -11.153   8.355  67.809  1.00  0.00    -0.481 OA 
HETATM    2  C5* UNL     1     -10.372   9.423  67.271  1.00  0.00    -0.260 C  
HETATM    3  H5* UNL     1     -11.211   7.632  67.197  1.00  0.00     0.000 HD 
ENDROOT
BRANCH   2   4
HETATM    4  C4* UNL     1     -10.278  10.588  68.255  1.00  0.00    -0.163 C  
HETATM    5  O4* UNL     1      -9.792  11.759  67.574  1.00  0.00    -0.183 OA 
HETATM    6  C1* UNL     1     -10.352  12.908  68.237  1.00  0.00    -0.244 C  
HETATM    7  H3* UNL     1     -12.512  10.710  70.616  1.00  0.00     0.000 HD 
HETATM    8  C2* UNL     1     -11.676  12.465  68.846  1.00  0.00    -0.372 C  
HETATM    9  C3* UNL     1     -11.616  10.956  68.882  1.00  0.00    -0.309 C  
HETATM   10  O3* UNL     1     -11.678  10.479  70.225  1.00  0.00    -0.278 OA 
BRANCH   6  11
HETATM   11  N   UNL     1     -10.468  14.014  67.301  1.00  0.00    -0.267 NA 
HETATM   12  C   UNL     1     -10.929  13.961  66.015  1.00  0.00    -0.285 A  
HETATM   13  C   UNL     1     -10.381  15.991  66.383  1.00  0.00    -0.305 A  
HETATM   14  N   UNL     1     -10.895  15.137  65.431  1.00  0.00    -0.357 NA 
HETATM   15  C   UNL     1     -10.136  15.322  67.571  1.00  0.00    -0.232 A  
HETATM   16  N   UNL     1      -9.706  15.719  68.793  1.00  0.00    -0.204 NA 
HETATM   17  C   UNL     1     -10.109  16.883  69.179  1.00  0.00    -0.269 C  
HETATM   18  H   UNL     1      -9.102  15.135  69.370  1.00  0.00     0.000 HD 
HETATM   19  N   UNL     1     -10.893  17.835  68.569  1.00  0.00    -0.268 NA 
HETATM   20  C   UNL     1     -10.572  18.392  67.249  1.00  0.00    -0.402 C  
HETATM   21  H   UNL     1     -11.727  18.167  69.053  1.00  0.00     0.000 HD 
HETATM   22  C   UNL     1     -10.139  17.431  66.115  1.00  0.00    -0.300 C  
HETATM   23  O   UNL     1      -8.749  17.668  65.810  1.00  0.00    -0.511 OA 
HETATM   24  H   UNL     1      -8.593  18.590  65.638  1.00  0.00     0.000 HD 
ENDBRANCH   6  11
ENDBRANCH   2   4
TORSDOF 2
ENDMDL
MODEL       78
REMARK 921   NORMALIZED FREE ENERGY PREDICTED BY IDOCK:   -4.87 KCAL/MOL
REMARK 922        TOTAL FREE ENERGY PREDICTED BY IDOCK:   -6.13 KCAL/MOL
REMARK 923 INTER-LIGAND FREE ENERGY PREDICTED BY IDOCK:   -5.73 KCAL/MOL
REMARK 924 INTRA-LIGAND FREE ENERGY PREDICTED BY IDOCK:   -0.39 KCAL/MOL
REMARK 927      BINDING AFFINITY PREDICTED BY RF-SCORE:    0.00 PKD
ROOT
HETATM    1  O5* UNL     1      -8.629  13.422  68.688  1.00  0.00    -0.322 OA 
HETATM    2  C5* UNL     1      -9.446  14.292  67.903  1.00  0.00    -0.212 C  
HETATM    3  H5* UNL     1      -7.778  13.297  68.285  1.00  0.00     0.000 HD 
ENDROOT
BRANCH   2   4
HETATM    4  C4* UNL     1     -10.816  14.494  68.551  1.00  0.00    -0.249 C  
HETATM    5  O4* UNL     1     -11.422  13.214  68.810  1.00  0.00    -0.264 OA 
HETATM    6  C1* UNL     1     -12.269  13.364  69.965  1.00  0.00    -0.298 C  
HETATM    7  H3* UNL     1     -11.147  17.047  70.539  1.00  0.00     0.000 HD 
HETATM    8  C2* UNL     1     -11.676  14.486  70.806  1.00  0.00    -0.325 C  
HETATM    9  C3* UNL     1     -10.751  15.237  69.879  1.00  0.00    -0.285 C  
HETATM   10  O3* UNL     1     -11.187  16.584  69.711  1.00  0.00    -0.302 OA 
BRANCH   6  11
HETATM   11  N   UNL     1     -12.387  12.094  70.662  1.00  0.00    -0.342 NA 
HETATM   12  C   UNL     1     -13.303  11.762  71.620  1.00  0.00    -0.143 A  
HETATM   13  C   UNL     1     -12.047  10.056  71.360  1.00  0.00    -0.407 A  
HETATM   14  N   UNL     1     -13.132  10.536  72.062  1.00  0.00    -0.464 NA 
HETATM   15  C   UNL     1     -11.583  10.997  70.456  1.00  0.00    -0.245 A  
HETATM   16  N   UNL     1     -10.609  10.983  69.514  1.00  0.00    -0.409 NA 
HETATM   17  C   UNL     1     -10.442   9.862  68.896  1.00  0.00    -0.211 C  
HETATM   18  H   UNL     1     -10.045  11.806  69.306  1.00  0.00     0.000 HD 
HETATM   19  N   UNL     1     -11.058   8.638  69.024  1.00  0.00    -0.421 NA 
HETATM   20  C   UNL     1     -11.121   7.917  70.302  1.00  0.00    -0.229 C  
HETATM   21  H   UNL     1     -11.488   8.217  68.201  1.00  0.00     0.000 HD 
HETATM   22  C   UNL     1     -11.489   8.698  71.587  1.00  0.00    -0.305 C  
HETATM   23  O   UNL     1     -10.330   8.758  72.444  1.00  0.00    -0.300 OA 
HETATM   24  H   UNL     1      -9.973   7.890  72.590  1.00  0.00     0.000 HD 
ENDBRANCH   6  11
ENDBRANCH   2   4
TORSDOF 2
ENDMDL
MODEL       79
REMARK 921   NORMALIZED FREE ENERGY PREDICTED BY IDOCK:   -4.82 KCAL/MOL
REMARK 922        TOTAL FREE ENERGY PREDICTED BY IDOCK:   -6.07 KCAL/MOL
REMARK 923 INTER-LIGAND FREE ENERGY PREDICTED BY IDOCK:   -5.56 KCAL/MOL
REMARK 924 INTRA-LIGAND FREE ENERGY PREDICTED BY IDOCK:   -0.51 KCAL/MOL
REMARK 927      BINDING AFFINITY PREDICTED BY RF-SCORE:    0.00 PKD
ROOT
HETATM    1  O5* UNL     1     -10.369  19.918  68.994  1.00  0.00    -0.613 OA 
HETATM    2  C5* UNL     1      -9.352  18.927  68.844  1.00  0.00    -0.290 C  
HETATM    3  H5* UNL     1     -10.468  20.172  69.904  1.00  0.00     0.000 HD 
ENDROOT
BRANCH   2   4
HETATM    4  C4* UNL     1      -9.193  18.518  67.380  1.00  0.00    -0.278 C  
HETATM    5  O4* UNL     1      -8.723  17.160  67.305  1.00  0.00    -0.197 OA 
HETATM    6  C1* UNL     1      -9.234  16.593  66.084  1.00  0.00    -0.277 C  
HETATM    7  H3* UNL     1     -11.309  19.781  65.257  1.00  0.00     0.000 HD 
HETATM    8  C2* UNL     1     -10.533  17.322  65.768  1.00  0.00    -0.237 C  
HETATM    9  C3* UNL     1     -10.493  18.587  66.591  1.00  0.00    -0.398 C  
HETATM   10  O3* UNL     1     -10.498  19.738  65.749  1.00  0.00    -0.511 OA 
BRANCH   6  11
HETATM   11  N   UNL     1      -9.378  15.154  66.227  1.00  0.00    -0.298 NA 
HETATM   12  C   UNL     1     -10.339  14.361  65.662  1.00  0.00    -0.342 A  
HETATM   13  C   UNL     1      -9.095  13.076  66.828  1.00  0.00    -0.210 A  
HETATM   14  N   UNL     1     -10.197  13.100  66.000  1.00  0.00    -0.281 NA 
HETATM   15  C   UNL     1      -8.546  14.340  66.961  1.00  0.00    -0.192 A  
HETATM   16  N   UNL     1      -7.448  14.817  67.595  1.00  0.00    -0.168 NA 
HETATM   17  C   UNL     1      -6.418  14.038  67.598  1.00  0.00    -0.140 C  
HETATM   18  H   UNL     1      -7.435  15.733  68.043  1.00  0.00     0.000 HD 
HETATM   19  N   UNL     1      -6.217  12.776  67.089  1.00  0.00    -0.464 NA 
HETATM   20  C   UNL     1      -7.072  11.636  67.447  1.00  0.00    -0.124 C  
HETATM   21  H   UNL     1      -5.446  12.626  66.440  1.00  0.00     0.000 HD 
HETATM   22  C   UNL     1      -8.608  11.829  67.470  1.00  0.00    -0.157 C  
HETATM   23  O   UNL     1      -9.068  11.742  68.835  1.00  0.00    -0.387 OA 
HETATM   24  H   UNL     1      -8.756  10.944  69.246  1.00  0.00     0.000 HD 
ENDBRANCH   6  11
ENDBRANCH   2   4
TORSDOF 2
ENDMDL
MODEL       80
REMARK 921   NORMALIZED FREE ENERGY PREDICTED BY IDOCK:   -4.81 KCAL/MOL
REMARK 922        TOTAL FREE ENERGY PREDICTED BY IDOCK:   -6.06 KCAL/MOL
REMARK 923 INTER-LIGAND FREE ENERGY PREDICTED BY IDOCK:   -5.87 KCAL/MOL
REMARK 924 INTRA-LIGAND FREE ENERGY PREDICTED BY IDOCK:   -0.19 KCAL/MOL
REMARK 927      BINDING AFFINITY PREDICTED BY RF-SCORE:    0.00 PKD
ROOT
HETATM    1  O5* UNL     1      -9.629  15.010  69.995  1.00  0.00    -0.470 OA 
HETATM    2  C5* UNL     1     -10.793  15.289  69.215  1.00  0.00    -0.257 C  
HETATM    3  H5* UNL     1      -8.841  15.290  69.545  1.00  0.00     0.000 HD 
ENDROOT
BRANCH   2   4
HETATM    4  C4* UNL     1     -12.062  14.838  69.939  1.00  0.00    -0.332 C  
HETATM    5  O4* UNL     1     -12.259  13.426  69.735  1.00  0.00    -0.302 OA 
HETATM    6  C1* UNL     1     -12.945  12.915  70.894  1.00  0.00    -0.022 C  
HETATM    7  H3* UNL     1     -12.784  16.345  72.729  1.00  0.00     0.000 HD 
HETATM    8  C2* UNL     1     -12.563  13.811  72.065  1.00  0.00    -0.243 C  
HETATM    9  C3* UNL     1     -12.013  15.072  71.442  1.00  0.00    -0.341 C  
HETATM   10  O3* UNL     1     -12.815  16.199  71.791  1.00  0.00    -0.367 OA 
BRANCH   6  11
HETATM   11  N   UNL     1     -12.617  11.513  71.086  1.00  0.00    -0.390 NA 
HETATM   12  C   UNL     1     -13.237  10.629  71.924  1.00  0.00    -0.423 A  
HETATM   13  C   UNL     1     -11.664   9.554  70.960  1.00  0.00    -0.343 A  
HETATM   14  N   UNL     1     -12.691   9.435  71.872  1.00  0.00    -0.376 NA 
HETATM   15  C   UNL     1     -11.616  10.833  70.430  1.00  0.00    -0.339 A  
HETATM   16  N   UNL     1     -10.854  11.417  69.475  1.00  0.00    -0.431 NA 
HETATM   17  C   UNL     1     -10.526  10.664  68.479  1.00  0.00    -0.191 C  
HETATM   18  H   UNL     1     -10.557  12.391  69.539  1.00  0.00     0.000 HD 
HETATM   19  N   UNL     1     -10.787   9.343  68.198  1.00  0.00    -0.441 NA 
HETATM   20  C   UNL     1     -10.440   8.257  69.125  1.00  0.00    -0.206 C  
HETATM   21  H   UNL     1     -11.238   9.109  67.314  1.00  0.00     0.000 HD 
HETATM   22  C   UNL     1     -10.756   8.426  70.631  1.00  0.00    -0.220 C  
HETATM   23  O   UNL     1      -9.514   8.540  71.357  1.00  0.00    -0.173 OA 
HETATM   24  H   UNL     1      -8.933   7.819  71.146  1.00  0.00     0.000 HD 
ENDBRANCH   6  11
ENDBRANCH   2   4
TORSDOF 2
ENDMDL
MODEL       81
REMARK 921   NORMALIZED FREE ENERGY PREDICTED BY IDOCK:   -4.80 KCAL/MOL
REMARK 922        TOTAL FREE ENERGY PREDICTED BY IDOCK:   -6.05 KCAL/MOL
REMARK 923 INTER-LIGAND FREE ENERGY PREDICTED BY IDOCK:   -5.94 KCAL/MOL
REMARK 924 INTRA-LIGAND FREE ENERGY PREDICTED BY IDOCK:   -0.11 KCAL/MOL
REMARK 927      BINDING AFFINITY PREDICTED BY RF-SCORE:    0.00 PKD
ROOT
HETATM    1  O5* UNL     1     -10.872  15.591  64.469  1.00  0.00    -0.646 OA 
HETATM    2  C5* UNL     1     -10.293  15.510  65.772  1.00  0.00    -0.363 C  
HETATM    3  H5* UNL     1     -10.364  16.159  63.903  1.00  0.00     0.000 HD 
ENDROOT
BRANCH   2   4
HETATM    4  C4* UNL     1     -11.111  14.596  66.683  1.00  0.00    -0.334 C  
HETATM    5  O4* UNL     1     -11.215  13.288  66.090  1.00  0.00    -0.290 OA 
HETATM    6  C1* UNL     1     -11.324  12.335  67.163  1.00  0.00    -0.335 C  
HETATM    7  H3* UNL     1     -10.830  15.071  69.888  1.00  0.00     0.000 HD 
HETATM    8  C2* UNL     1     -10.611  12.940  68.366  1.00  0.00    -0.267 C  
HETATM    9  C3* UNL     1     -10.497  14.415  68.064  1.00  0.00    -0.237 C  
HETATM   10  O3* UNL     1     -11.214  15.185  69.026  1.00  0.00    -0.244 OA 
BRANCH   6  11
HETATM   11  N   UNL     1     -10.794  11.049  66.741  1.00  0.00    -0.268 NA 
HETATM   12  C   UNL     1     -10.143  10.770  65.572  1.00  0.00    -0.274 A  
HETATM   13  C   UNL     1     -10.257   8.937  66.659  1.00  0.00    -0.268 A  
HETATM   14  N   UNL     1      -9.801   9.504  65.489  1.00  0.00    -0.296 NA 
HETATM   15  C   UNL     1     -10.853   9.886  67.474  1.00  0.00    -0.243 A  
HETATM   16  N   UNL     1     -11.382   9.845  68.720  1.00  0.00    -0.481 NA 
HETATM   17  C   UNL     1     -10.791   9.057  69.555  1.00  0.00    -0.166 C  
HETATM   18  H   UNL     1     -12.196  10.400  68.981  1.00  0.00     0.000 HD 
HETATM   19  N   UNL     1      -9.714   8.212  69.421  1.00  0.00    -0.168 NA 
HETATM   20  C   UNL     1      -9.663   7.157  68.400  1.00  0.00    -0.142 C  
HETATM   21  H   UNL     1      -8.922   8.323  70.052  1.00  0.00     0.000 HD 
HETATM   22  C   UNL     1     -10.107   7.489  66.955  1.00  0.00    -0.266 C  
HETATM   23  O   UNL     1     -11.330   6.778  66.668  1.00  0.00    -0.647 OA 
HETATM   24  H   UNL     1     -11.234   5.852  66.857  1.00  0.00     0.000 HD 
ENDBRANCH   6  11
ENDBRANCH   2   4
TORSDOF 2
ENDMDL
MODEL       82
REMARK 921   NORMALIZED FREE ENERGY PREDICTED BY IDOCK:   -4.79 KCAL/MOL
REMARK 922        TOTAL FREE ENERGY PREDICTED BY IDOCK:   -6.04 KCAL/MOL
REMARK 923 INTER-LIGAND FREE ENERGY PREDICTED BY IDOCK:   -5.22 KCAL/MOL
REMARK 924 INTRA-LIGAND FREE ENERGY PREDICTED BY IDOCK:   -0.82 KCAL/MOL
REMARK 927      BINDING AFFINITY PREDICTED BY RF-SCORE:    0.00 PKD
ROOT
HETATM    1  O5* UNL     1      -8.006  10.133  67.359  1.00  0.00    -0.109 OA 
HETATM    2  C5* UNL     1      -8.427   8.960  66.662  1.00  0.00    -0.119 C  
HETATM    3  H5* UNL     1      -7.482   9.909  68.120  1.00  0.00     0.000 HD 
ENDROOT
BRANCH   2   4
HETATM    4  C4* UNL     1      -9.270   9.319  65.439  1.00  0.00    -0.222 C  
HETATM    5  O4* UNL     1     -10.390  10.128  65.844  1.00  0.00    -0.229 OA 
HETATM    6  C1* UNL     1     -10.720  10.992  64.740  1.00  0.00    -0.234 C  
HETATM    7  H3* UNL     1      -7.687   9.761  62.633  1.00  0.00     0.000 HD 
HETATM    8  C2* UNL     1      -9.435  11.214  63.953  1.00  0.00    -0.252 C  
HETATM    9  C3* UNL     1      -8.502  10.109  64.389  1.00  0.00    -0.175 C  
HETATM   10  O3* UNL     1      -8.166   9.268  63.288  1.00  0.00    -0.154 OA 
BRANCH   6  11
HETATM   11  N   UNL     1     -11.336  12.212  65.232  1.00  0.00    -0.333 NA 
HETATM   12  C   UNL     1     -12.425  12.854  64.711  1.00  0.00    -0.455 A  
HETATM   13  C   UNL     1     -11.777  14.011  66.384  1.00  0.00    -0.391 A  
HETATM   14  N   UNL     1     -12.723  13.943  65.384  1.00  0.00    -0.662 NA 
HETATM   15  C   UNL     1     -10.918  12.926  66.332  1.00  0.00    -0.285 A  
HETATM   16  N   UNL     1      -9.892  12.511  67.113  1.00  0.00    -0.207 NA 
HETATM   17  C   UNL     1     -10.026  12.731  68.379  1.00  0.00    -0.210 C  
HETATM   18  H   UNL     1      -9.067  12.055  66.727  1.00  0.00     0.000 HD 
HETATM   19  N   UNL     1     -11.021  13.339  69.108  1.00  0.00    -0.404 NA 
HETATM   20  C   UNL     1     -11.479  14.707  68.829  1.00  0.00    -0.296 C  
HETATM   21  H   UNL     1     -11.457  12.822  69.870  1.00  0.00     0.000 HD 
HETATM   22  C   UNL     1     -11.730  15.129  67.361  1.00  0.00    -0.175 C  
HETATM   23  O   UNL     1     -10.735  16.101  66.979  1.00  0.00    -0.313 OA 
HETATM   24  H   UNL     1     -10.705  16.817  67.604  1.00  0.00     0.000 HD 
ENDBRANCH   6  11
ENDBRANCH   2   4
TORSDOF 2
ENDMDL
MODEL       83
REMARK 921   NORMALIZED FREE ENERGY PREDICTED BY IDOCK:   -4.78 KCAL/MOL
REMARK 922        TOTAL FREE ENERGY PREDICTED BY IDOCK:   -6.03 KCAL/MOL
REMARK 923 INTER-LIGAND FREE ENERGY PREDICTED BY IDOCK:   -5.96 KCAL/MOL
REMARK 924 INTRA-LIGAND FREE ENERGY PREDICTED BY IDOCK:   -0.07 KCAL/MOL
REMARK 927      BINDING AFFINITY PREDICTED BY RF-SCORE:    0.00 PKD
ROOT
HETATM    1  O5* UNL     1     -12.136   6.498  70.165  1.00  0.00    -0.553 OA 
HETATM    2  C5* UNL     1     -10.826   6.700  69.633  1.00  0.00    -0.286 C  
HETATM    3  H5* UNL     1     -12.488   5.657  69.898  1.00  0.00     0.000 HD 
ENDROOT
BRANCH   2   4
HETATM    4  C4* UNL     1     -10.259   8.052  70.062  1.00  0.00    -0.205 C  
HETATM    5  O4* UNL     1      -9.827   8.785  68.901  1.00  0.00    -0.169 OA 
HETATM    6  C1* UNL     1      -9.975  10.187  69.195  1.00  0.00    -0.210 C  
HETATM    7  H3* UNL     1     -11.628   9.474  72.647  1.00  0.00     0.000 HD 
HETATM    8  C2* UNL     1     -11.104  10.309  70.210  1.00  0.00    -0.388 C  
HETATM    9  C3* UNL     1     -11.270   8.926  70.792  1.00  0.00    -0.272 C  
HETATM   10  O3* UNL     1     -10.997   8.930  72.192  1.00  0.00    -0.362 OA 
BRANCH   6  11
HETATM   11  N   UNL     1     -10.195  10.932  67.967  1.00  0.00    -0.173 NA 
HETATM   12  C   UNL     1     -10.227  10.433  66.695  1.00  0.00    -0.234 A  
HETATM   13  C   UNL     1     -10.539  12.538  66.532  1.00  0.00    -0.242 A  
HETATM   14  N   UNL     1     -10.437  11.373  65.802  1.00  0.00    -0.256 NA 
HETATM   15  C   UNL     1     -10.424  12.287  67.889  1.00  0.00    -0.213 A  
HETATM   16  N   UNL     1     -10.520  13.066  68.992  1.00  0.00    -0.433 NA 
HETATM   17  C   UNL     1     -11.390  14.018  68.934  1.00  0.00    -0.280 C  
HETATM   18  H   UNL     1      -9.940  12.912  69.817  1.00  0.00     0.000 HD 
HETATM   19  N   UNL     1     -12.248  14.422  67.937  1.00  0.00    -0.620 NA 
HETATM   20  C   UNL     1     -11.780  14.776  66.590  1.00  0.00    -0.283 C  
HETATM   21  H   UNL     1     -13.245  14.477  68.140  1.00  0.00     0.000 HD 
HETATM   22  C   UNL     1     -10.741  13.864  65.893  1.00  0.00    -0.286 C  
HETATM   23  O   UNL     1      -9.492  14.577  65.787  1.00  0.00    -0.496 OA 
HETATM   24  H   UNL     1      -9.621  15.425  65.378  1.00  0.00     0.000 HD 
ENDBRANCH   6  11
ENDBRANCH   2   4
TORSDOF 2
ENDMDL
MODEL       84
REMARK 921   NORMALIZED FREE ENERGY PREDICTED BY IDOCK:   -4.77 KCAL/MOL
REMARK 922        TOTAL FREE ENERGY PREDICTED BY IDOCK:   -6.01 KCAL/MOL
REMARK 923 INTER-LIGAND FREE ENERGY PREDICTED BY IDOCK:   -5.68 KCAL/MOL
REMARK 924 INTRA-LIGAND FREE ENERGY PREDICTED BY IDOCK:   -0.33 KCAL/MOL
REMARK 927      BINDING AFFINITY PREDICTED BY RF-SCORE:    0.00 PKD
ROOT
HETATM    1  O5* UNL     1     -13.811   7.062  71.706  1.00  0.00    -0.444 OA 
HETATM    2  C5* UNL     1     -14.173   8.405  72.028  1.00  0.00    -0.444 C  
HETATM    3  H5* UNL     1     -14.579   6.506  71.645  1.00  0.00     0.000 HD 
ENDROOT
BRANCH   2   4
HETATM    4  C4* UNL     1     -12.939   9.299  72.127  1.00  0.00    -0.424 C  
HETATM    5  O4* UNL     1     -11.805   8.625  71.551  1.00  0.00    -0.275 OA 
HETATM    6  C1* UNL     1     -10.924   9.634  71.023  1.00  0.00    -0.361 C  
HETATM    7  H3* UNL     1     -13.414  12.506  71.866  1.00  0.00     0.000 HD 
HETATM    8  C2* UNL     1     -11.793  10.829  70.653  1.00  0.00    -0.460 C  
HETATM    9  C3* UNL     1     -13.093  10.624  71.393  1.00  0.00    -0.400 C  
HETATM   10  O3* UNL     1     -13.317  11.680  72.324  1.00  0.00    -0.443 OA 
BRANCH   6  11
HETATM   11  N   UNL     1     -10.155   9.092  69.916  1.00  0.00    -0.192 NA 
HETATM   12  C   UNL     1      -9.132   9.703  69.246  1.00  0.00    -0.172 A  
HETATM   13  C   UNL     1      -9.405   7.794  68.332  1.00  0.00    -0.143 A  
HETATM   14  N   UNL     1      -8.651   8.947  68.285  1.00  0.00    -0.133 NA 
HETATM   15  C   UNL     1     -10.329   7.845  69.362  1.00  0.00    -0.220 A  
HETATM   16  N   UNL     1     -11.230   6.959  69.850  1.00  0.00    -0.386 NA 
HETATM   17  C   UNL     1     -10.867   5.720  69.830  1.00  0.00    -0.347 C  
HETATM   18  H   UNL     1     -12.138   7.252  70.209  1.00  0.00     0.000 HD 
HETATM   19  N   UNL     1      -9.724   5.102  69.380  1.00  0.00    -0.160 NA 
HETATM   20  C   UNL     1      -9.232   5.261  68.005  1.00  0.00    -0.113 C  
HETATM   21  H   UNL     1      -9.198   4.512  70.024  1.00  0.00     0.000 HD 
HETATM   22  C   UNL     1      -9.210   6.675  67.374  1.00  0.00    -0.122 C  
HETATM   23  O   UNL     1     -10.190   6.730  66.317  1.00  0.00    -0.440 OA 
HETATM   24  H   UNL     1     -10.065   6.014  65.704  1.00  0.00     0.000 HD 
ENDBRANCH   6  11
ENDBRANCH   2   4
TORSDOF 2
ENDMDL
MODEL       85
REMARK 921   NORMALIZED FREE ENERGY PREDICTED BY IDOCK:   -4.76 KCAL/MOL
REMARK 922        TOTAL FREE ENERGY PREDICTED BY IDOCK:   -6.00 KCAL/MOL
REMARK 923 INTER-LIGAND FREE ENERGY PREDICTED BY IDOCK:   -5.27 KCAL/MOL
REMARK 924 INTRA-LIGAND FREE ENERGY PREDICTED BY IDOCK:   -0.73 KCAL/MOL
REMARK 927      BINDING AFFINITY PREDICTED BY RF-SCORE:    0.00 PKD
ROOT
HETATM    1  O5* UNL     1      -8.005   6.136  72.480  1.00  0.00    -0.104 OA 
HETATM    2  C5* UNL     1      -8.455   6.309  73.825  1.00  0.00    -0.122 C  
HETATM    3  H5* UNL     1      -7.060   6.048  72.445  1.00  0.00     0.000 HD 
ENDROOT
BRANCH   2   4
HETATM    4  C4* UNL     1      -9.976   6.452  73.883  1.00  0.00    -0.258 C  
HETATM    5  O4* UNL     1     -10.354   7.774  73.456  1.00  0.00    -0.322 OA 
HETATM    6  C1* UNL     1     -11.661   7.678  72.859  1.00  0.00    -0.228 C  
HETATM    7  H3* UNL     1     -11.735   3.801  73.207  1.00  0.00     0.000 HD 
HETATM    8  C2* UNL     1     -11.788   6.267  72.299  1.00  0.00    -0.326 C  
HETATM    9  C3* UNL     1     -10.708   5.465  72.985  1.00  0.00    -0.257 C  
HETATM   10  O3* UNL     1     -11.277   4.417  73.767  1.00  0.00    -0.266 OA 
BRANCH   6  11
HETATM   11  N   UNL     1     -11.834   8.729  71.871  1.00  0.00    -0.341 NA 
HETATM   12  C   UNL     1     -12.855   9.635  71.801  1.00  0.00    -0.421 A  
HETATM   13  C   UNL     1     -11.564  10.044  70.152  1.00  0.00    -0.252 A  
HETATM   14  N   UNL     1     -12.723  10.448  70.778  1.00  0.00    -0.360 NA 
HETATM   15  C   UNL     1     -10.971   8.993  70.832  1.00  0.00    -0.268 A  
HETATM   16  N   UNL     1      -9.816   8.307  70.662  1.00  0.00    -0.181 NA 
HETATM   17  C   UNL     1      -8.811   8.996  70.235  1.00  0.00    -0.189 C  
HETATM   18  H   UNL     1      -9.744   7.309  70.859  1.00  0.00     0.000 HD 
HETATM   19  N   UNL     1      -8.683  10.321  69.888  1.00  0.00    -0.380 NA 
HETATM   20  C   UNL     1      -9.540  10.957  68.878  1.00  0.00    -0.181 C  
HETATM   21  H   UNL     1      -7.968  10.882  70.348  1.00  0.00     0.000 HD 
HETATM   22  C   UNL     1     -11.064  10.686  68.909  1.00  0.00    -0.261 C  
HETATM   23  O   UNL     1     -11.422   9.905  67.750  1.00  0.00    -0.553 OA 
HETATM   24  H   UNL     1     -11.102  10.315  66.955  1.00  0.00     0.000 HD 
ENDBRANCH   6  11
ENDBRANCH   2   4
TORSDOF 2
ENDMDL
MODEL       86
REMARK 921   NORMALIZED FREE ENERGY PREDICTED BY IDOCK:   -4.75 KCAL/MOL
REMARK 922        TOTAL FREE ENERGY PREDICTED BY IDOCK:   -6.00 KCAL/MOL
REMARK 923 INTER-LIGAND FREE ENERGY PREDICTED BY IDOCK:   -5.24 KCAL/MOL
REMARK 924 INTRA-LIGAND FREE ENERGY PREDICTED BY IDOCK:   -0.75 KCAL/MOL
REMARK 927      BINDING AFFINITY PREDICTED BY RF-SCORE:    0.00 PKD
ROOT
HETATM    1  O5* UNL     1     -11.046   8.108  67.954  1.00  0.00    -0.467 OA 
HETATM    2  C5* UNL     1      -9.975   8.009  67.015  1.00  0.00    -0.254 C  
HETATM    3  H5* UNL     1     -11.075   7.348  68.522  1.00  0.00     0.000 HD 
ENDROOT
BRANCH   2   4
HETATM    4  C4* UNL     1      -9.929   9.232  66.100  1.00  0.00    -0.277 C  
HETATM    5  O4* UNL     1     -10.972  10.153  66.471  1.00  0.00    -0.041 OA 
HETATM    6  C1* UNL     1     -10.512  11.479  66.147  1.00  0.00    -0.251 C  
HETATM    7  H3* UNL     1      -6.999  10.195  65.067  1.00  0.00     0.000 HD 
HETATM    8  C2* UNL     1      -8.991  11.453  66.233  1.00  0.00    -0.205 C  
HETATM    9  C3* UNL     1      -8.612   9.992  66.175  1.00  0.00    -0.133 C  
HETATM   10  O3* UNL     1      -7.821   9.721  65.020  1.00  0.00    -0.117 OA 
BRANCH   6  11
HETATM   11  N   UNL     1     -11.141  12.451  67.026  1.00  0.00    -0.264 NA 
HETATM   12  C   UNL     1     -11.747  13.621  66.661  1.00  0.00    -0.388 A  
HETATM   13  C   UNL     1     -11.877  13.504  68.788  1.00  0.00    -0.355 A  
HETATM   14  N   UNL     1     -12.207  14.281  67.699  1.00  0.00    -0.277 NA 
HETATM   15  C   UNL     1     -11.239  12.340  68.394  1.00  0.00    -0.266 A  
HETATM   16  N   UNL     1     -10.790  11.251  69.062  1.00  0.00    -0.212 NA 
HETATM   17  C   UNL     1     -11.503  10.877  70.072  1.00  0.00    -0.329 C  
HETATM   18  H   UNL     1      -9.941  10.757  68.786  1.00  0.00     0.000 HD 
HETATM   19  N   UNL     1     -12.648  11.394  70.632  1.00  0.00    -0.298 NA 
HETATM   20  C   UNL     1     -12.744  12.787  71.088  1.00  0.00    -0.263 C  
HETATM   21  H   UNL     1     -13.461  10.787  70.734  1.00  0.00     0.000 HD 
HETATM   22  C   UNL     1     -12.186  13.913  70.183  1.00  0.00    -0.358 C  
HETATM   23  O   UNL     1     -11.025  14.488  70.817  1.00  0.00    -0.489 OA 
HETATM   24  H   UNL     1     -11.223  14.750  71.709  1.00  0.00     0.000 HD 
ENDBRANCH   6  11
ENDBRANCH   2   4
TORSDOF 2
ENDMDL
MODEL       87
REMARK 921   NORMALIZED FREE ENERGY PREDICTED BY IDOCK:   -4.75 KCAL/MOL
REMARK 922        TOTAL FREE ENERGY PREDICTED BY IDOCK:   -5.99 KCAL/MOL
REMARK 923 INTER-LIGAND FREE ENERGY PREDICTED BY IDOCK:   -6.44 KCAL/MOL
REMARK 924 INTRA-LIGAND FREE ENERGY PREDICTED BY IDOCK:    0.45 KCAL/MOL
REMARK 927      BINDING AFFINITY PREDICTED BY RF-SCORE:    0.00 PKD
ROOT
HETATM    1  O5* UNL     1      -9.630   8.685  72.211  1.00  0.00    -0.293 OA 
HETATM    2  C5* UNL     1      -9.799   7.916  71.020  1.00  0.00    -0.170 C  
HETATM    3  H5* UNL     1      -9.105   8.217  72.849  1.00  0.00     0.000 HD 
ENDROOT
BRANCH   2   4
HETATM    4  C4* UNL     1     -10.645   8.668  69.994  1.00  0.00    -0.227 C  
HETATM    5  O4* UNL     1     -11.670   9.420  70.670  1.00  0.00    -0.268 OA 
HETATM    6  C1* UNL     1     -11.955  10.581  69.866  1.00  0.00    -0.264 C  
HETATM    7  H3* UNL     1      -9.122   9.746  67.330  1.00  0.00     0.000 HD 
HETATM    8  C2* UNL     1     -10.681  10.909  69.097  1.00  0.00    -0.265 C  
HETATM    9  C3* UNL     1      -9.842   9.656  69.158  1.00  0.00    -0.186 C  
HETATM   10  O3* UNL     1      -9.623   9.130  67.851  1.00  0.00    -0.143 OA 
BRANCH   6  11
HETATM   11  N   UNL     1     -12.436  11.662  70.709  1.00  0.00    -0.357 NA 
HETATM   12  C   UNL     1     -13.109  11.547  71.894  1.00  0.00    -0.387 A  
HETATM   13  C   UNL     1     -12.923  13.636  71.500  1.00  0.00    -0.360 A  
HETATM   14  N   UNL     1     -13.415  12.718  72.403  1.00  0.00    -0.520 NA 
HETATM   15  C   UNL     1     -12.279  13.004  70.449  1.00  0.00    -0.310 A  
HETATM   16  N   UNL     1     -11.589  13.454  69.373  1.00  0.00    -0.296 NA 
HETATM   17  C   UNL     1     -10.886  14.520  69.562  1.00  0.00    -0.184 C  
HETATM   18  H   UNL     1     -11.624  12.980  68.471  1.00  0.00     0.000 HD 
HETATM   19  N   UNL     1     -10.710  15.324  70.664  1.00  0.00    -0.503 NA 
HETATM   20  C   UNL     1     -11.836  15.950  71.370  1.00  0.00    -0.463 C  
HETATM   21  H   UNL     1      -9.764  15.492  71.003  1.00  0.00     0.000 HD 
HETATM   22  C   UNL     1     -13.093  15.101  71.679  1.00  0.00    -0.388 C  
HETATM   23  O   UNL     1     -14.192  15.589  70.882  1.00  0.00    -0.853 OA 
HETATM   24  H   UNL     1     -14.302  16.526  70.997  1.00  0.00     0.000 HD 
ENDBRANCH   6  11
ENDBRANCH   2   4
TORSDOF 2
ENDMDL
MODEL       88
REMARK 921   NORMALIZED FREE ENERGY PREDICTED BY IDOCK:   -4.74 KCAL/MOL
REMARK 922        TOTAL FREE ENERGY PREDICTED BY IDOCK:   -5.99 KCAL/MOL
REMARK 923 INTER-LIGAND FREE ENERGY PREDICTED BY IDOCK:   -5.47 KCAL/MOL
REMARK 924 INTRA-LIGAND FREE ENERGY PREDICTED BY IDOCK:   -0.52 KCAL/MOL
REMARK 927      BINDING AFFINITY PREDICTED BY RF-SCORE:    0.00 PKD
ROOT
HETATM    1  O5* UNL     1      -6.301  19.381  65.593  1.00  0.00    -0.200 OA 
HETATM    2  C5* UNL     1      -7.139  18.950  66.667  1.00  0.00    -0.212 C  
HETATM    3  H5* UNL     1      -5.401  19.481  65.880  1.00  0.00     0.000 HD 
ENDROOT
BRANCH   2   4
HETATM    4  C4* UNL     1      -8.587  18.790  66.206  1.00  0.00    -0.234 C  
HETATM    5  O4* UNL     1      -8.802  17.443  65.745  1.00  0.00    -0.522 OA 
HETATM    6  C1* UNL     1     -10.183  17.117  65.991  1.00  0.00    -0.321 C  
HETATM    7  H3* UNL     1     -10.845  20.495  67.809  1.00  0.00     0.000 HD 
HETATM    8  C2* UNL     1     -10.627  17.951  67.186  1.00  0.00    -0.315 C  
HETATM    9  C3* UNL     1      -9.603  19.054  67.308  1.00  0.00    -0.313 C  
HETATM   10  O3* UNL     1     -10.210  20.331  67.122  1.00  0.00    -0.424 OA 
BRANCH   6  11
HETATM   11  N   UNL     1     -10.329  15.684  66.178  1.00  0.00    -0.299 NA 
HETATM   12  C   UNL     1     -11.314  14.883  65.670  1.00  0.00    -0.325 A  
HETATM   13  C   UNL     1     -10.035  13.621  66.823  1.00  0.00    -0.270 A  
HETATM   14  N   UNL     1     -11.166  13.629  66.035  1.00  0.00    -0.294 NA 
HETATM   15  C   UNL     1      -9.475  14.885  66.903  1.00  0.00    -0.237 A  
HETATM   16  N   UNL     1      -8.352  15.372  67.483  1.00  0.00    -0.163 NA 
HETATM   17  C   UNL     1      -7.327  14.587  67.469  1.00  0.00    -0.189 C  
HETATM   18  H   UNL     1      -8.318  16.299  67.905  1.00  0.00     0.000 HD 
HETATM   19  N   UNL     1      -7.151  13.310  66.987  1.00  0.00    -0.379 NA 
HETATM   20  C   UNL     1      -7.998  12.186  67.407  1.00  0.00    -0.168 C  
HETATM   21  H   UNL     1      -6.405  13.138  66.314  1.00  0.00     0.000 HD 
HETATM   22  C   UNL     1      -9.531  12.388  67.481  1.00  0.00    -0.187 C  
HETATM   23  O   UNL     1      -9.941  12.341  68.863  1.00  0.00    -0.412 OA 
HETATM   24  H   UNL     1      -9.618  11.552  69.284  1.00  0.00     0.000 HD 
ENDBRANCH   6  11
ENDBRANCH   2   4
TORSDOF 2
ENDMDL
MODEL       89
REMARK 921   NORMALIZED FREE ENERGY PREDICTED BY IDOCK:   -4.73 KCAL/MOL
REMARK 922        TOTAL FREE ENERGY PREDICTED BY IDOCK:   -5.97 KCAL/MOL
REMARK 923 INTER-LIGAND FREE ENERGY PREDICTED BY IDOCK:   -5.60 KCAL/MOL
REMARK 924 INTRA-LIGAND FREE ENERGY PREDICTED BY IDOCK:   -0.37 KCAL/MOL
REMARK 927      BINDING AFFINITY PREDICTED BY RF-SCORE:    0.00 PKD
ROOT
HETATM    1  O5* UNL     1     -11.412  12.143  70.156  1.00  0.00    -0.514 OA 
HETATM    2  C5* UNL     1     -11.812  11.501  68.945  1.00  0.00    -0.341 C  
HETATM    3  H5* UNL     1     -11.560  11.581  70.907  1.00  0.00     0.000 HD 
ENDROOT
BRANCH   2   4
HETATM    4  C4* UNL     1     -11.575  12.407  67.737  1.00  0.00    -0.352 C  
HETATM    5  O4* UNL     1     -11.366  13.760  68.181  1.00  0.00    -0.256 OA 
HETATM    6  C1* UNL     1     -10.498  14.399  67.225  1.00  0.00    -0.269 C  
HETATM    7  H3* UNL     1      -9.997  11.108  65.207  1.00  0.00     0.000 HD 
HETATM    8  C2* UNL     1      -9.639  13.303  66.607  1.00  0.00    -0.262 C  
HETATM    9  C3* UNL     1     -10.354  12.010  66.918  1.00  0.00    -0.213 C  
HETATM   10  O3* UNL     1     -10.758  11.355  65.718  1.00  0.00    -0.267 OA 
BRANCH   6  11
HETATM   11  N   UNL     1      -9.740  15.456  67.872  1.00  0.00    -0.207 NA 
HETATM   12  C   UNL     1      -8.744  15.309  68.796  1.00  0.00    -0.195 A  
HETATM   13  C   UNL     1      -8.997  17.408  68.501  1.00  0.00    -0.276 A  
HETATM   14  N   UNL     1      -8.268  16.467  69.195  1.00  0.00    -0.207 NA 
HETATM   15  C   UNL     1      -9.901  16.804  67.643  1.00  0.00    -0.261 A  
HETATM   16  N   UNL     1     -10.774  17.280  66.723  1.00  0.00    -0.170 NA 
HETATM   17  C   UNL     1     -10.387  18.323  66.068  1.00  0.00    -0.363 C  
HETATM   18  H   UNL     1     -11.681  16.842  66.559  1.00  0.00     0.000 HD 
HETATM   19  N   UNL     1      -9.240  19.080  66.136  1.00  0.00    -0.461 NA 
HETATM   20  C   UNL     1      -8.780  19.702  67.385  1.00  0.00    -0.310 C  
HETATM   21  H   UNL     1      -8.690  19.215  65.289  1.00  0.00     0.000 HD 
HETATM   22  C   UNL     1      -8.799  18.868  68.690  1.00  0.00    -0.338 C  
HETATM   23  O   UNL     1      -9.801  19.410  69.574  1.00  0.00    -0.344 OA 
HETATM   24  H   UNL     1      -9.675  20.344  69.695  1.00  0.00     0.000 HD 
ENDBRANCH   6  11
ENDBRANCH   2   4
TORSDOF 2
ENDMDL
MODEL       90
REMARK 921   NORMALIZED FREE ENERGY PREDICTED BY IDOCK:   -4.73 KCAL/MOL
REMARK 922        TOTAL FREE ENERGY PREDICTED BY IDOCK:   -5.97 KCAL/MOL
REMARK 923 INTER-LIGAND FREE ENERGY PREDICTED BY IDOCK:   -5.49 KCAL/MOL
REMARK 924 INTRA-LIGAND FREE ENERGY PREDICTED BY IDOCK:   -0.49 KCAL/MOL
REMARK 927      BINDING AFFINITY PREDICTED BY RF-SCORE:    0.00 PKD
ROOT
HETATM    1  O5* UNL     1      -8.527  17.328  68.608  1.00  0.00    -0.262 OA 
HETATM    2  C5* UNL     1      -9.005  16.038  68.992  1.00  0.00    -0.244 C  
HETATM    3  H5* UNL     1      -7.645  17.476  68.928  1.00  0.00     0.000 HD 
ENDROOT
BRANCH   2   4
HETATM    4  C4* UNL     1     -10.424  15.800  68.477  1.00  0.00    -0.236 C  
HETATM    5  O4* UNL     1     -10.370  15.137  67.200  1.00  0.00    -0.255 OA 
HETATM    6  C1* UNL     1     -11.558  14.332  67.081  1.00  0.00    -0.380 C  
HETATM    7  H3* UNL     1     -12.717  15.184  70.699  1.00  0.00     0.000 HD 
HETATM    8  C2* UNL     1     -11.980  13.955  68.496  1.00  0.00    -0.394 C  
HETATM    9  C3* UNL     1     -11.262  14.927  69.400  1.00  0.00    -0.283 C  
HETATM   10  O3* UNL     1     -12.194  15.729  70.123  1.00  0.00    -0.374 OA 
BRANCH   6  11
HETATM   11  N   UNL     1     -11.303  13.195  66.213  1.00  0.00    -0.305 NA 
HETATM   12  C   UNL     1     -12.002  12.840  65.093  1.00  0.00    -0.424 A  
HETATM   13  C   UNL     1     -10.467  11.378  65.342  1.00  0.00    -0.280 A  
HETATM   14  N   UNL     1     -11.523  11.750  64.538  1.00  0.00    -0.287 NA 
HETATM   15  C   UNL     1     -10.288  12.281  66.377  1.00  0.00    -0.225 A  
HETATM   16  N   UNL     1      -9.370  12.393  67.367  1.00  0.00    -0.177 NA 
HETATM   17  C   UNL     1      -8.166  12.043  67.060  1.00  0.00    -0.169 C  
HETATM   18  H   UNL     1      -9.615  12.733  68.297  1.00  0.00     0.000 HD 
HETATM   19  N   UNL     1      -7.620  11.543  65.900  1.00  0.00    -0.316 NA 
HETATM   20  C   UNL     1      -8.133  10.332  65.245  1.00  0.00    -0.151 C  
HETATM   21  H   UNL     1      -6.830  12.031  65.480  1.00  0.00     0.000 HD 
HETATM   22  C   UNL     1      -9.663  10.156  65.087  1.00  0.00    -0.304 C  
HETATM   23  O   UNL     1     -10.097   9.072  65.934  1.00  0.00    -0.418 OA 
HETATM   24  H   UNL     1      -9.583   8.289  65.771  1.00  0.00     0.000 HD 
ENDBRANCH   6  11
ENDBRANCH   2   4
TORSDOF 2
ENDMDL
MODEL       91
REMARK 921   NORMALIZED FREE ENERGY PREDICTED BY IDOCK:   -4.73 KCAL/MOL
REMARK 922        TOTAL FREE ENERGY PREDICTED BY IDOCK:   -5.97 KCAL/MOL
REMARK 923 INTER-LIGAND FREE ENERGY PREDICTED BY IDOCK:   -5.41 KCAL/MOL
REMARK 924 INTRA-LIGAND FREE ENERGY PREDICTED BY IDOCK:   -0.56 KCAL/MOL
REMARK 927      BINDING AFFINITY PREDICTED BY RF-SCORE:    0.00 PKD
ROOT
HETATM    1  O5* UNL     1      -8.102   9.704  70.967  1.00  0.00    -0.328 OA 
HETATM    2  C5* UNL     1      -9.102   8.724  71.245  1.00  0.00    -0.234 C  
HETATM    3  H5* UNL     1      -7.369   9.625  71.565  1.00  0.00     0.000 HD 
ENDROOT
BRANCH   2   4
HETATM    4  C4* UNL     1     -10.282   8.851  70.283  1.00  0.00    -0.201 C  
HETATM    5  O4* UNL     1     -10.571  10.243  70.054  1.00  0.00    -0.271 OA 
HETATM    6  C1* UNL     1     -11.120  10.357  68.727  1.00  0.00    -0.250 C  
HETATM    7  H3* UNL     1     -10.552   6.581  67.969  1.00  0.00     0.000 HD 
HETATM    8  C2* UNL     1     -10.542   9.208  67.910  1.00  0.00    -0.272 C  
HETATM    9  C3* UNL     1     -10.022   8.218  68.923  1.00  0.00    -0.186 C  
HETATM   10  O3* UNL     1     -10.714   6.976  68.818  1.00  0.00    -0.215 OA 
BRANCH   6  11
HETATM   11  N   UNL     1     -10.837  11.675  68.185  1.00  0.00    -0.205 NA 
HETATM   12  C   UNL     1     -10.391  11.971  66.927  1.00  0.00    -0.213 A  
HETATM   13  C   UNL     1     -10.569  13.828  67.963  1.00  0.00    -0.252 A  
HETATM   14  N   UNL     1     -10.222  13.262  66.755  1.00  0.00    -0.250 NA 
HETATM   15  C   UNL     1     -10.988  12.863  68.863  1.00  0.00    -0.228 A  
HETATM   16  N   UNL     1     -11.481  12.915  70.124  1.00  0.00    -0.519 NA 
HETATM   17  C   UNL     1     -12.242  13.925  70.388  1.00  0.00    -0.368 C  
HETATM   18  H   UNL     1     -11.265  12.203  70.820  1.00  0.00     0.000 HD 
HETATM   19  N   UNL     1     -12.644  14.999  69.628  1.00  0.00    -0.605 NA 
HETATM   20  C   UNL     1     -11.688  15.899  68.969  1.00  0.00    -0.370 C  
HETATM   21  H   UNL     1     -13.641  15.176  69.518  1.00  0.00     0.000 HD 
HETATM   22  C   UNL     1     -10.482  15.290  68.212  1.00  0.00    -0.244 C  
HETATM   23  O   UNL     1      -9.272  15.617  68.926  1.00  0.00    -0.195 OA 
HETATM   24  H   UNL     1      -9.216  16.552  69.085  1.00  0.00     0.000 HD 
ENDBRANCH   6  11
ENDBRANCH   2   4
TORSDOF 2
ENDMDL
MODEL       92
REMARK 921   NORMALIZED FREE ENERGY PREDICTED BY IDOCK:   -4.72 KCAL/MOL
REMARK 922        TOTAL FREE ENERGY PREDICTED BY IDOCK:   -5.96 KCAL/MOL
REMARK 923 INTER-LIGAND FREE ENERGY PREDICTED BY IDOCK:   -5.36 KCAL/MOL
REMARK 924 INTRA-LIGAND FREE ENERGY PREDICTED BY IDOCK:   -0.59 KCAL/MOL
REMARK 927      BINDING AFFINITY PREDICTED BY RF-SCORE:    0.00 PKD
ROOT
HETATM    1  O5* UNL     1     -13.915   8.939  73.223  1.00  0.00    -1.203 OA 
HETATM    2  C5* UNL     1     -13.853   8.147  72.036  1.00  0.00    -0.314 C  
HETATM    3  H5* UNL     1     -14.795   9.265  73.371  1.00  0.00     0.000 HD 
ENDROOT
BRANCH   2   4
HETATM    4  C4* UNL     1     -12.438   7.622  71.797  1.00  0.00    -0.329 C  
HETATM    5  O4* UNL     1     -11.996   8.003  70.481  1.00  0.00    -0.118 OA 
HETATM    6  C1* UNL     1     -10.564   8.148  70.531  1.00  0.00    -0.220 C  
HETATM    7  H3* UNL     1     -10.452   7.510  74.370  1.00  0.00     0.000 HD 
HETATM    8  C2* UNL     1     -10.209   8.534  71.961  1.00  0.00    -0.391 C  
HETATM    9  C3* UNL     1     -11.418   8.167  72.787  1.00  0.00    -0.329 C  
HETATM   10  O3* UNL     1     -11.088   7.170  73.752  1.00  0.00    -0.136 OA 
BRANCH   6  11
HETATM   11  N   UNL     1     -10.126   9.105  69.529  1.00  0.00    -0.190 NA 
HETATM   12  C   UNL     1      -9.420  10.256  69.742  1.00  0.00    -0.091 A  
HETATM   13  C   UNL     1      -9.785  10.144  67.642  1.00  0.00    -0.161 A  
HETATM   14  N   UNL     1      -9.192  10.908  68.625  1.00  0.00    -0.180 NA 
HETATM   15  C   UNL     1     -10.348   8.997  68.176  1.00  0.00    -0.214 A  
HETATM   16  N   UNL     1     -10.971   7.924  67.631  1.00  0.00    -0.512 NA 
HETATM   17  C   UNL     1     -10.520   7.535  66.485  1.00  0.00     0.049 C  
HETATM   18  H   UNL     1     -11.747   7.454  68.096  1.00  0.00     0.000 HD 
HETATM   19  N   UNL     1      -9.519   8.022  65.676  1.00  0.00    -0.406 NA 
HETATM   20  C   UNL     1      -9.491   9.413  65.207  1.00  0.00    -0.227 C  
HETATM   21  H   UNL     1      -8.769   7.392  65.391  1.00  0.00     0.000 HD 
HETATM   22  C   UNL     1      -9.793  10.550  66.214  1.00  0.00    -0.217 C  
HETATM   23  O   UNL     1     -11.052  11.162  65.862  1.00  0.00    -0.173 OA 
HETATM   24  H   UNL     1     -11.057  11.421  64.948  1.00  0.00     0.000 HD 
ENDBRANCH   6  11
ENDBRANCH   2   4
TORSDOF 2
ENDMDL
MODEL       93
REMARK 921   NORMALIZED FREE ENERGY PREDICTED BY IDOCK:   -4.71 KCAL/MOL
REMARK 922        TOTAL FREE ENERGY PREDICTED BY IDOCK:   -5.95 KCAL/MOL
REMARK 923 INTER-LIGAND FREE ENERGY PREDICTED BY IDOCK:   -5.63 KCAL/MOL
REMARK 924 INTRA-LIGAND FREE ENERGY PREDICTED BY IDOCK:   -0.32 KCAL/MOL
REMARK 927      BINDING AFFINITY PREDICTED BY RF-SCORE:    0.00 PKD
ROOT
HETATM    1  O5* UNL     1     -10.474  15.534  64.940  1.00  0.00    -0.422 OA 
HETATM    2  C5* UNL     1      -9.989  15.267  66.256  1.00  0.00    -0.284 C  
HETATM    3  H5* UNL     1      -9.793  15.908  64.393  1.00  0.00     0.000 HD 
ENDROOT
BRANCH   2   4
HETATM    4  C4* UNL     1     -11.084  14.666  67.136  1.00  0.00    -0.326 C  
HETATM    5  O4* UNL     1     -10.966  13.231  67.140  1.00  0.00    -0.265 OA 
HETATM    6  C1* UNL     1     -11.459  12.762  68.409  1.00  0.00    -0.311 C  
HETATM    7  H3* UNL     1     -11.986  16.379  69.749  1.00  0.00     0.000 HD 
HETATM    8  C2* UNL     1     -11.231  13.883  69.414  1.00  0.00    -0.273 C  
HETATM    9  C3* UNL     1     -11.013  15.126  68.585  1.00  0.00    -0.255 C  
HETATM   10  O3* UNL     1     -12.030  16.092  68.844  1.00  0.00    -0.348 OA 
BRANCH   6  11
HETATM   11  N   UNL     1     -10.814  11.508  68.760  1.00  0.00    -0.205 NA 
HETATM   12  C   UNL     1      -9.510  11.161  68.538  1.00  0.00    -0.193 A  
HETATM   13  C   UNL     1     -10.435   9.484  69.482  1.00  0.00    -0.220 A  
HETATM   14  N   UNL     1      -9.244   9.948  68.965  1.00  0.00    -0.158 NA 
HETATM   15  C   UNL     1     -11.423  10.450  69.396  1.00  0.00    -0.227 A  
HETATM   16  N   UNL     1     -12.711  10.506  69.814  1.00  0.00    -0.574 NA 
HETATM   17  C   UNL     1     -12.964   9.912  70.932  1.00  0.00    -0.276 C  
HETATM   18  H   UNL     1     -13.434  10.985  69.279  1.00  0.00     0.000 HD 
HETATM   19  N   UNL     1     -12.168   9.196  71.796  1.00  0.00    -0.348 NA 
HETATM   20  C   UNL     1     -11.384   8.032  71.363  1.00  0.00    -0.256 C  
HETATM   21  H   UNL     1     -12.120   9.485  72.773  1.00  0.00     0.000 HD 
HETATM   22  C   UNL     1     -10.582   8.117  70.042  1.00  0.00    -0.239 C  
HETATM   23  O   UNL     1     -11.182   7.230  69.075  1.00  0.00    -0.450 OA 
HETATM   24  H   UNL     1     -11.276   6.354  69.433  1.00  0.00     0.000 HD 
ENDBRANCH   6  11
ENDBRANCH   2   4
TORSDOF 2
ENDMDL
MODEL       94
REMARK 921   NORMALIZED FREE ENERGY PREDICTED BY IDOCK:   -4.67 KCAL/MOL
REMARK 922        TOTAL FREE ENERGY PREDICTED BY IDOCK:   -5.90 KCAL/MOL
REMARK 923 INTER-LIGAND FREE ENERGY PREDICTED BY IDOCK:   -5.23 KCAL/MOL
REMARK 924 INTRA-LIGAND FREE ENERGY PREDICTED BY IDOCK:   -0.68 KCAL/MOL
REMARK 927      BINDING AFFINITY PREDICTED BY RF-SCORE:    0.00 PKD
ROOT
HETATM    1  O5* UNL     1      -7.606   9.598  65.815  1.00  0.00    -0.099 OA 
HETATM    2  C5* UNL     1      -7.691   8.553  66.785  1.00  0.00    -0.091 C  
HETATM    3  H5* UNL     1      -7.161   9.300  65.030  1.00  0.00     0.000 HD 
ENDROOT
BRANCH   2   4
HETATM    4  C4* UNL     1      -8.406   9.032  68.048  1.00  0.00    -0.117 C  
HETATM    5  O4* UNL     1      -8.799  10.408  67.890  1.00  0.00    -0.124 OA 
HETATM    6  C1* UNL     1      -9.990  10.610  68.674  1.00  0.00    -0.181 C  
HETATM    7  H3* UNL     1     -10.212   6.846  69.641  1.00  0.00     0.000 HD 
HETATM    8  C2* UNL     1     -10.705   9.267  68.746  1.00  0.00    -0.184 C  
HETATM    9  C3* UNL     1      -9.667   8.239  68.364  1.00  0.00    -0.158 C  
HETATM   10  O3* UNL     1      -9.425   7.340  69.444  1.00  0.00    -0.155 OA 
BRANCH   6  11
HETATM   11  N   UNL     1     -10.787  11.680  68.099  1.00  0.00    -0.205 NA 
HETATM   12  C   UNL     1     -11.529  12.609  68.774  1.00  0.00    -0.306 A  
HETATM   13  C   UNL     1     -11.789  13.014  66.694  1.00  0.00    -0.393 A  
HETATM   14  N   UNL     1     -12.145  13.434  67.958  1.00  0.00    -0.313 NA 
HETATM   15  C   UNL     1     -10.916  11.941  66.754  1.00  0.00    -0.292 A  
HETATM   16  N   UNL     1     -10.245  11.232  65.815  1.00  0.00    -0.242 NA 
HETATM   17  C   UNL     1      -9.826  11.905  64.796  1.00  0.00    -0.191 C  
HETATM   18  H   UNL     1     -10.081  10.230  65.907  1.00  0.00     0.000 HD 
HETATM   19  N   UNL     1      -9.950  13.232  64.455  1.00  0.00    -0.648 NA 
HETATM   20  C   UNL     1     -11.253  13.902  64.354  1.00  0.00    -0.329 C  
HETATM   21  H   UNL     1      -9.105  13.770  64.265  1.00  0.00     0.000 HD 
HETATM   22  C   UNL     1     -12.307  13.664  65.463  1.00  0.00    -0.482 C  
HETATM   23  O   UNL     1     -13.404  12.909  64.909  1.00  0.00    -0.716 OA 
HETATM   24  H   UNL     1     -13.736  13.324  64.121  1.00  0.00     0.000 HD 
ENDBRANCH   6  11
ENDBRANCH   2   4
TORSDOF 2
ENDMDL
MODEL       95
REMARK 921   NORMALIZED FREE ENERGY PREDICTED BY IDOCK:   -4.66 KCAL/MOL
REMARK 922        TOTAL FREE ENERGY PREDICTED BY IDOCK:   -5.89 KCAL/MOL
REMARK 923 INTER-LIGAND FREE ENERGY PREDICTED BY IDOCK:   -5.34 KCAL/MOL
REMARK 924 INTRA-LIGAND FREE ENERGY PREDICTED BY IDOCK:   -0.55 KCAL/MOL
REMARK 927      BINDING AFFINITY PREDICTED BY RF-SCORE:    0.00 PKD
ROOT
HETATM    1  O5* UNL     1     -12.822  15.250  71.033  1.00  0.00    -0.372 OA 
HETATM    2  C5* UNL     1     -11.527  15.756  71.358  1.00  0.00    -0.429 C  
HETATM    3  H5* UNL     1     -13.392  15.254  71.793  1.00  0.00     0.000 HD 
ENDROOT
BRANCH   2   4
HETATM    4  C4* UNL     1     -10.610  15.749  70.136  1.00  0.00    -0.324 C  
HETATM    5  O4* UNL     1     -10.429  14.398  69.674  1.00  0.00    -0.093 OA 
HETATM    6  C1* UNL     1     -10.210  14.454  68.251  1.00  0.00    -0.241 C  
HETATM    7  H3* UNL     1     -10.811  18.298  68.126  1.00  0.00     0.000 HD 
HETATM    8  C2* UNL     1     -10.924  15.700  67.743  1.00  0.00    -0.316 C  
HETATM    9  C3* UNL     1     -11.159  16.554  68.966  1.00  0.00    -0.284 C  
HETATM   10  O3* UNL     1     -10.468  17.797  68.856  1.00  0.00    -0.342 OA 
BRANCH   6  11
HETATM   11  N   UNL     1     -10.657  13.218  67.632  1.00  0.00    -0.234 NA 
HETATM   12  C   UNL     1     -11.727  13.054  66.797  1.00  0.00    -0.382 A  
HETATM   13  C   UNL     1     -10.843  11.126  67.041  1.00  0.00    -0.284 A  
HETATM   14  N   UNL     1     -11.868  11.804  66.417  1.00  0.00    -0.494 NA 
HETATM   15  C   UNL     1     -10.052  11.991  67.780  1.00  0.00    -0.193 A  
HETATM   16  N   UNL     1      -8.916  11.829  68.500  1.00  0.00    -0.292 NA 
HETATM   17  C   UNL     1      -8.071  10.972  68.031  1.00  0.00    -0.121 C  
HETATM   18  H   UNL     1      -8.739  12.351  69.357  1.00  0.00     0.000 HD 
HETATM   19  N   UNL     1      -8.107  10.152  66.927  1.00  0.00    -0.120 NA 
HETATM   20  C   UNL     1      -9.198   9.197  66.690  1.00  0.00    -0.164 C  
HETATM   21  H   UNL     1      -7.349  10.210  66.248  1.00  0.00     0.000 HD 
HETATM   22  C   UNL     1     -10.660   9.658  66.906  1.00  0.00    -0.171 C  
HETATM   23  O   UNL     1     -11.202   8.968  68.051  1.00  0.00    -0.481 OA 
HETATM   24  H   UNL     1     -11.085   8.029  67.965  1.00  0.00     0.000 HD 
ENDBRANCH   6  11
ENDBRANCH   2   4
TORSDOF 2
ENDMDL
MODEL       96
REMARK 921   NORMALIZED FREE ENERGY PREDICTED BY IDOCK:   -4.62 KCAL/MOL
REMARK 922        TOTAL FREE ENERGY PREDICTED BY IDOCK:   -5.85 KCAL/MOL
REMARK 923 INTER-LIGAND FREE ENERGY PREDICTED BY IDOCK:   -5.49 KCAL/MOL
REMARK 924 INTRA-LIGAND FREE ENERGY PREDICTED BY IDOCK:   -0.36 KCAL/MOL
REMARK 927      BINDING AFFINITY PREDICTED BY RF-SCORE:    0.00 PKD
ROOT
HETATM    1  O5* UNL     1     -11.488   6.705  68.210  1.00  0.00    -0.560 OA 
HETATM    2  C5* UNL     1     -11.230   6.596  69.610  1.00  0.00    -0.340 C  
HETATM    3  H5* UNL     1     -11.899   5.917  67.875  1.00  0.00     0.000 HD 
ENDROOT
BRANCH   2   4
HETATM    4  C4* UNL     1     -10.568   7.863  70.149  1.00  0.00    -0.237 C  
HETATM    5  O4* UNL     1     -10.307   8.772  69.063  1.00  0.00    -0.207 OA 
HETATM    6  C1* UNL     1     -10.371  10.109  69.595  1.00  0.00    -0.247 C  
HETATM    7  H3* UNL     1     -11.471   8.855  73.112  1.00  0.00     0.000 HD 
HETATM    8  C2* UNL     1     -11.321  10.067  70.785  1.00  0.00    -0.439 C  
HETATM    9  C3* UNL     1     -11.428   8.609  71.161  1.00  0.00    -0.280 C  
HETATM   10  O3* UNL     1     -10.935   8.390  72.481  1.00  0.00    -0.356 OA 
BRANCH   6  11
HETATM   11  N   UNL     1     -10.766  11.039  68.551  1.00  0.00    -0.188 NA 
HETATM   12  C   UNL     1     -12.021  11.224  68.041  1.00  0.00    -0.057 A  
HETATM   13  C   UNL     1     -10.732  12.556  66.983  1.00  0.00    -0.242 A  
HETATM   14  N   UNL     1     -12.040  12.135  67.095  1.00  0.00    -0.532 NA 
HETATM   15  C   UNL     1      -9.921  11.911  67.902  1.00  0.00    -0.191 A  
HETATM   16  N   UNL     1      -8.611  12.021  68.227  1.00  0.00    -0.174 NA 
HETATM   17  C   UNL     1      -8.116  13.213  68.171  1.00  0.00    -0.155 C  
HETATM   18  H   UNL     1      -8.050  11.214  68.499  1.00  0.00     0.000 HD 
HETATM   19  N   UNL     1      -8.666  14.422  67.815  1.00  0.00    -0.170 NA 
HETATM   20  C   UNL     1      -9.320  14.640  66.518  1.00  0.00    -0.288 C  
HETATM   21  H   UNL     1      -8.618  15.197  68.476  1.00  0.00     0.000 HD 
HETATM   22  C   UNL     1     -10.304  13.569  65.985  1.00  0.00    -0.303 C  
HETATM   23  O   UNL     1      -9.720  12.934  64.829  1.00  0.00    -0.527 OA 
HETATM   24  H   UNL     1      -9.446  13.582  64.190  1.00  0.00     0.000 HD 
ENDBRANCH   6  11
ENDBRANCH   2   4
TORSDOF 2
ENDMDL
MODEL       97
REMARK 921   NORMALIZED FREE ENERGY PREDICTED BY IDOCK:   -4.62 KCAL/MOL
REMARK 922        TOTAL FREE ENERGY PREDICTED BY IDOCK:   -5.85 KCAL/MOL
REMARK 923 INTER-LIGAND FREE ENERGY PREDICTED BY IDOCK:   -5.33 KCAL/MOL
REMARK 924 INTRA-LIGAND FREE ENERGY PREDICTED BY IDOCK:   -0.53 KCAL/MOL
REMARK 927      BINDING AFFINITY PREDICTED BY RF-SCORE:    0.00 PKD
ROOT
HETATM    1  O5* UNL     1     -10.872  14.795  70.198  1.00  0.00    -0.419 OA 
HETATM    2  C5* UNL     1     -10.445  14.564  68.855  1.00  0.00    -0.246 C  
HETATM    3  H5* UNL     1     -10.513  14.144  70.788  1.00  0.00     0.000 HD 
ENDROOT
BRANCH   2   4
HETATM    4  C4* UNL     1     -11.023  15.612  67.905  1.00  0.00    -0.319 C  
HETATM    5  O4* UNL     1     -10.610  16.926  68.325  1.00  0.00    -0.329 OA 
HETATM    6  C1* UNL     1     -10.532  17.751  67.147  1.00  0.00    -0.335 C  
HETATM    7  H3* UNL     1     -11.326  14.764  64.780  1.00  0.00     0.000 HD 
HETATM    8  C2* UNL     1     -10.219  16.825  65.979  1.00  0.00    -0.361 C  
HETATM    9  C3* UNL     1     -10.564  15.437  66.464  1.00  0.00    -0.306 C  
HETATM   10  O3* UNL     1     -11.612  14.873  65.679  1.00  0.00    -0.329 OA 
BRANCH   6  11
HETATM   11  N   UNL     1      -9.556  18.809  67.346  1.00  0.00    -0.302 NA 
HETATM   12  C   UNL     1      -9.743  20.149  67.156  1.00  0.00    -0.439 A  
HETATM   13  C   UNL     1      -7.717  19.899  67.781  1.00  0.00    -0.292 A  
HETATM   14  N   UNL     1      -8.655  20.840  67.413  1.00  0.00    -0.222 NA 
HETATM   15  C   UNL     1      -8.262  18.626  67.780  1.00  0.00    -0.255 A  
HETATM   16  N   UNL     1      -7.782  17.406  68.122  1.00  0.00    -0.213 NA 
HETATM   17  C   UNL     1      -6.966  17.384  69.122  1.00  0.00    -0.209 C  
HETATM   18  H   UNL     1      -8.048  16.559  67.621  1.00  0.00     0.000 HD 
HETATM   19  N   UNL     1      -6.456  18.385  69.917  1.00  0.00    -0.075 NA 
HETATM   20  C   UNL     1      -5.739  19.542  69.365  1.00  0.00    -0.231 C  
HETATM   21  H   UNL     1      -6.582  18.321  70.927  1.00  0.00     0.000 HD 
HETATM   22  C   UNL     1      -6.318  20.261  68.122  1.00  0.00    -0.280 C  
HETATM   23  O   UNL     1      -5.441  20.029  67.000  1.00  0.00    -0.165 OA 
HETATM   24  H   UNL     1      -4.546  20.260  67.217  1.00  0.00     0.000 HD 
ENDBRANCH   6  11
ENDBRANCH   2   4
TORSDOF 2
ENDMDL
MODEL       98
REMARK 921   NORMALIZED FREE ENERGY PREDICTED BY IDOCK:   -4.62 KCAL/MOL
REMARK 922        TOTAL FREE ENERGY PREDICTED BY IDOCK:   -5.85 KCAL/MOL
REMARK 923 INTER-LIGAND FREE ENERGY PREDICTED BY IDOCK:   -5.53 KCAL/MOL
REMARK 924 INTRA-LIGAND FREE ENERGY PREDICTED BY IDOCK:   -0.32 KCAL/MOL
REMARK 927      BINDING AFFINITY PREDICTED BY RF-SCORE:    0.00 PKD
ROOT
HETATM    1  O5* UNL     1     -13.269  10.273  71.547  1.00  0.00    -0.381 OA 
HETATM    2  C5* UNL     1     -11.847  10.331  71.665  1.00  0.00    -0.067 C  
HETATM    3  H5* UNL     1     -13.690  10.740  72.258  1.00  0.00     0.000 HD 
ENDROOT
BRANCH   2   4
HETATM    4  C4* UNL     1     -11.168   9.579  70.520  1.00  0.00    -0.287 C  
HETATM    5  O4* UNL     1     -11.736   9.995  69.264  1.00  0.00    -0.071 OA 
HETATM    6  C1* UNL     1     -10.709   9.868  68.263  1.00  0.00    -0.234 C  
HETATM    7  H3* UNL     1      -8.017   8.862  70.889  1.00  0.00     0.000 HD 
HETATM    8  C2* UNL     1      -9.374  10.045  68.974  1.00  0.00    -0.183 C  
HETATM    9  C3* UNL     1      -9.669   9.831  70.439  1.00  0.00    -0.184 C  
HETATM   10  O3* UNL     1      -8.952   8.704  70.940  1.00  0.00    -0.154 OA 
BRANCH   6  11
HETATM   11  N   UNL     1     -10.943  10.818  67.189  1.00  0.00    -0.280 NA 
HETATM   12  C   UNL     1     -11.493  12.065  67.297  1.00  0.00    -0.335 A  
HETATM   13  C   UNL     1     -11.064  11.765  65.227  1.00  0.00    -0.276 A  
HETATM   14  N   UNL     1     -11.578  12.668  66.133  1.00  0.00    -0.371 NA 
HETATM   15  C   UNL     1     -10.630  10.614  65.864  1.00  0.00    -0.108 A  
HETATM   16  N   UNL     1     -10.006   9.490  65.436  1.00  0.00    -0.411 NA 
HETATM   17  C   UNL     1      -9.146   9.653  64.487  1.00  0.00    -0.236 C  
HETATM   18  H   UNL     1     -10.204   8.574  65.838  1.00  0.00     0.000 HD 
HETATM   19  N   UNL     1      -8.743  10.769  63.791  1.00  0.00    -0.321 NA 
HETATM   20  C   UNL     1      -9.688  11.634  63.073  1.00  0.00    -0.303 C  
HETATM   21  H   UNL     1      -7.751  11.003  63.772  1.00  0.00     0.000 HD 
HETATM   22  C   UNL     1     -11.010  12.041  63.769  1.00  0.00    -0.426 C  
HETATM   23  O   UNL     1     -12.110  11.405  63.087  1.00  0.00    -0.900 OA 
HETATM   24  H   UNL     1     -12.076  11.582  62.153  1.00  0.00     0.000 HD 
ENDBRANCH   6  11
ENDBRANCH   2   4
TORSDOF 2
ENDMDL
MODEL       99
REMARK 921   NORMALIZED FREE ENERGY PREDICTED BY IDOCK:   -4.58 KCAL/MOL
REMARK 922        TOTAL FREE ENERGY PREDICTED BY IDOCK:   -5.81 KCAL/MOL
REMARK 923 INTER-LIGAND FREE ENERGY PREDICTED BY IDOCK:   -5.15 KCAL/MOL
REMARK 924 INTRA-LIGAND FREE ENERGY PREDICTED BY IDOCK:   -0.66 KCAL/MOL
REMARK 927      BINDING AFFINITY PREDICTED BY RF-SCORE:    0.00 PKD
ROOT
HETATM    1  O5* UNL     1      -8.178   8.776  65.792  1.00  0.00    -0.110 OA 
HETATM    2  C5* UNL     1      -9.572   9.084  65.763  1.00  0.00    -0.217 C  
HETATM    3  H5* UNL     1      -7.997   7.961  65.340  1.00  0.00     0.000 HD 
ENDROOT
BRANCH   2   4
HETATM    4  C4* UNL     1      -9.863  10.395  66.491  1.00  0.00    -0.206 C  
HETATM    5  O4* UNL     1     -10.945  10.202  67.422  1.00  0.00    -0.292 OA 
HETATM    6  C1* UNL     1     -10.743  11.119  68.514  1.00  0.00    -0.201 C  
HETATM    7  H3* UNL     1      -7.327  12.339  67.100  1.00  0.00     0.000 HD 
HETATM    8  C2* UNL     1      -9.243  11.365  68.613  1.00  0.00    -0.149 C  
HETATM    9  C3* UNL     1      -8.675  10.919  67.287  1.00  0.00    -0.131 C  
HETATM   10  O3* UNL     1      -8.068  12.013  66.603  1.00  0.00    -0.130 OA 
BRANCH   6  11
HETATM   11  N   UNL     1     -11.340  10.584  69.726  1.00  0.00    -0.278 NA 
HETATM   12  C   UNL     1     -12.162  11.241  70.599  1.00  0.00    -0.393 A  
HETATM   13  C   UNL     1     -11.897   9.271  71.377  1.00  0.00    -0.358 A  
HETATM   14  N   UNL     1     -12.522  10.478  71.606  1.00  0.00    -0.377 NA 
HETATM   15  C   UNL     1     -11.178   9.300  70.193  1.00  0.00    -0.208 A  
HETATM   16  N   UNL     1     -10.466   8.370  69.513  1.00  0.00    -0.223 NA 
HETATM   17  C   UNL     1     -10.929   7.165  69.556  1.00  0.00    -0.191 C  
HETATM   18  H   UNL     1      -9.618   8.606  68.999  1.00  0.00     0.000 HD 
HETATM   19  N   UNL     1     -12.020   6.620  70.192  1.00  0.00    -0.615 NA 
HETATM   20  C   UNL     1     -12.233   6.747  71.640  1.00  0.00    -0.365 C  
HETATM   21  H   UNL     1     -12.707   6.109  69.638  1.00  0.00     0.000 HD 
HETATM   22  C   UNL     1     -12.011   8.124  72.313  1.00  0.00    -0.377 C  
HETATM   23  O   UNL     1     -10.852   8.043  73.168  1.00  0.00    -0.335 OA 
HETATM   24  H   UNL     1     -10.924   7.309  73.767  1.00  0.00     0.000 HD 
ENDBRANCH   6  11
ENDBRANCH   2   4
TORSDOF 2
ENDMDL
MODEL      100
REMARK 921   NORMALIZED FREE ENERGY PREDICTED BY IDOCK:   -4.57 KCAL/MOL
REMARK 922        TOTAL FREE ENERGY PREDICTED BY IDOCK:   -5.80 KCAL/MOL
REMARK 923 INTER-LIGAND FREE ENERGY PREDICTED BY IDOCK:   -4.96 KCAL/MOL
REMARK 924 INTRA-LIGAND FREE ENERGY PREDICTED BY IDOCK:   -0.83 KCAL/MOL
REMARK 927      BINDING AFFINITY PREDICTED BY RF-SCORE:    0.00 PKD
ROOT
HETATM    1  O5* UNL     1     -12.437   7.138  70.193  1.00  0.00    -0.497 OA 
HETATM    2  C5* UNL     1     -11.945   7.580  71.458  1.00  0.00    -0.307 C  
HETATM    3  H5* UNL     1     -12.609   6.204  70.199  1.00  0.00     0.000 HD 
ENDROOT
BRANCH   2   4
HETATM    4  C4* UNL     1     -11.667   9.082  71.448  1.00  0.00    -0.322 C  
HETATM    5  O4* UNL     1     -10.562   9.364  70.569  1.00  0.00    -0.228 OA 
HETATM    6  C1* UNL     1     -10.760  10.687  70.037  1.00  0.00    -0.155 C  
HETATM    7  H3* UNL     1     -14.230  11.060  71.762  1.00  0.00     0.000 HD 
HETATM    8  C2* UNL     1     -12.262  10.937  70.023  1.00  0.00    -0.422 C  
HETATM    9  C3* UNL     1     -12.848   9.910  70.962  1.00  0.00    -0.331 C  
HETATM   10  O3* UNL     1     -13.493  10.543  72.066  1.00  0.00    -0.379 OA 
BRANCH   6  11
HETATM   11  N   UNL     1     -10.126  10.798  68.734  1.00  0.00    -0.183 NA 
HETATM   12  C   UNL     1      -9.362  11.834  68.274  1.00  0.00    -0.193 A  
HETATM   13  C   UNL     1      -9.471  10.407  66.690  1.00  0.00    -0.165 A  
HETATM   14  N   UNL     1      -8.946  11.631  67.045  1.00  0.00    -0.176 NA 
HETATM   15  C   UNL     1     -10.185   9.850  67.738  1.00  0.00    -0.197 A  
HETATM   16  N   UNL     1     -10.818   8.664  67.908  1.00  0.00    -0.487 NA 
HETATM   17  C   UNL     1     -10.260   7.644  67.346  1.00  0.00    -0.251 C  
HETATM   18  H   UNL     1     -11.681   8.583  68.445  1.00  0.00     0.000 HD 
HETATM   19  N   UNL     1      -9.131   7.524  66.569  1.00  0.00    -0.160 NA 
HETATM   20  C   UNL     1      -8.934   8.301  65.338  1.00  0.00    -0.011 C  
HETATM   21  H   UNL     1      -8.404   6.871  66.859  1.00  0.00     0.000 HD 
HETATM   22  C   UNL     1      -9.268   9.813  65.344  1.00  0.00    -0.227 C  
HETATM   23  O   UNL     1     -10.421  10.038  64.506  1.00  0.00    -0.273 OA 
HETATM   24  H   UNL     1     -10.292   9.658  63.645  1.00  0.00     0.000 HD 
ENDBRANCH   6  11
ENDBRANCH   2   4
TORSDOF 2
ENDMDL
MODEL      101
REMARK 921   NORMALIZED FREE ENERGY PREDICTED BY IDOCK:   -4.54 KCAL/MOL
REMARK 922        TOTAL FREE ENERGY PREDICTED BY IDOCK:   -5.77 KCAL/MOL
REMARK 923 INTER-LIGAND FREE ENERGY PREDICTED BY IDOCK:   -5.38 KCAL/MOL
REMARK 924 INTRA-LIGAND FREE ENERGY PREDICTED BY IDOCK:   -0.38 KCAL/MOL
REMARK 927      BINDING AFFINITY PREDICTED BY RF-SCORE:    0.00 PKD
ROOT
HETATM    1  O5* UNL     1     -12.832  14.106  66.576  1.00  0.00    -0.472 OA 
HETATM    2  C5* UNL     1     -11.459  13.778  66.359  1.00  0.00    -0.336 C  
HETATM    3  H5* UNL     1     -13.335  14.021  65.775  1.00  0.00     0.000 HD 
ENDROOT
BRANCH   2   4
HETATM    4  C4* UNL     1     -10.649  13.916  67.647  1.00  0.00    -0.245 C  
HETATM    5  O4* UNL     1      -9.761  15.045  67.542  1.00  0.00    -0.214 OA 
HETATM    6  C1* UNL     1      -9.569  15.567  68.870  1.00  0.00    -0.220 C  
HETATM    7  H3* UNL     1     -12.130  13.077  70.418  1.00  0.00     0.000 HD 
HETATM    8  C2* UNL     1     -10.825  15.230  69.664  1.00  0.00    -0.294 C  
HETATM    9  C3* UNL     1     -11.513  14.138  68.881  1.00  0.00    -0.293 C  
HETATM   10  O3* UNL     1     -11.591  12.938  69.649  1.00  0.00    -0.283 OA 
BRANCH   6  11
HETATM   11  N   UNL     1      -9.269  16.988  68.806  1.00  0.00    -0.265 NA 
HETATM   12  C   UNL     1     -10.165  18.021  68.811  1.00  0.00    -0.354 A  
HETATM   13  C   UNL     1      -8.224  18.897  68.663  1.00  0.00    -0.345 A  
HETATM   14  N   UNL     1      -9.569  19.189  68.730  1.00  0.00    -0.403 NA 
HETATM   15  C   UNL     1      -8.007  17.531  68.741  1.00  0.00    -0.238 A  
HETATM   16  N   UNL     1      -6.889  16.766  68.785  1.00  0.00    -0.176 NA 
HETATM   17  C   UNL     1      -5.890  17.269  69.430  1.00  0.00    -0.222 C  
HETATM   18  H   UNL     1      -6.841  15.852  68.338  1.00  0.00     0.000 HD 
HETATM   19  N   UNL     1      -5.723  18.470  70.080  1.00  0.00    -0.239 NA 
HETATM   20  C   UNL     1      -5.935  19.762  69.414  1.00  0.00    -0.283 C  
HETATM   21  H   UNL     1      -5.442  18.463  71.060  1.00  0.00     0.000 HD 
HETATM   22  C   UNL     1      -7.186  19.950  68.521  1.00  0.00    -0.296 C  
HETATM   23  O   UNL     1      -6.763  20.070  67.147  1.00  0.00    -0.204 OA 
HETATM   24  H   UNL     1      -6.099  20.744  67.056  1.00  0.00     0.000 HD 
ENDBRANCH   6  11
ENDBRANCH   2   4
TORSDOF 2
ENDMDL
MODEL      102
REMARK 921   NORMALIZED FREE ENERGY PREDICTED BY IDOCK:   -4.53 KCAL/MOL
REMARK 922        TOTAL FREE ENERGY PREDICTED BY IDOCK:   -5.75 KCAL/MOL
REMARK 923 INTER-LIGAND FREE ENERGY PREDICTED BY IDOCK:   -5.19 KCAL/MOL
REMARK 924 INTRA-LIGAND FREE ENERGY PREDICTED BY IDOCK:   -0.55 KCAL/MOL
REMARK 927      BINDING AFFINITY PREDICTED BY RF-SCORE:    0.00 PKD
ROOT
HETATM    1  O5* UNL     1     -11.087   5.524  66.812  1.00  0.00    -0.496 OA 
HETATM    2  C5* UNL     1      -9.789   4.954  66.985  1.00  0.00    -0.193 C  
HETATM    3  H5* UNL     1     -11.617   4.998  66.225  1.00  0.00     0.000 HD 
ENDROOT
BRANCH   2   4
HETATM    4  C4* UNL     1      -8.937   5.800  67.930  1.00  0.00    -0.111 C  
HETATM    5  O4* UNL     1      -9.762   6.792  68.568  1.00  0.00    -0.133 OA 
HETATM    6  C1* UNL     1      -9.190   7.062  69.862  1.00  0.00    -0.144 C  
HETATM    7  H3* UNL     1      -6.477   4.301  69.441  1.00  0.00     0.000 HD 
HETATM    8  C2* UNL     1      -8.463   5.796  70.297  1.00  0.00    -0.128 C  
HETATM    9  C3* UNL     1      -8.276   4.988  69.035  1.00  0.00    -0.087 C  
HETATM   10  O3* UNL     1      -6.890   4.808  68.751  1.00  0.00    -0.049 OA 
BRANCH   6  11
HETATM   11  N   UNL     1     -10.226   7.499  70.782  1.00  0.00    -0.194 NA 
HETATM   12  C   UNL     1     -10.500   6.986  72.019  1.00  0.00    -0.208 A  
HETATM   13  C   UNL     1     -11.914   8.549  71.680  1.00  0.00    -0.316 A  
HETATM   14  N   UNL     1     -11.511   7.599  72.593  1.00  0.00    -0.354 NA 
HETATM   15  C   UNL     1     -11.108   8.530  70.553  1.00  0.00    -0.244 A  
HETATM   16  N   UNL     1     -11.054   9.291  69.434  1.00  0.00    -0.425 NA 
HETATM   17  C   UNL     1     -11.323  10.544  69.592  1.00  0.00    -0.281 C  
HETATM   18  H   UNL     1     -10.816   8.899  68.523  1.00  0.00     0.000 HD 
HETATM   19  N   UNL     1     -11.685  11.275  70.700  1.00  0.00    -0.441 NA 
HETATM   20  C   UNL     1     -12.847  10.928  71.528  1.00  0.00    -0.454 C  
HETATM   21  H   UNL     1     -11.126  12.089  70.955  1.00  0.00     0.000 HD 
HETATM   22  C   UNL     1     -13.072   9.448  71.923  1.00  0.00    -0.424 C  
HETATM   23  O   UNL     1     -14.250   8.959  71.248  1.00  0.00    -0.512 OA 
HETATM   24  H   UNL     1     -14.990   9.533  71.404  1.00  0.00     0.000 HD 
ENDBRANCH   6  11
ENDBRANCH   2   4
TORSDOF 2
ENDMDL
MODEL      103
REMARK 921   NORMALIZED FREE ENERGY PREDICTED BY IDOCK:   -4.52 KCAL/MOL
REMARK 922        TOTAL FREE ENERGY PREDICTED BY IDOCK:   -5.74 KCAL/MOL
REMARK 923 INTER-LIGAND FREE ENERGY PREDICTED BY IDOCK:   -5.19 KCAL/MOL
REMARK 924 INTRA-LIGAND FREE ENERGY PREDICTED BY IDOCK:   -0.54 KCAL/MOL
REMARK 927      BINDING AFFINITY PREDICTED BY RF-SCORE:    0.00 PKD
ROOT
HETATM    1  O5* UNL     1     -12.874  14.231  66.522  1.00  0.00    -0.462 OA 
HETATM    2  C5* UNL     1     -11.450  14.333  66.462  1.00  0.00    -0.360 C  
HETATM    3  H5* UNL     1     -13.263  14.362  65.666  1.00  0.00     0.000 HD 
ENDROOT
BRANCH   2   4
HETATM    4  C4* UNL     1     -10.824  14.122  67.840  1.00  0.00    -0.245 C  
HETATM    5  O4* UNL     1      -9.437  14.506  67.804  1.00  0.00    -0.203 OA 
HETATM    6  C1* UNL     1      -9.083  14.969  69.121  1.00  0.00    -0.183 C  
HETATM    7  H3* UNL     1     -12.736  14.622  70.423  1.00  0.00     0.000 HD 
HETATM    8  C2* UNL     1     -10.356  15.516  69.754  1.00  0.00    -0.316 C  
HETATM    9  C3* UNL     1     -11.488  14.943  68.936  1.00  0.00    -0.299 C  
HETATM   10  O3* UNL     1     -12.321  14.109  69.739  1.00  0.00    -0.336 OA 
BRANCH   6  11
HETATM   11  N   UNL     1      -8.000  15.933  69.034  1.00  0.00    -0.208 NA 
HETATM   12  C   UNL     1      -6.761  15.836  69.605  1.00  0.00    -0.176 A  
HETATM   13  C   UNL     1      -6.811  17.704  68.574  1.00  0.00    -0.223 A  
HETATM   14  N   UNL     1      -6.015  16.885  69.345  1.00  0.00    -0.192 NA 
HETATM   15  C   UNL     1      -8.045  17.119  68.338  1.00  0.00    -0.255 A  
HETATM   16  N   UNL     1      -9.122  17.482  67.601  1.00  0.00    -0.241 NA 
HETATM   17  C   UNL     1      -8.866  18.103  66.499  1.00  0.00    -0.271 C  
HETATM   18  H   UNL     1     -10.076  17.278  67.900  1.00  0.00     0.000 HD 
HETATM   19  N   UNL     1      -7.683  18.499  65.918  1.00  0.00    -0.496 NA 
HETATM   20  C   UNL     1      -6.709  19.349  66.616  1.00  0.00    -0.193 C  
HETATM   21  H   UNL     1      -7.476  18.192  64.969  1.00  0.00     0.000 HD 
HETATM   22  C   UNL     1      -6.356  19.032  68.090  1.00  0.00    -0.218 C  
HETATM   23  O   UNL     1      -6.871  20.087  68.929  1.00  0.00    -0.316 OA 
HETATM   24  H   UNL     1      -6.580  20.937  68.619  1.00  0.00     0.000 HD 
ENDBRANCH   6  11
ENDBRANCH   2   4
TORSDOF 2
ENDMDL
MODEL      104
REMARK 921   NORMALIZED FREE ENERGY PREDICTED BY IDOCK:   -4.52 KCAL/MOL
REMARK 922        TOTAL FREE ENERGY PREDICTED BY IDOCK:   -5.73 KCAL/MOL
REMARK 923 INTER-LIGAND FREE ENERGY PREDICTED BY IDOCK:   -5.47 KCAL/MOL
REMARK 924 INTRA-LIGAND FREE ENERGY PREDICTED BY IDOCK:   -0.26 KCAL/MOL
REMARK 927      BINDING AFFINITY PREDICTED BY RF-SCORE:    0.00 PKD
ROOT
HETATM    1  O5* UNL     1      -9.437   5.029  64.670  1.00  0.00    -0.355 OA 
HETATM    2  C5* UNL     1      -8.213   5.731  64.890  1.00  0.00    -0.137 C  
HETATM    3  H5* UNL     1      -9.322   4.331  64.036  1.00  0.00     0.000 HD 
ENDROOT
BRANCH   2   4
HETATM    4  C4* UNL     1      -8.397   6.854  65.909  1.00  0.00    -0.137 C  
HETATM    5  O4* UNL     1      -8.299   8.129  65.247  1.00  0.00    -0.145 OA 
HETATM    6  C1* UNL     1      -9.124   9.058  65.975  1.00  0.00    -0.208 C  
HETATM    7  H3* UNL     1     -10.442   6.290  68.375  1.00  0.00     0.000 HD 
HETATM    8  C2* UNL     1     -10.233   8.245  66.630  1.00  0.00    -0.333 C  
HETATM    9  C3* UNL     1      -9.748   6.816  66.611  1.00  0.00    -0.158 C  
HETATM   10  O3* UNL     1      -9.599   6.314  67.937  1.00  0.00    -0.119 OA 
BRANCH   6  11
HETATM   11  N   UNL     1      -9.598  10.104  65.085  1.00  0.00    -0.269 NA 
HETATM   12  C   UNL     1      -9.557  10.105  63.718  1.00  0.00    -0.223 A  
HETATM   13  C   UNL     1     -10.434  11.961  64.303  1.00  0.00    -0.326 A  
HETATM   14  N   UNL     1     -10.057  11.209  63.212  1.00  0.00    -0.370 NA 
HETATM   15  C   UNL     1     -10.188  11.281  65.485  1.00  0.00    -0.260 A  
HETATM   16  N   UNL     1     -10.436  11.557  66.788  1.00  0.00    -0.230 NA 
HETATM   17  C   UNL     1     -11.534  12.194  67.028  1.00  0.00    -0.350 C  
HETATM   18  H   UNL     1      -9.797  11.280  67.532  1.00  0.00     0.000 HD 
HETATM   19  N   UNL     1     -12.517  12.680  66.197  1.00  0.00    -0.434 NA 
HETATM   20  C   UNL     1     -12.230  13.605  65.093  1.00  0.00    -0.433 C  
HETATM   21  H   UNL     1     -13.481  12.388  66.355  1.00  0.00     0.000 HD 
HETATM   22  C   UNL     1     -11.019  13.320  64.172  1.00  0.00    -0.354 C  
HETATM   23  O   UNL     1     -10.016  14.333  64.393  1.00  0.00    -0.634 OA 
HETATM   24  H   UNL     1     -10.390  15.203  64.309  1.00  0.00     0.000 HD 
ENDBRANCH   6  11
ENDBRANCH   2   4
TORSDOF 2
ENDMDL
MODEL      105
REMARK 921   NORMALIZED FREE ENERGY PREDICTED BY IDOCK:   -4.47 KCAL/MOL
REMARK 922        TOTAL FREE ENERGY PREDICTED BY IDOCK:   -5.68 KCAL/MOL
REMARK 923 INTER-LIGAND FREE ENERGY PREDICTED BY IDOCK:   -5.17 KCAL/MOL
REMARK 924 INTRA-LIGAND FREE ENERGY PREDICTED BY IDOCK:   -0.51 KCAL/MOL
REMARK 927      BINDING AFFINITY PREDICTED BY RF-SCORE:    0.00 PKD
ROOT
HETATM    1  O5* UNL     1     -11.537   7.518  70.014  1.00  0.00    -0.480 OA 
HETATM    2  C5* UNL     1     -10.476   8.349  69.541  1.00  0.00    -0.224 C  
HETATM    3  H5* UNL     1     -11.710   7.674  70.935  1.00  0.00     0.000 HD 
ENDROOT
BRANCH   2   4
HETATM    4  C4* UNL     1     -10.198   8.098  68.060  1.00  0.00    -0.212 C  
HETATM    5  O4* UNL     1     -10.861   9.099  67.267  1.00  0.00    -0.233 OA 
HETATM    6  C1* UNL     1     -10.080   9.291  66.072  1.00  0.00    -0.192 C  
HETATM    7  H3* UNL     1      -7.284   6.872  67.292  1.00  0.00     0.000 HD 
HETATM    8  C2* UNL     1      -8.638   8.953  66.428  1.00  0.00    -0.136 C  
HETATM    9  C3* UNL     1      -8.718   8.154  67.707  1.00  0.00    -0.130 C  
HETATM   10  O3* UNL     1      -8.208   6.837  67.513  1.00  0.00    -0.120 OA 
BRANCH   6  11
HETATM   11  N   UNL     1     -10.268  10.641  65.568  1.00  0.00    -0.271 NA 
HETATM   12  C   UNL     1     -10.425  11.019  64.264  1.00  0.00    -0.359 A  
HETATM   13  C   UNL     1     -10.481  12.807  65.428  1.00  0.00    -0.286 A  
HETATM   14  N   UNL     1     -10.561  12.320  64.141  1.00  0.00    -0.344 NA 
HETATM   15  C   UNL     1     -10.331  11.777  66.342  1.00  0.00    -0.222 A  
HETATM   16  N   UNL     1     -10.274  11.732  67.695  1.00  0.00    -0.197 NA 
HETATM   17  C   UNL     1     -11.023  12.581  68.317  1.00  0.00    -0.240 C  
HETATM   18  H   UNL     1      -9.678  11.070  68.190  1.00  0.00     0.000 HD 
HETATM   19  N   UNL     1     -11.873  13.564  67.865  1.00  0.00    -0.358 NA 
HETATM   20  C   UNL     1     -11.433  14.629  66.954  1.00  0.00    -0.363 C  
HETATM   21  H   UNL     1     -12.844  13.552  68.174  1.00  0.00     0.000 HD 
HETATM   22  C   UNL     1     -10.550  14.259  65.737  1.00  0.00    -0.309 C  
HETATM   23  O   UNL     1      -9.229  14.803  65.936  1.00  0.00    -0.495 OA 
HETATM   24  H   UNL     1      -9.273  15.732  66.134  1.00  0.00     0.000 HD 
ENDBRANCH   6  11
ENDBRANCH   2   4
TORSDOF 2
ENDMDL
MODEL      106
REMARK 921   NORMALIZED FREE ENERGY PREDICTED BY IDOCK:   -4.46 KCAL/MOL
REMARK 922        TOTAL FREE ENERGY PREDICTED BY IDOCK:   -5.67 KCAL/MOL
REMARK 923 INTER-LIGAND FREE ENERGY PREDICTED BY IDOCK:   -6.35 KCAL/MOL
REMARK 924 INTRA-LIGAND FREE ENERGY PREDICTED BY IDOCK:    0.68 KCAL/MOL
REMARK 927      BINDING AFFINITY PREDICTED BY RF-SCORE:    0.00 PKD
ROOT
HETATM    1  O5* UNL     1     -13.229  13.323  71.231  1.00  0.00    -0.260 OA 
HETATM    2  C5* UNL     1     -12.978  14.684  70.878  1.00  0.00    -0.365 C  
HETATM    3  H5* UNL     1     -14.070  13.230  71.661  1.00  0.00     0.000 HD 
ENDROOT
BRANCH   2   4
HETATM    4  C4* UNL     1     -11.624  14.833  70.186  1.00  0.00    -0.290 C  
HETATM    5  O4* UNL     1     -11.307  13.620  69.477  1.00  0.00    -0.261 OA 
HETATM    6  C1* UNL     1     -10.494  13.982  68.345  1.00  0.00    -0.253 C  
HETATM    7  H3* UNL     1     -10.852  17.790  69.073  1.00  0.00     0.000 HD 
HETATM    8  C2* UNL     1     -10.875  15.407  67.964  1.00  0.00    -0.292 C  
HETATM    9  C3* UNL     1     -11.587  15.968  69.172  1.00  0.00    -0.336 C  
HETATM   10  O3* UNL     1     -10.875  17.082  69.706  1.00  0.00    -0.215 OA 
BRANCH   6  11
HETATM   11  N   UNL     1     -10.670  13.013  67.277  1.00  0.00    -0.248 NA 
HETATM   12  C   UNL     1     -10.763  11.655  67.403  1.00  0.00    -0.234 A  
HETATM   13  C   UNL     1     -10.900  12.084  65.317  1.00  0.00    -0.294 A  
HETATM   14  N   UNL     1     -10.907  11.061  66.240  1.00  0.00    -0.216 NA 
HETATM   15  C   UNL     1     -10.786  13.315  65.939  1.00  0.00    -0.275 A  
HETATM   16  N   UNL     1     -10.799  14.593  65.488  1.00  0.00    -0.325 NA 
HETATM   17  C   UNL     1     -11.588  14.829  64.493  1.00  0.00    -0.361 C  
HETATM   18  H   UNL     1     -10.223  15.322  65.907  1.00  0.00     0.000 HD 
HETATM   19  N   UNL     1     -12.425  14.012  63.767  1.00  0.00    -0.959 NA 
HETATM   20  C   UNL     1     -11.949  12.797  63.093  1.00  0.00    -0.267 C  
HETATM   21  H   UNL     1     -13.411  14.260  63.694  1.00  0.00     0.000 HD 
HETATM   22  C   UNL     1     -11.001  11.838  63.855  1.00  0.00    -0.407 C  
HETATM   23  O   UNL     1      -9.698  11.884  63.237  1.00  0.00    -0.495 OA 
HETATM   24  H   UNL     1      -9.762  11.727  62.302  1.00  0.00     0.000 HD 
ENDBRANCH   6  11
ENDBRANCH   2   4
TORSDOF 2
ENDMDL
MODEL      107
REMARK 921   NORMALIZED FREE ENERGY PREDICTED BY IDOCK:   -4.45 KCAL/MOL
REMARK 922        TOTAL FREE ENERGY PREDICTED BY IDOCK:   -5.66 KCAL/MOL
REMARK 923 INTER-LIGAND FREE ENERGY PREDICTED BY IDOCK:   -4.94 KCAL/MOL
REMARK 924 INTRA-LIGAND FREE ENERGY PREDICTED BY IDOCK:   -0.72 KCAL/MOL
REMARK 927      BINDING AFFINITY PREDICTED BY RF-SCORE:    0.00 PKD
ROOT
HETATM    1  O5* UNL     1      -8.218   8.257  67.320  1.00  0.00    -0.118 OA 
HETATM    2  C5* UNL     1      -7.953   6.865  67.136  1.00  0.00    -0.113 C  
HETATM    3  H5* UNL     1      -8.079   8.741  66.515  1.00  0.00     0.000 HD 
ENDROOT
BRANCH   2   4
HETATM    4  C4* UNL     1      -8.176   6.086  68.431  1.00  0.00    -0.110 C  
HETATM    5  O4* UNL     1      -8.550   6.994  69.484  1.00  0.00    -0.132 OA 
HETATM    6  C1* UNL     1      -9.393   6.269  70.399  1.00  0.00    -0.161 C  
HETATM    7  H3* UNL     1      -9.404   3.087  68.157  1.00  0.00     0.000 HD 
HETATM    8  C2* UNL     1     -10.088   5.180  69.592  1.00  0.00    -0.332 C  
HETATM    9  C3* UNL     1      -9.280   5.043  68.325  1.00  0.00    -0.120 C  
HETATM   10  O3* UNL     1      -8.715   3.738  68.223  1.00  0.00    -0.093 OA 
BRANCH   6  11
HETATM   11  N   UNL     1     -10.301   7.185  71.069  1.00  0.00    -0.197 NA 
HETATM   12  C   UNL     1     -10.684   7.154  72.381  1.00  0.00    -0.241 A  
HETATM   13  C   UNL     1     -11.703   8.803  71.487  1.00  0.00    -0.309 A  
HETATM   14  N   UNL     1     -11.527   8.119  72.671  1.00  0.00    -0.403 NA 
HETATM   15  C   UNL     1     -10.924   8.260  70.478  1.00  0.00    -0.242 A  
HETATM   16  N   UNL     1     -10.698   8.605  69.188  1.00  0.00    -0.376 NA 
HETATM   17  C   UNL     1     -10.673   9.872  68.941  1.00  0.00    -0.221 C  
HETATM   18  H   UNL     1     -10.557   7.908  68.458  1.00  0.00     0.000 HD 
HETATM   19  N   UNL     1     -10.858  10.971  69.748  1.00  0.00    -0.442 NA 
HETATM   20  C   UNL     1     -12.068  11.160  70.558  1.00  0.00    -0.381 C  
HETATM   21  H   UNL     1     -10.127  11.682  69.783  1.00  0.00     0.000 HD 
HETATM   22  C   UNL     1     -12.624   9.961  71.366  1.00  0.00    -0.398 C  
HETATM   23  O   UNL     1     -13.884   9.556  70.790  1.00  0.00    -0.552 OA 
HETATM   24  H   UNL     1     -14.473  10.297  70.712  1.00  0.00     0.000 HD 
ENDBRANCH   6  11
ENDBRANCH   2   4
TORSDOF 2
ENDMDL
MODEL      108
REMARK 921   NORMALIZED FREE ENERGY PREDICTED BY IDOCK:   -4.42 KCAL/MOL
REMARK 922        TOTAL FREE ENERGY PREDICTED BY IDOCK:   -5.62 KCAL/MOL
REMARK 923 INTER-LIGAND FREE ENERGY PREDICTED BY IDOCK:   -5.12 KCAL/MOL
REMARK 924 INTRA-LIGAND FREE ENERGY PREDICTED BY IDOCK:   -0.50 KCAL/MOL
REMARK 927      BINDING AFFINITY PREDICTED BY RF-SCORE:    0.00 PKD
ROOT
HETATM    1  O5* UNL     1     -13.131  12.565  64.684  1.00  0.00    -0.845 OA 
HETATM    2  C5* UNL     1     -12.184  13.182  65.556  1.00  0.00    -0.461 C  
HETATM    3  H5* UNL     1     -13.986  12.969  64.765  1.00  0.00     0.000 HD 
ENDROOT
BRANCH   2   4
HETATM    4  C4* UNL     1     -10.808  12.531  65.426  1.00  0.00    -0.282 C  
HETATM    5  O4* UNL     1     -10.436  11.931  66.680  1.00  0.00    -0.207 OA 
HETATM    6  C1* UNL     1      -9.588  10.805  66.385  1.00  0.00    -0.189 C  
HETATM    7  H3* UNL     1     -10.062  11.222  62.544  1.00  0.00     0.000 HD 
HETATM    8  C2* UNL     1      -9.987  10.301  65.004  1.00  0.00    -0.393 C  
HETATM    9  C3* UNL     1     -10.758  11.434  64.371  1.00  0.00    -0.342 C  
HETATM   10  O3* UNL     1     -10.093  11.906  63.201  1.00  0.00    -0.425 OA 
BRANCH   6  11
HETATM   11  N   UNL     1      -9.700   9.809  67.438  1.00  0.00    -0.157 NA 
HETATM   12  C   UNL     1     -10.376   8.622  67.381  1.00  0.00    -0.284 A  
HETATM   13  C   UNL     1      -9.531   8.750  69.337  1.00  0.00    -0.161 A  
HETATM   14  N   UNL     1     -10.292   7.954  68.509  1.00  0.00    -0.206 NA 
HETATM   15  C   UNL     1      -9.121   9.900  68.683  1.00  0.00    -0.132 A  
HETATM   16  N   UNL     1      -8.323  10.937  69.032  1.00  0.00    -0.262 NA 
HETATM   17  C   UNL     1      -7.316  10.642  69.784  1.00  0.00    -0.108 C  
HETATM   18  H   UNL     1      -8.506  11.891  68.722  1.00  0.00     0.000 HD 
HETATM   19  N   UNL     1      -6.894   9.453  70.334  1.00  0.00    -0.076 NA 
HETATM   20  C   UNL     1      -7.761   8.625  71.182  1.00  0.00    -0.113 C  
HETATM   21  H   UNL     1      -5.943   9.136  70.146  1.00  0.00     0.000 HD 
HETATM   22  C   UNL     1      -9.225   8.377  70.742  1.00  0.00    -0.159 C  
HETATM   23  O   UNL     1     -10.109   9.056  71.657  1.00  0.00    -0.316 OA 
HETATM   24  H   UNL     1      -9.913   8.817  72.556  1.00  0.00     0.000 HD 
ENDBRANCH   6  11
ENDBRANCH   2   4
TORSDOF 2
ENDMDL
MODEL      109
REMARK 921   NORMALIZED FREE ENERGY PREDICTED BY IDOCK:   -4.42 KCAL/MOL
REMARK 922        TOTAL FREE ENERGY PREDICTED BY IDOCK:   -5.62 KCAL/MOL
REMARK 923 INTER-LIGAND FREE ENERGY PREDICTED BY IDOCK:   -5.05 KCAL/MOL
REMARK 924 INTRA-LIGAND FREE ENERGY PREDICTED BY IDOCK:   -0.58 KCAL/MOL
REMARK 927      BINDING AFFINITY PREDICTED BY RF-SCORE:    0.00 PKD
ROOT
HETATM    1  O5* UNL     1      -8.733   9.641  64.248  1.00  0.00    -0.178 OA 
HETATM    2  C5* UNL     1      -7.932   9.139  65.318  1.00  0.00    -0.111 C  
HETATM    3  H5* UNL     1      -8.457   9.277  63.414  1.00  0.00     0.000 HD 
ENDROOT
BRANCH   2   4
HETATM    4  C4* UNL     1      -8.375   9.724  66.659  1.00  0.00    -0.124 C  
HETATM    5  O4* UNL     1      -8.670  11.124  66.500  1.00  0.00    -0.162 OA 
HETATM    6  C1* UNL     1      -9.686  11.463  67.464  1.00  0.00    -0.178 C  
HETATM    7  H3* UNL     1     -10.057   7.770  68.641  1.00  0.00     0.000 HD 
HETATM    8  C2* UNL     1     -10.490  10.195  67.723  1.00  0.00    -0.277 C  
HETATM    9  C3* UNL     1      -9.624   9.063  67.223  1.00  0.00    -0.159 C  
HETATM   10  O3* UNL     1      -9.277   8.183  68.289  1.00  0.00    -0.135 OA 
BRANCH   6  11
HETATM   11  N   UNL     1     -10.477  12.581  66.980  1.00  0.00    -0.230 NA 
HETATM   12  C   UNL     1     -11.840  12.657  66.909  1.00  0.00    -0.355 A  
HETATM   13  C   UNL     1     -11.086  14.500  66.141  1.00  0.00    -0.334 A  
HETATM   14  N   UNL     1     -12.244  13.803  66.411  1.00  0.00    -0.440 NA 
HETATM   15  C   UNL     1      -9.969  13.773  66.516  1.00  0.00    -0.288 A  
HETATM   16  N   UNL     1      -8.641  14.040  66.520  1.00  0.00    -0.425 NA 
HETATM   17  C   UNL     1      -8.314  15.259  66.792  1.00  0.00    -0.223 C  
HETATM   18  H   UNL     1      -7.944  13.324  66.319  1.00  0.00     0.000 HD 
HETATM   19  N   UNL     1      -9.069  16.376  67.066  1.00  0.00    -0.208 NA 
HETATM   20  C   UNL     1     -10.110  16.866  66.153  1.00  0.00    -0.333 C  
HETATM   21  H   UNL     1      -8.899  16.882  67.934  1.00  0.00     0.000 HD 
HETATM   22  C   UNL     1     -11.094  15.851  65.522  1.00  0.00    -0.146 C  
HETATM   23  O   UNL     1     -10.834  15.767  64.106  1.00  0.00    -0.739 OA 
HETATM   24  H   UNL     1     -10.839  16.631  63.710  1.00  0.00     0.000 HD 
ENDBRANCH   6  11
ENDBRANCH   2   4
TORSDOF 2
ENDMDL
MODEL      110
REMARK 921   NORMALIZED FREE ENERGY PREDICTED BY IDOCK:   -4.36 KCAL/MOL
REMARK 922        TOTAL FREE ENERGY PREDICTED BY IDOCK:   -5.56 KCAL/MOL
REMARK 923 INTER-LIGAND FREE ENERGY PREDICTED BY IDOCK:   -5.17 KCAL/MOL
REMARK 924 INTRA-LIGAND FREE ENERGY PREDICTED BY IDOCK:   -0.38 KCAL/MOL
REMARK 927      BINDING AFFINITY PREDICTED BY RF-SCORE:    0.00 PKD
ROOT
HETATM    1  O5* UNL     1      -9.154   8.959  72.028  1.00  0.00    -0.353 OA 
HETATM    2  C5* UNL     1     -10.541   9.211  71.797  1.00  0.00    -0.313 C  
HETATM    3  H5* UNL     1      -8.938   9.050  72.948  1.00  0.00     0.000 HD 
ENDROOT
BRANCH   2   4
HETATM    4  C4* UNL     1     -10.888   9.064  70.316  1.00  0.00    -0.238 C  
HETATM    5  O4* UNL     1     -10.960  10.366  69.705  1.00  0.00    -0.239 OA 
HETATM    6  C1* UNL     1     -10.585  10.215  68.323  1.00  0.00    -0.226 C  
HETATM    7  H3* UNL     1      -9.721   6.447  68.777  1.00  0.00     0.000 HD 
HETATM    8  C2* UNL     1      -9.644   9.020  68.248  1.00  0.00    -0.158 C  
HETATM    9  C3* UNL     1      -9.861   8.258  69.532  1.00  0.00    -0.181 C  
HETATM   10  O3* UNL     1     -10.362   6.950  69.266  1.00  0.00    -0.183 OA 
BRANCH   6  11
HETATM   11  N   UNL     1     -10.014  11.456  67.826  1.00  0.00    -0.175 NA 
HETATM   12  C   UNL     1      -8.708  11.852  67.905  1.00  0.00    -0.167 A  
HETATM   13  C   UNL     1      -9.765  13.427  66.927  1.00  0.00    -0.253 A  
HETATM   14  N   UNL     1      -8.519  13.036  67.369  1.00  0.00    -0.190 NA 
HETATM   15  C   UNL     1     -10.710  12.445  67.170  1.00  0.00    -0.235 A  
HETATM   16  N   UNL     1     -12.026  12.325  66.873  1.00  0.00    -0.593 NA 
HETATM   17  C   UNL     1     -12.394  12.824  65.740  1.00  0.00    -0.323 C  
HETATM   18  H   UNL     1     -12.685  11.868  67.503  1.00  0.00     0.000 HD 
HETATM   19  N   UNL     1     -11.699  13.493  64.759  1.00  0.00    -0.355 NA 
HETATM   20  C   UNL     1     -10.919  14.707  65.035  1.00  0.00    -0.405 C  
HETATM   21  H   UNL     1     -11.727  13.133  63.806  1.00  0.00     0.000 HD 
HETATM   22  C   UNL     1     -10.004  14.744  66.283  1.00  0.00    -0.291 C  
HETATM   23  O   UNL     1     -10.548  15.686  67.231  1.00  0.00    -0.294 OA 
HETATM   24  H   UNL     1     -10.701  16.529  66.820  1.00  0.00     0.000 HD 
ENDBRANCH   6  11
ENDBRANCH   2   4
TORSDOF 2
ENDMDL
MODEL      111
REMARK 921   NORMALIZED FREE ENERGY PREDICTED BY IDOCK:   -4.35 KCAL/MOL
REMARK 922        TOTAL FREE ENERGY PREDICTED BY IDOCK:   -5.55 KCAL/MOL
REMARK 923 INTER-LIGAND FREE ENERGY PREDICTED BY IDOCK:   -5.21 KCAL/MOL
REMARK 924 INTRA-LIGAND FREE ENERGY PREDICTED BY IDOCK:   -0.35 KCAL/MOL
REMARK 927      BINDING AFFINITY PREDICTED BY RF-SCORE:    0.00 PKD
ROOT
HETATM    1  O5* UNL     1     -11.061   4.279  73.345  1.00  0.00    -0.245 OA 
HETATM    2  C5* UNL     1     -11.495   5.575  72.932  1.00  0.00    -0.267 C  
HETATM    3  H5* UNL     1     -11.752   3.817  73.804  1.00  0.00     0.000 HD 
ENDROOT
BRANCH   2   4
HETATM    4  C4* UNL     1     -10.383   6.320  72.193  1.00  0.00    -0.191 C  
HETATM    5  O4* UNL     1     -10.959   7.202  71.213  1.00  0.00    -0.236 OA 
HETATM    6  C1* UNL     1     -10.066   8.321  71.061  1.00  0.00    -0.191 C  
HETATM    7  H3* UNL     1      -7.720   7.069  73.904  1.00  0.00     0.000 HD 
HETATM    8  C2* UNL     1      -9.332   8.484  72.386  1.00  0.00    -0.349 C  
HETATM    9  C3* UNL     1      -9.517   7.172  73.110  1.00  0.00    -0.167 C  
HETATM   10  O3* UNL     1      -8.260   6.536  73.332  1.00  0.00    -0.115 OA 
BRANCH   6  11
HETATM   11  N   UNL     1     -10.810   9.497  70.643  1.00  0.00    -0.280 NA 
HETATM   12  C   UNL     1     -11.969   9.976  71.189  1.00  0.00    -0.392 A  
HETATM   13  C   UNL     1     -11.469  11.281  69.575  1.00  0.00    -0.307 A  
HETATM   14  N   UNL     1     -12.394  11.055  70.571  1.00  0.00    -0.352 NA 
HETATM   15  C   UNL     1     -10.452  10.342  69.617  1.00  0.00    -0.253 A  
HETATM   16  N   UNL     1      -9.306  10.177  68.914  1.00  0.00    -0.169 NA 
HETATM   17  C   UNL     1      -8.701  11.262  68.564  1.00  0.00    -0.156 C  
HETATM   18  H   UNL     1      -8.944   9.253  68.677  1.00  0.00     0.000 HD 
HETATM   19  N   UNL     1      -9.010  12.590  68.749  1.00  0.00    -0.390 NA 
HETATM   20  C   UNL     1     -10.287  13.170  68.315  1.00  0.00    -0.252 C  
HETATM   21  H   UNL     1      -8.326  13.193  69.204  1.00  0.00     0.000 HD 
HETATM   22  C   UNL     1     -11.598  12.399  68.606  1.00  0.00    -0.319 C  
HETATM   23  O   UNL     1     -12.153  11.934  67.358  1.00  0.00    -0.577 OA 
HETATM   24  H   UNL     1     -12.235  12.650  66.738  1.00  0.00     0.000 HD 
ENDBRANCH   6  11
ENDBRANCH   2   4
TORSDOF 2
ENDMDL
MODEL      112
REMARK 921   NORMALIZED FREE ENERGY PREDICTED BY IDOCK:   -4.35 KCAL/MOL
REMARK 922        TOTAL FREE ENERGY PREDICTED BY IDOCK:   -5.55 KCAL/MOL
REMARK 923 INTER-LIGAND FREE ENERGY PREDICTED BY IDOCK:   -5.43 KCAL/MOL
REMARK 924 INTRA-LIGAND FREE ENERGY PREDICTED BY IDOCK:   -0.12 KCAL/MOL
REMARK 927      BINDING AFFINITY PREDICTED BY RF-SCORE:    0.00 PKD
ROOT
HETATM    1  O5* UNL     1      -9.874  16.880  65.375  1.00  0.00    -0.537 OA 
HETATM    2  C5* UNL     1     -10.531  15.813  66.060  1.00  0.00    -0.338 C  
HETATM    3  H5* UNL     1      -9.776  17.639  65.937  1.00  0.00     0.000 HD 
ENDROOT
BRANCH   2   4
HETATM    4  C4* UNL     1     -10.690  14.593  65.155  1.00  0.00    -0.414 C  
HETATM    5  O4* UNL     1      -9.858  13.521  65.638  1.00  0.00    -0.251 OA 
HETATM    6  C1* UNL     1     -10.499  12.282  65.280  1.00  0.00    -0.282 C  
HETATM    7  H3* UNL     1     -13.623  14.104  63.838  1.00  0.00     0.000 HD 
HETATM    8  C2* UNL     1     -11.995  12.563  65.210  1.00  0.00    -0.490 C  
HETATM    9  C3* UNL     1     -12.117  14.064  65.102  1.00  0.00    -0.410 C  
HETATM   10  O3* UNL     1     -12.733  14.434  63.871  1.00  0.00    -0.771 OA 
BRANCH   6  11
HETATM   11  N   UNL     1     -10.132  11.242  66.225  1.00  0.00    -0.222 NA 
HETATM   12  C   UNL     1     -10.325   9.896  66.086  1.00  0.00    -0.153 A  
HETATM   13  C   UNL     1      -9.398  10.185  67.987  1.00  0.00    -0.141 A  
HETATM   14  N   UNL     1      -9.890   9.225  67.129  1.00  0.00    -0.181 NA 
HETATM   15  C   UNL     1      -9.507  11.450  67.434  1.00  0.00    -0.167 A  
HETATM   16  N   UNL     1      -9.117  12.682  67.840  1.00  0.00    -0.192 NA 
HETATM   17  C   UNL     1      -8.003  12.732  68.491  1.00  0.00    -0.095 C  
HETATM   18  H   UNL     1      -9.669  13.517  67.645  1.00  0.00     0.000 HD 
HETATM   19  N   UNL     1      -7.121  11.752  68.883  1.00  0.00    -0.111 NA 
HETATM   20  C   UNL     1      -7.534  10.597  69.692  1.00  0.00    -0.115 C  
HETATM   21  H   UNL     1      -6.144  11.830  68.602  1.00  0.00     0.000 HD 
HETATM   22  C   UNL     1      -8.838   9.850  69.321  1.00  0.00    -0.174 C  
HETATM   23  O   UNL     1      -9.815  10.076  70.358  1.00  0.00    -0.381 OA 
HETATM   24  H   UNL     1      -9.457   9.861  71.211  1.00  0.00     0.000 HD 
ENDBRANCH   6  11
ENDBRANCH   2   4
TORSDOF 2
ENDMDL
MODEL      113
REMARK 921   NORMALIZED FREE ENERGY PREDICTED BY IDOCK:   -4.35 KCAL/MOL
REMARK 922        TOTAL FREE ENERGY PREDICTED BY IDOCK:   -5.55 KCAL/MOL
REMARK 923 INTER-LIGAND FREE ENERGY PREDICTED BY IDOCK:   -5.10 KCAL/MOL
REMARK 924 INTRA-LIGAND FREE ENERGY PREDICTED BY IDOCK:   -0.45 KCAL/MOL
REMARK 927      BINDING AFFINITY PREDICTED BY RF-SCORE:    0.00 PKD
ROOT
HETATM    1  O5* UNL     1     -10.929  16.938  69.352  1.00  0.00    -0.323 OA 
HETATM    2  C5* UNL     1     -11.300  15.804  68.568  1.00  0.00    -0.374 C  
HETATM    3  H5* UNL     1     -11.525  17.060  70.081  1.00  0.00     0.000 HD 
ENDROOT
BRANCH   2   4
HETATM    4  C4* UNL     1     -10.340  15.608  67.395  1.00  0.00    -0.275 C  
HETATM    5  O4* UNL     1      -9.933  14.228  67.329  1.00  0.00    -0.246 OA 
HETATM    6  C1* UNL     1      -9.663  13.924  65.947  1.00  0.00    -0.214 C  
HETATM    7  H3* UNL     1     -10.846  17.435  64.752  1.00  0.00     0.000 HD 
HETATM    8  C2* UNL     1     -10.538  14.850  65.112  1.00  0.00    -0.450 C  
HETATM    9  C3* UNL     1     -10.956  15.959  66.047  1.00  0.00    -0.139 C  
HETATM   10  O3* UNL     1     -10.461  17.217  65.593  1.00  0.00    -0.541 OA 
BRANCH   6  11
HETATM   11  N   UNL     1      -9.886  12.509  65.698  1.00  0.00    -0.248 NA 
HETATM   12  C   UNL     1     -10.445  11.946  64.585  1.00  0.00    -0.295 A  
HETATM   13  C   UNL     1      -9.981  10.341  65.913  1.00  0.00    -0.256 A  
HETATM   14  N   UNL     1     -10.515  10.637  64.678  1.00  0.00    -0.291 NA 
HETATM   15  C   UNL     1      -9.551  11.489  66.558  1.00  0.00    -0.205 A  
HETATM   16  N   UNL     1      -8.913  11.715  67.732  1.00  0.00    -0.164 NA 
HETATM   17  C   UNL     1      -8.039  10.829  68.076  1.00  0.00    -0.114 C  
HETATM   18  H   UNL     1      -9.111  12.533  68.307  1.00  0.00     0.000 HD 
HETATM   19  N   UNL     1      -7.631   9.658  67.480  1.00  0.00    -0.094 NA 
HETATM   20  C   UNL     1      -8.570   8.584  67.129  1.00  0.00    -0.122 C  
HETATM   21  H   UNL     1      -6.641   9.530  67.277  1.00  0.00     0.000 HD 
HETATM   22  C   UNL     1      -9.905   8.953  66.437  1.00  0.00    -0.283 C  
HETATM   23  O   UNL     1     -10.991   8.690  67.349  1.00  0.00    -0.464 OA 
HETATM   24  H   UNL     1     -10.943   7.802  67.684  1.00  0.00     0.000 HD 
ENDBRANCH   6  11
ENDBRANCH   2   4
TORSDOF 2
ENDMDL
MODEL      114
REMARK 921   NORMALIZED FREE ENERGY PREDICTED BY IDOCK:   -4.35 KCAL/MOL
REMARK 922        TOTAL FREE ENERGY PREDICTED BY IDOCK:   -5.55 KCAL/MOL
REMARK 923 INTER-LIGAND FREE ENERGY PREDICTED BY IDOCK:   -5.24 KCAL/MOL
REMARK 924 INTRA-LIGAND FREE ENERGY PREDICTED BY IDOCK:   -0.31 KCAL/MOL
REMARK 927      BINDING AFFINITY PREDICTED BY RF-SCORE:    0.00 PKD
ROOT
HETATM    1  O5* UNL     1     -11.141  10.544  69.158  1.00  0.00    -0.219 OA 
HETATM    2  C5* UNL     1     -11.004  11.666  68.286  1.00  0.00    -0.226 C  
HETATM    3  H5* UNL     1     -11.271   9.742  68.666  1.00  0.00     0.000 HD 
ENDROOT
BRANCH   2   4
HETATM    4  C4* UNL     1     -10.794  12.957  69.077  1.00  0.00    -0.145 C  
HETATM    5  O4* UNL     1      -9.873  13.811  68.374  1.00  0.00    -0.224 OA 
HETATM    6  C1* UNL     1     -10.217  15.172  68.695  1.00  0.00    -0.227 C  
HETATM    7  H3* UNL     1     -13.341  14.092  70.750  1.00  0.00     0.000 HD 
HETATM    8  C2* UNL     1     -11.707  15.190  69.009  1.00  0.00    -0.358 C  
HETATM    9  C3* UNL     1     -12.076  13.752  69.283  1.00  0.00    -0.329 C  
HETATM   10  O3* UNL     1     -12.542  13.596  70.622  1.00  0.00    -0.327 OA 
BRANCH   6  11
HETATM   11  N   UNL     1      -9.827  16.053  67.607  1.00  0.00    -0.233 NA 
HETATM   12  C   UNL     1      -9.668  15.716  66.291  1.00  0.00    -0.301 A  
HETATM   13  C   UNL     1      -9.204  17.794  66.450  1.00  0.00    -0.240 A  
HETATM   14  N   UNL     1      -9.296  16.744  65.562  1.00  0.00    -0.374 NA 
HETATM   15  C   UNL     1      -9.561  17.397  67.728  1.00  0.00    -0.264 A  
HETATM   16  N   UNL     1      -9.696  18.056  68.904  1.00  0.00    -0.306 NA 
HETATM   17  C   UNL     1     -10.149  19.262  68.824  1.00  0.00    -0.401 C  
HETATM   18  H   UNL     1      -9.454  17.625  69.796  1.00  0.00     0.000 HD 
HETATM   19  N   UNL     1     -10.511  20.041  67.749  1.00  0.00    -0.359 NA 
HETATM   20  C   UNL     1      -9.597  20.316  66.633  1.00  0.00    -0.388 C  
HETATM   21  H   UNL     1     -11.448  20.441  67.727  1.00  0.00     0.000 HD 
HETATM   22  C   UNL     1      -8.769  19.152  66.035  1.00  0.00    -0.090 C  
HETATM   23  O   UNL     1      -7.377  19.362  66.349  1.00  0.00    -0.228 OA 
HETATM   24  H   UNL     1      -7.098  20.231  66.084  1.00  0.00     0.000 HD 
ENDBRANCH   6  11
ENDBRANCH   2   4
TORSDOF 2
ENDMDL
MODEL      115
REMARK 921   NORMALIZED FREE ENERGY PREDICTED BY IDOCK:   -4.34 KCAL/MOL
REMARK 922        TOTAL FREE ENERGY PREDICTED BY IDOCK:   -5.54 KCAL/MOL
REMARK 923 INTER-LIGAND FREE ENERGY PREDICTED BY IDOCK:   -5.22 KCAL/MOL
REMARK 924 INTRA-LIGAND FREE ENERGY PREDICTED BY IDOCK:   -0.32 KCAL/MOL
REMARK 927      BINDING AFFINITY PREDICTED BY RF-SCORE:    0.00 PKD
ROOT
HETATM    1  O5* UNL     1      -8.389  10.831  64.756  1.00  0.00    -0.325 OA 
HETATM    2  C5* UNL     1      -8.984  11.590  65.809  1.00  0.00    -0.115 C  
HETATM    3  H5* UNL     1      -7.654  11.295  64.372  1.00  0.00     0.000 HD 
ENDROOT
BRANCH   2   4
HETATM    4  C4* UNL     1     -10.166  10.844  66.426  1.00  0.00    -0.238 C  
HETATM    5  O4* UNL     1      -9.682   9.811  67.304  1.00  0.00    -0.158 OA 
HETATM    6  C1* UNL     1     -10.666   9.628  68.339  1.00  0.00    -0.209 C  
HETATM    7  H3* UNL     1     -12.848  12.579  67.040  1.00  0.00     0.000 HD 
HETATM    8  C2* UNL     1     -11.385  10.961  68.506  1.00  0.00    -0.367 C  
HETATM    9  C3* UNL     1     -11.081  11.740  67.249  1.00  0.00    -0.287 C  
HETATM   10  O3* UNL     1     -12.277  12.020  66.526  1.00  0.00    -0.548 OA 
BRANCH   6  11
HETATM   11  N   UNL     1     -10.028   9.140  69.550  1.00  0.00    -0.182 NA 
HETATM   12  C   UNL     1      -8.931   9.666  70.173  1.00  0.00    -0.236 A  
HETATM   13  C   UNL     1      -9.519   7.959  71.311  1.00  0.00    -0.157 A  
HETATM   14  N   UNL     1      -8.597   8.981  71.243  1.00  0.00    -0.292 NA 
HETATM   15  C   UNL     1     -10.443   8.053  70.285  1.00  0.00    -0.222 A  
HETATM   16  N   UNL     1     -11.554   7.348  69.963  1.00  0.00    -0.499 NA 
HETATM   17  C   UNL     1     -12.252   6.914  70.959  1.00  0.00    -0.377 C  
HETATM   18  H   UNL     1     -11.822   7.170  68.996  1.00  0.00     0.000 HD 
HETATM   19  N   UNL     1     -12.074   7.011  72.320  1.00  0.00    -0.476 NA 
HETATM   20  C   UNL     1     -10.848   6.554  72.989  1.00  0.00    -0.261 C  
HETATM   21  H   UNL     1     -12.820   7.414  72.885  1.00  0.00     0.000 HD 
HETATM   22  C   UNL     1      -9.476   6.916  72.369  1.00  0.00    -0.139 C  
HETATM   23  O   UNL     1      -8.856   5.711  71.875  1.00  0.00    -0.134 OA 
HETATM   24  H   UNL     1      -8.828   5.044  72.551  1.00  0.00     0.000 HD 
ENDBRANCH   6  11
ENDBRANCH   2   4
TORSDOF 2
ENDMDL
MODEL      116
REMARK 921   NORMALIZED FREE ENERGY PREDICTED BY IDOCK:   -4.34 KCAL/MOL
REMARK 922        TOTAL FREE ENERGY PREDICTED BY IDOCK:   -5.54 KCAL/MOL
REMARK 923 INTER-LIGAND FREE ENERGY PREDICTED BY IDOCK:   -4.99 KCAL/MOL
REMARK 924 INTRA-LIGAND FREE ENERGY PREDICTED BY IDOCK:   -0.55 KCAL/MOL
REMARK 927      BINDING AFFINITY PREDICTED BY RF-SCORE:    0.00 PKD
ROOT
HETATM    1  O5* UNL     1     -10.350   6.514  66.199  1.00  0.00    -0.425 OA 
HETATM    2  C5* UNL     1     -10.029   5.837  67.415  1.00  0.00    -0.150 C  
HETATM    3  H5* UNL     1     -10.637   5.902  65.532  1.00  0.00     0.000 HD 
ENDROOT
BRANCH   2   4
HETATM    4  C4* UNL     1      -9.566   6.822  68.488  1.00  0.00    -0.130 C  
HETATM    5  O4* UNL     1      -9.736   8.170  68.013  1.00  0.00    -0.153 OA 
HETATM    6  C1* UNL     1      -9.982   9.004  69.161  1.00  0.00    -0.185 C  
HETATM    7  H3* UNL     1     -10.045   5.961  71.587  1.00  0.00     0.000 HD 
HETATM    8  C2* UNL     1     -10.638   8.122  70.215  1.00  0.00    -0.228 C  
HETATM    9  C3* UNL     1     -10.344   6.704  69.791  1.00  0.00    -0.193 C  
HETATM   10  O3* UNL     1      -9.559   6.034  70.774  1.00  0.00    -0.166 OA 
BRANCH   6  11
HETATM   11  N   UNL     1     -10.774  10.160  68.774  1.00  0.00    -0.210 NA 
HETATM   12  C   UNL     1     -11.869  10.662  69.420  1.00  0.00    -0.253 A  
HETATM   13  C   UNL     1     -11.555  11.893  67.704  1.00  0.00    -0.312 A  
HETATM   14  N   UNL     1     -12.365  11.711  68.805  1.00  0.00    -0.298 NA 
HETATM   15  C   UNL     1     -10.534  10.957  67.679  1.00  0.00    -0.209 A  
HETATM   16  N   UNL     1      -9.470  10.761  66.864  1.00  0.00    -0.167 NA 
HETATM   17  C   UNL     1      -8.912  11.830  66.401  1.00  0.00    -0.201 C  
HETATM   18  H   UNL     1      -9.131   9.829  66.630  1.00  0.00     0.000 HD 
HETATM   19  N   UNL     1      -9.207  13.165  66.559  1.00  0.00    -0.393 NA 
HETATM   20  C   UNL     1     -10.527  13.724  66.240  1.00  0.00    -0.291 C  
HETATM   21  H   UNL     1      -8.481  13.789  66.910  1.00  0.00     0.000 HD 
HETATM   22  C   UNL     1     -11.795  12.966  66.706  1.00  0.00    -0.385 C  
HETATM   23  O   UNL     1     -12.478  12.445  65.548  1.00  0.00    -0.643 OA 
HETATM   24  H   UNL     1     -12.632  13.131  64.909  1.00  0.00     0.000 HD 
ENDBRANCH   6  11
ENDBRANCH   2   4
TORSDOF 2
ENDMDL
MODEL      117
REMARK 921   NORMALIZED FREE ENERGY PREDICTED BY IDOCK:   -4.29 KCAL/MOL
REMARK 922        TOTAL FREE ENERGY PREDICTED BY IDOCK:   -5.48 KCAL/MOL
REMARK 923 INTER-LIGAND FREE ENERGY PREDICTED BY IDOCK:   -5.30 KCAL/MOL
REMARK 924 INTRA-LIGAND FREE ENERGY PREDICTED BY IDOCK:   -0.18 KCAL/MOL
REMARK 927      BINDING AFFINITY PREDICTED BY RF-SCORE:    0.00 PKD
ROOT
HETATM    1  O5* UNL     1     -12.528  14.185  67.301  1.00  0.00    -0.569 OA 
HETATM    2  C5* UNL     1     -11.163  14.191  66.884  1.00  0.00    -0.317 C  
HETATM    3  H5* UNL     1     -12.597  14.222  68.248  1.00  0.00     0.000 HD 
ENDROOT
BRANCH   2   4
HETATM    4  C4* UNL     1     -11.052  14.130  65.361  1.00  0.00    -0.321 C  
HETATM    5  O4* UNL     1     -10.018  13.201  64.988  1.00  0.00    -0.239 OA 
HETATM    6  C1* UNL     1     -10.379  12.642  63.711  1.00  0.00    -0.330 C  
HETATM    7  H3* UNL     1     -13.803  14.495  63.664  1.00  0.00     0.000 HD 
HETATM    8  C2* UNL     1     -11.900  12.682  63.626  1.00  0.00    -0.606 C  
HETATM    9  C3* UNL     1     -12.334  13.670  64.681  1.00  0.00    -0.371 C  
HETATM   10  O3* UNL     1     -13.003  14.782  64.089  1.00  0.00    -0.550 OA 
BRANCH   6  11
HETATM   11  N   UNL     1      -9.810  11.312  63.572  1.00  0.00    -0.321 NA 
HETATM   12  C   UNL     1      -9.877  10.497  62.476  1.00  0.00    -0.001 A  
HETATM   13  C   UNL     1      -8.791   9.425  63.968  1.00  0.00    -0.177 A  
HETATM   14  N   UNL     1      -9.269   9.350  62.678  1.00  0.00    -0.134 NA 
HETATM   15  C   UNL     1      -9.087  10.652  64.539  1.00  0.00    -0.217 A  
HETATM   16  N   UNL     1      -8.785  11.223  65.729  1.00  0.00    -0.323 NA 
HETATM   17  C   UNL     1      -7.620  10.941  66.208  1.00  0.00    -0.136 C  
HETATM   18  H   UNL     1      -9.436  11.838  66.216  1.00  0.00     0.000 HD 
HETATM   19  N   UNL     1      -6.605  10.134  65.747  1.00  0.00    -0.101 NA 
HETATM   20  C   UNL     1      -6.810   8.715  65.426  1.00  0.00    -0.071 C  
HETATM   21  H   UNL     1      -5.676  10.536  65.624  1.00  0.00     0.000 HD 
HETATM   22  C   UNL     1      -8.063   8.303  64.615  1.00  0.00    -0.150 C  
HETATM   23  O   UNL     1      -8.944   7.546  65.470  1.00  0.00    -0.368 OA 
HETATM   24  H   UNL     1      -8.478   6.828  65.884  1.00  0.00     0.000 HD 
ENDBRANCH   6  11
ENDBRANCH   2   4
TORSDOF 2
ENDMDL
MODEL      118
REMARK 921   NORMALIZED FREE ENERGY PREDICTED BY IDOCK:   -4.25 KCAL/MOL
REMARK 922        TOTAL FREE ENERGY PREDICTED BY IDOCK:   -5.44 KCAL/MOL
REMARK 923 INTER-LIGAND FREE ENERGY PREDICTED BY IDOCK:   -5.12 KCAL/MOL
REMARK 924 INTRA-LIGAND FREE ENERGY PREDICTED BY IDOCK:   -0.32 KCAL/MOL
REMARK 927      BINDING AFFINITY PREDICTED BY RF-SCORE:    0.00 PKD
ROOT
HETATM    1  O5* UNL     1     -10.487  14.234  69.191  1.00  0.00    -0.313 OA 
HETATM    2  C5* UNL     1     -11.645  14.288  68.357  1.00  0.00    -0.320 C  
HETATM    3  H5* UNL     1     -10.717  14.364  70.104  1.00  0.00     0.000 HD 
ENDROOT
BRANCH   2   4
HETATM    4  C4* UNL     1     -11.276  14.078  66.889  1.00  0.00    -0.313 C  
HETATM    5  O4* UNL     1     -10.050  13.330  66.800  1.00  0.00    -0.248 OA 
HETATM    6  C1* UNL     1     -10.094  12.572  65.577  1.00  0.00    -0.265 C  
HETATM    7  H3* UNL     1     -13.732  13.712  64.787  1.00  0.00     0.000 HD 
HETATM    8  C2* UNL     1     -11.563  12.308  65.273  1.00  0.00    -0.405 C  
HETATM    9  C3* UNL     1     -12.330  13.306  66.107  1.00  0.00    -0.358 C  
HETATM   10  O3* UNL     1     -13.074  14.194  65.275  1.00  0.00    -0.763 OA 
BRANCH   6  11
HETATM   11  N   UNL     1      -9.288  11.370  65.708  1.00  0.00    -0.226 NA 
HETATM   12  C   UNL     1      -9.017  10.681  66.857  1.00  0.00    -0.137 A  
HETATM   13  C   UNL     1      -8.000   9.662  65.281  1.00  0.00    -0.115 A  
HETATM   14  N   UNL     1      -8.245   9.641  66.637  1.00  0.00    -0.119 NA 
HETATM   15  C   UNL     1      -8.665  10.713  64.672  1.00  0.00    -0.152 A  
HETATM   16  N   UNL     1      -8.795  11.112  63.384  1.00  0.00    -0.418 NA 
HETATM   17  C   UNL     1      -8.856  10.166  62.506  1.00  0.00    -0.240 C  
HETATM   18  H   UNL     1      -8.843  12.096  63.123  1.00  0.00     0.000 HD 
HETATM   19  N   UNL     1      -8.790   8.797  62.622  1.00  0.00    -0.435 NA 
HETATM   20  C   UNL     1      -7.662   8.114  63.271  1.00  0.00    -0.143 C  
HETATM   21  H   UNL     1      -9.551   8.235  62.243  1.00  0.00     0.000 HD 
HETATM   22  C   UNL     1      -7.124   8.665  64.614  1.00  0.00    -0.081 C  
HETATM   23  O   UNL     1      -5.804   9.206  64.399  1.00  0.00    -0.067 OA 
HETATM   24  H   UNL     1      -5.243   8.568  63.972  1.00  0.00     0.000 HD 
ENDBRANCH   6  11
ENDBRANCH   2   4
TORSDOF 2
ENDMDL
MODEL      119
REMARK 921   NORMALIZED FREE ENERGY PREDICTED BY IDOCK:   -4.24 KCAL/MOL
REMARK 922        TOTAL FREE ENERGY PREDICTED BY IDOCK:   -5.43 KCAL/MOL
REMARK 923 INTER-LIGAND FREE ENERGY PREDICTED BY IDOCK:   -4.90 KCAL/MOL
REMARK 924 INTRA-LIGAND FREE ENERGY PREDICTED BY IDOCK:   -0.53 KCAL/MOL
REMARK 927      BINDING AFFINITY PREDICTED BY RF-SCORE:    0.00 PKD
ROOT
HETATM    1  O5* UNL     1     -11.724  13.741  68.261  1.00  0.00    -0.318 OA 
HETATM    2  C5* UNL     1     -12.030  12.354  68.109  1.00  0.00    -0.214 C  
HETATM    3  H5* UNL     1     -12.517  14.263  68.309  1.00  0.00     0.000 HD 
ENDROOT
BRANCH   2   4
HETATM    4  C4* UNL     1     -10.756  11.514  68.031  1.00  0.00    -0.202 C  
HETATM    5  O4* UNL     1     -10.771  10.515  69.067  1.00  0.00    -0.196 OA 
HETATM    6  C1* UNL     1     -10.027   9.381  68.584  1.00  0.00    -0.173 C  
HETATM    7  H3* UNL     1      -9.520  10.979  65.071  1.00  0.00     0.000 HD 
HETATM    8  C2* UNL     1     -10.148   9.387  67.066  1.00  0.00    -0.304 C  
HETATM    9  C3* UNL     1     -10.597  10.783  66.705  1.00  0.00    -0.250 C  
HETATM   10  O3* UNL     1      -9.619  11.435  65.898  1.00  0.00    -0.213 OA 
BRANCH   6  11
HETATM   11  N   UNL     1     -10.511   8.164  69.215  1.00  0.00    -0.222 NA 
HETATM   12  C   UNL     1     -10.941   7.027  68.591  1.00  0.00    -0.090 A  
HETATM   13  C   UNL     1     -11.142   6.685  70.688  1.00  0.00    -0.298 A  
HETATM   14  N   UNL     1     -11.326   6.109  69.449  1.00  0.00    -0.412 NA 
HETATM   15  C   UNL     1     -10.604   7.955  70.572  1.00  0.00    -0.223 A  
HETATM   16  N   UNL     1     -10.189   8.878  71.473  1.00  0.00    -0.300 NA 
HETATM   17  C   UNL     1      -9.632   8.410  72.540  1.00  0.00    -0.288 C  
HETATM   18  H   UNL     1     -10.310   9.878  71.319  1.00  0.00     0.000 HD 
HETATM   19  N   UNL     1      -9.389   7.123  72.963  1.00  0.00    -0.145 NA 
HETATM   20  C   UNL     1     -10.455   6.120  73.088  1.00  0.00    -0.236 C  
HETATM   21  H   UNL     1      -8.434   6.857  73.200  1.00  0.00     0.000 HD 
HETATM   22  C   UNL     1     -11.497   5.987  71.951  1.00  0.00    -0.269 C  
HETATM   23  O   UNL     1     -12.779   6.433  72.439  1.00  0.00    -0.547 OA 
HETATM   24  H   UNL     1     -13.006   5.987  73.247  1.00  0.00     0.000 HD 
ENDBRANCH   6  11
ENDBRANCH   2   4
TORSDOF 2
ENDMDL
MODEL      120
REMARK 921   NORMALIZED FREE ENERGY PREDICTED BY IDOCK:   -4.23 KCAL/MOL
REMARK 922        TOTAL FREE ENERGY PREDICTED BY IDOCK:   -5.42 KCAL/MOL
REMARK 923 INTER-LIGAND FREE ENERGY PREDICTED BY IDOCK:   -4.89 KCAL/MOL
REMARK 924 INTRA-LIGAND FREE ENERGY PREDICTED BY IDOCK:   -0.53 KCAL/MOL
REMARK 927      BINDING AFFINITY PREDICTED BY RF-SCORE:    0.00 PKD
ROOT
HETATM    1  O5* UNL     1      -9.146   7.165  65.383  1.00  0.00    -0.376 OA 
HETATM    2  C5* UNL     1      -8.349   6.736  66.488  1.00  0.00    -0.121 C  
HETATM    3  H5* UNL     1      -9.456   6.424  64.877  1.00  0.00     0.000 HD 
ENDROOT
BRANCH   2   4
HETATM    4  C4* UNL     1      -7.850   7.929  67.303  1.00  0.00    -0.113 C  
HETATM    5  O4* UNL     1      -8.957   8.545  67.987  1.00  0.00    -0.140 OA 
HETATM    6  C1* UNL     1      -8.445   9.127  69.200  1.00  0.00    -0.132 C  
HETATM    7  H3* UNL     1      -4.877   7.690  68.601  1.00  0.00     0.000 HD 
HETATM    8  C2* UNL     1      -7.227   8.307  69.604  1.00  0.00    -0.061 C  
HETATM    9  C3* UNL     1      -6.825   7.548  68.362  1.00  0.00    -0.063 C  
HETATM   10  O3* UNL     1      -5.517   7.927  67.940  1.00  0.00    -0.031 OA 
BRANCH   6  11
HETATM   11  N   UNL     1      -9.491   9.176  70.207  1.00  0.00    -0.201 NA 
HETATM   12  C   UNL     1      -9.500   8.541  71.418  1.00  0.00    -0.213 A  
HETATM   13  C   UNL     1     -11.345   9.605  71.275  1.00  0.00    -0.388 A  
HETATM   14  N   UNL     1     -10.602   8.781  72.092  1.00  0.00    -0.343 NA 
HETATM   15  C   UNL     1     -10.661   9.894  70.105  1.00  0.00    -0.297 A  
HETATM   16  N   UNL     1     -10.927  10.690  69.042  1.00  0.00    -0.229 NA 
HETATM   17  C   UNL     1     -11.552  11.788  69.306  1.00  0.00    -0.315 C  
HETATM   18  H   UNL     1     -10.652  10.437  68.094  1.00  0.00     0.000 HD 
HETATM   19  N   UNL     1     -12.034  12.315  70.483  1.00  0.00    -0.512 NA 
HETATM   20  C   UNL     1     -12.967  11.583  71.349  1.00  0.00    -0.348 C  
HETATM   21  H   UNL     1     -11.731  13.247  70.763  1.00  0.00     0.000 HD 
HETATM   22  C   UNL     1     -12.699  10.088  71.648  1.00  0.00    -0.435 C  
HETATM   23  O   UNL     1     -13.720   9.294  71.009  1.00  0.00    -0.574 OA 
HETATM   24  H   UNL     1     -14.586   9.603  71.248  1.00  0.00     0.000 HD 
ENDBRANCH   6  11
ENDBRANCH   2   4
TORSDOF 2
ENDMDL
MODEL      121
REMARK 921   NORMALIZED FREE ENERGY PREDICTED BY IDOCK:   -4.21 KCAL/MOL
REMARK 922        TOTAL FREE ENERGY PREDICTED BY IDOCK:   -5.40 KCAL/MOL
REMARK 923 INTER-LIGAND FREE ENERGY PREDICTED BY IDOCK:   -5.00 KCAL/MOL
REMARK 924 INTRA-LIGAND FREE ENERGY PREDICTED BY IDOCK:   -0.39 KCAL/MOL
REMARK 927      BINDING AFFINITY PREDICTED BY RF-SCORE:    0.00 PKD
ROOT
HETATM    1  O5* UNL     1     -10.155  10.027  63.688  1.00  0.00    -0.466 OA 
HETATM    2  C5* UNL     1     -10.076  10.529  65.023  1.00  0.00    -0.321 C  
HETATM    3  H5* UNL     1      -9.666   9.218  63.597  1.00  0.00     0.000 HD 
ENDROOT
BRANCH   2   4
HETATM    4  C4* UNL     1     -10.861  11.832  65.169  1.00  0.00    -0.297 C  
HETATM    5  O4* UNL     1     -10.297  12.620  66.234  1.00  0.00    -0.245 OA 
HETATM    6  C1* UNL     1     -10.528  14.005  65.915  1.00  0.00    -0.309 C  
HETATM    7  H3* UNL     1     -12.075  13.138  62.449  1.00  0.00     0.000 HD 
HETATM    8  C2* UNL     1     -10.596  14.103  64.396  1.00  0.00    -0.120 C  
HETATM    9  C3* UNL     1     -10.840  12.693  63.914  1.00  0.00    -0.429 C  
HETATM   10  O3* UNL     1     -12.089  12.600  63.232  1.00  0.00    -0.521 OA 
BRANCH   6  11
HETATM   11  N   UNL     1      -9.497  14.832  66.519  1.00  0.00    -0.277 NA 
HETATM   12  C   UNL     1      -8.266  14.427  66.955  1.00  0.00    -0.109 A  
HETATM   13  C   UNL     1      -8.398  16.519  67.358  1.00  0.00    -0.170 A  
HETATM   14  N   UNL     1      -7.573  15.420  67.465  1.00  0.00    -0.163 NA 
HETATM   15  C   UNL     1      -9.593  16.186  66.742  1.00  0.00    -0.240 A  
HETATM   16  N   UNL     1     -10.675  16.905  66.356  1.00  0.00    -0.160 NA 
HETATM   17  C   UNL     1     -10.432  18.096  65.921  1.00  0.00    -0.283 C  
HETATM   18  H   UNL     1     -11.621  16.529  66.407  1.00  0.00     0.000 HD 
HETATM   19  N   UNL     1      -9.261  18.807  65.788  1.00  0.00    -0.311 NA 
HETATM   20  C   UNL     1      -8.349  19.040  66.915  1.00  0.00    -0.277 C  
HETATM   21  H   UNL     1      -9.019  19.187  64.874  1.00  0.00     0.000 HD 
HETATM   22  C   UNL     1      -8.007  17.861  67.860  1.00  0.00    -0.235 C  
HETATM   23  O   UNL     1      -8.594  18.116  69.153  1.00  0.00    -0.068 OA 
HETATM   24  H   UNL     1      -8.344  18.974  69.474  1.00  0.00     0.000 HD 
ENDBRANCH   6  11
ENDBRANCH   2   4
TORSDOF 2
ENDMDL
MODEL      122
REMARK 921   NORMALIZED FREE ENERGY PREDICTED BY IDOCK:   -4.21 KCAL/MOL
REMARK 922        TOTAL FREE ENERGY PREDICTED BY IDOCK:   -5.39 KCAL/MOL
REMARK 923 INTER-LIGAND FREE ENERGY PREDICTED BY IDOCK:   -4.85 KCAL/MOL
REMARK 924 INTRA-LIGAND FREE ENERGY PREDICTED BY IDOCK:   -0.54 KCAL/MOL
REMARK 927      BINDING AFFINITY PREDICTED BY RF-SCORE:    0.00 PKD
ROOT
HETATM    1  O5* UNL     1     -12.011   4.979  73.254  1.00  0.00    -0.493 OA 
HETATM    2  C5* UNL     1     -11.448   6.079  72.539  1.00  0.00    -0.290 C  
HETATM    3  H5* UNL     1     -12.433   5.270  74.054  1.00  0.00     0.000 HD 
ENDROOT
BRANCH   2   4
HETATM    4  C4* UNL     1     -10.769   5.611  71.253  1.00  0.00    -0.244 C  
HETATM    5  O4* UNL     1     -11.241   6.396  70.143  1.00  0.00    -0.325 OA 
HETATM    6  C1* UNL     1     -10.177   6.459  69.174  1.00  0.00    -0.182 C  
HETATM    7  H3* UNL     1      -7.702   4.557  71.501  1.00  0.00     0.000 HD 
HETATM    8  C2* UNL     1      -8.870   6.324  69.945  1.00  0.00    -0.141 C  
HETATM    9  C3* UNL     1      -9.253   5.748  71.286  1.00  0.00    -0.146 C  
HETATM   10  O3* UNL     1      -8.648   4.471  71.480  1.00  0.00    -0.110 OA 
BRANCH   6  11
HETATM   11  N   UNL     1     -10.286   7.680  68.395  1.00  0.00    -0.196 NA 
HETATM   12  C   UNL     1     -10.142   7.811  67.042  1.00  0.00    -0.273 A  
HETATM   13  C   UNL     1     -10.535   9.765  67.804  1.00  0.00    -0.246 A  
HETATM   14  N   UNL     1     -10.290   9.055  66.648  1.00  0.00    -0.251 NA 
HETATM   15  C   UNL     1     -10.571   8.926  68.905  1.00  0.00    -0.165 A  
HETATM   16  N   UNL     1     -10.836   9.124  70.219  1.00  0.00    -0.237 NA 
HETATM   17  C   UNL     1     -11.739  10.007  70.483  1.00  0.00    -0.318 C  
HETATM   18  H   UNL     1     -10.352   8.607  70.953  1.00  0.00     0.000 HD 
HETATM   19  N   UNL     1     -12.491  10.827  69.673  1.00  0.00    -0.516 NA 
HETATM   20  C   UNL     1     -11.884  11.747  68.702  1.00  0.00    -0.310 C  
HETATM   21  H   UNL     1     -13.507  10.794  69.749  1.00  0.00     0.000 HD 
HETATM   22  C   UNL     1     -10.726  11.238  67.809  1.00  0.00    -0.220 C  
HETATM   23  O   UNL     1      -9.509  11.910  68.197  1.00  0.00    -0.184 OA 
HETATM   24  H   UNL     1      -9.631  12.853  68.200  1.00  0.00     0.000 HD 
ENDBRANCH   6  11
ENDBRANCH   2   4
TORSDOF 2
ENDMDL
MODEL      123
REMARK 921   NORMALIZED FREE ENERGY PREDICTED BY IDOCK:   -4.19 KCAL/MOL
REMARK 922        TOTAL FREE ENERGY PREDICTED BY IDOCK:   -5.37 KCAL/MOL
REMARK 923 INTER-LIGAND FREE ENERGY PREDICTED BY IDOCK:   -4.80 KCAL/MOL
REMARK 924 INTRA-LIGAND FREE ENERGY PREDICTED BY IDOCK:   -0.57 KCAL/MOL
REMARK 927      BINDING AFFINITY PREDICTED BY RF-SCORE:    0.00 PKD
ROOT
HETATM    1  O5* UNL     1      -9.820   7.123  67.247  1.00  0.00    -0.146 OA 
HETATM    2  C5* UNL     1     -10.546   8.343  67.093  1.00  0.00    -0.256 C  
HETATM    3  H5* UNL     1     -10.234   6.557  67.887  1.00  0.00     0.000 HD 
ENDROOT
BRANCH   2   4
HETATM    4  C4* UNL     1      -9.880   9.255  66.064  1.00  0.00    -0.293 C  
HETATM    5  O4* UNL     1     -10.265  10.621  66.307  1.00  0.00    -0.233 OA 
HETATM    6  C1* UNL     1      -9.179  11.460  65.869  1.00  0.00    -0.216 C  
HETATM    7  H3* UNL     1      -6.913   8.405  65.039  1.00  0.00     0.000 HD 
HETATM    8  C2* UNL     1      -7.903  10.639  66.007  1.00  0.00    -0.156 C  
HETATM    9  C3* UNL     1      -8.359   9.203  66.107  1.00  0.00    -0.119 C  
HETATM   10  O3* UNL     1      -7.862   8.438  65.012  1.00  0.00    -0.103 OA 
BRANCH   6  11
HETATM   11  N   UNL     1      -9.174  12.700  66.626  1.00  0.00    -0.228 NA 
HETATM   12  C   UNL     1      -8.336  13.037  67.652  1.00  0.00    -0.181 A  
HETATM   13  C   UNL     1      -9.666  14.685  67.387  1.00  0.00    -0.218 A  
HETATM   14  N   UNL     1      -8.601  14.230  68.134  1.00  0.00    -0.164 NA 
HETATM   15  C   UNL     1     -10.023  13.763  66.417  1.00  0.00    -0.297 A  
HETATM   16  N   UNL     1     -10.938  13.769  65.418  1.00  0.00    -0.300 NA 
HETATM   17  C   UNL     1     -11.130  14.907  64.839  1.00  0.00    -0.414 C  
HETATM   18  H   UNL     1     -11.443  12.927  65.141  1.00  0.00     0.000 HD 
HETATM   19  N   UNL     1     -10.590  16.153  65.056  1.00  0.00    -0.634 NA 
HETATM   20  C   UNL     1     -10.644  16.818  66.365  1.00  0.00    -0.192 C  
HETATM   21  H   UNL     1     -10.137  16.634  64.280  1.00  0.00     0.000 HD 
HETATM   22  C   UNL     1     -10.311  15.999  67.637  1.00  0.00    -0.284 C  
HETATM   23  O   UNL     1     -11.514  15.840  68.417  1.00  0.00    -0.362 OA 
HETATM   24  H   UNL     1     -11.926  16.681  68.576  1.00  0.00     0.000 HD 
ENDBRANCH   6  11
ENDBRANCH   2   4
TORSDOF 2
ENDMDL
MODEL      124
REMARK 921   NORMALIZED FREE ENERGY PREDICTED BY IDOCK:   -4.15 KCAL/MOL
REMARK 922        TOTAL FREE ENERGY PREDICTED BY IDOCK:   -5.33 KCAL/MOL
REMARK 923 INTER-LIGAND FREE ENERGY PREDICTED BY IDOCK:   -4.69 KCAL/MOL
REMARK 924 INTRA-LIGAND FREE ENERGY PREDICTED BY IDOCK:   -0.64 KCAL/MOL
REMARK 927      BINDING AFFINITY PREDICTED BY RF-SCORE:    0.00 PKD
ROOT
HETATM    1  O5* UNL     1      -9.919   5.447  68.176  1.00  0.00    -0.141 OA 
HETATM    2  C5* UNL     1     -10.663   6.666  68.134  1.00  0.00    -0.258 C  
HETATM    3  H5* UNL     1     -10.168   4.920  68.926  1.00  0.00     0.000 HD 
ENDROOT
BRANCH   2   4
HETATM    4  C4* UNL     1     -10.262   7.515  66.929  1.00  0.00    -0.289 C  
HETATM    5  O4* UNL     1     -10.592   8.894  67.177  1.00  0.00    -0.286 OA 
HETATM    6  C1* UNL     1      -9.645   9.701  66.452  1.00  0.00    -0.210 C  
HETATM    7  H3* UNL     1      -7.607   6.594  65.292  1.00  0.00     0.000 HD 
HETATM    8  C2* UNL     1      -8.365   8.884  66.336  1.00  0.00    -0.117 C  
HETATM    9  C3* UNL     1      -8.772   7.458  66.620  1.00  0.00    -0.135 C  
HETATM   10  O3* UNL     1      -8.536   6.629  65.484  1.00  0.00    -0.149 OA 
BRANCH   6  11
HETATM   11  N   UNL     1      -9.476  10.983  67.115  1.00  0.00    -0.164 NA 
HETATM   12  C   UNL     1      -8.344  11.456  67.718  1.00  0.00    -0.127 A  
HETATM   13  C   UNL     1      -9.838  12.961  67.961  1.00  0.00    -0.223 A  
HETATM   14  N   UNL     1      -8.524  12.649  68.237  1.00  0.00    -0.172 NA 
HETATM   15  C   UNL     1     -10.446  11.951  67.234  1.00  0.00    -0.222 A  
HETATM   16  N   UNL     1     -11.674  11.813  66.678  1.00  0.00    -0.554 NA 
HETATM   17  C   UNL     1     -12.196  12.891  66.195  1.00  0.00    -0.317 C  
HETATM   18  H   UNL     1     -12.155  10.915  66.643  1.00  0.00     0.000 HD 
HETATM   19  N   UNL     1     -11.749  14.192  66.152  1.00  0.00    -0.378 NA 
HETATM   20  C   UNL     1     -11.357  14.931  67.360  1.00  0.00    -0.347 C  
HETATM   21  H   UNL     1     -11.689  14.660  65.249  1.00  0.00     0.000 HD 
HETATM   22  C   UNL     1     -10.469  14.227  68.414  1.00  0.00    -0.249 C  
HETATM   23  O   UNL     1     -11.246  14.012  69.610  1.00  0.00    -0.349 OA 
HETATM   24  H   UNL     1     -11.650  14.822  69.900  1.00  0.00     0.000 HD 
ENDBRANCH   6  11
ENDBRANCH   2   4
TORSDOF 2
ENDMDL
MODEL      125
REMARK 921   NORMALIZED FREE ENERGY PREDICTED BY IDOCK:   -4.15 KCAL/MOL
REMARK 922        TOTAL FREE ENERGY PREDICTED BY IDOCK:   -5.32 KCAL/MOL
REMARK 923 INTER-LIGAND FREE ENERGY PREDICTED BY IDOCK:   -4.76 KCAL/MOL
REMARK 924 INTRA-LIGAND FREE ENERGY PREDICTED BY IDOCK:   -0.57 KCAL/MOL
REMARK 927      BINDING AFFINITY PREDICTED BY RF-SCORE:    0.00 PKD
ROOT
HETATM    1  O5* UNL     1      -8.490   8.448  69.312  1.00  0.00    -0.122 OA 
HETATM    2  C5* UNL     1      -8.510   9.875  69.267  1.00  0.00    -0.158 C  
HETATM    3  H5* UNL     1      -7.682   8.129  69.697  1.00  0.00     0.000 HD 
ENDROOT
BRANCH   2   4
HETATM    4  C4* UNL     1      -9.809  10.389  68.648  1.00  0.00    -0.177 C  
HETATM    5  O4* UNL     1      -9.867  11.823  68.764  1.00  0.00    -0.178 OA 
HETATM    6  C1* UNL     1     -10.632  12.316  67.648  1.00  0.00    -0.215 C  
HETATM    7  H3* UNL     1     -10.955   8.772  66.069  1.00  0.00     0.000 HD 
HETATM    8  C2* UNL     1     -10.456  11.314  66.514  1.00  0.00    -0.299 C  
HETATM    9  C3* UNL     1      -9.946  10.053  67.169  1.00  0.00    -0.201 C  
HETATM   10  O3* UNL     1     -10.870   8.981  66.991  1.00  0.00    -0.183 OA 
BRANCH   6  11
HETATM   11  N   UNL     1     -10.215  13.668  67.319  1.00  0.00    -0.244 NA 
HETATM   12  C   UNL     1      -9.958  14.171  66.074  1.00  0.00    -0.322 A  
HETATM   13  C   UNL     1      -9.600  15.756  67.458  1.00  0.00    -0.224 A  
HETATM   14  N   UNL     1      -9.588  15.431  66.119  1.00  0.00    -0.304 NA 
HETATM   15  C   UNL     1     -10.019  14.683  68.227  1.00  0.00    -0.222 A  
HETATM   16  N   UNL     1     -10.257  14.522  69.551  1.00  0.00    -0.428 NA 
HETATM   17  C   UNL     1     -10.758  15.544  70.160  1.00  0.00    -0.329 C  
HETATM   18  H   UNL     1     -10.053  13.648  70.036  1.00  0.00     0.000 HD 
HETATM   19  N   UNL     1     -11.086  16.807  69.723  1.00  0.00    -0.388 NA 
HETATM   20  C   UNL     1     -10.117  17.687  69.057  1.00  0.00    -0.300 C  
HETATM   21  H   UNL     1     -12.037  17.144  69.868  1.00  0.00     0.000 HD 
HETATM   22  C   UNL     1      -9.202  17.098  67.956  1.00  0.00    -0.250 C  
HETATM   23  O   UNL     1      -7.843  17.081  68.440  1.00  0.00    -0.212 OA 
HETATM   24  H   UNL     1      -7.588  17.940  68.758  1.00  0.00     0.000 HD 
ENDBRANCH   6  11
ENDBRANCH   2   4
TORSDOF 2
ENDMDL
MODEL      126
REMARK 921   NORMALIZED FREE ENERGY PREDICTED BY IDOCK:   -4.12 KCAL/MOL
REMARK 922        TOTAL FREE ENERGY PREDICTED BY IDOCK:   -5.30 KCAL/MOL
REMARK 923 INTER-LIGAND FREE ENERGY PREDICTED BY IDOCK:   -4.75 KCAL/MOL
REMARK 924 INTRA-LIGAND FREE ENERGY PREDICTED BY IDOCK:   -0.55 KCAL/MOL
REMARK 927      BINDING AFFINITY PREDICTED BY RF-SCORE:    0.00 PKD
ROOT
HETATM    1  O5* UNL     1     -12.854  14.621  69.725  1.00  0.00    -0.571 OA 
HETATM    2  C5* UNL     1     -11.750  15.338  69.171  1.00  0.00    -0.335 C  
HETATM    3  H5* UNL     1     -13.302  15.139  70.383  1.00  0.00     0.000 HD 
ENDROOT
BRANCH   2   4
HETATM    4  C4* UNL     1     -11.027  14.505  68.113  1.00  0.00    -0.251 C  
HETATM    5  O4* UNL     1     -10.316  13.426  68.749  1.00  0.00    -0.227 OA 
HETATM    6  C1* UNL     1     -10.264  12.333  67.813  1.00  0.00    -0.202 C  
HETATM    7  H3* UNL     1     -12.484  14.206  65.221  1.00  0.00     0.000 HD 
HETATM    8  C2* UNL     1     -11.488  12.461  66.915  1.00  0.00    -0.423 C  
HETATM    9  C3* UNL     1     -11.967  13.882  67.091  1.00  0.00    -0.420 C  
HETATM   10  O3* UNL     1     -11.897  14.595  65.858  1.00  0.00    -0.347 OA 
BRANCH   6  11
HETATM   11  N   UNL     1     -10.179  11.071  68.528  1.00  0.00    -0.184 NA 
HETATM   12  C   UNL     1     -11.145  10.108  68.618  1.00  0.00    -0.205 A  
HETATM   13  C   UNL     1      -9.482   9.412  69.761  1.00  0.00    -0.202 A  
HETATM   14  N   UNL     1     -10.758   9.089  69.351  1.00  0.00    -0.219 NA 
HETATM   15  C   UNL     1      -9.084  10.629  69.235  1.00  0.00    -0.100 A  
HETATM   16  N   UNL     1      -7.927  11.333  69.284  1.00  0.00    -0.365 NA 
HETATM   17  C   UNL     1      -6.843  10.632  69.278  1.00  0.00    -0.086 C  
HETATM   18  H   UNL     1      -7.914  12.351  69.325  1.00  0.00     0.000 HD 
HETATM   19  N   UNL     1      -6.624   9.273  69.253  1.00  0.00    -0.048 NA 
HETATM   20  C   UNL     1      -7.199   8.364  70.252  1.00  0.00    -0.044 C  
HETATM   21  H   UNL     1      -6.042   8.884  68.512  1.00  0.00     0.000 HD 
HETATM   22  C   UNL     1      -8.685   8.532  70.654  1.00  0.00    -0.154 C  
HETATM   23  O   UNL     1      -8.750   8.995  72.019  1.00  0.00    -0.367 OA 
HETATM   24  H   UNL     1      -8.240   8.433  72.590  1.00  0.00     0.000 HD 
ENDBRANCH   6  11
ENDBRANCH   2   4
TORSDOF 2
ENDMDL
MODEL      127
REMARK 921   NORMALIZED FREE ENERGY PREDICTED BY IDOCK:   -4.12 KCAL/MOL
REMARK 922        TOTAL FREE ENERGY PREDICTED BY IDOCK:   -5.29 KCAL/MOL
REMARK 923 INTER-LIGAND FREE ENERGY PREDICTED BY IDOCK:   -4.63 KCAL/MOL
REMARK 924 INTRA-LIGAND FREE ENERGY PREDICTED BY IDOCK:   -0.65 KCAL/MOL
REMARK 927      BINDING AFFINITY PREDICTED BY RF-SCORE:    0.00 PKD
ROOT
HETATM    1  O5* UNL     1     -10.758  15.480  70.496  1.00  0.00    -0.320 OA 
HETATM    2  C5* UNL     1     -11.739  15.383  69.463  1.00  0.00    -0.346 C  
HETATM    3  H5* UNL     1     -10.349  16.337  70.500  1.00  0.00     0.000 HD 
ENDROOT
BRANCH   2   4
HETATM    4  C4* UNL     1     -12.396  14.004  69.456  1.00  0.00    -0.229 C  
HETATM    5  O4* UNL     1     -11.797  13.187  68.433  1.00  0.00    -0.332 OA 
HETATM    6  C1* UNL     1     -11.877  11.818  68.871  1.00  0.00    -0.320 C  
HETATM    7  H3* UNL     1     -13.373  12.818  72.323  1.00  0.00     0.000 HD 
HETATM    8  C2* UNL     1     -11.879  11.840  70.394  1.00  0.00    -0.362 C  
HETATM    9  C3* UNL     1     -12.243  13.256  70.773  1.00  0.00    -0.308 C  
HETATM   10  O3* UNL     1     -13.469  13.285  71.501  1.00  0.00    -0.300 OA 
BRANCH   6  11
HETATM   11  N   UNL     1     -10.793  11.046  68.288  1.00  0.00    -0.198 NA 
HETATM   12  C   UNL     1     -10.884   9.825  67.680  1.00  0.00    -0.239 A  
HETATM   13  C   UNL     1      -8.823  10.376  67.634  1.00  0.00    -0.124 A  
HETATM   14  N   UNL     1      -9.714   9.391  67.268  1.00  0.00    -0.157 NA 
HETATM   15  C   UNL     1      -9.474  11.435  68.244  1.00  0.00    -0.187 A  
HETATM   16  N   UNL     1      -9.062  12.639  68.709  1.00  0.00    -0.394 NA 
HETATM   17  C   UNL     1      -8.122  13.211  68.033  1.00  0.00    -0.157 C  
HETATM   18  H   UNL     1      -9.469  13.067  69.540  1.00  0.00     0.000 HD 
HETATM   19  N   UNL     1      -7.420  12.818  66.917  1.00  0.00    -0.375 NA 
HETATM   20  C   UNL     1      -6.685  11.548  66.854  1.00  0.00    -0.139 C  
HETATM   21  H   UNL     1      -7.411  13.431  66.103  1.00  0.00     0.000 HD 
HETATM   22  C   UNL     1      -7.363  10.261  67.386  1.00  0.00    -0.093 C  
HETATM   23  O   UNL     1      -6.673   9.830  68.578  1.00  0.00    -0.052 OA 
HETATM   24  H   UNL     1      -5.739   9.757  68.419  1.00  0.00     0.000 HD 
ENDBRANCH   6  11
ENDBRANCH   2   4
TORSDOF 2
ENDMDL
MODEL      128
REMARK 921   NORMALIZED FREE ENERGY PREDICTED BY IDOCK:   -4.11 KCAL/MOL
REMARK 922        TOTAL FREE ENERGY PREDICTED BY IDOCK:   -5.28 KCAL/MOL
REMARK 923 INTER-LIGAND FREE ENERGY PREDICTED BY IDOCK:   -4.75 KCAL/MOL
REMARK 924 INTRA-LIGAND FREE ENERGY PREDICTED BY IDOCK:   -0.53 KCAL/MOL
REMARK 927      BINDING AFFINITY PREDICTED BY RF-SCORE:    0.00 PKD
ROOT
HETATM    1  O5* UNL     1     -10.222  10.670  62.352  1.00  0.00    -0.743 OA 
HETATM    2  C5* UNL     1      -9.663  11.297  63.507  1.00  0.00    -0.336 C  
HETATM    3  H5* UNL     1      -9.570  10.566  61.669  1.00  0.00     0.000 HD 
ENDROOT
BRANCH   2   4
HETATM    4  C4* UNL     1     -10.711  11.464  64.605  1.00  0.00    -0.314 C  
HETATM    5  O4* UNL     1     -10.402  10.590  65.707  1.00  0.00    -0.249 OA 
HETATM    6  C1* UNL     1     -10.893  11.217  66.907  1.00  0.00    -0.282 C  
HETATM    7  H3* UNL     1     -11.974  14.435  65.001  1.00  0.00     0.000 HD 
HETATM    8  C2* UNL     1     -10.872  12.720  66.660  1.00  0.00    -0.288 C  
HETATM    9  C3* UNL     1     -10.781  12.880  65.162  1.00  0.00    -0.305 C  
HETATM   10  O3* UNL     1     -11.931  13.552  64.654  1.00  0.00    -0.368 OA 
BRANCH   6  11
HETATM   11  N   UNL     1     -10.104  10.790  68.049  1.00  0.00    -0.171 NA 
HETATM   12  C   UNL     1     -10.570  10.294  69.234  1.00  0.00    -0.230 A  
HETATM   13  C   UNL     1      -8.442  10.348  69.392  1.00  0.00    -0.134 A  
HETATM   14  N   UNL     1      -9.595  10.011  70.068  1.00  0.00    -0.211 NA 
HETATM   15  C   UNL     1      -8.729  10.806  68.117  1.00  0.00    -0.130 A  
HETATM   16  N   UNL     1      -7.960  11.186  67.068  1.00  0.00    -0.138 NA 
HETATM   17  C   UNL     1      -6.859  10.530  66.913  1.00  0.00    -0.091 C  
HETATM   18  H   UNL     1      -8.234  11.941  66.441  1.00  0.00     0.000 HD 
HETATM   19  N   UNL     1      -6.285   9.509  67.635  1.00  0.00    -0.053 NA 
HETATM   20  C   UNL     1      -6.009   9.619  69.073  1.00  0.00    -0.038 C  
HETATM   21  H   UNL     1      -6.042   8.644  67.153  1.00  0.00     0.000 HD 
HETATM   22  C   UNL     1      -7.094  10.218  70.001  1.00  0.00    -0.158 C  
HETATM   23  O   UNL     1      -6.632  11.492  70.496  1.00  0.00    -0.513 OA 
HETATM   24  H   UNL     1      -5.769  11.410  70.886  1.00  0.00     0.000 HD 
ENDBRANCH   6  11
ENDBRANCH   2   4
TORSDOF 2
ENDMDL
MODEL      129
REMARK 921   NORMALIZED FREE ENERGY PREDICTED BY IDOCK:   -4.11 KCAL/MOL
REMARK 922        TOTAL FREE ENERGY PREDICTED BY IDOCK:   -5.28 KCAL/MOL
REMARK 923 INTER-LIGAND FREE ENERGY PREDICTED BY IDOCK:   -4.75 KCAL/MOL
REMARK 924 INTRA-LIGAND FREE ENERGY PREDICTED BY IDOCK:   -0.53 KCAL/MOL
REMARK 927      BINDING AFFINITY PREDICTED BY RF-SCORE:    0.00 PKD
ROOT
HETATM    1  O5* UNL     1     -12.700  13.969  66.514  1.00  0.00    -0.498 OA 
HETATM    2  C5* UNL     1     -11.285  13.972  66.321  1.00  0.00    -0.320 C  
HETATM    3  H5* UNL     1     -13.156  14.182  65.709  1.00  0.00     0.000 HD 
ENDROOT
BRANCH   2   4
HETATM    4  C4* UNL     1     -10.551  13.630  67.616  1.00  0.00    -0.241 C  
HETATM    5  O4* UNL     1     -10.827  12.265  67.983  1.00  0.00    -0.204 OA 
HETATM    6  C1* UNL     1      -9.679  11.770  68.698  1.00  0.00    -0.128 C  
HETATM    7  H3* UNL     1      -7.661  15.044  68.094  1.00  0.00     0.000 HD 
HETATM    8  C2* UNL     1      -8.471  12.545  68.187  1.00  0.00    -0.180 C  
HETATM    9  C3* UNL     1      -9.039  13.768  67.507  1.00  0.00    -0.209 C  
HETATM   10  O3* UNL     1      -8.605  14.958  68.162  1.00  0.00    -0.150 OA 
BRANCH   6  11
HETATM   11  N   UNL     1      -9.575  10.330  68.533  1.00  0.00    -0.156 NA 
HETATM   12  C   UNL     1      -8.548   9.638  67.954  1.00  0.00    -0.122 A  
HETATM   13  C   UNL     1      -9.997   8.190  68.553  1.00  0.00    -0.190 A  
HETATM   14  N   UNL     1      -8.766   8.343  67.952  1.00  0.00    -0.137 NA 
HETATM   15  C   UNL     1     -10.510   9.412  68.954  1.00  0.00    -0.216 A  
HETATM   16  N   UNL     1     -11.625   9.778  69.631  1.00  0.00    -0.448 NA 
HETATM   17  C   UNL     1     -12.008   8.969  70.561  1.00  0.00    -0.010 C  
HETATM   18  H   UNL     1     -12.130  10.638  69.419  1.00  0.00     0.000 HD 
HETATM   19  N   UNL     1     -11.507   7.764  70.999  1.00  0.00    -0.279 NA 
HETATM   20  C   UNL     1     -11.303   6.622  70.098  1.00  0.00    -0.382 C  
HETATM   21  H   UNL     1     -11.269   7.661  71.984  1.00  0.00     0.000 HD 
HETATM   22  C   UNL     1     -10.644   6.863  68.718  1.00  0.00    -0.220 C  
HETATM   23  O   UNL     1     -11.629   6.642  67.687  1.00  0.00    -0.664 OA 
HETATM   24  H   UNL     1     -12.043   5.793  67.792  1.00  0.00     0.000 HD 
ENDBRANCH   6  11
ENDBRANCH   2   4
TORSDOF 2
ENDMDL
MODEL      130
REMARK 921   NORMALIZED FREE ENERGY PREDICTED BY IDOCK:   -4.11 KCAL/MOL
REMARK 922        TOTAL FREE ENERGY PREDICTED BY IDOCK:   -5.28 KCAL/MOL
REMARK 923 INTER-LIGAND FREE ENERGY PREDICTED BY IDOCK:   -4.92 KCAL/MOL
REMARK 924 INTRA-LIGAND FREE ENERGY PREDICTED BY IDOCK:   -0.35 KCAL/MOL
REMARK 927      BINDING AFFINITY PREDICTED BY RF-SCORE:    0.00 PKD
ROOT
HETATM    1  O5* UNL     1      -8.743   7.994  74.124  1.00  0.00    -0.342 OA 
HETATM    2  C5* UNL     1      -9.823   7.064  74.032  1.00  0.00    -0.308 C  
HETATM    3  H5* UNL     1      -8.086   7.696  74.742  1.00  0.00     0.000 HD 
ENDROOT
BRANCH   2   4
HETATM    4  C4* UNL     1     -10.879   7.544  73.038  1.00  0.00    -0.392 C  
HETATM    5  O4* UNL     1     -10.369   8.665  72.292  1.00  0.00    -0.327 OA 
HETATM    6  C1* UNL     1     -10.994   8.641  70.995  1.00  0.00    -0.260 C  
HETATM    7  H3* UNL     1     -12.814   5.280  71.731  1.00  0.00     0.000 HD 
HETATM    8  C2* UNL     1     -11.332   7.187  70.694  1.00  0.00    -0.327 C  
HETATM    9  C3* UNL     1     -11.284   6.480  72.027  1.00  0.00    -0.273 C  
HETATM   10  O3* UNL     1     -12.562   5.944  72.362  1.00  0.00    -0.091 OA 
BRANCH   6  11
HETATM   11  N   UNL     1     -10.123   9.266  70.013  1.00  0.00    -0.198 NA 
HETATM   12  C   UNL     1      -8.987   8.738  69.465  1.00  0.00    -0.145 A  
HETATM   13  C   UNL     1      -9.228  10.682  68.617  1.00  0.00    -0.181 A  
HETATM   14  N   UNL     1      -8.422   9.564  68.614  1.00  0.00    -0.117 NA 
HETATM   15  C   UNL     1     -10.315  10.510  69.457  1.00  0.00    -0.221 A  
HETATM   16  N   UNL     1     -11.399  11.269  69.747  1.00  0.00    -0.362 NA 
HETATM   17  C   UNL     1     -11.881  11.957  68.766  1.00  0.00    -0.313 C  
HETATM   18  H   UNL     1     -11.808  11.296  70.681  1.00  0.00     0.000 HD 
HETATM   19  N   UNL     1     -11.488  12.092  67.455  1.00  0.00    -0.365 NA 
HETATM   20  C   UNL     1     -10.133  12.517  67.078  1.00  0.00    -0.216 C  
HETATM   21  H   UNL     1     -12.162  11.889  66.717  1.00  0.00     0.000 HD 
HETATM   22  C   UNL     1      -8.920  11.889  67.807  1.00  0.00    -0.173 C  
HETATM   23  O   UNL     1      -8.289  12.902  68.618  1.00  0.00    -0.314 OA 
HETATM   24  H   UNL     1      -8.092  13.674  68.100  1.00  0.00     0.000 HD 
ENDBRANCH   6  11
ENDBRANCH   2   4
TORSDOF 2
ENDMDL
MODEL      131
REMARK 921   NORMALIZED FREE ENERGY PREDICTED BY IDOCK:   -4.09 KCAL/MOL
REMARK 922        TOTAL FREE ENERGY PREDICTED BY IDOCK:   -5.26 KCAL/MOL
REMARK 923 INTER-LIGAND FREE ENERGY PREDICTED BY IDOCK:   -4.66 KCAL/MOL
REMARK 924 INTRA-LIGAND FREE ENERGY PREDICTED BY IDOCK:   -0.60 KCAL/MOL
REMARK 927      BINDING AFFINITY PREDICTED BY RF-SCORE:    0.00 PKD
ROOT
HETATM    1  O5* UNL     1     -13.962   9.697  70.603  1.00  0.00    -0.469 OA 
HETATM    2  C5* UNL     1     -13.024  10.450  71.373  1.00  0.00    -0.443 C  
HETATM    3  H5* UNL     1     -14.763   9.547  71.090  1.00  0.00     0.000 HD 
ENDROOT
BRANCH   2   4
HETATM    4  C4* UNL     1     -11.735  10.691  70.589  1.00  0.00    -0.356 C  
HETATM    5  O4* UNL     1     -10.726   9.758  71.019  1.00  0.00    -0.324 OA 
HETATM    6  C1* UNL     1      -9.860   9.512  69.895  1.00  0.00    -0.226 C  
HETATM    7  H3* UNL     1     -12.044  11.670  67.503  1.00  0.00     0.000 HD 
HETATM    8  C2* UNL     1     -10.694   9.722  68.639  1.00  0.00    -0.247 C  
HETATM    9  C3* UNL     1     -11.901  10.512  69.086  1.00  0.00    -0.146 C  
HETATM   10  O3* UNL     1     -11.941  11.782  68.440  1.00  0.00    -0.443 OA 
BRANCH   6  11
HETATM   11  N   UNL     1      -9.270   8.188  70.004  1.00  0.00    -0.154 NA 
HETATM   12  C   UNL     1      -7.980   7.834  69.721  1.00  0.00    -0.115 A  
HETATM   13  C   UNL     1      -8.981   6.051  70.333  1.00  0.00    -0.149 A  
HETATM   14  N   UNL     1      -7.768   6.552  69.913  1.00  0.00    -0.106 NA 
HETATM   15  C   UNL     1      -9.928   7.057  70.430  1.00  0.00    -0.179 A  
HETATM   16  N   UNL     1     -11.215   7.088  70.851  1.00  0.00    -0.268 NA 
HETATM   17  C   UNL     1     -11.502   6.307  71.838  1.00  0.00    -0.309 C  
HETATM   18  H   UNL     1     -11.914   7.689  70.416  1.00  0.00     0.000 HD 
HETATM   19  N   UNL     1     -10.743   5.408  72.553  1.00  0.00    -0.226 NA 
HETATM   20  C   UNL     1     -10.005   4.313  71.909  1.00  0.00    -0.185 C  
HETATM   21  H   UNL     1     -10.692   5.506  73.566  1.00  0.00     0.000 HD 
HETATM   22  C   UNL     1      -9.190   4.610  70.627  1.00  0.00    -0.136 C  
HETATM   23  O   UNL     1      -9.819   3.946  69.511  1.00  0.00    -0.177 OA 
HETATM   24  H   UNL     1      -9.953   3.024  69.698  1.00  0.00     0.000 HD 
ENDBRANCH   6  11
ENDBRANCH   2   4
TORSDOF 2
ENDMDL
MODEL      132
REMARK 921   NORMALIZED FREE ENERGY PREDICTED BY IDOCK:   -4.08 KCAL/MOL
REMARK 922        TOTAL FREE ENERGY PREDICTED BY IDOCK:   -5.25 KCAL/MOL
REMARK 923 INTER-LIGAND FREE ENERGY PREDICTED BY IDOCK:   -4.81 KCAL/MOL
REMARK 924 INTRA-LIGAND FREE ENERGY PREDICTED BY IDOCK:   -0.44 KCAL/MOL
REMARK 927      BINDING AFFINITY PREDICTED BY RF-SCORE:    0.00 PKD
ROOT
HETATM    1  O5* UNL     1      -6.945  11.255  65.993  1.00  0.00    -0.354 OA 
HETATM    2  C5* UNL     1      -7.309  11.814  67.256  1.00  0.00    -0.141 C  
HETATM    3  H5* UNL     1      -6.002  11.240  65.884  1.00  0.00     0.000 HD 
ENDROOT
BRANCH   2   4
HETATM    4  C4* UNL     1      -8.827  11.837  67.431  1.00  0.00    -0.164 C  
HETATM    5  O4* UNL     1      -9.198  12.938  68.281  1.00  0.00    -0.204 OA 
HETATM    6  C1* UNL     1     -10.515  13.366  67.884  1.00  0.00    -0.240 C  
HETATM    7  H3* UNL     1     -10.621  10.872  64.896  1.00  0.00     0.000 HD 
HETATM    8  C2* UNL     1     -10.664  13.022  66.407  1.00  0.00    -0.295 C  
HETATM    9  C3* UNL     1      -9.582  12.008  66.120  1.00  0.00    -0.239 C  
HETATM   10  O3* UNL     1     -10.150  10.765  65.714  1.00  0.00    -0.240 OA 
BRANCH   6  11
HETATM   11  N   UNL     1     -10.692  14.775  68.188  1.00  0.00    -0.243 NA 
HETATM   12  C   UNL     1     -11.551  15.320  69.102  1.00  0.00    -0.332 A  
HETATM   13  C   UNL     1     -10.529  16.950  68.178  1.00  0.00    -0.350 A  
HETATM   14  N   UNL     1     -11.477  16.631  69.127  1.00  0.00    -0.074 NA 
HETATM   15  C   UNL     1     -10.000  15.809  67.599  1.00  0.00    -0.239 A  
HETATM   16  N   UNL     1      -9.020  15.594  66.690  1.00  0.00    -0.258 NA 
HETATM   17  C   UNL     1      -8.011  16.397  66.751  1.00  0.00    -0.260 C  
HETATM   18  H   UNL     1      -9.075  14.845  66.000  1.00  0.00     0.000 HD 
HETATM   19  N   UNL     1      -7.737  17.472  67.565  1.00  0.00    -0.196 NA 
HETATM   20  C   UNL     1      -8.648  18.617  67.692  1.00  0.00    -0.272 C  
HETATM   21  H   UNL     1      -6.870  17.474  68.100  1.00  0.00     0.000 HD 
HETATM   22  C   UNL     1     -10.166  18.354  67.856  1.00  0.00    -0.381 C  
HETATM   23  O   UNL     1     -10.847  18.799  66.665  1.00  0.00    -0.325 OA 
HETATM   24  H   UNL     1     -10.614  19.697  66.459  1.00  0.00     0.000 HD 
ENDBRANCH   6  11
ENDBRANCH   2   4
TORSDOF 2
ENDMDL
MODEL      133
REMARK 921   NORMALIZED FREE ENERGY PREDICTED BY IDOCK:   -4.05 KCAL/MOL
REMARK 922        TOTAL FREE ENERGY PREDICTED BY IDOCK:   -5.21 KCAL/MOL
REMARK 923 INTER-LIGAND FREE ENERGY PREDICTED BY IDOCK:   -4.37 KCAL/MOL
REMARK 924 INTRA-LIGAND FREE ENERGY PREDICTED BY IDOCK:   -0.85 KCAL/MOL
REMARK 927      BINDING AFFINITY PREDICTED BY RF-SCORE:    0.00 PKD
ROOT
HETATM    1  O5* UNL     1      -7.232  11.925  67.540  1.00  0.00    -0.105 OA 
HETATM    2  C5* UNL     1      -8.331  11.393  68.281  1.00  0.00    -0.152 C  
HETATM    3  H5* UNL     1      -6.421  11.487  67.768  1.00  0.00     0.000 HD 
ENDROOT
BRANCH   2   4
HETATM    4  C4* UNL     1      -9.636  12.098  67.915  1.00  0.00    -0.198 C  
HETATM    5  O4* UNL     1      -9.562  13.483  68.300  1.00  0.00    -0.214 OA 
HETATM    6  C1* UNL     1     -10.387  14.230  67.386  1.00  0.00    -0.259 C  
HETATM    7  H3* UNL     1     -11.156  11.085  65.224  1.00  0.00     0.000 HD 
HETATM    8  C2* UNL     1     -10.406  13.456  66.074  1.00  0.00    -0.297 C  
HETATM    9  C3* UNL     1      -9.942  12.063  66.424  1.00  0.00    -0.219 C  
HETATM   10  O3* UNL     1     -10.965  11.107  66.154  1.00  0.00    -0.236 OA 
BRANCH   6  11
HETATM   11  N   UNL     1      -9.892  15.591  67.268  1.00  0.00    -0.223 NA 
HETATM   12  C   UNL     1     -10.622  16.744  67.349  1.00  0.00    -0.291 A  
HETATM   13  C   UNL     1      -8.601  17.326  66.986  1.00  0.00    -0.227 A  
HETATM   14  N   UNL     1      -9.875  17.812  67.188  1.00  0.00    -0.299 NA 
HETATM   15  C   UNL     1      -8.578  15.944  67.063  1.00  0.00    -0.216 A  
HETATM   16  N   UNL     1      -7.585  15.023  67.004  1.00  0.00    -0.282 NA 
HETATM   17  C   UNL     1      -6.461  15.374  67.534  1.00  0.00    -0.144 C  
HETATM   18  H   UNL     1      -7.718  14.111  66.569  1.00  0.00     0.000 HD 
HETATM   19  N   UNL     1      -6.054  16.539  68.144  1.00  0.00    -0.117 NA 
HETATM   20  C   UNL     1      -6.145  17.848  67.483  1.00  0.00    -0.155 C  
HETATM   21  H   UNL     1      -5.676  16.491  69.089  1.00  0.00     0.000 HD 
HETATM   22  C   UNL     1      -7.441  18.216  66.721  1.00  0.00    -0.216 C  
HETATM   23  O   UNL     1      -7.152  18.272  65.309  1.00  0.00    -0.516 OA 
HETATM   24  H   UNL     1      -6.410  18.841  65.139  1.00  0.00     0.000 HD 
ENDBRANCH   6  11
ENDBRANCH   2   4
TORSDOF 2
ENDMDL
MODEL      134
REMARK 921   NORMALIZED FREE ENERGY PREDICTED BY IDOCK:   -4.04 KCAL/MOL
REMARK 922        TOTAL FREE ENERGY PREDICTED BY IDOCK:   -5.20 KCAL/MOL
REMARK 923 INTER-LIGAND FREE ENERGY PREDICTED BY IDOCK:   -4.77 KCAL/MOL
REMARK 924 INTRA-LIGAND FREE ENERGY PREDICTED BY IDOCK:   -0.43 KCAL/MOL
REMARK 927      BINDING AFFINITY PREDICTED BY RF-SCORE:    0.00 PKD
ROOT
HETATM    1  O5* UNL     1     -10.774  14.043  69.439  1.00  0.00    -0.404 OA 
HETATM    2  C5* UNL     1     -11.177  13.487  68.187  1.00  0.00    -0.272 C  
HETATM    3  H5* UNL     1     -10.471  14.937  69.335  1.00  0.00     0.000 HD 
ENDROOT
BRANCH   2   4
HETATM    4  C4* UNL     1     -11.662  12.047  68.355  1.00  0.00    -0.332 C  
HETATM    5  O4* UNL     1     -11.071  11.216  67.339  1.00  0.00    -0.273 OA 
HETATM    6  C1* UNL     1     -10.944   9.890  67.886  1.00  0.00    -0.223 C  
HETATM    7  H3* UNL     1     -12.210  11.017  71.391  1.00  0.00     0.000 HD 
HETATM    8  C2* UNL     1     -10.803  10.046  69.395  1.00  0.00    -0.270 C  
HETATM    9  C3* UNL     1     -11.295  11.440  69.701  1.00  0.00    -0.275 C  
HETATM   10  O3* UNL     1     -12.440  11.396  70.551  1.00  0.00    -0.318 OA 
BRANCH   6  11
HETATM   11  N   UNL     1      -9.836   9.195  67.252  1.00  0.00    -0.176 NA 
HETATM   12  C   UNL     1      -8.567   9.668  67.063  1.00  0.00    -0.128 A  
HETATM   13  C   UNL     1      -8.621   7.708  66.219  1.00  0.00    -0.144 A  
HETATM   14  N   UNL     1      -7.804   8.794  66.446  1.00  0.00    -0.098 NA 
HETATM   15  C   UNL     1      -9.886   7.919  66.741  1.00  0.00    -0.248 A  
HETATM   16  N   UNL     1     -10.997   7.149  66.833  1.00  0.00    -0.602 NA 
HETATM   17  C   UNL     1     -10.792   5.890  67.036  1.00  0.00    -0.295 C  
HETATM   18  H   UNL     1     -11.935   7.538  66.747  1.00  0.00     0.000 HD 
HETATM   19  N   UNL     1      -9.637   5.153  67.159  1.00  0.00    -0.137 NA 
HETATM   20  C   UNL     1      -8.591   5.150  66.127  1.00  0.00    -0.117 C  
HETATM   21  H   UNL     1      -9.503   4.587  67.996  1.00  0.00     0.000 HD 
HETATM   22  C   UNL     1      -8.154   6.496  65.499  1.00  0.00    -0.127 C  
HETATM   23  O   UNL     1      -8.576   6.525  64.120  1.00  0.00    -0.335 OA 
HETATM   24  H   UNL     1      -8.277   5.749  63.659  1.00  0.00     0.000 HD 
ENDBRANCH   6  11
ENDBRANCH   2   4
TORSDOF 2
ENDMDL
MODEL      135
REMARK 921   NORMALIZED FREE ENERGY PREDICTED BY IDOCK:   -4.02 KCAL/MOL
REMARK 922        TOTAL FREE ENERGY PREDICTED BY IDOCK:   -5.18 KCAL/MOL
REMARK 923 INTER-LIGAND FREE ENERGY PREDICTED BY IDOCK:   -4.68 KCAL/MOL
REMARK 924 INTRA-LIGAND FREE ENERGY PREDICTED BY IDOCK:   -0.50 KCAL/MOL
REMARK 927      BINDING AFFINITY PREDICTED BY RF-SCORE:    0.00 PKD
ROOT
HETATM    1  O5* UNL     1     -10.245  15.690  70.025  1.00  0.00    -0.301 OA 
HETATM    2  C5* UNL     1     -11.149  15.542  68.929  1.00  0.00    -0.282 C  
HETATM    3  H5* UNL     1      -9.685  16.448  69.907  1.00  0.00     0.000 HD 
ENDROOT
BRANCH   2   4
HETATM    4  C4* UNL     1     -12.049  14.322  69.118  1.00  0.00    -0.302 C  
HETATM    5  O4* UNL     1     -11.441  13.172  68.501  1.00  0.00    -0.260 OA 
HETATM    6  C1* UNL     1     -11.866  12.011  69.239  1.00  0.00    -0.318 C  
HETATM    7  H3* UNL     1     -13.750  14.156  71.886  1.00  0.00     0.000 HD 
HETATM    8  C2* UNL     1     -12.145  12.471  70.665  1.00  0.00    -0.312 C  
HETATM    9  C3* UNL     1     -12.290  13.971  70.580  1.00  0.00    -0.375 C  
HETATM   10  O3* UNL     1     -13.600  14.375  70.974  1.00  0.00    -0.335 OA 
BRANCH   6  11
HETATM   11  N   UNL     1     -10.864  10.964  69.137  1.00  0.00    -0.220 NA 
HETATM   12  C   UNL     1     -10.468  10.101  70.121  1.00  0.00    -0.255 A  
HETATM   13  C   UNL     1      -9.304   9.631  68.396  1.00  0.00    -0.133 A  
HETATM   14  N   UNL     1      -9.530   9.279  69.709  1.00  0.00    -0.179 NA 
HETATM   15  C   UNL     1     -10.145  10.659  68.003  1.00  0.00    -0.157 A  
HETATM   16  N   UNL     1     -10.353  11.295  66.826  1.00  0.00    -0.229 NA 
HETATM   17  C   UNL     1     -10.257  10.563  65.767  1.00  0.00    -0.243 C  
HETATM   18  H   UNL     1     -10.572  12.290  66.778  1.00  0.00     0.000 HD 
HETATM   19  N   UNL     1      -9.954   9.232  65.592  1.00  0.00    -0.427 NA 
HETATM   20  C   UNL     1      -8.721   8.629  66.114  1.00  0.00    -0.156 C  
HETATM   21  H   UNL     1     -10.611   8.643  65.081  1.00  0.00     0.000 HD 
HETATM   22  C   UNL     1      -8.275   8.964  67.558  1.00  0.00    -0.109 C  
HETATM   23  O   UNL     1      -7.069   9.754  67.501  1.00  0.00    -0.086 OA 
HETATM   24  H   UNL     1      -6.411   9.328  66.965  1.00  0.00     0.000 HD 
ENDBRANCH   6  11
ENDBRANCH   2   4
TORSDOF 2
ENDMDL
MODEL      136
REMARK 921   NORMALIZED FREE ENERGY PREDICTED BY IDOCK:   -4.00 KCAL/MOL
REMARK 922        TOTAL FREE ENERGY PREDICTED BY IDOCK:   -5.15 KCAL/MOL
REMARK 923 INTER-LIGAND FREE ENERGY PREDICTED BY IDOCK:   -5.02 KCAL/MOL
REMARK 924 INTRA-LIGAND FREE ENERGY PREDICTED BY IDOCK:   -0.13 KCAL/MOL
REMARK 927      BINDING AFFINITY PREDICTED BY RF-SCORE:    0.00 PKD
ROOT
HETATM    1  O5* UNL     1     -12.788  16.140  71.490  1.00  0.00    -0.504 OA 
HETATM    2  C5* UNL     1     -12.673  14.800  71.969  1.00  0.00    -0.329 C  
HETATM    3  H5* UNL     1     -12.676  16.766  72.196  1.00  0.00     0.000 HD 
ENDROOT
BRANCH   2   4
HETATM    4  C4* UNL     1     -12.853  13.792  70.835  1.00  0.00    -0.271 C  
HETATM    5  O4* UNL     1     -12.160  14.256  69.661  1.00  0.00    -0.317 OA 
HETATM    6  C1* UNL     1     -11.745  13.094  68.918  1.00  0.00    -0.326 C  
HETATM    7  H3* UNL     1     -13.032  10.652  71.663  1.00  0.00     0.000 HD 
HETATM    8  C2* UNL     1     -11.561  11.967  69.926  1.00  0.00    -0.333 C  
HETATM    9  C3* UNL     1     -12.305  12.410  71.163  1.00  0.00    -0.141 C  
HETATM   10  O3* UNL     1     -13.374  11.514  71.458  1.00  0.00    -0.284 OA 
BRANCH   6  11
HETATM   11  N   UNL     1     -10.554  13.400  68.143  1.00  0.00    -0.238 NA 
HETATM   12  C   UNL     1      -9.754  12.514  67.476  1.00  0.00    -0.196 A  
HETATM   13  C   UNL     1      -8.899  14.447  67.184  1.00  0.00    -0.229 A  
HETATM   14  N   UNL     1      -8.747  13.111  66.881  1.00  0.00    -0.187 NA 
HETATM   15  C   UNL     1     -10.037  14.659  67.943  1.00  0.00    -0.225 A  
HETATM   16  N   UNL     1     -10.643  15.772  68.424  1.00  0.00    -0.254 NA 
HETATM   17  C   UNL     1     -10.589  16.814  67.664  1.00  0.00    -0.325 C  
HETATM   18  H   UNL     1     -11.112  15.785  69.329  1.00  0.00     0.000 HD 
HETATM   19  N   UNL     1     -10.002  17.030  66.438  1.00  0.00    -0.294 NA 
HETATM   20  C   UNL     1      -8.574  16.785  66.194  1.00  0.00    -0.264 C  
HETATM   21  H   UNL     1     -10.579  17.374  65.672  1.00  0.00     0.000 HD 
HETATM   22  C   UNL     1      -7.934  15.482  66.730  1.00  0.00    -0.179 C  
HETATM   23  O   UNL     1      -7.009  15.817  67.785  1.00  0.00    -0.125 OA 
HETATM   24  H   UNL     1      -6.392  16.478  67.495  1.00  0.00     0.000 HD 
ENDBRANCH   6  11
ENDBRANCH   2   4
TORSDOF 2
ENDMDL
MODEL      137
REMARK 921   NORMALIZED FREE ENERGY PREDICTED BY IDOCK:   -4.00 KCAL/MOL
REMARK 922        TOTAL FREE ENERGY PREDICTED BY IDOCK:   -5.15 KCAL/MOL
REMARK 923 INTER-LIGAND FREE ENERGY PREDICTED BY IDOCK:   -4.79 KCAL/MOL
REMARK 924 INTRA-LIGAND FREE ENERGY PREDICTED BY IDOCK:   -0.36 KCAL/MOL
REMARK 927      BINDING AFFINITY PREDICTED BY RF-SCORE:    0.00 PKD
ROOT
HETATM    1  O5* UNL     1     -13.674  13.999  65.539  1.00  0.00    -0.538 OA 
HETATM    2  C5* UNL     1     -12.274  14.266  65.638  1.00  0.00    -0.400 C  
HETATM    3  H5* UNL     1     -13.989  14.148  64.656  1.00  0.00     0.000 HD 
ENDROOT
BRANCH   2   4
HETATM    4  C4* UNL     1     -11.767  14.028  67.059  1.00  0.00    -0.398 C  
HETATM    5  O4* UNL     1     -11.066  12.771  67.118  1.00  0.00    -0.259 OA 
HETATM    6  C1* UNL     1     -10.060  12.886  68.142  1.00  0.00    -0.240 C  
HETATM    7  H3* UNL     1     -10.856  16.646  68.760  1.00  0.00     0.000 HD 
HETATM    8  C2* UNL     1      -9.679  14.358  68.224  1.00  0.00    -0.222 C  
HETATM    9  C3* UNL     1     -10.802  15.102  67.543  1.00  0.00    -0.301 C  
HETATM   10  O3* UNL     1     -11.458  15.976  68.459  1.00  0.00    -0.370 OA 
BRANCH   6  11
HETATM   11  N   UNL     1      -8.948  11.999  67.846  1.00  0.00    -0.174 NA 
HETATM   12  C   UNL     1      -8.129  11.375  68.746  1.00  0.00    -0.112 A  
HETATM   13  C   UNL     1      -7.441  10.814  66.805  1.00  0.00    -0.129 A  
HETATM   14  N   UNL     1      -7.210  10.647  68.153  1.00  0.00    -0.085 NA 
HETATM   15  C   UNL     1      -8.540  11.627  66.585  1.00  0.00    -0.179 A  
HETATM   16  N   UNL     1      -9.195  12.028  65.469  1.00  0.00    -0.429 NA 
HETATM   17  C   UNL     1      -9.268  11.157  64.518  1.00  0.00    -0.108 C  
HETATM   18  H   UNL     1      -9.605  12.958  65.385  1.00  0.00     0.000 HD 
HETATM   19  N   UNL     1      -8.780   9.876  64.402  1.00  0.00    -0.185 NA 
HETATM   20  C   UNL     1      -7.357   9.557  64.576  1.00  0.00    -0.114 C  
HETATM   21  H   UNL     1      -9.430   9.121  64.187  1.00  0.00     0.000 HD 
HETATM   22  C   UNL     1      -6.587  10.183  65.766  1.00  0.00    -0.109 C  
HETATM   23  O   UNL     1      -5.624  11.126  65.252  1.00  0.00    -0.438 OA 
HETATM   24  H   UNL     1      -5.078  10.722  64.588  1.00  0.00     0.000 HD 
ENDBRANCH   6  11
ENDBRANCH   2   4
TORSDOF 2
ENDMDL
MODEL      138
REMARK 921   NORMALIZED FREE ENERGY PREDICTED BY IDOCK:   -4.00 KCAL/MOL
REMARK 922        TOTAL FREE ENERGY PREDICTED BY IDOCK:   -5.15 KCAL/MOL
REMARK 923 INTER-LIGAND FREE ENERGY PREDICTED BY IDOCK:   -4.91 KCAL/MOL
REMARK 924 INTRA-LIGAND FREE ENERGY PREDICTED BY IDOCK:   -0.24 KCAL/MOL
REMARK 927      BINDING AFFINITY PREDICTED BY RF-SCORE:    0.00 PKD
ROOT
HETATM    1  O5* UNL     1      -6.743   6.712  68.725  1.00  0.00    -0.052 OA 
HETATM    2  C5* UNL     1      -7.172   8.074  68.693  1.00  0.00    -0.081 C  
HETATM    3  H5* UNL     1      -5.807   6.645  68.579  1.00  0.00     0.000 HD 
ENDROOT
BRANCH   2   4
HETATM    4  C4* UNL     1      -8.678   8.184  68.928  1.00  0.00    -0.137 C  
HETATM    5  O4* UNL     1      -9.138   9.484  68.516  1.00  0.00    -0.130 OA 
HETATM    6  C1* UNL     1     -10.503   9.341  68.081  1.00  0.00    -0.215 C  
HETATM    7  H3* UNL     1     -10.434   5.475  68.534  1.00  0.00     0.000 HD 
HETATM    8  C2* UNL     1     -10.659   7.912  67.576  1.00  0.00    -0.312 C  
HETATM    9  C3* UNL     1      -9.485   7.155  68.149  1.00  0.00    -0.132 C  
HETATM   10  O3* UNL     1      -9.930   6.117  69.020  1.00  0.00    -0.141 OA 
BRANCH   6  11
HETATM   11  N   UNL     1     -10.820  10.359  67.094  1.00  0.00    -0.264 NA 
HETATM   12  C   UNL     1     -11.582  11.479  67.280  1.00  0.00    -0.199 A  
HETATM   13  C   UNL     1     -10.960  11.496  65.238  1.00  0.00    -0.228 A  
HETATM   14  N   UNL     1     -11.685  12.192  66.182  1.00  0.00    -0.522 NA 
HETATM   15  C   UNL     1     -10.383  10.365  65.789  1.00  0.00    -0.187 A  
HETATM   16  N   UNL     1      -9.546   9.416  65.306  1.00  0.00    -0.436 NA 
HETATM   17  C   UNL     1      -8.661   9.825  64.460  1.00  0.00    -0.184 C  
HETATM   18  H   UNL     1      -9.611   8.439  65.591  1.00  0.00     0.000 HD 
HETATM   19  N   UNL     1      -8.406  11.066  63.921  1.00  0.00    -0.357 NA 
HETATM   20  C   UNL     1      -9.432  11.843  63.214  1.00  0.00    -0.050 C  
HETATM   21  H   UNL     1      -7.470  11.459  64.016  1.00  0.00     0.000 HD 
HETATM   22  C   UNL     1     -10.851  11.946  63.827  1.00  0.00    -0.418 C  
HETATM   23  O   UNL     1     -11.774  11.224  62.986  1.00  0.00    -0.863 OA 
HETATM   24  H   UNL     1     -11.704  11.511  62.083  1.00  0.00     0.000 HD 
ENDBRANCH   6  11
ENDBRANCH   2   4
TORSDOF 2
ENDMDL
MODEL      139
REMARK 921   NORMALIZED FREE ENERGY PREDICTED BY IDOCK:   -3.99 KCAL/MOL
REMARK 922        TOTAL FREE ENERGY PREDICTED BY IDOCK:   -5.14 KCAL/MOL
REMARK 923 INTER-LIGAND FREE ENERGY PREDICTED BY IDOCK:   -4.36 KCAL/MOL
REMARK 924 INTRA-LIGAND FREE ENERGY PREDICTED BY IDOCK:   -0.78 KCAL/MOL
REMARK 927      BINDING AFFINITY PREDICTED BY RF-SCORE:    0.00 PKD
ROOT
HETATM    1  O5* UNL     1      -9.000   6.692  65.140  1.00  0.00    -0.362 OA 
HETATM    2  C5* UNL     1      -8.829   5.309  65.450  1.00  0.00    -0.152 C  
HETATM    3  H5* UNL     1      -9.100   6.823  64.204  1.00  0.00     0.000 HD 
ENDROOT
BRANCH   2   4
HETATM    4  C4* UNL     1      -8.666   5.098  66.955  1.00  0.00    -0.107 C  
HETATM    5  O4* UNL     1      -8.498   6.370  67.606  1.00  0.00    -0.117 OA 
HETATM    6  C1* UNL     1      -9.038   6.249  68.936  1.00  0.00    -0.124 C  
HETATM    7  H3* UNL     1     -10.312   2.629  68.286  1.00  0.00     0.000 HD 
HETATM    8  C2* UNL     1     -10.124   5.183  68.877  1.00  0.00    -0.237 C  
HETATM    9  C3* UNL     1      -9.865   4.418  67.601  1.00  0.00    -0.113 C  
HETATM   10  O3* UNL     1      -9.564   3.052  67.883  1.00  0.00    -0.194 OA 
BRANCH   6  11
HETATM   11  N   UNL     1      -9.500   7.545  69.404  1.00  0.00    -0.155 NA 
HETATM   12  C   UNL     1      -9.252   8.118  70.620  1.00  0.00    -0.154 A  
HETATM   13  C   UNL     1     -10.481   9.488  69.539  1.00  0.00    -0.220 A  
HETATM   14  N   UNL     1      -9.826   9.295  70.736  1.00  0.00    -0.266 NA 
HETATM   15  C   UNL     1     -10.268   8.425  68.677  1.00  0.00    -0.201 A  
HETATM   16  N   UNL     1     -10.630   8.177  67.396  1.00  0.00    -0.427 NA 
HETATM   17  C   UNL     1     -10.656   9.202  66.611  1.00  0.00    -0.087 C  
HETATM   18  H   UNL     1     -10.868   7.240  67.071  1.00  0.00     0.000 HD 
HETATM   19  N   UNL     1     -10.402  10.537  66.830  1.00  0.00    -0.229 NA 
HETATM   20  C   UNL     1     -11.107  11.314  67.858  1.00  0.00    -0.267 C  
HETATM   21  H   UNL     1      -9.699  11.003  66.258  1.00  0.00     0.000 HD 
HETATM   22  C   UNL     1     -11.300  10.697  69.265  1.00  0.00    -0.282 C  
HETATM   23  O   UNL     1     -12.702  10.423  69.465  1.00  0.00    -0.663 OA 
HETATM   24  H   UNL     1     -13.225  11.196  69.290  1.00  0.00     0.000 HD 
ENDBRANCH   6  11
ENDBRANCH   2   4
TORSDOF 2
ENDMDL
MODEL      140
REMARK 921   NORMALIZED FREE ENERGY PREDICTED BY IDOCK:   -3.98 KCAL/MOL
REMARK 922        TOTAL FREE ENERGY PREDICTED BY IDOCK:   -5.14 KCAL/MOL
REMARK 923 INTER-LIGAND FREE ENERGY PREDICTED BY IDOCK:   -4.60 KCAL/MOL
REMARK 924 INTRA-LIGAND FREE ENERGY PREDICTED BY IDOCK:   -0.54 KCAL/MOL
REMARK 927      BINDING AFFINITY PREDICTED BY RF-SCORE:    0.00 PKD
ROOT
HETATM    1  O5* UNL     1      -9.610  14.607  65.307  1.00  0.00    -0.491 OA 
HETATM    2  C5* UNL     1      -9.519  13.867  66.526  1.00  0.00    -0.274 C  
HETATM    3  H5* UNL     1      -9.137  15.429  65.370  1.00  0.00     0.000 HD 
ENDROOT
BRANCH   2   4
HETATM    4  C4* UNL     1     -10.280  12.546  66.425  1.00  0.00    -0.244 C  
HETATM    5  O4* UNL     1      -9.684  11.577  67.309  1.00  0.00    -0.181 OA 
HETATM    6  C1* UNL     1     -10.728  10.678  67.730  1.00  0.00    -0.257 C  
HETATM    7  H3* UNL     1     -13.482  12.721  65.887  1.00  0.00     0.000 HD 
HETATM    8  C2* UNL     1     -12.033  11.463  67.683  1.00  0.00     0.002 C  
HETATM    9  C3* UNL     1     -11.747  12.663  66.812  1.00  0.00    -0.392 C  
HETATM   10  O3* UNL     1     -12.567  12.648  65.646  1.00  0.00    -0.611 OA 
BRANCH   6  11
HETATM   11  N   UNL     1     -10.411  10.128  69.037  1.00  0.00    -0.206 NA 
HETATM   12  C   UNL     1     -11.119  10.292  70.195  1.00  0.00    -0.319 A  
HETATM   13  C   UNL     1      -9.428   9.083  70.680  1.00  0.00    -0.236 A  
HETATM   14  N   UNL     1     -10.558   9.672  71.208  1.00  0.00    -0.281 NA 
HETATM   15  C   UNL     1      -9.330   9.325  69.320  1.00  0.00    -0.160 A  
HETATM   16  N   UNL     1      -8.463   8.918  68.362  1.00  0.00    -0.128 NA 
HETATM   17  C   UNL     1      -8.008   7.717  68.489  1.00  0.00    -0.123 C  
HETATM   18  H   UNL     1      -8.187   9.523  67.589  1.00  0.00     0.000 HD 
HETATM   19  N   UNL     1      -8.218   6.749  69.444  1.00  0.00    -0.126 NA 
HETATM   20  C   UNL     1      -7.975   6.985  70.873  1.00  0.00    -0.097 C  
HETATM   21  H   UNL     1      -8.555   5.833  69.148  1.00  0.00     0.000 HD 
HETATM   22  C   UNL     1      -8.474   8.305  71.511  1.00  0.00    -0.140 C  
HETATM   23  O   UNL     1      -7.332   9.111  71.869  1.00  0.00    -0.334 OA 
HETATM   24  H   UNL     1      -6.721   8.613  72.400  1.00  0.00     0.000 HD 
ENDBRANCH   6  11
ENDBRANCH   2   4
TORSDOF 2
ENDMDL
MODEL      141
REMARK 921   NORMALIZED FREE ENERGY PREDICTED BY IDOCK:   -3.97 KCAL/MOL
REMARK 922        TOTAL FREE ENERGY PREDICTED BY IDOCK:   -5.12 KCAL/MOL
REMARK 923 INTER-LIGAND FREE ENERGY PREDICTED BY IDOCK:   -4.57 KCAL/MOL
REMARK 924 INTRA-LIGAND FREE ENERGY PREDICTED BY IDOCK:   -0.56 KCAL/MOL
REMARK 927      BINDING AFFINITY PREDICTED BY RF-SCORE:    0.00 PKD
ROOT
HETATM    1  O5* UNL     1      -8.761   9.422  71.263  1.00  0.00    -0.295 OA 
HETATM    2  C5* UNL     1      -9.587   8.274  71.459  1.00  0.00    -0.188 C  
HETATM    3  H5* UNL     1      -8.105   9.492  71.945  1.00  0.00     0.000 HD 
ENDROOT
BRANCH   2   4
HETATM    4  C4* UNL     1     -10.645   8.161  70.362  1.00  0.00    -0.224 C  
HETATM    5  O4* UNL     1     -10.676   9.378  69.593  1.00  0.00    -0.225 OA 
HETATM    6  C1* UNL     1     -11.084   9.034  68.256  1.00  0.00     0.215 C  
HETATM    7  H3* UNL     1     -11.099   5.222  69.045  1.00  0.00     0.000 HD 
HETATM    8  C2* UNL     1     -10.642   7.596  68.015  1.00  0.00    -0.213 C  
HETATM    9  C3* UNL     1     -10.382   7.022  69.387  1.00  0.00    -0.207 C  
HETATM   10  O3* UNL     1     -11.263   5.932  69.654  1.00  0.00    -0.395 OA 
BRANCH   6  11
HETATM   11  N   UNL     1     -10.539   9.991  67.308  1.00  0.00    -0.258 NA 
HETATM   12  C   UNL     1      -9.919   9.715  66.122  1.00  0.00    -0.276 A  
HETATM   13  C   UNL     1      -9.911  11.839  66.334  1.00  0.00    -0.214 A  
HETATM   14  N   UNL     1      -9.530  10.807  65.504  1.00  0.00    -0.197 NA 
HETATM   15  C   UNL     1     -10.572  11.359  67.453  1.00  0.00    -0.218 A  
HETATM   16  N   UNL     1     -11.183  11.959  68.502  1.00  0.00    -0.233 NA 
HETATM   17  C   UNL     1     -11.798  13.063  68.239  1.00  0.00    -0.343 C  
HETATM   18  H   UNL     1     -11.159  11.563  69.442  1.00  0.00     0.000 HD 
HETATM   19  N   UNL     1     -11.940  13.783  67.074  1.00  0.00    -0.408 NA 
HETATM   20  C   UNL     1     -10.789  14.243  66.287  1.00  0.00    -0.310 C  
HETATM   21  H   UNL     1     -12.880  14.005  66.747  1.00  0.00     0.000 HD 
HETATM   22  C   UNL     1      -9.621  13.262  66.022  1.00  0.00    -0.160 C  
HETATM   23  O   UNL     1      -8.457  13.717  66.744  1.00  0.00    -0.419 OA 
HETATM   24  H   UNL     1      -8.272  14.628  66.544  1.00  0.00     0.000 HD 
ENDBRANCH   6  11
ENDBRANCH   2   4
TORSDOF 2
ENDMDL
MODEL      142
REMARK 921   NORMALIZED FREE ENERGY PREDICTED BY IDOCK:   -3.96 KCAL/MOL
REMARK 922        TOTAL FREE ENERGY PREDICTED BY IDOCK:   -5.12 KCAL/MOL
REMARK 923 INTER-LIGAND FREE ENERGY PREDICTED BY IDOCK:   -4.55 KCAL/MOL
REMARK 924 INTRA-LIGAND FREE ENERGY PREDICTED BY IDOCK:   -0.57 KCAL/MOL
REMARK 927      BINDING AFFINITY PREDICTED BY RF-SCORE:    0.00 PKD
ROOT
HETATM    1  O5* UNL     1     -12.438   7.135  70.205  1.00  0.00    -0.592 OA 
HETATM    2  C5* UNL     1     -11.953   7.579  71.473  1.00  0.00    -0.307 C  
HETATM    3  H5* UNL     1     -12.575   6.195  70.201  1.00  0.00     0.000 HD 
ENDROOT
BRANCH   2   4
HETATM    4  C4* UNL     1     -11.731   9.091  71.480  1.00  0.00    -0.345 C  
HETATM    5  O4* UNL     1     -10.661   9.427  70.577  1.00  0.00    -0.232 OA 
HETATM    6  C1* UNL     1     -10.922  10.749  70.071  1.00  0.00    -0.211 C  
HETATM    7  H3* UNL     1     -14.356  10.966  71.894  1.00  0.00     0.000 HD 
HETATM    8  C2* UNL     1     -12.433  10.944  70.102  1.00  0.00    -0.356 C  
HETATM    9  C3* UNL     1     -12.955   9.881  71.039  1.00  0.00    -0.331 C  
HETATM   10  O3* UNL     1     -13.592  10.473  72.169  1.00  0.00    -0.308 OA 
BRANCH   6  11
HETATM   11  N   UNL     1     -10.329  10.904  68.754  1.00  0.00    -0.189 NA 
HETATM   12  C   UNL     1     -10.985  11.116  67.574  1.00  0.00    -0.275 A  
HETATM   13  C   UNL     1      -8.904  11.026  67.107  1.00  0.00    -0.140 A  
HETATM   14  N   UNL     1     -10.156  11.199  66.558  1.00  0.00    -0.216 NA 
HETATM   15  C   UNL     1      -8.980  10.872  68.481  1.00  0.00    -0.157 A  
HETATM   16  N   UNL     1      -8.050  10.742  69.457  1.00  0.00    -0.375 NA 
HETATM   17  C   UNL     1      -6.961  11.415  69.289  1.00  0.00    -0.115 C  
HETATM   18  H   UNL     1      -8.200  10.150  70.274  1.00  0.00     0.000 HD 
HETATM   19  N   UNL     1      -6.538  12.244  68.275  1.00  0.00    -0.054 NA 
HETATM   20  C   UNL     1      -6.478  11.807  66.874  1.00  0.00    -0.121 C  
HETATM   21  H   UNL     1      -6.256  13.196  68.505  1.00  0.00     0.000 HD 
HETATM   22  C   UNL     1      -7.668  11.012  66.283  1.00  0.00    -0.132 C  
HETATM   23  O   UNL     1      -7.241   9.658  66.024  1.00  0.00    -0.094 OA 
HETATM   24  H   UNL     1      -6.450   9.649  65.497  1.00  0.00     0.000 HD 
ENDBRANCH   6  11
ENDBRANCH   2   4
TORSDOF 2
ENDMDL
MODEL      143
REMARK 921   NORMALIZED FREE ENERGY PREDICTED BY IDOCK:   -3.94 KCAL/MOL
REMARK 922        TOTAL FREE ENERGY PREDICTED BY IDOCK:   -5.09 KCAL/MOL
REMARK 923 INTER-LIGAND FREE ENERGY PREDICTED BY IDOCK:   -4.76 KCAL/MOL
REMARK 924 INTRA-LIGAND FREE ENERGY PREDICTED BY IDOCK:   -0.34 KCAL/MOL
REMARK 927      BINDING AFFINITY PREDICTED BY RF-SCORE:    0.00 PKD
ROOT
HETATM    1  O5* UNL     1     -12.239  13.293  70.105  1.00  0.00    -0.334 OA 
HETATM    2  C5* UNL     1     -12.171  14.436  69.252  1.00  0.00    -0.239 C  
HETATM    3  H5* UNL     1     -13.086  13.234  70.531  1.00  0.00     0.000 HD 
ENDROOT
BRANCH   2   4
HETATM    4  C4* UNL     1     -10.808  14.531  68.566  1.00  0.00    -0.249 C  
HETATM    5  O4* UNL     1     -10.440  13.242  68.041  1.00  0.00    -0.230 OA 
HETATM    6  C1* UNL     1      -9.616  13.468  66.882  1.00  0.00    -0.258 C  
HETATM    7  H3* UNL     1     -10.105  17.326  67.060  1.00  0.00     0.000 HD 
HETATM    8  C2* UNL     1     -10.033  14.812  66.298  1.00  0.00    -0.308 C  
HETATM    9  C3* UNL     1     -10.786  15.513  67.403  1.00  0.00    -0.301 C  
HETATM   10  O3* UNL     1     -10.119  16.714  67.786  1.00  0.00    -0.259 OA 
BRANCH   6  11
HETATM   11  N   UNL     1      -9.741  12.353  65.959  1.00  0.00    -0.253 NA 
HETATM   12  C   UNL     1     -10.787  12.091  65.119  1.00  0.00    -0.300 A  
HETATM   13  C   UNL     1      -9.370  10.521  64.834  1.00  0.00    -0.232 A  
HETATM   14  N   UNL     1     -10.596  10.994  64.421  1.00  0.00    -0.351 NA 
HETATM   15  C   UNL     1      -8.799  11.367  65.770  1.00  0.00    -0.111 A  
HETATM   16  N   UNL     1      -7.606  11.378  66.413  1.00  0.00    -0.321 NA 
HETATM   17  C   UNL     1      -6.595  10.961  65.726  1.00  0.00    -0.005 C  
HETATM   18  H   UNL     1      -7.513  11.695  67.377  1.00  0.00     0.000 HD 
HETATM   19  N   UNL     1      -6.490  10.473  64.444  1.00  0.00    -0.350 NA 
HETATM   20  C   UNL     1      -7.277   9.326  63.970  1.00  0.00    -0.098 C  
HETATM   21  H   UNL     1      -5.843  10.924  63.799  1.00  0.00     0.000 HD 
HETATM   22  C   UNL     1      -8.786   9.259  64.313  1.00  0.00    -0.175 C  
HETATM   23  O   UNL     1      -9.005   8.173  65.236  1.00  0.00    -0.381 OA 
HETATM   24  H   UNL     1      -8.632   7.365  64.903  1.00  0.00     0.000 HD 
ENDBRANCH   6  11
ENDBRANCH   2   4
TORSDOF 2
ENDMDL
MODEL      144
REMARK 921   NORMALIZED FREE ENERGY PREDICTED BY IDOCK:   -3.93 KCAL/MOL
REMARK 922        TOTAL FREE ENERGY PREDICTED BY IDOCK:   -5.08 KCAL/MOL
REMARK 923 INTER-LIGAND FREE ENERGY PREDICTED BY IDOCK:   -4.55 KCAL/MOL
REMARK 924 INTRA-LIGAND FREE ENERGY PREDICTED BY IDOCK:   -0.53 KCAL/MOL
REMARK 927      BINDING AFFINITY PREDICTED BY RF-SCORE:    0.00 PKD
ROOT
HETATM    1  O5* UNL     1     -13.135  12.896  71.962  1.00  0.00    -0.406 OA 
HETATM    2  C5* UNL     1     -13.285  13.967  71.029  1.00  0.00    -0.227 C  
HETATM    3  H5* UNL     1     -13.937  12.755  72.452  1.00  0.00     0.000 HD 
ENDROOT
BRANCH   2   4
HETATM    4  C4* UNL     1     -11.996  14.195  70.241  1.00  0.00    -0.334 C  
HETATM    5  O4* UNL     1     -11.384  12.928  69.937  1.00  0.00    -0.123 OA 
HETATM    6  C1* UNL     1     -10.665  13.082  68.699  1.00  0.00    -0.248 C  
HETATM    7  H3* UNL     1     -11.943  16.725  68.197  1.00  0.00     0.000 HD 
HETATM    8  C2* UNL     1     -11.373  14.175  67.909  1.00  0.00    -0.318 C  
HETATM    9  C3* UNL     1     -12.218  14.915  68.918  1.00  0.00    -0.108 C  
HETATM   10  O3* UNL     1     -11.804  16.276  69.023  1.00  0.00    -0.267 OA 
BRANCH   6  11
HETATM   11  N   UNL     1     -10.585  11.805  68.009  1.00  0.00    -0.199 NA 
HETATM   12  C   UNL     1     -10.841  11.565  66.688  1.00  0.00    -0.287 A  
HETATM   13  C   UNL     1     -10.322   9.687  67.560  1.00  0.00    -0.241 A  
HETATM   14  N   UNL     1     -10.689  10.297  66.380  1.00  0.00    -0.094 NA 
HETATM   15  C   UNL     1     -10.218  10.611  68.586  1.00  0.00    -0.182 A  
HETATM   16  N   UNL     1      -9.834  10.525  69.883  1.00  0.00    -0.413 NA 
HETATM   17  C   UNL     1      -8.883   9.688  70.133  1.00  0.00    -0.231 C  
HETATM   18  H   UNL     1     -10.268  11.086  70.615  1.00  0.00     0.000 HD 
HETATM   19  N   UNL     1      -8.179   8.826  69.324  1.00  0.00    -0.107 NA 
HETATM   20  C   UNL     1      -8.838   7.817  68.484  1.00  0.00    -0.130 C  
HETATM   21  H   UNL     1      -7.161   8.890  69.307  1.00  0.00     0.000 HD 
HETATM   22  C   UNL     1     -10.085   8.224  67.662  1.00  0.00    -0.209 C  
HETATM   23  O   UNL     1     -11.241   7.555  68.206  1.00  0.00    -0.428 OA 
HETATM   24  H   UNL     1     -11.090   6.619  68.271  1.00  0.00     0.000 HD 
ENDBRANCH   6  11
ENDBRANCH   2   4
TORSDOF 2
ENDMDL
MODEL      145
REMARK 921   NORMALIZED FREE ENERGY PREDICTED BY IDOCK:   -3.92 KCAL/MOL
REMARK 922        TOTAL FREE ENERGY PREDICTED BY IDOCK:   -5.07 KCAL/MOL
REMARK 923 INTER-LIGAND FREE ENERGY PREDICTED BY IDOCK:   -4.73 KCAL/MOL
REMARK 924 INTRA-LIGAND FREE ENERGY PREDICTED BY IDOCK:   -0.35 KCAL/MOL
REMARK 927      BINDING AFFINITY PREDICTED BY RF-SCORE:    0.00 PKD
ROOT
HETATM    1  O5* UNL     1      -8.128   9.786  64.308  1.00  0.00    -0.134 OA 
HETATM    2  C5* UNL     1      -8.311   8.394  64.570  1.00  0.00    -0.116 C  
HETATM    3  H5* UNL     1      -8.000   9.946  63.380  1.00  0.00     0.000 HD 
ENDROOT
BRANCH   2   4
HETATM    4  C4* UNL     1      -8.516   8.137  66.062  1.00  0.00    -0.141 C  
HETATM    5  O4* UNL     1      -8.870   9.368  66.721  1.00  0.00    -0.126 OA 
HETATM    6  C1* UNL     1      -9.701   9.031  67.848  1.00  0.00    -0.155 C  
HETATM    7  H3* UNL     1      -9.762   5.254  66.906  1.00  0.00     0.000 HD 
HETATM    8  C2* UNL     1     -10.413   7.731  67.498  1.00  0.00    -0.338 C  
HETATM    9  C3* UNL     1      -9.626   7.137  66.354  1.00  0.00    -0.098 C  
HETATM   10  O3* UNL     1      -9.069   5.878  66.724  1.00  0.00    -0.122 OA 
BRANCH   6  11
HETATM   11  N   UNL     1     -10.594  10.135  68.153  1.00  0.00    -0.207 NA 
HETATM   12  C   UNL     1     -11.234  10.950  67.261  1.00  0.00    -0.233 A  
HETATM   13  C   UNL     1     -11.779  11.632  69.209  1.00  0.00    -0.331 A  
HETATM   14  N   UNL     1     -11.962  11.863  67.862  1.00  0.00    -0.577 NA 
HETATM   15  C   UNL     1     -10.955  10.539  69.419  1.00  0.00    -0.250 A  
HETATM   16  N   UNL     1     -10.538   9.887  70.530  1.00  0.00    -0.300 NA 
HETATM   17  C   UNL     1     -11.397   9.806  71.490  1.00  0.00    -0.275 C  
HETATM   18  H   UNL     1      -9.604   9.485  70.603  1.00  0.00     0.000 HD 
HETATM   19  N   UNL     1     -12.680  10.284  71.620  1.00  0.00    -0.426 NA 
HETATM   20  C   UNL     1     -13.013  11.705  71.450  1.00  0.00    -0.324 C  
HETATM   21  H   UNL     1     -13.428   9.628  71.843  1.00  0.00     0.000 HD 
HETATM   22  C   UNL     1     -12.406  12.480  70.255  1.00  0.00    -0.190 C  
HETATM   23  O   UNL     1     -11.465  13.451  70.759  1.00  0.00    -0.383 OA 
HETATM   24  H   UNL     1     -11.866  13.993  71.428  1.00  0.00     0.000 HD 
ENDBRANCH   6  11
ENDBRANCH   2   4
TORSDOF 2
ENDMDL
MODEL      146
REMARK 921   NORMALIZED FREE ENERGY PREDICTED BY IDOCK:   -3.91 KCAL/MOL
REMARK 922        TOTAL FREE ENERGY PREDICTED BY IDOCK:   -5.05 KCAL/MOL
REMARK 923 INTER-LIGAND FREE ENERGY PREDICTED BY IDOCK:   -4.44 KCAL/MOL
REMARK 924 INTRA-LIGAND FREE ENERGY PREDICTED BY IDOCK:   -0.61 KCAL/MOL
REMARK 927      BINDING AFFINITY PREDICTED BY RF-SCORE:    0.00 PKD
ROOT
HETATM    1  O5* UNL     1     -11.419   6.462  68.657  1.00  0.00    -0.560 OA 
HETATM    2  C5* UNL     1     -11.774   6.419  70.039  1.00  0.00    -0.275 C  
HETATM    3  H5* UNL     1     -12.157   6.226  68.107  1.00  0.00     0.000 HD 
ENDROOT
BRANCH   2   4
HETATM    4  C4* UNL     1     -10.587   6.798  70.925  1.00  0.00    -0.220 C  
HETATM    5  O4* UNL     1      -9.586   7.464  70.132  1.00  0.00    -0.165 OA 
HETATM    6  C1* UNL     1      -8.891   8.381  70.998  1.00  0.00    -0.161 C  
HETATM    7  H3* UNL     1     -11.244   7.617  74.003  1.00  0.00     0.000 HD 
HETATM    8  C2* UNL     1      -9.871   8.786  72.091  1.00  0.00    -0.347 C  
HETATM    9  C3* UNL     1     -10.960   7.741  72.061  1.00  0.00    -0.257 C  
HETATM   10  O3* UNL     1     -11.012   7.028  73.295  1.00  0.00    -0.303 OA 
BRANCH   6  11
HETATM   11  N   UNL     1      -8.369   9.495  70.223  1.00  0.00    -0.185 NA 
HETATM   12  C   UNL     1      -7.090   9.978  70.232  1.00  0.00    -0.150 A  
HETATM   13  C   UNL     1      -8.193  11.199  68.872  1.00  0.00    -0.104 A  
HETATM   14  N   UNL     1      -6.946  11.004  69.425  1.00  0.00    -0.116 NA 
HETATM   15  C   UNL     1      -9.093  10.250  69.329  1.00  0.00    -0.194 A  
HETATM   16  N   UNL     1     -10.389   9.980  69.041  1.00  0.00    -0.194 NA 
HETATM   17  C   UNL     1     -10.741  10.164  67.812  1.00  0.00    -0.277 C  
HETATM   18  H   UNL     1     -11.045   9.652  69.749  1.00  0.00     0.000 HD 
HETATM   19  N   UNL     1     -10.048  10.614  66.713  1.00  0.00    -0.216 NA 
HETATM   20  C   UNL     1      -9.345  11.904  66.698  1.00  0.00    -0.205 C  
HETATM   21  H   UNL     1     -10.021  10.030  65.877  1.00  0.00     0.000 HD 
HETATM   22  C   UNL     1      -8.480  12.301  67.919  1.00  0.00    -0.165 C  
HETATM   23  O   UNL     1      -9.108  13.411  68.593  1.00  0.00    -0.350 OA 
HETATM   24  H   UNL     1      -9.291  14.116  67.984  1.00  0.00     0.000 HD 
ENDBRANCH   6  11
ENDBRANCH   2   4
TORSDOF 2
ENDMDL
MODEL      147
REMARK 921   NORMALIZED FREE ENERGY PREDICTED BY IDOCK:   -3.90 KCAL/MOL
REMARK 922        TOTAL FREE ENERGY PREDICTED BY IDOCK:   -5.05 KCAL/MOL
REMARK 923 INTER-LIGAND FREE ENERGY PREDICTED BY IDOCK:   -4.71 KCAL/MOL
REMARK 924 INTRA-LIGAND FREE ENERGY PREDICTED BY IDOCK:   -0.34 KCAL/MOL
REMARK 927      BINDING AFFINITY PREDICTED BY RF-SCORE:    0.00 PKD
ROOT
HETATM    1  O5* UNL     1     -11.381   9.650  68.021  1.00  0.00    -0.525 OA 
HETATM    2  C5* UNL     1     -10.342   8.827  67.490  1.00  0.00    -0.268 C  
HETATM    3  H5* UNL     1     -12.008   9.134  68.513  1.00  0.00     0.000 HD 
ENDROOT
BRANCH   2   4
HETATM    4  C4* UNL     1      -9.333   9.656  66.697  1.00  0.00    -0.156 C  
HETATM    5  O4* UNL     1      -9.696  11.048  66.759  1.00  0.00    -0.187 OA 
HETATM    6  C1* UNL     1      -8.482  11.816  66.662  1.00  0.00    -0.153 C  
HETATM    7  H3* UNL     1      -6.247   8.628  66.702  1.00  0.00     0.000 HD 
HETATM    8  C2* UNL     1      -7.364  10.949  67.228  1.00  0.00    -0.103 C  
HETATM    9  C3* UNL     1      -7.910   9.541  67.225  1.00  0.00    -0.098 C  
HETATM   10  O3* UNL     1      -7.135   8.700  66.372  1.00  0.00    -0.077 OA 
BRANCH   6  11
HETATM   11  N   UNL     1      -8.646  13.091  67.339  1.00  0.00    -0.189 NA 
HETATM   12  C   UNL     1      -7.736  14.109  67.412  1.00  0.00    -0.169 A  
HETATM   13  C   UNL     1      -9.450  14.744  68.514  1.00  0.00    -0.214 A  
HETATM   14  N   UNL     1      -8.189  15.125  68.111  1.00  0.00    -0.141 NA 
HETATM   15  C   UNL     1      -9.774  13.492  68.019  1.00  0.00    -0.228 A  
HETATM   16  N   UNL     1     -10.890  12.727  68.075  1.00  0.00    -0.225 NA 
HETATM   17  C   UNL     1     -12.011  13.366  68.034  1.00  0.00    -0.322 C  
HETATM   18  H   UNL     1     -10.848  11.711  68.145  1.00  0.00     0.000 HD 
HETATM   19  N   UNL     1     -12.304  14.709  67.966  1.00  0.00    -0.589 NA 
HETATM   20  C   UNL     1     -11.794  15.678  68.946  1.00  0.00    -0.352 C  
HETATM   21  H   UNL     1     -12.897  15.044  67.208  1.00  0.00     0.000 HD 
HETATM   22  C   UNL     1     -10.307  15.603  69.370  1.00  0.00    -0.260 C  
HETATM   23  O   UNL     1     -10.236  15.184  70.749  1.00  0.00    -0.448 OA 
HETATM   24  H   UNL     1     -10.784  15.733  71.297  1.00  0.00     0.000 HD 
ENDBRANCH   6  11
ENDBRANCH   2   4
TORSDOF 2
ENDMDL
MODEL      148
REMARK 921   NORMALIZED FREE ENERGY PREDICTED BY IDOCK:   -3.87 KCAL/MOL
REMARK 922        TOTAL FREE ENERGY PREDICTED BY IDOCK:   -5.01 KCAL/MOL
REMARK 923 INTER-LIGAND FREE ENERGY PREDICTED BY IDOCK:   -4.53 KCAL/MOL
REMARK 924 INTRA-LIGAND FREE ENERGY PREDICTED BY IDOCK:   -0.49 KCAL/MOL
REMARK 927      BINDING AFFINITY PREDICTED BY RF-SCORE:    0.00 PKD
ROOT
HETATM    1  O5* UNL     1     -10.220  10.657  62.361  1.00  0.00    -0.743 OA 
HETATM    2  C5* UNL     1      -9.656  11.000  63.627  1.00  0.00    -0.292 C  
HETATM    3  H5* UNL     1      -9.560  10.664  61.679  1.00  0.00     0.000 HD 
ENDROOT
BRANCH   2   4
HETATM    4  C4* UNL     1     -10.719  10.989  64.725  1.00  0.00    -0.234 C  
HETATM    5  O4* UNL     1     -10.506   9.859  65.593  1.00  0.00    -0.144 OA 
HETATM    6  C1* UNL     1     -10.982  10.225  66.902  1.00  0.00    -0.070 C  
HETATM    7  H3* UNL     1     -11.763  13.876  65.799  1.00  0.00     0.000 HD 
HETATM    8  C2* UNL     1     -10.840  11.737  67.017  1.00  0.00    -0.306 C  
HETATM    9  C3* UNL     1     -10.696  12.235  65.599  1.00  0.00    -0.267 C  
HETATM   10  O3* UNL     1     -11.777  13.098  65.253  1.00  0.00    -0.319 OA 
BRANCH   6  11
HETATM   11  N   UNL     1     -10.258   9.480  67.919  1.00  0.00    -0.192 NA 
HETATM   12  C   UNL     1      -9.782   9.958  69.108  1.00  0.00    -0.198 A  
HETATM   13  C   UNL     1      -9.233   7.897  69.014  1.00  0.00    -0.147 A  
HETATM   14  N   UNL     1      -9.161   9.029  69.798  1.00  0.00    -0.151 NA 
HETATM   15  C   UNL     1      -9.941   8.143  67.850  1.00  0.00    -0.182 A  
HETATM   16  N   UNL     1     -10.335   7.361  66.816  1.00  0.00    -0.440 NA 
HETATM   17  C   UNL     1     -10.665   6.151  67.121  1.00  0.00    -0.346 C  
HETATM   18  H   UNL     1     -10.368   7.707  65.857  1.00  0.00     0.000 HD 
HETATM   19  N   UNL     1     -10.676   5.473  68.318  1.00  0.00    -0.143 NA 
HETATM   20  C   UNL     1      -9.483   5.354  69.167  1.00  0.00    -0.133 C  
HETATM   21  H   UNL     1     -11.544   5.036  68.626  1.00  0.00     0.000 HD 
HETATM   22  C   UNL     1      -8.611   6.609  69.414  1.00  0.00    -0.135 C  
HETATM   23  O   UNL     1      -7.339   6.429  68.758  1.00  0.00    -0.082 OA 
HETATM   24  H   UNL     1      -6.941   5.605  69.014  1.00  0.00     0.000 HD 
ENDBRANCH   6  11
ENDBRANCH   2   4
TORSDOF 2
ENDMDL
MODEL      149
REMARK 921   NORMALIZED FREE ENERGY PREDICTED BY IDOCK:   -3.87 KCAL/MOL
REMARK 922        TOTAL FREE ENERGY PREDICTED BY IDOCK:   -5.01 KCAL/MOL
REMARK 923 INTER-LIGAND FREE ENERGY PREDICTED BY IDOCK:   -4.33 KCAL/MOL
REMARK 924 INTRA-LIGAND FREE ENERGY PREDICTED BY IDOCK:   -0.68 KCAL/MOL
REMARK 927      BINDING AFFINITY PREDICTED BY RF-SCORE:    0.00 PKD
ROOT
HETATM    1  O5* UNL     1     -10.666  16.445  65.423  1.00  0.00    -0.416 OA 
HETATM    2  C5* UNL     1      -9.854  16.863  66.521  1.00  0.00    -0.296 C  
HETATM    3  H5* UNL     1     -10.557  17.023  64.678  1.00  0.00     0.000 HD 
ENDROOT
BRANCH   2   4
HETATM    4  C4* UNL     1     -10.029  15.933  67.721  1.00  0.00    -0.229 C  
HETATM    5  O4* UNL     1     -10.729  14.743  67.313  1.00  0.00    -0.282 OA 
HETATM    6  C1* UNL     1     -10.283  13.667  68.160  1.00  0.00    -0.247 C  
HETATM    7  H3* UNL     1      -7.647  15.915  69.935  1.00  0.00     0.000 HD 
HETATM    8  C2* UNL     1      -8.864  14.008  68.597  1.00  0.00    -0.104 C  
HETATM    9  C3* UNL     1      -8.709  15.487  68.336  1.00  0.00    -0.174 C  
HETATM   10  O3* UNL     1      -8.470  16.193  69.552  1.00  0.00    -0.166 OA 
BRANCH   6  11
HETATM   11  N   UNL     1     -10.402  12.401  67.457  1.00  0.00    -0.213 NA 
HETATM   12  C   UNL     1     -10.784  11.198  67.984  1.00  0.00    -0.211 A  
HETATM   13  C   UNL     1     -10.364  10.854  65.920  1.00  0.00    -0.250 A  
HETATM   14  N   UNL     1     -10.777  10.241  67.084  1.00  0.00    -0.257 NA 
HETATM   15  C   UNL     1     -10.154  12.208  66.117  1.00  0.00    -0.228 A  
HETATM   16  N   UNL     1      -9.817  13.229  65.293  1.00  0.00    -0.513 NA 
HETATM   17  C   UNL     1     -10.302  13.169  64.098  1.00  0.00    -0.263 C  
HETATM   18  H   UNL     1      -9.217  13.996  65.597  1.00  0.00     0.000 HD 
HETATM   19  N   UNL     1     -11.097  12.237  63.472  1.00  0.00    -0.530 NA 
HETATM   20  C   UNL     1     -10.729  10.818  63.387  1.00  0.00     0.238 C  
HETATM   21  H   UNL     1     -11.973  12.544  63.052  1.00  0.00     0.000 HD 
HETATM   22  C   UNL     1     -10.181  10.107  64.649  1.00  0.00     0.007 C  
HETATM   23  O   UNL     1      -8.790   9.790  64.437  1.00  0.00    -0.195 OA 
HETATM   24  H   UNL     1      -8.672   9.313  63.624  1.00  0.00     0.000 HD 
ENDBRANCH   6  11
ENDBRANCH   2   4
TORSDOF 2
ENDMDL
MODEL      150
REMARK 921   NORMALIZED FREE ENERGY PREDICTED BY IDOCK:   -3.85 KCAL/MOL
REMARK 922        TOTAL FREE ENERGY PREDICTED BY IDOCK:   -4.99 KCAL/MOL
REMARK 923 INTER-LIGAND FREE ENERGY PREDICTED BY IDOCK:   -4.66 KCAL/MOL
REMARK 924 INTRA-LIGAND FREE ENERGY PREDICTED BY IDOCK:   -0.33 KCAL/MOL
REMARK 927      BINDING AFFINITY PREDICTED BY RF-SCORE:    0.00 PKD
ROOT
HETATM    1  O5* UNL     1     -10.011  15.623  65.171  1.00  0.00    -0.357 OA 
HETATM    2  C5* UNL     1      -9.705  14.615  66.134  1.00  0.00    -0.319 C  
HETATM    3  H5* UNL     1      -9.685  16.471  65.448  1.00  0.00     0.000 HD 
ENDROOT
BRANCH   2   4
HETATM    4  C4* UNL     1     -10.230  13.250  65.689  1.00  0.00    -0.289 C  
HETATM    5  O4* UNL     1      -9.322  12.219  66.118  1.00  0.00    -0.230 OA 
HETATM    6  C1* UNL     1     -10.097  11.025  66.337  1.00  0.00    -0.229 C  
HETATM    7  H3* UNL     1     -13.458  12.858  65.631  1.00  0.00     0.000 HD 
HETATM    8  C2* UNL     1     -11.504  11.473  66.713  1.00  0.00    -0.233 C  
HETATM    9  C3* UNL     1     -11.598  12.913  66.267  1.00  0.00    -0.372 C  
HETATM   10  O3* UNL     1     -12.605  13.069  65.270  1.00  0.00    -0.486 OA 
BRANCH   6  11
HETATM   11  N   UNL     1      -9.452  10.190  67.335  1.00  0.00    -0.151 NA 
HETATM   12  C   UNL     1      -8.674  10.605  68.380  1.00  0.00    -0.141 A  
HETATM   13  C   UNL     1      -8.739   8.474  68.478  1.00  0.00    -0.139 A  
HETATM   14  N   UNL     1      -8.229   9.597  69.094  1.00  0.00    -0.113 NA 
HETATM   15  C   UNL     1      -9.532   8.817  67.396  1.00  0.00    -0.146 A  
HETATM   16  N   UNL     1     -10.290   8.101  66.532  1.00  0.00    -0.451 NA 
HETATM   17  C   UNL     1     -10.888   7.070  67.030  1.00  0.00    -0.343 C  
HETATM   18  H   UNL     1     -10.383   8.358  65.550  1.00  0.00     0.000 HD 
HETATM   19  N   UNL     1     -10.889   6.528  68.295  1.00  0.00    -0.319 NA 
HETATM   20  C   UNL     1      -9.653   6.138  68.987  1.00  0.00    -0.127 C  
HETATM   21  H   UNL     1     -11.781   6.393  68.769  1.00  0.00     0.000 HD 
HETATM   22  C   UNL     1      -8.440   7.099  68.954  1.00  0.00    -0.126 C  
HETATM   23  O   UNL     1      -7.393   6.500  68.162  1.00  0.00    -0.085 OA 
HETATM   24  H   UNL     1      -7.201   5.620  68.466  1.00  0.00     0.000 HD 
ENDBRANCH   6  11
ENDBRANCH   2   4
TORSDOF 2
ENDMDL
MODEL      151
REMARK 921   NORMALIZED FREE ENERGY PREDICTED BY IDOCK:   -3.84 KCAL/MOL
REMARK 922        TOTAL FREE ENERGY PREDICTED BY IDOCK:   -4.98 KCAL/MOL
REMARK 923 INTER-LIGAND FREE ENERGY PREDICTED BY IDOCK:   -4.37 KCAL/MOL
REMARK 924 INTRA-LIGAND FREE ENERGY PREDICTED BY IDOCK:   -0.61 KCAL/MOL
REMARK 927      BINDING AFFINITY PREDICTED BY RF-SCORE:    0.00 PKD
ROOT
HETATM    1  O5* UNL     1     -12.144  12.648  70.850  1.00  0.00    -0.456 OA 
HETATM    2  C5* UNL     1     -12.408  13.827  70.090  1.00  0.00    -0.323 C  
HETATM    3  H5* UNL     1     -12.943  12.295  71.223  1.00  0.00     0.000 HD 
ENDROOT
BRANCH   2   4
HETATM    4  C4* UNL     1     -11.122  14.395  69.489  1.00  0.00    -0.231 C  
HETATM    5  O4* UNL     1     -10.191  13.325  69.240  1.00  0.00     0.119 OA 
HETATM    6  C1* UNL     1      -9.379  13.713  68.116  1.00  0.00    -0.212 C  
HETATM    7  H3* UNL     1     -11.420  16.977  67.535  1.00  0.00     0.000 HD 
HETATM    8  C2* UNL     1     -10.224  14.652  67.264  1.00  0.00    -0.241 C  
HETATM    9  C3* UNL     1     -11.342  15.116  68.167  1.00  0.00    -0.335 C  
HETATM   10  O3* UNL     1     -11.283  16.527  68.360  1.00  0.00    -0.359 OA 
BRANCH   6  11
HETATM   11  N   UNL     1      -8.909  12.532  67.412  1.00  0.00    -0.178 NA 
HETATM   12  C   UNL     1      -7.636  12.281  66.981  1.00  0.00    -0.071 A  
HETATM   13  C   UNL     1      -8.820  10.605  66.394  1.00  0.00    -0.154 A  
HETATM   14  N   UNL     1      -7.544  11.124  66.366  1.00  0.00    -0.136 NA 
HETATM   15  C   UNL     1      -9.686  11.449  67.070  1.00  0.00    -0.190 A  
HETATM   16  N   UNL     1     -10.992  11.360  67.417  1.00  0.00    -0.256 NA 
HETATM   17  C   UNL     1     -11.410  10.180  67.736  1.00  0.00     0.018 C  
HETATM   18  H   UNL     1     -11.607  12.173  67.426  1.00  0.00     0.000 HD 
HETATM   19  N   UNL     1     -10.778   8.958  67.773  1.00  0.00    -0.453 NA 
HETATM   20  C   UNL     1     -10.090   8.392  66.605  1.00  0.00    -0.288 C  
HETATM   21  H   UNL     1     -10.789   8.427  68.642  1.00  0.00     0.000 HD 
HETATM   22  C   UNL     1      -9.166   9.305  65.763  1.00  0.00    -0.224 C  
HETATM   23  O   UNL     1      -9.769   9.510  64.468  1.00  0.00    -0.407 OA 
HETATM   24  H   UNL     1      -9.990   8.679  64.064  1.00  0.00     0.000 HD 
ENDBRANCH   6  11
ENDBRANCH   2   4
TORSDOF 2
ENDMDL
MODEL      152
REMARK 921   NORMALIZED FREE ENERGY PREDICTED BY IDOCK:   -3.81 KCAL/MOL
REMARK 922        TOTAL FREE ENERGY PREDICTED BY IDOCK:   -4.94 KCAL/MOL
REMARK 923 INTER-LIGAND FREE ENERGY PREDICTED BY IDOCK:   -4.58 KCAL/MOL
REMARK 924 INTRA-LIGAND FREE ENERGY PREDICTED BY IDOCK:   -0.37 KCAL/MOL
REMARK 927      BINDING AFFINITY PREDICTED BY RF-SCORE:    0.00 PKD
ROOT
HETATM    1  O5* UNL     1     -11.833  12.763  63.008  1.00  0.00    -0.780 OA 
HETATM    2  C5* UNL     1     -10.717  11.982  63.439  1.00  0.00    -0.417 C  
HETATM    3  H5* UNL     1     -11.750  13.001  62.092  1.00  0.00     0.000 HD 
ENDROOT
BRANCH   2   4
HETATM    4  C4* UNL     1     -10.849  11.598  64.912  1.00  0.00    -0.301 C  
HETATM    5  O4* UNL     1     -10.601  10.189  65.069  1.00  0.00    -0.044 OA 
HETATM    6  C1* UNL     1     -10.047   9.992  66.383  1.00  0.00    -0.241 C  
HETATM    7  H3* UNL     1      -9.923  13.816  67.103  1.00  0.00     0.000 HD 
HETATM    8  C2* UNL     1      -9.324  11.280  66.756  1.00  0.00    -0.191 C  
HETATM    9  C3* UNL     1      -9.866  12.330  65.816  1.00  0.00    -0.244 C  
HETATM   10  O3* UNL     1     -10.536  13.360  66.539  1.00  0.00    -0.282 OA 
BRANCH   6  11
HETATM   11  N   UNL     1      -9.201   8.811  66.393  1.00  0.00    -0.174 NA 
HETATM   12  C   UNL     1      -7.844   8.767  66.233  1.00  0.00    -0.102 A  
HETATM   13  C   UNL     1      -8.495   6.749  66.476  1.00  0.00    -0.124 A  
HETATM   14  N   UNL     1      -7.382   7.538  66.282  1.00  0.00    -0.081 NA 
HETATM   15  C   UNL     1      -9.640   7.520  66.582  1.00  0.00    -0.200 A  
HETATM   16  N   UNL     1     -10.938   7.231  66.837  1.00  0.00    -0.588 NA 
HETATM   17  C   UNL     1     -11.146   6.266  67.670  1.00  0.00    -0.266 C  
HETATM   18  H   UNL     1     -11.704   7.742  66.398  1.00  0.00     0.000 HD 
HETATM   19  N   UNL     1     -10.285   5.437  68.352  1.00  0.00    -0.174 NA 
HETATM   20  C   UNL     1      -9.271   4.622  67.670  1.00  0.00    -0.129 C  
HETATM   21  H   UNL     1     -10.354   5.387  69.368  1.00  0.00     0.000 HD 
HETATM   22  C   UNL     1      -8.417   5.267  66.551  1.00  0.00    -0.112 C  
HETATM   23  O   UNL     1      -8.778   4.671  65.288  1.00  0.00    -0.127 OA 
HETATM   24  H   UNL     1      -8.729   3.723  65.336  1.00  0.00     0.000 HD 
ENDBRANCH   6  11
ENDBRANCH   2   4
TORSDOF 2
ENDMDL
MODEL      153
REMARK 921   NORMALIZED FREE ENERGY PREDICTED BY IDOCK:   -3.76 KCAL/MOL
REMARK 922        TOTAL FREE ENERGY PREDICTED BY IDOCK:   -4.89 KCAL/MOL
REMARK 923 INTER-LIGAND FREE ENERGY PREDICTED BY IDOCK:   -4.48 KCAL/MOL
REMARK 924 INTRA-LIGAND FREE ENERGY PREDICTED BY IDOCK:   -0.41 KCAL/MOL
REMARK 927      BINDING AFFINITY PREDICTED BY RF-SCORE:    0.00 PKD
ROOT
HETATM    1  O5* UNL     1      -6.870   8.606  64.987  1.00  0.00    -0.071 OA 
HETATM    2  C5* UNL     1      -7.077   9.911  65.528  1.00  0.00    -0.118 C  
HETATM    3  H5* UNL     1      -6.161   8.605  64.355  1.00  0.00     0.000 HD 
ENDROOT
BRANCH   2   4
HETATM    4  C4* UNL     1      -8.218   9.912  66.543  1.00  0.00    -0.121 C  
HETATM    5  O4* UNL     1      -8.411  11.245  67.053  1.00  0.00    -0.140 OA 
HETATM    6  C1* UNL     1      -9.803  11.378  67.397  1.00  0.00    -0.182 C  
HETATM    7  H3* UNL     1     -10.673   7.847  66.008  1.00  0.00     0.000 HD 
HETATM    8  C2* UNL     1     -10.575  10.429  66.490  1.00  0.00    -0.220 C  
HETATM    9  C3* UNL     1      -9.548   9.460  65.956  1.00  0.00    -0.261 C  
HETATM   10  O3* UNL     1      -9.843   8.129  66.374  1.00  0.00    -0.236 OA 
BRANCH   6  11
HETATM   11  N   UNL     1     -10.210  12.769  67.289  1.00  0.00    -0.231 NA 
HETATM   12  C   UNL     1     -10.225  13.537  66.158  1.00  0.00    -0.302 A  
HETATM   13  C   UNL     1     -10.893  14.787  67.755  1.00  0.00    -0.278 A  
HETATM   14  N   UNL     1     -10.637  14.762  66.401  1.00  0.00    -0.293 NA 
HETATM   15  C   UNL     1     -10.665  13.547  68.328  1.00  0.00    -0.258 A  
HETATM   16  N   UNL     1     -10.832  13.054  69.579  1.00  0.00    -0.443 NA 
HETATM   17  C   UNL     1     -11.851  13.506  70.230  1.00  0.00    -0.257 C  
HETATM   18  H   UNL     1     -10.192  12.370  69.981  1.00  0.00     0.000 HD 
HETATM   19  N   UNL     1     -12.816  14.431  69.904  1.00  0.00    -0.481 NA 
HETATM   20  C   UNL     1     -12.486  15.799  69.483  1.00  0.00     0.074 C  
HETATM   21  H   UNL     1     -13.796  14.156  69.956  1.00  0.00     0.000 HD 
HETATM   22  C   UNL     1     -11.348  16.015  68.456  1.00  0.00    -0.382 C  
HETATM   23  O   UNL     1     -10.243  16.667  69.115  1.00  0.00    -0.278 OA 
HETATM   24  H   UNL     1     -10.534  17.453  69.564  1.00  0.00     0.000 HD 
ENDBRANCH   6  11
ENDBRANCH   2   4
TORSDOF 2
ENDMDL
MODEL      154
REMARK 921   NORMALIZED FREE ENERGY PREDICTED BY IDOCK:   -3.76 KCAL/MOL
REMARK 922        TOTAL FREE ENERGY PREDICTED BY IDOCK:   -4.89 KCAL/MOL
REMARK 923 INTER-LIGAND FREE ENERGY PREDICTED BY IDOCK:   -4.12 KCAL/MOL
REMARK 924 INTRA-LIGAND FREE ENERGY PREDICTED BY IDOCK:   -0.77 KCAL/MOL
REMARK 927      BINDING AFFINITY PREDICTED BY RF-SCORE:    0.00 PKD
ROOT
HETATM    1  O5* UNL     1     -11.640   9.453  71.744  1.00  0.00    -0.377 OA 
HETATM    2  C5* UNL     1     -11.948   8.347  72.593  1.00  0.00    -0.277 C  
HETATM    3  H5* UNL     1     -11.594  10.263  72.239  1.00  0.00     0.000 HD 
ENDROOT
BRANCH   2   4
HETATM    4  C4* UNL     1     -12.024   7.045  71.797  1.00  0.00    -0.326 C  
HETATM    5  O4* UNL     1     -11.815   7.320  70.399  1.00  0.00    -0.236 OA 
HETATM    6  C1* UNL     1     -11.206   6.153  69.816  1.00  0.00    -0.423 C  
HETATM    7  H3* UNL     1     -10.925   4.355  73.258  1.00  0.00     0.000 HD 
HETATM    8  C2* UNL     1     -10.426   5.460  70.926  1.00  0.00    -0.307 C  
HETATM    9  C3* UNL     1     -10.977   6.022  72.214  1.00  0.00    -0.265 C  
HETATM   10  O3* UNL     1     -11.578   4.994  72.998  1.00  0.00    -0.312 OA 
BRANCH   6  11
HETATM   11  N   UNL     1     -10.400   6.534  68.669  1.00  0.00    -0.174 NA 
HETATM   12  C   UNL     1     -10.346   5.909  67.454  1.00  0.00    -0.220 A  
HETATM   13  C   UNL     1      -8.987   7.551  67.355  1.00  0.00    -0.126 A  
HETATM   14  N   UNL     1      -9.506   6.498  66.634  1.00  0.00    -0.157 NA 
HETATM   15  C   UNL     1      -9.551   7.616  68.618  1.00  0.00    -0.152 A  
HETATM   16  N   UNL     1      -9.428   8.484  69.651  1.00  0.00    -0.164 NA 
HETATM   17  C   UNL     1      -9.269   9.724  69.326  1.00  0.00    -0.192 C  
HETATM   18  H   UNL     1      -9.457   8.178  70.623  1.00  0.00     0.000 HD 
HETATM   19  N   UNL     1      -9.176  10.352  68.106  1.00  0.00    -0.143 NA 
HETATM   20  C   UNL     1      -8.182   9.967  67.095  1.00  0.00    -0.117 C  
HETATM   21  H   UNL     1      -9.821  11.113  67.896  1.00  0.00     0.000 HD 
HETATM   22  C   UNL     1      -7.955   8.464  66.801  1.00  0.00    -0.098 C  
HETATM   23  O   UNL     1      -6.640   8.093  67.265  1.00  0.00    -0.056 OA 
HETATM   24  H   UNL     1      -5.980   8.677  66.911  1.00  0.00     0.000 HD 
ENDBRANCH   6  11
ENDBRANCH   2   4
TORSDOF 2
ENDMDL
MODEL      155
REMARK 921   NORMALIZED FREE ENERGY PREDICTED BY IDOCK:   -3.76 KCAL/MOL
REMARK 922        TOTAL FREE ENERGY PREDICTED BY IDOCK:   -4.89 KCAL/MOL
REMARK 923 INTER-LIGAND FREE ENERGY PREDICTED BY IDOCK:   -4.34 KCAL/MOL
REMARK 924 INTRA-LIGAND FREE ENERGY PREDICTED BY IDOCK:   -0.55 KCAL/MOL
REMARK 927      BINDING AFFINITY PREDICTED BY RF-SCORE:    0.00 PKD
ROOT
HETATM    1  O5* UNL     1     -11.117  10.565  70.513  1.00  0.00    -0.376 OA 
HETATM    2  C5* UNL     1     -10.116   9.567  70.718  1.00  0.00    -0.282 C  
HETATM    3  H5* UNL     1     -11.733  10.585  71.236  1.00  0.00     0.000 HD 
ENDROOT
BRANCH   2   4
HETATM    4  C4* UNL     1      -9.125   9.534  69.555  1.00  0.00    -0.185 C  
HETATM    5  O4* UNL     1      -9.375  10.646  68.675  1.00  0.00    -0.161 OA 
HETATM    6  C1* UNL     1      -8.120  11.006  68.067  1.00  0.00    -0.121 C  
HETATM    7  H3* UNL     1      -6.139   8.413  70.191  1.00  0.00     0.000 HD 
HETATM    8  C2* UNL     1      -7.024  10.608  69.048  1.00  0.00    -0.080 C  
HETATM    9  C3* UNL     1      -7.672   9.631  69.999  1.00  0.00    -0.157 C  
HETATM   10  O3* UNL     1      -7.046   8.352  69.914  1.00  0.00    -0.049 OA 
BRANCH   6  11
HETATM   11  N   UNL     1      -8.124  12.416  67.718  1.00  0.00    -0.149 NA 
HETATM   12  C   UNL     1      -7.126  13.324  67.944  1.00  0.00    -0.133 A  
HETATM   13  C   UNL     1      -8.717  14.388  66.997  1.00  0.00    -0.223 A  
HETATM   14  N   UNL     1      -7.448  14.524  67.517  1.00  0.00    -0.185 NA 
HETATM   15  C   UNL     1      -9.150  13.075  67.080  1.00  0.00    -0.225 A  
HETATM   16  N   UNL     1     -10.266  12.433  66.658  1.00  0.00    -0.222 NA 
HETATM   17  C   UNL     1     -10.761  12.844  65.539  1.00  0.00    -0.279 C  
HETATM   18  H   UNL     1     -10.688  11.674  67.192  1.00  0.00     0.000 HD 
HETATM   19  N   UNL     1     -10.381  13.847  64.677  1.00  0.00    -0.587 NA 
HETATM   20  C   UNL     1     -10.223  15.242  65.112  1.00  0.00    -0.339 C  
HETATM   21  H   UNL     1     -10.204  13.614  63.701  1.00  0.00     0.000 HD 
HETATM   22  C   UNL     1      -9.476  15.534  66.436  1.00  0.00    -0.291 C  
HETATM   23  O   UNL     1     -10.420  16.044  67.400  1.00  0.00    -0.296 OA 
HETATM   24  H   UNL     1     -10.906  16.778  67.042  1.00  0.00     0.000 HD 
ENDBRANCH   6  11
ENDBRANCH   2   4
TORSDOF 2
ENDMDL
MODEL      156
REMARK 921   NORMALIZED FREE ENERGY PREDICTED BY IDOCK:   -3.75 KCAL/MOL
REMARK 922        TOTAL FREE ENERGY PREDICTED BY IDOCK:   -4.88 KCAL/MOL
REMARK 923 INTER-LIGAND FREE ENERGY PREDICTED BY IDOCK:   -4.52 KCAL/MOL
REMARK 924 INTRA-LIGAND FREE ENERGY PREDICTED BY IDOCK:   -0.35 KCAL/MOL
REMARK 927      BINDING AFFINITY PREDICTED BY RF-SCORE:    0.00 PKD
ROOT
HETATM    1  O5* UNL     1      -9.628   2.126  67.012  1.00  0.00    -0.390 OA 
HETATM    2  C5* UNL     1      -8.654   2.783  66.199  1.00  0.00    -0.117 C  
HETATM    3  H5* UNL     1      -9.477   1.189  67.036  1.00  0.00     0.000 HD 
ENDROOT
BRANCH   2   4
HETATM    4  C4* UNL     1      -8.897   4.292  66.160  1.00  0.00    -0.116 C  
HETATM    5  O4* UNL     1      -9.962   4.634  67.066  1.00  0.00    -0.197 OA 
HETATM    6  C1* UNL     1      -9.714   5.972  67.538  1.00  0.00    -0.116 C  
HETATM    7  H3* UNL     1      -6.302   6.192  65.676  1.00  0.00     0.000 HD 
HETATM    8  C2* UNL     1      -8.207   6.186  67.487  1.00  0.00    -0.109 C  
HETATM    9  C3* UNL     1      -7.680   5.109  66.570  1.00  0.00    -0.092 C  
HETATM   10  O3* UNL     1      -7.062   5.682  65.420  1.00  0.00    -0.063 OA 
BRANCH   6  11
HETATM   11  N   UNL     1     -10.297   6.148  68.857  1.00  0.00    -0.186 NA 
HETATM   12  C   UNL     1     -10.332   5.233  69.872  1.00  0.00    -0.304 A  
HETATM   13  C   UNL     1     -11.329   6.979  70.590  1.00  0.00    -0.307 A  
HETATM   14  N   UNL     1     -10.944   5.701  70.936  1.00  0.00    -0.232 NA 
HETATM   15  C   UNL     1     -10.909   7.295  69.309  1.00  0.00    -0.159 A  
HETATM   16  N   UNL     1     -10.978   8.419  68.556  1.00  0.00    -0.429 NA 
HETATM   17  C   UNL     1     -10.857   9.533  69.198  1.00  0.00    -0.173 C  
HETATM   18  H   UNL     1     -11.119   8.388  67.547  1.00  0.00     0.000 HD 
HETATM   19  N   UNL     1     -10.688   9.813  70.534  1.00  0.00    -0.297 NA 
HETATM   20  C   UNL     1     -11.617   9.328  71.564  1.00  0.00    -0.382 C  
HETATM   21  H   UNL     1      -9.889  10.377  70.820  1.00  0.00     0.000 HD 
HETATM   22  C   UNL     1     -12.096   7.857  71.511  1.00  0.00    -0.306 C  
HETATM   23  O   UNL     1     -13.501   7.836  71.185  1.00  0.00    -0.549 OA 
HETATM   24  H   UNL     1     -13.992   8.398  71.774  1.00  0.00     0.000 HD 
ENDBRANCH   6  11
ENDBRANCH   2   4
TORSDOF 2
ENDMDL
MODEL      157
REMARK 921   NORMALIZED FREE ENERGY PREDICTED BY IDOCK:   -3.75 KCAL/MOL
REMARK 922        TOTAL FREE ENERGY PREDICTED BY IDOCK:   -4.88 KCAL/MOL
REMARK 923 INTER-LIGAND FREE ENERGY PREDICTED BY IDOCK:   -4.67 KCAL/MOL
REMARK 924 INTRA-LIGAND FREE ENERGY PREDICTED BY IDOCK:   -0.21 KCAL/MOL
REMARK 927      BINDING AFFINITY PREDICTED BY RF-SCORE:    0.00 PKD
ROOT
HETATM    1  O5* UNL     1     -12.999  12.508  64.736  1.00  0.00    -0.827 OA 
HETATM    2  C5* UNL     1     -11.998  12.771  65.720  1.00  0.00    -0.449 C  
HETATM    3  H5* UNL     1     -13.829  12.901  64.978  1.00  0.00     0.000 HD 
ENDROOT
BRANCH   2   4
HETATM    4  C4* UNL     1     -10.663  12.139  65.331  1.00  0.00    -0.284 C  
HETATM    5  O4* UNL     1     -10.361  11.054  66.229  1.00  0.00    -0.237 OA 
HETATM    6  C1* UNL     1      -9.578  10.093  65.497  1.00  0.00    -0.250 C  
HETATM    7  H3* UNL     1      -9.926  12.074  62.164  1.00  0.00     0.000 HD 
HETATM    8  C2* UNL     1      -9.973  10.225  64.032  1.00  0.00    -0.195 C  
HETATM    9  C3* UNL     1     -10.654  11.568  63.920  1.00  0.00    -0.391 C  
HETATM   10  O3* UNL     1      -9.931  12.431  63.045  1.00  0.00    -0.250 OA 
BRANCH   6  11
HETATM   11  N   UNL     1      -9.780   8.764  66.050  1.00  0.00    -0.242 NA 
HETATM   12  C   UNL     1     -10.707   8.392  66.984  1.00  0.00    -0.134 A  
HETATM   13  C   UNL     1      -9.583   6.641  66.508  1.00  0.00    -0.140 A  
HETATM   14  N   UNL     1     -10.620   7.115  67.282  1.00  0.00    -0.296 NA 
HETATM   15  C   UNL     1      -9.061   7.642  65.706  1.00  0.00     0.009 A  
HETATM   16  N   UNL     1      -8.103   7.666  64.749  1.00  0.00    -0.193 NA 
HETATM   17  C   UNL     1      -8.026   6.612  64.006  1.00  0.00    -0.084 C  
HETATM   18  H   UNL     1      -7.482   8.464  64.623  1.00  0.00     0.000 HD 
HETATM   19  N   UNL     1      -8.729   5.430  64.008  1.00  0.00    -0.335 NA 
HETATM   20  C   UNL     1      -8.828   4.575  65.199  1.00  0.00    -0.143 C  
HETATM   21  H   UNL     1      -9.198   5.136  63.152  1.00  0.00     0.000 HD 
HETATM   22  C   UNL     1      -9.123   5.230  66.571  1.00  0.00    -0.129 C  
HETATM   23  O   UNL     1      -7.952   5.109  67.405  1.00  0.00    -0.099 OA 
HETATM   24  H   UNL     1      -7.658   4.206  67.445  1.00  0.00     0.000 HD 
ENDBRANCH   6  11
ENDBRANCH   2   4
TORSDOF 2
ENDMDL
MODEL      158
REMARK 921   NORMALIZED FREE ENERGY PREDICTED BY IDOCK:   -3.73 KCAL/MOL
REMARK 922        TOTAL FREE ENERGY PREDICTED BY IDOCK:   -4.85 KCAL/MOL
REMARK 923 INTER-LIGAND FREE ENERGY PREDICTED BY IDOCK:   -5.10 KCAL/MOL
REMARK 924 INTRA-LIGAND FREE ENERGY PREDICTED BY IDOCK:    0.24 KCAL/MOL
REMARK 927      BINDING AFFINITY PREDICTED BY RF-SCORE:    0.00 PKD
ROOT
HETATM    1  O5* UNL     1     -10.392   7.910  66.425  1.00  0.00    -0.482 OA 
HETATM    2  C5* UNL     1     -10.001   9.245  66.101  1.00  0.00    -0.277 C  
HETATM    3  H5* UNL     1     -10.633   7.425  65.645  1.00  0.00     0.000 HD 
ENDROOT
BRANCH   2   4
HETATM    4  C4* UNL     1      -9.613  10.026  67.356  1.00  0.00    -0.154 C  
HETATM    5  O4* UNL     1      -8.913  11.227  66.982  1.00  0.00    -0.149 OA 
HETATM    6  C1* UNL     1      -9.181  12.215  67.994  1.00  0.00    -0.194 C  
HETATM    7  H3* UNL     1     -11.664   9.882  69.877  1.00  0.00     0.000 HD 
HETATM    8  C2* UNL     1     -10.542  11.880  68.591  1.00  0.00    -0.259 C  
HETATM    9  C3* UNL     1     -10.810  10.448  68.198  1.00  0.00    -0.264 C  
HETATM   10  O3* UNL     1     -10.917   9.618  69.352  1.00  0.00    -0.231 OA 
BRANCH   6  11
HETATM   11  N   UNL     1      -9.093  13.548  67.422  1.00  0.00    -0.209 NA 
HETATM   12  C   UNL     1      -7.993  14.359  67.386  1.00  0.00    -0.201 A  
HETATM   13  C   UNL     1      -9.580  15.443  66.457  1.00  0.00    -0.275 A  
HETATM   14  N   UNL     1      -8.248  15.510  66.807  1.00  0.00    -0.248 NA 
HETATM   15  C   UNL     1     -10.123  14.216  66.800  1.00  0.00    -0.262 A  
HETATM   16  N   UNL     1     -11.339  13.650  66.613  1.00  0.00    -0.316 NA 
HETATM   17  C   UNL     1     -11.929  13.941  65.502  1.00  0.00    -0.383 C  
HETATM   18  H   UNL     1     -11.763  13.033  67.306  1.00  0.00     0.000 HD 
HETATM   19  N   UNL     1     -11.566  14.753  64.452  1.00  0.00    -0.634 NA 
HETATM   20  C   UNL     1     -11.222  16.169  64.633  1.00  0.00    -0.298 C  
HETATM   21  H   UNL     1     -11.536  14.356  63.513  1.00  0.00     0.000 HD 
HETATM   22  C   UNL     1     -10.290  16.571  65.802  1.00  0.00    -0.341 C  
HETATM   23  O   UNL     1     -11.052  17.325  66.767  1.00  0.00     0.079 OA 
HETATM   24  H   UNL     1     -11.506  18.047  66.348  1.00  0.00     0.000 HD 
ENDBRANCH   6  11
ENDBRANCH   2   4
TORSDOF 2
ENDMDL
MODEL      159
REMARK 921   NORMALIZED FREE ENERGY PREDICTED BY IDOCK:   -3.72 KCAL/MOL
REMARK 922        TOTAL FREE ENERGY PREDICTED BY IDOCK:   -4.85 KCAL/MOL
REMARK 923 INTER-LIGAND FREE ENERGY PREDICTED BY IDOCK:   -4.81 KCAL/MOL
REMARK 924 INTRA-LIGAND FREE ENERGY PREDICTED BY IDOCK:   -0.04 KCAL/MOL
REMARK 927      BINDING AFFINITY PREDICTED BY RF-SCORE:    0.00 PKD
ROOT
HETATM    1  O5* UNL     1     -13.996   9.875  72.366  1.00  0.00    -0.506 OA 
HETATM    2  C5* UNL     1     -13.420   8.621  72.734  1.00  0.00    -0.122 C  
HETATM    3  H5* UNL     1     -14.722  10.099  72.937  1.00  0.00     0.000 HD 
ENDROOT
BRANCH   2   4
HETATM    4  C4* UNL     1     -12.253   8.260  71.816  1.00  0.00    -0.326 C  
HETATM    5  O4* UNL     1     -12.330   9.038  70.607  1.00  0.00    -0.106 OA 
HETATM    6  C1* UNL     1     -10.985   9.229  70.130  1.00  0.00    -0.246 C  
HETATM    7  H3* UNL     1      -9.438   7.478  73.243  1.00  0.00     0.000 HD 
HETATM    8  C2* UNL     1     -10.074   9.186  71.350  1.00  0.00    -0.392 C  
HETATM    9  C3* UNL     1     -10.890   8.531  72.438  1.00  0.00    -0.308 C  
HETATM   10  O3* UNL     1     -10.288   7.308  72.856  1.00  0.00    -0.212 OA 
BRANCH   6  11
HETATM   11  N   UNL     1     -10.900  10.463  69.366  1.00  0.00    -0.231 NA 
HETATM   12  C   UNL     1     -11.919  11.328  69.082  1.00  0.00    -0.336 A  
HETATM   13  C   UNL     1     -10.167  12.125  68.160  1.00  0.00    -0.203 A  
HETATM   14  N   UNL     1     -11.512  12.347  68.358  1.00  0.00    -0.285 NA 
HETATM   15  C   UNL     1      -9.751  10.973  68.805  1.00  0.00    -0.191 A  
HETATM   16  N   UNL     1      -8.545  10.377  68.965  1.00  0.00    -0.148 NA 
HETATM   17  C   UNL     1      -7.538  11.174  69.092  1.00  0.00    -0.098 C  
HETATM   18  H   UNL     1      -8.440   9.363  68.984  1.00  0.00     0.000 HD 
HETATM   19  N   UNL     1      -7.441  12.547  69.074  1.00  0.00    -0.313 NA 
HETATM   20  C   UNL     1      -7.932  13.357  67.952  1.00  0.00    -0.155 C  
HETATM   21  H   UNL     1      -7.012  13.019  69.870  1.00  0.00     0.000 HD 
HETATM   22  C   UNL     1      -9.321  13.036  67.346  1.00  0.00    -0.209 C  
HETATM   23  O   UNL     1      -9.138  12.511  66.015  1.00  0.00    -0.422 OA 
HETATM   24  H   UNL     1      -8.597  13.094  65.494  1.00  0.00     0.000 HD 
ENDBRANCH   6  11
ENDBRANCH   2   4
TORSDOF 2
ENDMDL
MODEL      160
REMARK 921   NORMALIZED FREE ENERGY PREDICTED BY IDOCK:   -3.71 KCAL/MOL
REMARK 922        TOTAL FREE ENERGY PREDICTED BY IDOCK:   -4.84 KCAL/MOL
REMARK 923 INTER-LIGAND FREE ENERGY PREDICTED BY IDOCK:   -4.46 KCAL/MOL
REMARK 924 INTRA-LIGAND FREE ENERGY PREDICTED BY IDOCK:   -0.38 KCAL/MOL
REMARK 927      BINDING AFFINITY PREDICTED BY RF-SCORE:    0.00 PKD
ROOT
HETATM    1  O5* UNL     1      -9.800   8.854  72.083  1.00  0.00    -0.312 OA 
HETATM    2  C5* UNL     1     -10.884   9.149  71.203  1.00  0.00    -0.311 C  
HETATM    3  H5* UNL     1      -9.476   9.642  72.504  1.00  0.00     0.000 HD 
ENDROOT
BRANCH   2   4
HETATM    4  C4* UNL     1     -11.405   7.882  70.525  1.00  0.00    -0.234 C  
HETATM    5  O4* UNL     1     -10.828   7.764  69.211  1.00  0.00    -0.188 OA 
HETATM    6  C1* UNL     1     -10.736   6.360  68.905  1.00  0.00    -0.288 C  
HETATM    7  H3* UNL     1     -11.993   5.319  72.439  1.00  0.00     0.000 HD 
HETATM    8  C2* UNL     1     -10.598   5.626  70.233  1.00  0.00    -0.370 C  
HETATM    9  C3* UNL     1     -11.059   6.608  71.283  1.00  0.00    -0.267 C  
HETATM   10  O3* UNL     1     -12.209   6.115  71.967  1.00  0.00    -0.312 OA 
BRANCH   6  11
HETATM   11  N   UNL     1      -9.641   6.125  67.979  1.00  0.00    -0.115 NA 
HETATM   12  C   UNL     1      -8.305   6.273  68.227  1.00  0.00    -0.115 A  
HETATM   13  C   UNL     1      -8.482   5.651  66.192  1.00  0.00    -0.128 A  
HETATM   14  N   UNL     1      -7.574   5.991  67.172  1.00  0.00    -0.091 NA 
HETATM   15  C   UNL     1      -9.778   5.695  66.678  1.00  0.00    -0.158 A  
HETATM   16  N   UNL     1     -10.985   5.392  66.143  1.00  0.00    -0.767 NA 
HETATM   17  C   UNL     1     -11.002   4.391  65.328  1.00  0.00     0.050 C  
HETATM   18  H   UNL     1     -11.827   5.920  66.370  1.00  0.00     0.000 HD 
HETATM   19  N   UNL     1     -10.005   3.563  64.865  1.00  0.00    -0.331 NA 
HETATM   20  C   UNL     1      -8.800   4.076  64.200  1.00  0.00    -0.127 C  
HETATM   21  H   UNL     1     -10.108   2.556  64.987  1.00  0.00     0.000 HD 
HETATM   22  C   UNL     1      -8.069   5.297  64.811  1.00  0.00    -0.124 C  
HETATM   23  O   UNL     1      -8.224   6.424  63.924  1.00  0.00    -0.270 OA 
HETATM   24  H   UNL     1      -7.959   6.197  63.040  1.00  0.00     0.000 HD 
ENDBRANCH   6  11
ENDBRANCH   2   4
TORSDOF 2
ENDMDL
MODEL      161
REMARK 921   NORMALIZED FREE ENERGY PREDICTED BY IDOCK:   -3.69 KCAL/MOL
REMARK 922        TOTAL FREE ENERGY PREDICTED BY IDOCK:   -4.81 KCAL/MOL
REMARK 923 INTER-LIGAND FREE ENERGY PREDICTED BY IDOCK:   -4.32 KCAL/MOL
REMARK 924 INTRA-LIGAND FREE ENERGY PREDICTED BY IDOCK:   -0.49 KCAL/MOL
REMARK 927      BINDING AFFINITY PREDICTED BY RF-SCORE:    0.00 PKD
ROOT
HETATM    1  O5* UNL     1      -7.239   8.980  67.714  1.00  0.00    -0.081 OA 
HETATM    2  C5* UNL     1      -7.196  10.368  68.047  1.00  0.00    -0.084 C  
HETATM    3  H5* UNL     1      -6.467   8.722  67.223  1.00  0.00     0.000 HD 
ENDROOT
BRANCH   2   4
HETATM    4  C4* UNL     1      -8.437  10.783  68.835  1.00  0.00    -0.149 C  
HETATM    5  O4* UNL     1      -8.893  12.070  68.378  1.00  0.00    -0.178 OA 
HETATM    6  C1* UNL     1     -10.320  12.115  68.567  1.00  0.00    -0.221 C  
HETATM    7  H3* UNL     1     -10.462   8.412  69.760  1.00  0.00     0.000 HD 
HETATM    8  C2* UNL     1     -10.823  10.679  68.481  1.00  0.00    -0.275 C  
HETATM    9  C3* UNL     1      -9.602   9.815  68.682  1.00  0.00    -0.151 C  
HETATM   10  O3* UNL     1      -9.736   9.016  69.856  1.00  0.00    -0.170 OA 
BRANCH   6  11
HETATM   11  N   UNL     1     -10.921  13.016  67.598  1.00  0.00    -0.248 NA 
HETATM   12  C   UNL     1     -12.145  12.888  67.002  1.00  0.00    -0.230 A  
HETATM   13  C   UNL     1     -11.264  14.664  66.212  1.00  0.00    -0.340 A  
HETATM   14  N   UNL     1     -12.388  13.868  66.162  1.00  0.00    -0.467 NA 
HETATM   15  C   UNL     1     -10.346  14.173  67.124  1.00  0.00    -0.265 A  
HETATM   16  N   UNL     1      -9.149  14.619  67.575  1.00  0.00    -0.184 NA 
HETATM   17  C   UNL     1      -9.035  15.900  67.691  1.00  0.00    -0.190 C  
HETATM   18  H   UNL     1      -8.386  13.984  67.807  1.00  0.00     0.000 HD 
HETATM   19  N   UNL     1      -9.905  16.931  67.419  1.00  0.00    -0.255 NA 
HETATM   20  C   UNL     1     -10.525  17.112  66.100  1.00  0.00    -0.275 C  
HETATM   21  H   UNL     1     -10.127  17.593  68.162  1.00  0.00     0.000 HD 
HETATM   22  C   UNL     1     -11.110  15.879  65.370  1.00  0.00    -0.195 C  
HETATM   23  O   UNL     1     -10.302  15.597  64.209  1.00  0.00    -0.357 OA 
HETATM   24  H   UNL     1     -10.203  16.374  63.670  1.00  0.00     0.000 HD 
ENDBRANCH   6  11
ENDBRANCH   2   4
TORSDOF 2
ENDMDL
MODEL      162
REMARK 921   NORMALIZED FREE ENERGY PREDICTED BY IDOCK:   -3.69 KCAL/MOL
REMARK 922        TOTAL FREE ENERGY PREDICTED BY IDOCK:   -4.81 KCAL/MOL
REMARK 923 INTER-LIGAND FREE ENERGY PREDICTED BY IDOCK:   -4.42 KCAL/MOL
REMARK 924 INTRA-LIGAND FREE ENERGY PREDICTED BY IDOCK:   -0.39 KCAL/MOL
REMARK 927      BINDING AFFINITY PREDICTED BY RF-SCORE:    0.00 PKD
ROOT
HETATM    1  O5* UNL     1      -5.665   5.685  67.278  1.00  0.00    -0.015 OA 
HETATM    2  C5* UNL     1      -7.087   5.640  67.403  1.00  0.00    -0.074 C  
HETATM    3  H5* UNL     1      -5.243   5.334  68.053  1.00  0.00     0.000 HD 
ENDROOT
BRANCH   2   4
HETATM    4  C4* UNL     1      -7.768   6.206  66.157  1.00  0.00    -0.099 C  
HETATM    5  O4* UNL     1      -8.743   7.192  66.544  1.00  0.00    -0.122 OA 
HETATM    6  C1* UNL     1      -8.835   8.151  65.474  1.00  0.00    -0.089 C  
HETATM    7  H3* UNL     1      -5.950   6.470  63.473  1.00  0.00     0.000 HD 
HETATM    8  C2* UNL     1      -7.483   8.163  64.774  1.00  0.00    -0.094 C  
HETATM    9  C3* UNL     1      -6.800   6.885  65.198  1.00  0.00    -0.051 C  
HETATM   10  O3* UNL     1      -6.554   6.046  64.071  1.00  0.00    -0.035 OA 
BRANCH   6  11
HETATM   11  N   UNL     1      -9.246   9.442  65.999  1.00  0.00    -0.183 NA 
HETATM   12  C   UNL     1      -9.032   9.925  67.260  1.00  0.00    -0.135 A  
HETATM   13  C   UNL     1     -10.118  11.431  66.207  1.00  0.00    -0.224 A  
HETATM   14  N   UNL     1      -9.541  11.126  67.421  1.00  0.00    -0.168 NA 
HETATM   15  C   UNL     1      -9.920  10.411  65.291  1.00  0.00    -0.309 A  
HETATM   16  N   UNL     1     -10.226  10.263  63.980  1.00  0.00    -0.461 NA 
HETATM   17  C   UNL     1     -10.148  11.333  63.261  1.00  0.00    -0.386 C  
HETATM   18  H   UNL     1     -10.500   9.364  63.585  1.00  0.00     0.000 HD 
HETATM   19  N   UNL     1      -9.830  12.634  63.577  1.00  0.00    -0.673 NA 
HETATM   20  C   UNL     1     -10.543  13.390  64.615  1.00  0.00    -0.415 C  
HETATM   21  H   UNL     1      -9.071  13.089  63.072  1.00  0.00     0.000 HD 
HETATM   22  C   UNL     1     -10.848  12.702  65.968  1.00  0.00    -0.277 C  
HETATM   23  O   UNL     1     -12.272  12.503  66.079  1.00  0.00    -0.605 OA 
HETATM   24  H   UNL     1     -12.740  13.317  65.927  1.00  0.00     0.000 HD 
ENDBRANCH   6  11
ENDBRANCH   2   4
TORSDOF 2
ENDMDL
MODEL      163
REMARK 921   NORMALIZED FREE ENERGY PREDICTED BY IDOCK:   -3.69 KCAL/MOL
REMARK 922        TOTAL FREE ENERGY PREDICTED BY IDOCK:   -4.81 KCAL/MOL
REMARK 923 INTER-LIGAND FREE ENERGY PREDICTED BY IDOCK:   -5.07 KCAL/MOL
REMARK 924 INTRA-LIGAND FREE ENERGY PREDICTED BY IDOCK:    0.26 KCAL/MOL
REMARK 927      BINDING AFFINITY PREDICTED BY RF-SCORE:    0.00 PKD
ROOT
HETATM    1  O5* UNL     1     -12.280  10.703  70.168  1.00  0.00    -0.300 OA 
HETATM    2  C5* UNL     1     -12.389  12.106  70.414  1.00  0.00    -0.233 C  
HETATM    3  H5* UNL     1     -12.883  10.212  70.713  1.00  0.00     0.000 HD 
ENDROOT
BRANCH   2   4
HETATM    4  C4* UNL     1     -11.418  12.896  69.539  1.00  0.00    -0.225 C  
HETATM    5  O4* UNL     1     -10.454  12.000  68.955  1.00  0.00    -0.202 OA 
HETATM    6  C1* UNL     1     -10.055  12.561  67.690  1.00  0.00    -0.217 C  
HETATM    7  H3* UNL     1     -12.614  15.481  67.968  1.00  0.00     0.000 HD 
HETATM    8  C2* UNL     1     -11.228  13.390  67.184  1.00  0.00    -0.325 C  
HETATM    9  C3* UNL     1     -12.100  13.630  68.392  1.00  0.00    -0.277 C  
HETATM   10  O3* UNL     1     -12.188  15.023  68.684  1.00  0.00    -0.190 OA 
BRANCH   6  11
HETATM   11  N   UNL     1      -9.641  11.501  66.786  1.00  0.00    -0.184 NA 
HETATM   12  C   UNL     1      -9.289  10.223  67.120  1.00  0.00    -0.153 A  
HETATM   13  C   UNL     1      -9.086  10.377  65.001  1.00  0.00    -0.203 A  
HETATM   14  N   UNL     1      -8.952   9.514  66.067  1.00  0.00    -0.154 NA 
HETATM   15  C   UNL     1      -9.546  11.615  65.418  1.00  0.00    -0.205 A  
HETATM   16  N   UNL     1      -9.893  12.749  64.763  1.00  0.00    -0.528 NA 
HETATM   17  C   UNL     1     -10.467  12.584  63.619  1.00  0.00    -0.384 C  
HETATM   18  H   UNL     1      -9.712  13.675  65.150  1.00  0.00     0.000 HD 
HETATM   19  N   UNL     1     -10.785  11.452  62.902  1.00  0.00    -0.758 NA 
HETATM   20  C   UNL     1      -9.782  10.443  62.538  1.00  0.00    -0.093 C  
HETATM   21  H   UNL     1     -11.752  11.310  62.614  1.00  0.00     0.000 HD 
HETATM   22  C   UNL     1      -8.762   9.978  63.607  1.00  0.00    -0.218 C  
HETATM   23  O   UNL     1      -7.450  10.446  63.233  1.00  0.00    -0.223 OA 
HETATM   24  H   UNL     1      -7.242  10.191  62.341  1.00  0.00     0.000 HD 
ENDBRANCH   6  11
ENDBRANCH   2   4
TORSDOF 2
ENDMDL
MODEL      164
REMARK 921   NORMALIZED FREE ENERGY PREDICTED BY IDOCK:   -3.67 KCAL/MOL
REMARK 922        TOTAL FREE ENERGY PREDICTED BY IDOCK:   -4.79 KCAL/MOL
REMARK 923 INTER-LIGAND FREE ENERGY PREDICTED BY IDOCK:   -4.30 KCAL/MOL
REMARK 924 INTRA-LIGAND FREE ENERGY PREDICTED BY IDOCK:   -0.49 KCAL/MOL
REMARK 927      BINDING AFFINITY PREDICTED BY RF-SCORE:    0.00 PKD
ROOT
HETATM    1  O5* UNL     1      -5.704  14.616  67.595  1.00  0.00    -0.305 OA 
HETATM    2  C5* UNL     1      -5.315  15.990  67.584  1.00  0.00    -0.131 C  
HETATM    3  H5* UNL     1      -4.955  14.049  67.734  1.00  0.00     0.000 HD 
ENDROOT
BRANCH   2   4
HETATM    4  C4* UNL     1      -6.521  16.902  67.360  1.00  0.00    -0.154 C  
HETATM    5  O4* UNL     1      -7.666  16.109  66.997  1.00  0.00    -0.174 OA 
HETATM    6  C1* UNL     1      -8.838  16.802  67.468  1.00  0.00    -0.200 C  
HETATM    7  H3* UNL     1      -6.724  19.563  69.218  1.00  0.00     0.000 HD 
HETATM    8  C2* UNL     1      -8.410  17.620  68.679  1.00  0.00    -0.267 C  
HETATM    9  C3* UNL     1      -6.905  17.707  68.594  1.00  0.00    -0.229 C  
HETATM   10  O3* UNL     1      -6.484  19.061  68.448  1.00  0.00    -0.224 OA 
BRANCH   6  11
HETATM   11  N   UNL     1      -9.903  15.851  67.737  1.00  0.00    -0.221 NA 
HETATM   12  C   UNL     1     -11.248  16.094  67.727  1.00  0.00    -0.199 A  
HETATM   13  C   UNL     1     -11.005  14.038  68.245  1.00  0.00    -0.255 A  
HETATM   14  N   UNL     1     -11.945  15.021  68.026  1.00  0.00    -0.233 NA 
HETATM   15  C   UNL     1      -9.723  14.520  68.041  1.00  0.00    -0.218 A  
HETATM   16  N   UNL     1      -8.496  13.946  68.064  1.00  0.00    -0.162 NA 
HETATM   17  C   UNL     1      -8.435  12.733  67.628  1.00  0.00    -0.178 C  
HETATM   18  H   UNL     1      -7.672  14.441  68.405  1.00  0.00     0.000 HD 
HETATM   19  N   UNL     1      -9.401  11.876  67.151  1.00  0.00    -0.177 NA 
HETATM   20  C   UNL     1     -10.600  11.531  67.925  1.00  0.00    -0.191 C  
HETATM   21  H   UNL     1      -9.279  11.466  66.226  1.00  0.00     0.000 HD 
HETATM   22  C   UNL     1     -11.375  12.658  68.651  1.00  0.00    -0.291 C  
HETATM   23  O   UNL     1     -11.222  12.485  70.076  1.00  0.00    -0.487 OA 
HETATM   24  H   UNL     1     -11.459  11.602  70.336  1.00  0.00     0.000 HD 
ENDBRANCH   6  11
ENDBRANCH   2   4
TORSDOF 2
ENDMDL
MODEL      165
REMARK 921   NORMALIZED FREE ENERGY PREDICTED BY IDOCK:   -3.64 KCAL/MOL
REMARK 922        TOTAL FREE ENERGY PREDICTED BY IDOCK:   -4.76 KCAL/MOL
REMARK 923 INTER-LIGAND FREE ENERGY PREDICTED BY IDOCK:   -5.39 KCAL/MOL
REMARK 924 INTRA-LIGAND FREE ENERGY PREDICTED BY IDOCK:    0.63 KCAL/MOL
REMARK 927      BINDING AFFINITY PREDICTED BY RF-SCORE:    0.00 PKD
ROOT
HETATM    1  O5* UNL     1     -12.116   7.099  72.668  1.00  0.00    -0.506 OA 
HETATM    2  C5* UNL     1     -11.552   6.573  71.466  1.00  0.00    -0.315 C  
HETATM    3  H5* UNL     1     -12.949   6.687  72.864  1.00  0.00     0.000 HD 
ENDROOT
BRANCH   2   4
HETATM    4  C4* UNL     1     -10.212   7.236  71.151  1.00  0.00    -0.190 C  
HETATM    5  O4* UNL     1     -10.046   7.337  69.724  1.00  0.00    -0.187 OA 
HETATM    6  C1* UNL     1      -9.235   8.498  69.465  1.00  0.00    -0.150 C  
HETATM    7  H3* UNL     1      -9.169   9.517  73.221  1.00  0.00     0.000 HD 
HETATM    8  C2* UNL     1      -9.477   9.471  70.612  1.00  0.00    -0.277 C  
HETATM    9  C3* UNL     1     -10.087   8.644  71.717  1.00  0.00    -0.310 C  
HETATM   10  O3* UNL     1      -9.246   8.639  72.868  1.00  0.00    -0.280 OA 
BRANCH   6  11
HETATM   11  N   UNL     1      -9.545   9.037  68.151  1.00  0.00    -0.146 NA 
HETATM   12  C   UNL     1      -9.506   8.372  66.957  1.00  0.00    -0.174 A  
HETATM   13  C   UNL     1     -10.088  10.379  66.519  1.00  0.00    -0.228 A  
HETATM   14  N   UNL     1      -9.832   9.150  65.950  1.00  0.00    -0.282 NA 
HETATM   15  C   UNL     1      -9.947  10.328  67.896  1.00  0.00    -0.164 A  
HETATM   16  N   UNL     1     -10.149  11.229  68.887  1.00  0.00    -0.297 NA 
HETATM   17  C   UNL     1     -11.136  12.043  68.714  1.00  0.00    -0.249 C  
HETATM   18  H   UNL     1      -9.558  11.263  69.718  1.00  0.00     0.000 HD 
HETATM   19  N   UNL     1     -12.034  12.195  67.683  1.00  0.00    -0.543 NA 
HETATM   20  C   UNL     1     -11.610  12.424  66.295  1.00  0.00    -0.393 C  
HETATM   21  H   UNL     1     -13.031  12.148  67.890  1.00  0.00     0.000 HD 
HETATM   22  C   UNL     1     -10.459  11.569  65.712  1.00  0.00    -0.259 C  
HETATM   23  O   UNL     1      -9.312  12.418  65.496  1.00  0.00    -0.437 OA 
HETATM   24  H   UNL     1      -9.549  13.180  64.979  1.00  0.00     0.000 HD 
ENDBRANCH   6  11
ENDBRANCH   2   4
TORSDOF 2
ENDMDL
MODEL      166
REMARK 921   NORMALIZED FREE ENERGY PREDICTED BY IDOCK:   -3.63 KCAL/MOL
REMARK 922        TOTAL FREE ENERGY PREDICTED BY IDOCK:   -4.74 KCAL/MOL
REMARK 923 INTER-LIGAND FREE ENERGY PREDICTED BY IDOCK:   -4.24 KCAL/MOL
REMARK 924 INTRA-LIGAND FREE ENERGY PREDICTED BY IDOCK:   -0.50 KCAL/MOL
REMARK 927      BINDING AFFINITY PREDICTED BY RF-SCORE:    0.00 PKD
ROOT
HETATM    1  O5* UNL     1      -9.385  10.225  65.005  1.00  0.00    -0.195 OA 
HETATM    2  C5* UNL     1      -8.415   9.261  65.416  1.00  0.00    -0.145 C  
HETATM    3  H5* UNL     1      -9.440  10.273  64.057  1.00  0.00     0.000 HD 
ENDROOT
BRANCH   2   4
HETATM    4  C4* UNL     1      -8.326   9.184  66.939  1.00  0.00    -0.119 C  
HETATM    5  O4* UNL     1      -8.782  10.424  67.514  1.00  0.00    -0.125 OA 
HETATM    6  C1* UNL     1      -9.345  10.120  68.804  1.00  0.00    -0.168 C  
HETATM    7  H3* UNL     1      -8.885   6.287  68.306  1.00  0.00     0.000 HD 
HETATM    8  C2* UNL     1      -9.862   8.689  68.734  1.00  0.00    -0.180 C  
HETATM    9  C3* UNL     1      -9.178   8.073  67.537  1.00  0.00    -0.137 C  
HETATM   10  O3* UNL     1      -8.353   6.980  67.933  1.00  0.00    -0.117 OA 
BRANCH   6  11
HETATM   11  N   UNL     1     -10.359  11.103  69.146  1.00  0.00    -0.195 NA 
HETATM   12  C   UNL     1     -11.556  10.872  69.765  1.00  0.00    -0.322 A  
HETATM   13  C   UNL     1     -11.470  12.968  69.368  1.00  0.00    -0.261 A  
HETATM   14  N   UNL     1     -12.252  11.976  69.920  1.00  0.00    -0.223 NA 
HETATM   15  C   UNL     1     -10.269  12.455  68.906  1.00  0.00    -0.004 A  
HETATM   16  N   UNL     1      -9.165  13.018  68.358  1.00  0.00    -0.320 NA 
HETATM   17  C   UNL     1      -8.842  14.181  68.815  1.00  0.00    -0.061 C  
HETATM   18  H   UNL     1      -8.624  12.552  67.630  1.00  0.00     0.000 HD 
HETATM   19  N   UNL     1      -9.425  14.995  69.759  1.00  0.00    -0.461 NA 
HETATM   20  C   UNL     1     -10.826  15.427  69.669  1.00  0.00    -0.283 C  
HETATM   21  H   UNL     1      -8.864  15.310  70.549  1.00  0.00     0.000 HD 
HETATM   22  C   UNL     1     -11.910  14.384  69.300  1.00  0.00    -0.325 C  
HETATM   23  O   UNL     1     -12.430  14.697  67.991  1.00  0.00    -0.595 OA 
HETATM   24  H   UNL     1     -12.712  15.603  67.948  1.00  0.00     0.000 HD 
ENDBRANCH   6  11
ENDBRANCH   2   4
TORSDOF 2
ENDMDL
MODEL      167
REMARK 921   NORMALIZED FREE ENERGY PREDICTED BY IDOCK:   -3.62 KCAL/MOL
REMARK 922        TOTAL FREE ENERGY PREDICTED BY IDOCK:   -4.73 KCAL/MOL
REMARK 923 INTER-LIGAND FREE ENERGY PREDICTED BY IDOCK:   -4.14 KCAL/MOL
REMARK 924 INTRA-LIGAND FREE ENERGY PREDICTED BY IDOCK:   -0.59 KCAL/MOL
REMARK 927      BINDING AFFINITY PREDICTED BY RF-SCORE:    0.00 PKD
ROOT
HETATM    1  O5* UNL     1      -9.216   7.893  74.152  1.00  0.00    -0.396 OA 
HETATM    2  C5* UNL     1     -10.198   6.970  73.682  1.00  0.00    -0.358 C  
HETATM    3  H5* UNL     1      -8.547   7.451  74.662  1.00  0.00     0.000 HD 
ENDROOT
BRANCH   2   4
HETATM    4  C4* UNL     1     -11.274   7.680  72.861  1.00  0.00    -0.372 C  
HETATM    5  O4* UNL     1     -10.741   8.904  72.322  1.00  0.00    -0.320 OA 
HETATM    6  C1* UNL     1     -11.426   9.164  71.082  1.00  0.00    -0.318 C  
HETATM    7  H3* UNL     1     -13.382   5.801  71.247  1.00  0.00     0.000 HD 
HETATM    8  C2* UNL     1     -11.853   7.813  70.522  1.00  0.00    -0.063 C  
HETATM    9  C3* UNL     1     -11.779   6.855  71.686  1.00  0.00    -0.304 C  
HETATM   10  O3* UNL     1     -13.066   6.316  71.981  1.00  0.00    -0.072 OA 
BRANCH   6  11
HETATM   11  N   UNL     1     -10.572   9.933  70.194  1.00  0.00    -0.278 NA 
HETATM   12  C   UNL     1     -10.943  10.977  69.393  1.00  0.00    -0.248 A  
HETATM   13  C   UNL     1      -8.855  10.672  69.069  1.00  0.00    -0.148 A  
HETATM   14  N   UNL     1      -9.931  11.451  68.702  1.00  0.00    -0.207 NA 
HETATM   15  C   UNL     1      -9.220   9.737  70.024  1.00  0.00    -0.229 A  
HETATM   16  N   UNL     1      -8.531   8.811  70.733  1.00  0.00    -0.155 NA 
HETATM   17  C   UNL     1      -7.334   9.147  71.081  1.00  0.00    -0.067 C  
HETATM   18  H   UNL     1      -8.933   7.906  70.977  1.00  0.00     0.000 HD 
HETATM   19  N   UNL     1      -6.591  10.282  70.849  1.00  0.00    -0.343 NA 
HETATM   20  C   UNL     1      -6.334  10.792  69.496  1.00  0.00    -0.079 C  
HETATM   21  H   UNL     1      -6.205  10.787  71.646  1.00  0.00     0.000 HD 
HETATM   22  C   UNL     1      -7.502  10.852  68.482  1.00  0.00    -0.103 C  
HETATM   23  O   UNL     1      -7.264   9.885  67.438  1.00  0.00    -0.085 OA 
HETATM   24  H   UNL     1      -6.399  10.000  67.063  1.00  0.00     0.000 HD 
ENDBRANCH   6  11
ENDBRANCH   2   4
TORSDOF 2
ENDMDL
MODEL      168
REMARK 921   NORMALIZED FREE ENERGY PREDICTED BY IDOCK:   -3.58 KCAL/MOL
REMARK 922        TOTAL FREE ENERGY PREDICTED BY IDOCK:   -4.69 KCAL/MOL
REMARK 923 INTER-LIGAND FREE ENERGY PREDICTED BY IDOCK:   -4.12 KCAL/MOL
REMARK 924 INTRA-LIGAND FREE ENERGY PREDICTED BY IDOCK:   -0.57 KCAL/MOL
REMARK 927      BINDING AFFINITY PREDICTED BY RF-SCORE:    0.00 PKD
ROOT
HETATM    1  O5* UNL     1      -6.179   8.392  67.688  1.00  0.00    -0.050 OA 
HETATM    2  C5* UNL     1      -6.563   7.851  66.423  1.00  0.00    -0.050 C  
HETATM    3  H5* UNL     1      -5.297   8.127  67.920  1.00  0.00     0.000 HD 
ENDROOT
BRANCH   2   4
HETATM    4  C4* UNL     1      -7.983   8.277  66.050  1.00  0.00    -0.098 C  
HETATM    5  O4* UNL     1      -8.843   8.151  67.198  1.00  0.00    -0.127 OA 
HETATM    6  C1* UNL     1      -9.878   9.144  67.072  1.00  0.00    -0.207 C  
HETATM    7  H3* UNL     1      -8.282  10.667  63.865  1.00  0.00     0.000 HD 
HETATM    8  C2* UNL     1      -9.292  10.293  66.262  1.00  0.00    -0.206 C  
HETATM    9  C3* UNL     1      -8.075   9.721  65.577  1.00  0.00    -0.125 C  
HETATM   10  O3* UNL     1      -8.224   9.766  64.160  1.00  0.00    -0.137 OA 
BRANCH   6  11
HETATM   11  N   UNL     1     -10.360   9.527  68.388  1.00  0.00    -0.198 NA 
HETATM   12  C   UNL     1     -10.521  10.797  68.869  1.00  0.00    -0.205 A  
HETATM   13  C   UNL     1     -11.091   9.472  70.443  1.00  0.00    -0.277 A  
HETATM   14  N   UNL     1     -10.966  10.802  70.106  1.00  0.00    -0.228 NA 
HETATM   15  C   UNL     1     -10.750   8.654  69.378  1.00  0.00    -0.158 A  
HETATM   16  N   UNL     1     -10.771   7.313  69.188  1.00  0.00    -0.308 NA 
HETATM   17  C   UNL     1     -11.743   6.681  69.756  1.00  0.00    -0.216 C  
HETATM   18  H   UNL     1     -10.063   6.833  68.633  1.00  0.00     0.000 HD 
HETATM   19  N   UNL     1     -12.779   7.109  70.554  1.00  0.00    -0.573 NA 
HETATM   20  C   UNL     1     -12.557   7.866  71.793  1.00  0.00    -0.328 C  
HETATM   21  H   UNL     1     -13.735   6.892  70.276  1.00  0.00     0.000 HD 
HETATM   22  C   UNL     1     -11.535   9.029  71.789  1.00  0.00    -0.372 C  
HETATM   23  O   UNL     1     -10.404   8.658  72.605  1.00  0.00    -0.253 OA 
HETATM   24  H   UNL     1     -10.688   8.375  73.466  1.00  0.00     0.000 HD 
ENDBRANCH   6  11
ENDBRANCH   2   4
TORSDOF 2
ENDMDL
MODEL      169
REMARK 921   NORMALIZED FREE ENERGY PREDICTED BY IDOCK:   -3.53 KCAL/MOL
REMARK 922        TOTAL FREE ENERGY PREDICTED BY IDOCK:   -4.63 KCAL/MOL
REMARK 923 INTER-LIGAND FREE ENERGY PREDICTED BY IDOCK:   -4.25 KCAL/MOL
REMARK 924 INTRA-LIGAND FREE ENERGY PREDICTED BY IDOCK:   -0.38 KCAL/MOL
REMARK 927      BINDING AFFINITY PREDICTED BY RF-SCORE:    0.00 PKD
ROOT
HETATM    1  O5* UNL     1      -7.010   6.913  67.543  1.00  0.00    -0.077 OA 
HETATM    2  C5* UNL     1      -8.418   7.142  67.477  1.00  0.00    -0.123 C  
HETATM    3  H5* UNL     1      -6.773   6.464  68.345  1.00  0.00     0.000 HD 
ENDROOT
BRANCH   2   4
HETATM    4  C4* UNL     1      -8.800   7.865  66.187  1.00  0.00    -0.166 C  
HETATM    5  O4* UNL     1      -9.987   8.649  66.405  1.00  0.00    -0.267 OA 
HETATM    6  C1* UNL     1      -9.924   9.783  65.520  1.00  0.00    -0.259 C  
HETATM    7  H3* UNL     1      -6.364   8.834  64.262  1.00  0.00     0.000 HD 
HETATM    8  C2* UNL     1      -8.448  10.073  65.277  1.00  0.00    -0.161 C  
HETATM    9  C3* UNL     1      -7.720   8.815  65.686  1.00  0.00    -0.091 C  
HETATM   10  O3* UNL     1      -7.037   8.241  64.574  1.00  0.00    -0.074 OA 
BRANCH   6  11
HETATM   11  N   UNL     1     -10.664  10.898  66.087  1.00  0.00    -0.204 NA 
HETATM   12  C   UNL     1     -11.040  11.058  67.391  1.00  0.00    -0.305 A  
HETATM   13  C   UNL     1     -11.776  12.758  66.331  1.00  0.00    -0.403 A  
HETATM   14  N   UNL     1     -11.710  12.173  67.577  1.00  0.00    -0.498 NA 
HETATM   15  C   UNL     1     -11.102  11.999  65.388  1.00  0.00    -0.320 A  
HETATM   16  N   UNL     1     -10.828  12.174  64.073  1.00  0.00    -0.345 NA 
HETATM   17  C   UNL     1     -10.594  13.390  63.706  1.00  0.00     0.319 C  
HETATM   18  H   UNL     1     -10.808  11.396  63.415  1.00  0.00     0.000 HD 
HETATM   19  N   UNL     1     -10.590  14.578  64.400  1.00  0.00    -0.521 NA 
HETATM   20  C   UNL     1     -11.748  15.042  65.175  1.00  0.00    -0.242 C  
HETATM   21  H   UNL     1      -9.751  15.157  64.375  1.00  0.00     0.000 HD 
HETATM   22  C   UNL     1     -12.492  14.037  66.087  1.00  0.00    -0.430 C  
HETATM   23  O   UNL     1     -13.804  13.792  65.538  1.00  0.00    -0.080 OA 
HETATM   24  H   UNL     1     -14.262  14.609  65.382  1.00  0.00     0.000 HD 
ENDBRANCH   6  11
ENDBRANCH   2   4
TORSDOF 2
ENDMDL
MODEL      170
REMARK 921   NORMALIZED FREE ENERGY PREDICTED BY IDOCK:   -3.49 KCAL/MOL
REMARK 922        TOTAL FREE ENERGY PREDICTED BY IDOCK:   -4.59 KCAL/MOL
REMARK 923 INTER-LIGAND FREE ENERGY PREDICTED BY IDOCK:   -4.02 KCAL/MOL
REMARK 924 INTRA-LIGAND FREE ENERGY PREDICTED BY IDOCK:   -0.56 KCAL/MOL
REMARK 927      BINDING AFFINITY PREDICTED BY RF-SCORE:    0.00 PKD
ROOT
HETATM    1  O5* UNL     1      -7.778   9.873  64.109  1.00  0.00    -0.129 OA 
HETATM    2  C5* UNL     1      -6.947   9.092  64.969  1.00  0.00    -0.080 C  
HETATM    3  H5* UNL     1      -7.530   9.761  63.199  1.00  0.00     0.000 HD 
ENDROOT
BRANCH   2   4
HETATM    4  C4* UNL     1      -7.346   9.272  66.433  1.00  0.00    -0.092 C  
HETATM    5  O4* UNL     1      -7.949  10.566  66.614  1.00  0.00    -0.116 OA 
HETATM    6  C1* UNL     1      -8.895  10.454  67.695  1.00  0.00    -0.124 C  
HETATM    7  H3* UNL     1      -8.333   6.616  68.031  1.00  0.00     0.000 HD 
HETATM    8  C2* UNL     1      -9.375   9.008  67.713  1.00  0.00    -0.156 C  
HETATM    9  C3* UNL     1      -8.352   8.236  66.915  1.00  0.00    -0.114 C  
HETATM   10  O3* UNL     1      -7.704   7.262  67.730  1.00  0.00    -0.108 OA 
BRANCH   6  11
HETATM   11  N   UNL     1      -9.957  11.432  67.528  1.00  0.00    -0.181 NA 
HETATM   12  C   UNL     1     -11.284  11.180  67.321  1.00  0.00    -0.277 A  
HETATM   13  C   UNL     1     -11.060  13.303  67.327  1.00  0.00    -0.279 A  
HETATM   14  N   UNL     1     -11.982  12.286  67.199  1.00  0.00    -0.576 NA 
HETATM   15  C   UNL     1      -9.793  12.798  67.566  1.00  0.00    -0.211 A  
HETATM   16  N   UNL     1      -8.593  13.373  67.823  1.00  0.00    -0.180 NA 
HETATM   17  C   UNL     1      -8.628  14.450  68.533  1.00  0.00    -0.175 C  
HETATM   18  H   UNL     1      -7.719  12.980  67.477  1.00  0.00     0.000 HD 
HETATM   19  N   UNL     1      -9.672  15.162  69.077  1.00  0.00    -0.225 NA 
HETATM   20  C   UNL     1     -10.788  15.668  68.267  1.00  0.00    -0.298 C  
HETATM   21  H   UNL     1      -9.672  15.344  70.080  1.00  0.00     0.000 HD 
HETATM   22  C   UNL     1     -11.432  14.736  67.212  1.00  0.00    -0.366 C  
HETATM   23  O   UNL     1     -11.126  15.240  65.895  1.00  0.00    -0.334 OA 
HETATM   24  H   UNL     1     -11.364  16.157  65.821  1.00  0.00     0.000 HD 
ENDBRANCH   6  11
ENDBRANCH   2   4
TORSDOF 2
ENDMDL
MODEL      171
REMARK 921   NORMALIZED FREE ENERGY PREDICTED BY IDOCK:   -3.48 KCAL/MOL
REMARK 922        TOTAL FREE ENERGY PREDICTED BY IDOCK:   -4.58 KCAL/MOL
REMARK 923 INTER-LIGAND FREE ENERGY PREDICTED BY IDOCK:   -4.20 KCAL/MOL
REMARK 924 INTRA-LIGAND FREE ENERGY PREDICTED BY IDOCK:   -0.38 KCAL/MOL
REMARK 927      BINDING AFFINITY PREDICTED BY RF-SCORE:    0.00 PKD
ROOT
HETATM    1  O5* UNL     1     -12.757  12.636  64.383  1.00  0.00    -0.656 OA 
HETATM    2  C5* UNL     1     -13.246  13.471  65.432  1.00  0.00     0.173 C  
HETATM    3  H5* UNL     1     -13.300  11.864  64.278  1.00  0.00     0.000 HD 
ENDROOT
BRANCH   2   4
HETATM    4  C4* UNL     1     -12.371  14.712  65.602  1.00  0.00    -0.145 C  
HETATM    5  O4* UNL     1     -11.474  14.524  66.712  1.00  0.00    -0.345 OA 
HETATM    6  C1* UNL     1     -10.282  15.283  66.437  1.00  0.00    -0.277 C  
HETATM    7  H3* UNL     1     -11.531  16.307  62.895  1.00  0.00     0.000 HD 
HETATM    8  C2* UNL     1     -10.149  15.364  64.921  1.00  0.00    -0.059 C  
HETATM    9  C3* UNL     1     -11.515  15.018  64.380  1.00  0.00    -0.233 C  
HETATM   10  O3* UNL     1     -12.066  16.117  63.657  1.00  0.00    -0.800 OA 
BRANCH   6  11
HETATM   11  N   UNL     1      -9.142  14.676  67.103  1.00  0.00    -0.212 NA 
HETATM   12  C   UNL     1      -8.649  13.415  66.909  1.00  0.00    -0.100 A  
HETATM   13  C   UNL     1      -7.432  14.322  68.410  1.00  0.00    -0.122 A  
HETATM   14  N   UNL     1      -7.613  13.168  67.678  1.00  0.00    -0.156 NA 
HETATM   15  C   UNL     1      -8.352  15.291  68.047  1.00  0.00    -0.146 A  
HETATM   16  N   UNL     1      -8.541  16.581  68.415  1.00  0.00    -0.204 NA 
HETATM   17  C   UNL     1      -7.469  17.258  68.658  1.00  0.00    -0.251 C  
HETATM   18  H   UNL     1      -9.471  16.991  68.495  1.00  0.00     0.000 HD 
HETATM   19  N   UNL     1      -6.138  16.914  68.639  1.00  0.00    -0.144 NA 
HETATM   20  C   UNL     1      -5.602  15.795  69.426  1.00  0.00    -0.116 C  
HETATM   21  H   UNL     1      -5.499  17.455  68.057  1.00  0.00     0.000 HD 
HETATM   22  C   UNL     1      -6.372  14.452  69.443  1.00  0.00    -0.122 C  
HETATM   23  O   UNL     1      -6.916  14.244  70.763  1.00  0.00    -0.290 OA 
HETATM   24  H   UNL     1      -6.239  14.327  71.424  1.00  0.00     0.000 HD 
ENDBRANCH   6  11
ENDBRANCH   2   4
TORSDOF 2
ENDMDL
MODEL      172
REMARK 921   NORMALIZED FREE ENERGY PREDICTED BY IDOCK:   -3.46 KCAL/MOL
REMARK 922        TOTAL FREE ENERGY PREDICTED BY IDOCK:   -4.56 KCAL/MOL
REMARK 923 INTER-LIGAND FREE ENERGY PREDICTED BY IDOCK:   -5.15 KCAL/MOL
REMARK 924 INTRA-LIGAND FREE ENERGY PREDICTED BY IDOCK:    0.59 KCAL/MOL
REMARK 927      BINDING AFFINITY PREDICTED BY RF-SCORE:    0.00 PKD
ROOT
HETATM    1  O5* UNL     1     -13.175  11.605  72.243  1.00  0.00    -0.581 OA 
HETATM    2  C5* UNL     1     -12.924  10.209  72.072  1.00  0.00    -0.409 C  
HETATM    3  H5* UNL     1     -13.547  11.784  73.099  1.00  0.00     0.000 HD 
ENDROOT
BRANCH   2   4
HETATM    4  C4* UNL     1     -12.327   9.921  70.695  1.00  0.00    -0.214 C  
HETATM    5  O4* UNL     1     -12.495  11.071  69.845  1.00  0.00    -0.299 OA 
HETATM    6  C1* UNL     1     -11.400  11.080  68.910  1.00  0.00    -0.280 C  
HETATM    7  H3* UNL     1      -9.694   8.015  70.598  1.00  0.00     0.000 HD 
HETATM    8  C2* UNL     1     -10.230  10.384  69.593  1.00  0.00    -0.245 C  
HETATM    9  C3* UNL     1     -10.838   9.609  70.738  1.00  0.00    -0.330 C  
HETATM   10  O3* UNL     1     -10.624   8.209  70.571  1.00  0.00    -0.212 OA 
BRANCH   6  11
HETATM   11  N   UNL     1     -11.119  12.442  68.489  1.00  0.00    -0.241 NA 
HETATM   12  C   UNL     1     -12.025  13.442  68.272  1.00  0.00    -0.317 A  
HETATM   13  C   UNL     1     -10.101  14.260  67.844  1.00  0.00    -0.233 A  
HETATM   14  N   UNL     1     -11.447  14.556  67.886  1.00  0.00    -0.309 NA 
HETATM   15  C   UNL     1      -9.865  12.957  68.247  1.00  0.00    -0.228 A  
HETATM   16  N   UNL     1      -8.739  12.229  68.437  1.00  0.00    -0.282 NA 
HETATM   17  C   UNL     1      -7.724  12.877  68.903  1.00  0.00     0.096 C  
HETATM   18  H   UNL     1      -8.695  11.233  68.226  1.00  0.00     0.000 HD 
HETATM   19  N   UNL     1      -7.549  14.202  69.232  1.00  0.00    -0.327 NA 
HETATM   20  C   UNL     1      -7.798  15.290  68.278  1.00  0.00    -0.116 C  
HETATM   21  H   UNL     1      -7.234  14.436  70.173  1.00  0.00     0.000 HD 
HETATM   22  C   UNL     1      -9.081  15.249  67.411  1.00  0.00    -0.192 C  
HETATM   23  O   UNL     1      -8.706  15.030  66.035  1.00  0.00    -0.432 OA 
HETATM   24  H   UNL     1      -8.054  15.662  65.758  1.00  0.00     0.000 HD 
ENDBRANCH   6  11
ENDBRANCH   2   4
TORSDOF 2
ENDMDL
MODEL      173
REMARK 921   NORMALIZED FREE ENERGY PREDICTED BY IDOCK:   -3.45 KCAL/MOL
REMARK 922        TOTAL FREE ENERGY PREDICTED BY IDOCK:   -4.55 KCAL/MOL
REMARK 923 INTER-LIGAND FREE ENERGY PREDICTED BY IDOCK:   -4.26 KCAL/MOL
REMARK 924 INTRA-LIGAND FREE ENERGY PREDICTED BY IDOCK:   -0.29 KCAL/MOL
REMARK 927      BINDING AFFINITY PREDICTED BY RF-SCORE:    0.00 PKD
ROOT
HETATM    1  O5* UNL     1     -13.085   9.601  70.634  1.00  0.00    -0.564 OA 
HETATM    2  C5* UNL     1     -13.084  10.729  69.759  1.00  0.00     0.543 C  
HETATM    3  H5* UNL     1     -13.697   8.937  70.337  1.00  0.00     0.000 HD 
ENDROOT
BRANCH   2   4
HETATM    4  C4* UNL     1     -12.100  11.796  70.236  1.00  0.00    -0.342 C  
HETATM    5  O4* UNL     1     -11.100  12.020  69.225  1.00  0.00    -0.234 OA 
HETATM    6  C1* UNL     1     -10.671  13.390  69.338  1.00  0.00     0.120 C  
HETATM    7  H3* UNL     1     -13.295  14.175  72.105  1.00  0.00     0.000 HD 
HETATM    8  C2* UNL     1     -11.843  14.174  69.914  1.00  0.00    -0.387 C  
HETATM    9  C3* UNL     1     -12.759  13.139  70.521  1.00  0.00    -0.070 C  
HETATM   10  O3* UNL     1     -12.884  13.337  71.928  1.00  0.00    -0.297 OA 
BRANCH   6  11
HETATM   11  N   UNL     1     -10.207  13.873  68.049  1.00  0.00    -0.240 NA 
HETATM   12  C   UNL     1      -8.928  14.218  67.709  1.00  0.00    -0.188 A  
HETATM   13  C   UNL     1     -10.131  14.553  65.978  1.00  0.00    -0.318 A  
HETATM   14  N   UNL     1      -8.844  14.629  66.464  1.00  0.00    -0.209 NA 
HETATM   15  C   UNL     1     -10.997  14.054  66.936  1.00  0.00    -0.298 A  
HETATM   16  N   UNL     1     -12.313  13.736  66.928  1.00  0.00    -0.429 NA 
HETATM   17  C   UNL     1     -12.764  13.238  65.825  1.00  0.00    -0.231 C  
HETATM   18  H   UNL     1     -12.911  13.881  67.741  1.00  0.00     0.000 HD 
HETATM   19  N   UNL     1     -12.159  12.980  64.616  1.00  0.00    -0.385 NA 
HETATM   20  C   UNL     1     -11.452  14.015  63.852  1.00  0.00     0.050 C  
HETATM   21  H   UNL     1     -12.205  12.035  64.237  1.00  0.00     0.000 HD 
HETATM   22  C   UNL     1     -10.487  14.970  64.597  1.00  0.00    -0.082 C  
HETATM   23  O   UNL     1     -11.050  16.298  64.593  1.00  0.00    -0.699 OA 
HETATM   24  H   UNL     1     -11.278  16.565  63.710  1.00  0.00     0.000 HD 
ENDBRANCH   6  11
ENDBRANCH   2   4
TORSDOF 2
ENDMDL
MODEL      174
REMARK 921   NORMALIZED FREE ENERGY PREDICTED BY IDOCK:   -3.41 KCAL/MOL
REMARK 922        TOTAL FREE ENERGY PREDICTED BY IDOCK:   -4.50 KCAL/MOL
REMARK 923 INTER-LIGAND FREE ENERGY PREDICTED BY IDOCK:   -5.07 KCAL/MOL
REMARK 924 INTRA-LIGAND FREE ENERGY PREDICTED BY IDOCK:    0.57 KCAL/MOL
REMARK 927      BINDING AFFINITY PREDICTED BY RF-SCORE:    0.00 PKD
ROOT
HETATM    1  O5* UNL     1      -7.595   9.317  71.461  1.00  0.00    -0.340 OA 
HETATM    2  C5* UNL     1      -8.421   8.395  72.172  1.00  0.00    -0.181 C  
HETATM    3  H5* UNL     1      -6.744   9.404  71.875  1.00  0.00     0.000 HD 
ENDROOT
BRANCH   2   4
HETATM    4  C4* UNL     1      -9.789   8.255  71.507  1.00  0.00    -0.189 C  
HETATM    5  O4* UNL     1     -10.549   9.462  71.703  1.00  0.00    -0.340 OA 
HETATM    6  C1* UNL     1     -11.431   9.606  70.574  1.00  0.00    -0.285 C  
HETATM    7  H3* UNL     1      -9.928   6.499  68.773  1.00  0.00     0.000 HD 
HETATM    8  C2* UNL     1     -10.757   8.914  69.396  1.00  0.00    -0.192 C  
HETATM    9  C3* UNL     1      -9.708   8.016  70.005  1.00  0.00    -0.173 C  
HETATM   10  O3* UNL     1      -9.979   6.648  69.709  1.00  0.00    -0.170 OA 
BRANCH   6  11
HETATM   11  N   UNL     1     -11.726  11.011  70.350  1.00  0.00    -0.335 NA 
HETATM   12  C   UNL     1     -12.543  11.811  71.100  1.00  0.00    -0.309 A  
HETATM   13  C   UNL     1     -11.798  13.021  69.507  1.00  0.00    -0.323 A  
HETATM   14  N   UNL     1     -12.607  13.033  70.623  1.00  0.00    -0.243 NA 
HETATM   15  C   UNL     1     -11.210  11.779  69.332  1.00  0.00    -0.234 A  
HETATM   16  N   UNL     1     -10.307  11.292  68.448  1.00  0.00    -0.185 NA 
HETATM   17  C   UNL     1      -9.389  12.117  68.071  1.00  0.00    -0.197 C  
HETATM   18  H   UNL     1     -10.351  10.334  68.102  1.00  0.00     0.000 HD 
HETATM   19  N   UNL     1      -9.151  13.436  68.381  1.00  0.00    -0.286 NA 
HETATM   20  C   UNL     1     -10.162  14.485  68.190  1.00  0.00    -0.230 C  
HETATM   21  H   UNL     1      -8.240  13.696  68.757  1.00  0.00     0.000 HD 
HETATM   22  C   UNL     1     -11.619  14.213  68.639  1.00  0.00    -0.317 C  
HETATM   23  O   UNL     1     -12.459  14.125  67.470  1.00  0.00    -0.542 OA 
HETATM   24  H   UNL     1     -12.345  14.888  66.914  1.00  0.00     0.000 HD 
ENDBRANCH   6  11
ENDBRANCH   2   4
TORSDOF 2
ENDMDL
MODEL      175
REMARK 921   NORMALIZED FREE ENERGY PREDICTED BY IDOCK:   -3.37 KCAL/MOL
REMARK 922        TOTAL FREE ENERGY PREDICTED BY IDOCK:   -4.46 KCAL/MOL
REMARK 923 INTER-LIGAND FREE ENERGY PREDICTED BY IDOCK:   -4.15 KCAL/MOL
REMARK 924 INTRA-LIGAND FREE ENERGY PREDICTED BY IDOCK:   -0.31 KCAL/MOL
REMARK 927      BINDING AFFINITY PREDICTED BY RF-SCORE:    0.00 PKD
ROOT
HETATM    1  O5* UNL     1     -10.588  13.696  67.607  1.00  0.00    -0.239 OA 
HETATM    2  C5* UNL     1     -11.148  12.503  67.059  1.00  0.00    -0.281 C  
HETATM    3  H5* UNL     1     -11.155  14.443  67.453  1.00  0.00     0.000 HD 
ENDROOT
BRANCH   2   4
HETATM    4  C4* UNL     1     -10.236  11.302  67.306  1.00  0.00    -0.194 C  
HETATM    5  O4* UNL     1     -10.046  11.122  68.722  1.00  0.00    -0.194 OA 
HETATM    6  C1* UNL     1      -9.834   9.716  68.953  1.00  0.00    -0.174 C  
HETATM    7  H3* UNL     1     -10.466   8.818  65.218  1.00  0.00     0.000 HD 
HETATM    8  C2* UNL     1     -10.559   8.971  67.841  1.00  0.00    -0.256 C  
HETATM    9  C3* UNL     1     -10.796   9.996  66.759  1.00  0.00    -0.021 C  
HETATM   10  O3* UNL     1     -10.116   9.633  65.559  1.00  0.00    -0.290 OA 
BRANCH   6  11
HETATM   11  N   UNL     1     -10.273   9.362  70.292  1.00  0.00    -0.228 NA 
HETATM   12  C   UNL     1     -11.263   9.961  71.021  1.00  0.00    -0.364 A  
HETATM   13  C   UNL     1     -10.459   8.409  72.246  1.00  0.00    -0.337 A  
HETATM   14  N   UNL     1     -11.407   9.409  72.204  1.00  0.00    -0.059 NA 
HETATM   15  C   UNL     1      -9.759   8.337  71.053  1.00  0.00    -0.163 A  
HETATM   16  N   UNL     1      -8.799   7.504  70.584  1.00  0.00    -0.145 NA 
HETATM   17  C   UNL     1      -8.899   6.270  70.952  1.00  0.00    -0.136 C  
HETATM   18  H   UNL     1      -8.046   7.830  69.980  1.00  0.00     0.000 HD 
HETATM   19  N   UNL     1      -9.799   5.621  71.765  1.00  0.00    -0.165 NA 
HETATM   20  C   UNL     1     -10.063   6.046  73.146  1.00  0.00    -0.186 C  
HETATM   21  H   UNL     1     -10.301   4.814  71.395  1.00  0.00     0.000 HD 
HETATM   22  C   UNL     1     -10.255   7.554  73.443  1.00  0.00    -0.343 C  
HETATM   23  O   UNL     1      -9.135   8.021  74.222  1.00  0.00    -0.374 OA 
HETATM   24  H   UNL     1      -9.005   7.474  74.988  1.00  0.00     0.000 HD 
ENDBRANCH   6  11
ENDBRANCH   2   4
TORSDOF 2
ENDMDL
MODEL      176
REMARK 921   NORMALIZED FREE ENERGY PREDICTED BY IDOCK:   -3.36 KCAL/MOL
REMARK 922        TOTAL FREE ENERGY PREDICTED BY IDOCK:   -4.45 KCAL/MOL
REMARK 923 INTER-LIGAND FREE ENERGY PREDICTED BY IDOCK:   -3.76 KCAL/MOL
REMARK 924 INTRA-LIGAND FREE ENERGY PREDICTED BY IDOCK:   -0.69 KCAL/MOL
REMARK 927      BINDING AFFINITY PREDICTED BY RF-SCORE:    0.00 PKD
ROOT
HETATM    1  O5* UNL     1     -11.275   9.012  72.112  1.00  0.00    -0.351 OA 
HETATM    2  C5* UNL     1     -11.950   8.301  71.074  1.00  0.00    -0.241 C  
HETATM    3  H5* UNL     1     -11.563   9.917  72.150  1.00  0.00     0.000 HD 
ENDROOT
BRANCH   2   4
HETATM    4  C4* UNL     1     -11.486   6.846  71.012  1.00  0.00    -0.314 C  
HETATM    5  O4* UNL     1     -11.345   6.442  69.637  1.00  0.00    -0.387 OA 
HETATM    6  C1* UNL     1     -10.311   5.441  69.585  1.00  0.00    -0.291 C  
HETATM    7  H3* UNL     1      -9.493   5.829  73.372  1.00  0.00     0.000 HD 
HETATM    8  C2* UNL     1      -9.367   5.720  70.749  1.00  0.00    -0.189 C  
HETATM    9  C3* UNL     1     -10.143   6.612  71.688  1.00  0.00    -0.184 C  
HETATM   10  O3* UNL     1     -10.331   5.975  72.950  1.00  0.00    -0.183 OA 
BRANCH   6  11
HETATM   11  N   UNL     1      -9.669   5.457  68.282  1.00  0.00    -0.128 NA 
HETATM   12  C   UNL     1      -9.388   4.380  67.488  1.00  0.00    -0.154 A  
HETATM   13  C   UNL     1      -8.675   6.104  66.451  1.00  0.00    -0.138 A  
HETATM   14  N   UNL     1      -8.791   4.733  66.372  1.00  0.00    -0.112 NA 
HETATM   15  C   UNL     1      -9.244   6.585  67.618  1.00  0.00    -0.113 A  
HETATM   16  N   UNL     1      -9.440   7.830  68.115  1.00  0.00    -0.145 NA 
HETATM   17  C   UNL     1      -9.713   8.745  67.246  1.00  0.00    -0.183 C  
HETATM   18  H   UNL     1      -9.375   8.032  69.112  1.00  0.00     0.000 HD 
HETATM   19  N   UNL     1      -9.825   8.709  65.875  1.00  0.00    -0.464 NA 
HETATM   20  C   UNL     1      -8.747   8.217  65.009  1.00  0.00    -0.012 C  
HETATM   21  H   UNL     1     -10.690   9.037  65.446  1.00  0.00     0.000 HD 
HETATM   22  C   UNL     1      -8.012   6.909  65.394  1.00  0.00    -0.125 C  
HETATM   23  O   UNL     1      -6.656   7.230  65.768  1.00  0.00    -0.046 OA 
HETATM   24  H   UNL     1      -6.232   7.745  65.092  1.00  0.00     0.000 HD 
ENDBRANCH   6  11
ENDBRANCH   2   4
TORSDOF 2
ENDMDL
MODEL      177
REMARK 921   NORMALIZED FREE ENERGY PREDICTED BY IDOCK:   -3.36 KCAL/MOL
REMARK 922        TOTAL FREE ENERGY PREDICTED BY IDOCK:   -4.44 KCAL/MOL
REMARK 923 INTER-LIGAND FREE ENERGY PREDICTED BY IDOCK:   -4.06 KCAL/MOL
REMARK 924 INTRA-LIGAND FREE ENERGY PREDICTED BY IDOCK:   -0.39 KCAL/MOL
REMARK 927      BINDING AFFINITY PREDICTED BY RF-SCORE:    0.00 PKD
ROOT
HETATM    1  O5* UNL     1      -7.922   9.301  63.613  1.00  0.00    -0.126 OA 
HETATM    2  C5* UNL     1      -8.099   9.307  65.030  1.00  0.00    -0.127 C  
HETATM    3  H5* UNL     1      -7.003   9.225  63.383  1.00  0.00     0.000 HD 
ENDROOT
BRANCH   2   4
HETATM    4  C4* UNL     1      -9.577   9.429  65.400  1.00  0.00    -0.226 C  
HETATM    5  O4* UNL     1      -9.797   8.865  66.706  1.00  0.00    -0.196 OA 
HETATM    6  C1* UNL     1     -10.901   9.572  67.301  1.00  0.00    -0.118 C  
HETATM    7  H3* UNL     1     -11.159  12.055  64.313  1.00  0.00     0.000 HD 
HETATM    8  C2* UNL     1     -10.910  10.969  66.694  1.00  0.00    -0.284 C  
HETATM    9  C3* UNL     1     -10.070  10.869  65.443  1.00  0.00    -0.277 C  
HETATM   10  O3* UNL     1     -10.851  11.157  64.285  1.00  0.00    -0.361 OA 
BRANCH   6  11
HETATM   11  N   UNL     1     -10.782   9.553  68.749  1.00  0.00    -0.214 NA 
HETATM   12  C   UNL     1     -11.162  10.534  69.621  1.00  0.00    -0.282 A  
HETATM   13  C   UNL     1     -10.326   8.963  70.799  1.00  0.00    -0.226 A  
HETATM   14  N   UNL     1     -10.906  10.211  70.868  1.00  0.00    -0.213 NA 
HETATM   15  C   UNL     1     -10.265   8.514  69.490  1.00  0.00    -0.206 A  
HETATM   16  N   UNL     1      -9.857   7.355  68.920  1.00  0.00    -0.154 NA 
HETATM   17  C   UNL     1     -10.095   6.282  69.596  1.00  0.00    -0.174 C  
HETATM   18  H   UNL     1      -9.390   7.332  68.014  1.00  0.00     0.000 HD 
HETATM   19  N   UNL     1     -10.679   6.079  70.826  1.00  0.00    -0.260 NA 
HETATM   20  C   UNL     1     -10.191   6.733  72.047  1.00  0.00    -0.191 C  
HETATM   21  H   UNL     1     -11.479   5.451  70.891  1.00  0.00     0.000 HD 
HETATM   22  C   UNL     1      -9.842   8.241  72.003  1.00  0.00    -0.257 C  
HETATM   23  O   UNL     1      -8.416   8.394  72.154  1.00  0.00    -0.163 OA 
HETATM   24  H   UNL     1      -8.106   7.932  72.924  1.00  0.00     0.000 HD 
ENDBRANCH   6  11
ENDBRANCH   2   4
TORSDOF 2
ENDMDL
MODEL      178
REMARK 921   NORMALIZED FREE ENERGY PREDICTED BY IDOCK:   -3.35 KCAL/MOL
REMARK 922        TOTAL FREE ENERGY PREDICTED BY IDOCK:   -4.43 KCAL/MOL
REMARK 923 INTER-LIGAND FREE ENERGY PREDICTED BY IDOCK:   -3.89 KCAL/MOL
REMARK 924 INTRA-LIGAND FREE ENERGY PREDICTED BY IDOCK:   -0.55 KCAL/MOL
REMARK 927      BINDING AFFINITY PREDICTED BY RF-SCORE:    0.00 PKD
ROOT
HETATM    1  O5* UNL     1     -10.373   5.194  73.735  1.00  0.00    -0.194 OA 
HETATM    2  C5* UNL     1      -9.763   6.477  73.881  1.00  0.00    -0.229 C  
HETATM    3  H5* UNL     1     -11.147   5.119  74.281  1.00  0.00     0.000 HD 
ENDROOT
BRANCH   2   4
HETATM    4  C4* UNL     1      -8.517   6.597  73.004  1.00  0.00    -0.117 C  
HETATM    5  O4* UNL     1      -8.903   6.941  71.660  1.00  0.00    -0.129 OA 
HETATM    6  C1* UNL     1      -7.826   7.704  71.084  1.00  0.00    -0.090 C  
HETATM    7  H3* UNL     1      -5.820   7.736  74.421  1.00  0.00     0.000 HD 
HETATM    8  C2* UNL     1      -7.117   8.406  72.235  1.00  0.00    -0.116 C  
HETATM    9  C3* UNL     1      -7.546   7.669  73.480  1.00  0.00    -0.114 C  
HETATM   10  O3* UNL     1      -6.425   7.067  74.124  1.00  0.00    -0.077 OA 
BRANCH   6  11
HETATM   11  N   UNL     1      -8.343   8.602  70.066  1.00  0.00    -0.119 NA 
HETATM   12  C   UNL     1      -7.862   8.775  68.798  1.00  0.00    -0.101 A  
HETATM   13  C   UNL     1      -9.516  10.107  69.010  1.00  0.00    -0.190 A  
HETATM   14  N   UNL     1      -8.549   9.674  68.130  1.00  0.00    -0.119 NA 
HETATM   15  C   UNL     1      -9.431   9.431  70.216  1.00  0.00    -0.251 A  
HETATM   16  N   UNL     1     -10.175   9.446  71.348  1.00  0.00    -0.292 NA 
HETATM   17  C   UNL     1     -11.445   9.610  71.182  1.00  0.00    -0.384 C  
HETATM   18  H   UNL     1      -9.759   9.336  72.272  1.00  0.00     0.000 HD 
HETATM   19  N   UNL     1     -12.210   9.800  70.055  1.00  0.00    -0.463 NA 
HETATM   20  C   UNL     1     -11.953  10.887  69.101  1.00  0.00    -0.288 C  
HETATM   21  H   UNL     1     -12.985   9.162  69.875  1.00  0.00     0.000 HD 
HETATM   22  C   UNL     1     -10.495  11.168  68.660  1.00  0.00    -0.197 C  
HETATM   23  O   UNL     1     -10.084  12.442  69.196  1.00  0.00    -0.414 OA 
HETATM   24  H   UNL     1     -10.710  13.121  68.972  1.00  0.00     0.000 HD 
ENDBRANCH   6  11
ENDBRANCH   2   4
TORSDOF 2
ENDMDL
MODEL      179
REMARK 921   NORMALIZED FREE ENERGY PREDICTED BY IDOCK:   -3.34 KCAL/MOL
REMARK 922        TOTAL FREE ENERGY PREDICTED BY IDOCK:   -4.43 KCAL/MOL
REMARK 923 INTER-LIGAND FREE ENERGY PREDICTED BY IDOCK:   -3.88 KCAL/MOL
REMARK 924 INTRA-LIGAND FREE ENERGY PREDICTED BY IDOCK:   -0.55 KCAL/MOL
REMARK 927      BINDING AFFINITY PREDICTED BY RF-SCORE:    0.00 PKD
ROOT
HETATM    1  O5* UNL     1      -6.805   3.851  69.023  1.00  0.00    -0.044 OA 
HETATM    2  C5* UNL     1      -7.339   3.091  67.937  1.00  0.00    -0.053 C  
HETATM    3  H5* UNL     1      -5.978   3.490  69.318  1.00  0.00     0.000 HD 
ENDROOT
BRANCH   2   4
HETATM    4  C4* UNL     1      -8.671   3.671  67.462  1.00  0.00    -0.108 C  
HETATM    5  O4* UNL     1      -9.104   4.698  68.373  1.00  0.00    -0.109 OA 
HETATM    6  C1* UNL     1      -9.875   5.650  67.616  1.00  0.00    -0.135 C  
HETATM    7  H3* UNL     1      -9.147   3.836  64.249  1.00  0.00     0.000 HD 
HETATM    8  C2* UNL     1      -9.355   5.601  66.185  1.00  0.00    -0.167 C  
HETATM    9  C3* UNL     1      -8.595   4.302  66.079  1.00  0.00    -0.113 C  
HETATM   10  O3* UNL     1      -9.195   3.442  65.112  1.00  0.00    -0.138 OA 
BRANCH   6  11
HETATM   11  N   UNL     1      -9.793   6.961  68.236  1.00  0.00    -0.135 NA 
HETATM   12  C   UNL     1      -9.214   8.085  67.714  1.00  0.00    -0.134 A  
HETATM   13  C   UNL     1      -9.957   8.621  69.642  1.00  0.00    -0.191 A  
HETATM   14  N   UNL     1      -9.298   9.108  68.534  1.00  0.00    -0.136 NA 
HETATM   15  C   UNL     1     -10.306   7.292  69.469  1.00  0.00    -0.225 A  
HETATM   16  N   UNL     1     -11.005   6.407  70.219  1.00  0.00    -0.288 NA 
HETATM   17  C   UNL     1     -11.997   6.895  70.886  1.00  0.00    -0.381 C  
HETATM   18  H   UNL     1     -10.763   5.417  70.256  1.00  0.00     0.000 HD 
HETATM   19  N   UNL     1     -12.484   8.176  71.006  1.00  0.00    -0.495 NA 
HETATM   20  C   UNL     1     -11.646   9.301  71.441  1.00  0.00    -0.367 C  
HETATM   21  H   UNL     1     -13.464   8.351  70.784  1.00  0.00     0.000 HD 
HETATM   22  C   UNL     1     -10.228   9.457  70.840  1.00  0.00    -0.303 C  
HETATM   23  O   UNL     1      -9.253   9.202  71.872  1.00  0.00    -0.354 OA 
HETATM   24  H   UNL     1      -9.426   9.736  72.639  1.00  0.00     0.000 HD 
ENDBRANCH   6  11
ENDBRANCH   2   4
TORSDOF 2
ENDMDL
MODEL      180
REMARK 921   NORMALIZED FREE ENERGY PREDICTED BY IDOCK:   -3.34 KCAL/MOL
REMARK 922        TOTAL FREE ENERGY PREDICTED BY IDOCK:   -4.42 KCAL/MOL
REMARK 923 INTER-LIGAND FREE ENERGY PREDICTED BY IDOCK:   -4.04 KCAL/MOL
REMARK 924 INTRA-LIGAND FREE ENERGY PREDICTED BY IDOCK:   -0.38 KCAL/MOL
REMARK 927      BINDING AFFINITY PREDICTED BY RF-SCORE:    0.00 PKD
ROOT
HETATM    1  O5* UNL     1     -10.806  15.199  67.814  1.00  0.00    -0.275 OA 
HETATM    2  C5* UNL     1     -11.220  15.398  66.462  1.00  0.00    -0.162 C  
HETATM    3  H5* UNL     1     -10.924  15.989  68.328  1.00  0.00     0.000 HD 
ENDROOT
BRANCH   2   4
HETATM    4  C4* UNL     1     -11.029  14.127  65.635  1.00  0.00    -0.308 C  
HETATM    5  O4* UNL     1      -9.779  13.506  65.985  1.00  0.00    -0.275 OA 
HETATM    6  C1* UNL     1      -9.931  12.088  65.784  1.00  0.00    -0.241 C  
HETATM    7  H3* UNL     1     -13.704  12.434  64.892  1.00  0.00     0.000 HD 
HETATM    8  C2* UNL     1     -11.407  11.769  65.982  1.00  0.00    -0.335 C  
HETATM    9  C3* UNL     1     -12.123  13.092  65.859  1.00  0.00    -0.444 C  
HETATM   10  O3* UNL     1     -13.022  13.080  64.752  1.00  0.00    -0.735 OA 
BRANCH   6  11
HETATM   11  N   UNL     1      -9.040  11.362  66.673  1.00  0.00    -0.176 NA 
HETATM   12  C   UNL     1      -8.750  11.662  67.975  1.00  0.00    -0.157 A  
HETATM   13  C   UNL     1      -7.614   9.924  67.483  1.00  0.00    -0.091 A  
HETATM   14  N   UNL     1      -7.896  10.813  68.498  1.00  0.00    -0.114 NA 
HETATM   15  C   UNL     1      -8.339  10.225  66.343  1.00  0.00    -0.132 A  
HETATM   16  N   UNL     1      -8.463   9.628  65.133  1.00  0.00    -0.141 NA 
HETATM   17  C   UNL     1      -8.426   8.338  65.136  1.00  0.00    -0.146 C  
HETATM   18  H   UNL     1      -8.577  10.165  64.273  1.00  0.00     0.000 HD 
HETATM   19  N   UNL     1      -8.259   7.424  66.150  1.00  0.00    -0.123 NA 
HETATM   20  C   UNL     1      -7.102   7.453  67.055  1.00  0.00    -0.084 C  
HETATM   21  H   UNL     1      -8.965   6.699  66.279  1.00  0.00     0.000 HD 
HETATM   22  C   UNL     1      -6.646   8.809  67.646  1.00  0.00    -0.062 C  
HETATM   23  O   UNL     1      -5.365   9.156  67.081  1.00  0.00    -0.039 OA 
HETATM   24  H   UNL     1      -4.746   8.443  67.185  1.00  0.00     0.000 HD 
ENDBRANCH   6  11
ENDBRANCH   2   4
TORSDOF 2
ENDMDL
MODEL      181
REMARK 921   NORMALIZED FREE ENERGY PREDICTED BY IDOCK:   -3.32 KCAL/MOL
REMARK 922        TOTAL FREE ENERGY PREDICTED BY IDOCK:   -4.40 KCAL/MOL
REMARK 923 INTER-LIGAND FREE ENERGY PREDICTED BY IDOCK:   -3.99 KCAL/MOL
REMARK 924 INTRA-LIGAND FREE ENERGY PREDICTED BY IDOCK:   -0.41 KCAL/MOL
REMARK 927      BINDING AFFINITY PREDICTED BY RF-SCORE:    0.00 PKD
ROOT
HETATM    1  O5* UNL     1      -8.674  12.367  66.153  1.00  0.00    -0.414 OA 
HETATM    2  C5* UNL     1      -9.719  11.631  66.789  1.00  0.00    -0.201 C  
HETATM    3  H5* UNL     1      -8.805  12.405  65.213  1.00  0.00     0.000 HD 
ENDROOT
BRANCH   2   4
HETATM    4  C4* UNL     1      -9.508  11.570  68.302  1.00  0.00    -0.189 C  
HETATM    5  O4* UNL     1     -10.373  10.570  68.871  1.00  0.00    -0.185 OA 
HETATM    6  C1* UNL     1      -9.716  10.045  70.040  1.00  0.00    -0.175 C  
HETATM    7  H3* UNL     1      -6.499  12.141  69.397  1.00  0.00     0.000 HD 
HETATM    8  C2* UNL     1      -8.218  10.196  69.809  1.00  0.00    -0.161 C  
HETATM    9  C3* UNL     1      -8.083  11.208  68.697  1.00  0.00    -0.150 C  
HETATM   10  O3* UNL     1      -7.388  12.368  69.150  1.00  0.00    -0.026 OA 
BRANCH   6  11
HETATM   11  N   UNL     1     -10.147   8.678  70.280  1.00  0.00    -0.183 NA 
HETATM   12  C   UNL     1     -10.666   7.805  69.365  1.00  0.00    -0.171 A  
HETATM   13  C   UNL     1     -10.634   6.779  71.237  1.00  0.00    -0.219 A  
HETATM   14  N   UNL     1     -10.968   6.646  69.906  1.00  0.00    -0.291 NA 
HETATM   15  C   UNL     1     -10.089   8.027  71.491  1.00  0.00    -0.180 A  
HETATM   16  N   UNL     1      -9.557   8.605  72.595  1.00  0.00    -0.222 NA 
HETATM   17  C   UNL     1      -8.891   7.820  73.373  1.00  0.00    -0.242 C  
HETATM   18  H   UNL     1      -9.677   9.597  72.798  1.00  0.00     0.000 HD 
HETATM   19  N   UNL     1      -8.625   6.471  73.314  1.00  0.00    -0.121 NA 
HETATM   20  C   UNL     1      -9.688   5.462  73.217  1.00  0.00    -0.150 C  
HETATM   21  H   UNL     1      -7.654   6.161  73.338  1.00  0.00     0.000 HD 
HETATM   22  C   UNL     1     -10.855   5.694  72.226  1.00  0.00    -0.242 C  
HETATM   23  O   UNL     1     -12.065   5.925  72.978  1.00  0.00    -0.470 OA 
HETATM   24  H   UNL     1     -12.206   5.231  73.611  1.00  0.00     0.000 HD 
ENDBRANCH   6  11
ENDBRANCH   2   4
TORSDOF 2
ENDMDL
MODEL      182
REMARK 921   NORMALIZED FREE ENERGY PREDICTED BY IDOCK:   -3.32 KCAL/MOL
REMARK 922        TOTAL FREE ENERGY PREDICTED BY IDOCK:   -4.39 KCAL/MOL
REMARK 923 INTER-LIGAND FREE ENERGY PREDICTED BY IDOCK:   -3.74 KCAL/MOL
REMARK 924 INTRA-LIGAND FREE ENERGY PREDICTED BY IDOCK:   -0.65 KCAL/MOL
REMARK 927      BINDING AFFINITY PREDICTED BY RF-SCORE:    0.00 PKD
ROOT
HETATM    1  O5* UNL     1     -10.461   4.990  66.733  1.00  0.00    -0.251 OA 
HETATM    2  C5* UNL     1      -9.469   3.970  66.862  1.00  0.00    -0.198 C  
HETATM    3  H5* UNL     1     -11.245   4.653  66.317  1.00  0.00     0.000 HD 
ENDROOT
BRANCH   2   4
HETATM    4  C4* UNL     1      -8.206   4.511  67.531  1.00  0.00    -0.100 C  
HETATM    5  O4* UNL     1      -8.474   5.811  68.090  1.00  0.00    -0.109 OA 
HETATM    6  C1* UNL     1      -7.615   5.974  69.234  1.00  0.00    -0.094 C  
HETATM    7  H3* UNL     1      -6.242   2.342  68.951  1.00  0.00     0.000 HD 
HETATM    8  C2* UNL     1      -7.341   4.580  69.784  1.00  0.00    -0.051 C  
HETATM    9  C3* UNL     1      -7.701   3.631  68.666  1.00  0.00    -0.056 C  
HETATM   10  O3* UNL     1      -6.557   2.891  68.243  1.00  0.00    -0.035 OA 
BRANCH   6  11
HETATM   11  N   UNL     1      -8.228   6.881  70.190  1.00  0.00    -0.131 NA 
HETATM   12  C   UNL     1      -7.633   7.934  70.826  1.00  0.00    -0.078 A  
HETATM   13  C   UNL     1      -9.646   7.856  71.530  1.00  0.00    -0.151 A  
HETATM   14  N   UNL     1      -8.460   8.550  71.640  1.00  0.00    -0.165 NA 
HETATM   15  C   UNL     1      -9.539   6.829  70.607  1.00  0.00    -0.169 A  
HETATM   16  N   UNL     1     -10.419   5.930  70.107  1.00  0.00    -0.238 NA 
HETATM   17  C   UNL     1     -11.627   6.357  69.944  1.00  0.00    -0.353 C  
HETATM   18  H   UNL     1     -10.146   4.976  69.873  1.00  0.00     0.000 HD 
HETATM   19  N   UNL     1     -12.218   7.571  70.207  1.00  0.00    -0.402 NA 
HETATM   20  C   UNL     1     -12.184   8.193  71.537  1.00  0.00    -0.301 C  
HETATM   21  H   UNL     1     -12.697   8.057  69.450  1.00  0.00     0.000 HD 
HETATM   22  C   UNL     1     -10.851   8.206  72.325  1.00  0.00    -0.320 C  
HETATM   23  O   UNL     1     -10.978   7.339  73.471  1.00  0.00    -0.543 OA 
HETATM   24  H   UNL     1     -11.749   7.563  73.980  1.00  0.00     0.000 HD 
ENDBRANCH   6  11
ENDBRANCH   2   4
TORSDOF 2
ENDMDL
MODEL      183
REMARK 921   NORMALIZED FREE ENERGY PREDICTED BY IDOCK:   -3.30 KCAL/MOL
REMARK 922        TOTAL FREE ENERGY PREDICTED BY IDOCK:   -4.38 KCAL/MOL
REMARK 923 INTER-LIGAND FREE ENERGY PREDICTED BY IDOCK:   -3.94 KCAL/MOL
REMARK 924 INTRA-LIGAND FREE ENERGY PREDICTED BY IDOCK:   -0.44 KCAL/MOL
REMARK 927      BINDING AFFINITY PREDICTED BY RF-SCORE:    0.00 PKD
ROOT
HETATM    1  O5* UNL     1      -9.683   5.535  67.773  1.00  0.00    -0.119 OA 
HETATM    2  C5* UNL     1      -9.608   6.714  66.970  1.00  0.00    -0.150 C  
HETATM    3  H5* UNL     1     -10.115   4.830  67.305  1.00  0.00     0.000 HD 
ENDROOT
BRANCH   2   4
HETATM    4  C4* UNL     1      -8.913   7.849  67.722  1.00  0.00    -0.128 C  
HETATM    5  O4* UNL     1      -9.027   9.070  66.967  1.00  0.00    -0.124 OA 
HETATM    6  C1* UNL     1      -9.035  10.160  67.908  1.00  0.00    -0.128 C  
HETATM    7  H3* UNL     1      -9.029   7.756  70.971  1.00  0.00     0.000 HD 
HETATM    8  C2* UNL     1      -9.613   9.617  69.209  1.00  0.00    -0.190 C  
HETATM    9  C3* UNL     1      -9.509   8.115  69.097  1.00  0.00    -0.155 C  
HETATM   10  O3* UNL     1      -8.657   7.590  70.113  1.00  0.00    -0.138 OA 
BRANCH   6  11
HETATM   11  N   UNL     1      -9.766  11.287  67.356  1.00  0.00    -0.173 NA 
HETATM   12  C   UNL     1     -11.124  11.429  67.274  1.00  0.00    -0.303 A  
HETATM   13  C   UNL     1     -10.274  13.183  66.404  1.00  0.00    -0.286 A  
HETATM   14  N   UNL     1     -11.467  12.564  66.708  1.00  0.00    -0.340 NA 
HETATM   15  C   UNL     1      -9.197  12.423  66.827  1.00  0.00    -0.212 A  
HETATM   16  N   UNL     1      -7.857  12.621  66.821  1.00  0.00    -0.396 NA 
HETATM   17  C   UNL     1      -7.468  13.835  67.024  1.00  0.00     0.321 C  
HETATM   18  H   UNL     1      -7.197  11.859  66.666  1.00  0.00     0.000 HD 
HETATM   19  N   UNL     1      -8.165  15.004  67.229  1.00  0.00    -0.196 NA 
HETATM   20  C   UNL     1      -9.178  15.493  66.284  1.00  0.00    -0.329 C  
HETATM   21  H   UNL     1      -7.971  15.550  68.067  1.00  0.00     0.000 HD 
HETATM   22  C   UNL     1     -10.211  14.494  65.708  1.00  0.00    -0.335 C  
HETATM   23  O   UNL     1      -9.953  14.315  64.301  1.00  0.00    -0.555 OA 
HETATM   24  H   UNL     1      -9.912  15.153  63.856  1.00  0.00     0.000 HD 
ENDBRANCH   6  11
ENDBRANCH   2   4
TORSDOF 2
ENDMDL
MODEL      184
REMARK 921   NORMALIZED FREE ENERGY PREDICTED BY IDOCK:   -3.30 KCAL/MOL
REMARK 922        TOTAL FREE ENERGY PREDICTED BY IDOCK:   -4.37 KCAL/MOL
REMARK 923 INTER-LIGAND FREE ENERGY PREDICTED BY IDOCK:   -3.80 KCAL/MOL
REMARK 924 INTRA-LIGAND FREE ENERGY PREDICTED BY IDOCK:   -0.57 KCAL/MOL
REMARK 927      BINDING AFFINITY PREDICTED BY RF-SCORE:    0.00 PKD
ROOT
HETATM    1  O5* UNL     1      -9.646   9.768  70.752  1.00  0.00    -0.319 OA 
HETATM    2  C5* UNL     1     -10.410   9.459  69.585  1.00  0.00    -0.216 C  
HETATM    3  H5* UNL     1      -9.101  10.534  70.611  1.00  0.00     0.000 HD 
ENDROOT
BRANCH   2   4
HETATM    4  C4* UNL     1     -11.286   8.227  69.811  1.00  0.00     0.036 C  
HETATM    5  O4* UNL     1     -10.823   7.146  68.981  1.00  0.00    -0.209 OA 
HETATM    6  C1* UNL     1     -11.131   5.916  69.663  1.00  0.00    -0.343 C  
HETATM    7  H3* UNL     1     -12.462   7.781  72.810  1.00  0.00     0.000 HD 
HETATM    8  C2* UNL     1     -11.138   6.227  71.154  1.00  0.00    -0.356 C  
HETATM    9  C3* UNL     1     -11.266   7.729  71.249  1.00  0.00    -0.255 C  
HETATM   10  O3* UNL     1     -12.475   8.093  71.912  1.00  0.00    -0.305 OA 
BRANCH   6  11
HETATM   11  N   UNL     1     -10.185   4.883  69.275  1.00  0.00    -0.182 NA 
HETATM   12  C   UNL     1      -9.570   3.978  70.095  1.00  0.00    -0.200 A  
HETATM   13  C   UNL     1      -8.849   3.601  68.122  1.00  0.00    -0.116 A  
HETATM   14  N   UNL     1      -8.760   3.184  69.433  1.00  0.00    -0.068 NA 
HETATM   15  C   UNL     1      -9.756   4.639  67.991  1.00  0.00    -0.140 A  
HETATM   16  N   UNL     1     -10.235   5.329  66.928  1.00  0.00    -0.216 NA 
HETATM   17  C   UNL     1     -10.395   4.649  65.842  1.00  0.00    -0.283 C  
HETATM   18  H   UNL     1     -10.455   6.323  66.982  1.00  0.00     0.000 HD 
HETATM   19  N   UNL     1     -10.147   3.330  65.536  1.00  0.00    -0.367 NA 
HETATM   20  C   UNL     1      -8.827   2.713  65.721  1.00  0.00    -0.134 C  
HETATM   21  H   UNL     1     -10.908   2.761  65.168  1.00  0.00     0.000 HD 
HETATM   22  C   UNL     1      -8.050   2.982  67.033  1.00  0.00    -0.079 C  
HETATM   23  O   UNL     1      -6.890   3.784  66.731  1.00  0.00    -0.052 OA 
HETATM   24  H   UNL     1      -6.379   3.389  66.034  1.00  0.00     0.000 HD 
ENDBRANCH   6  11
ENDBRANCH   2   4
TORSDOF 2
ENDMDL
MODEL      185
REMARK 921   NORMALIZED FREE ENERGY PREDICTED BY IDOCK:   -3.29 KCAL/MOL
REMARK 922        TOTAL FREE ENERGY PREDICTED BY IDOCK:   -4.37 KCAL/MOL
REMARK 923 INTER-LIGAND FREE ENERGY PREDICTED BY IDOCK:   -4.23 KCAL/MOL
REMARK 924 INTRA-LIGAND FREE ENERGY PREDICTED BY IDOCK:   -0.14 KCAL/MOL
REMARK 927      BINDING AFFINITY PREDICTED BY RF-SCORE:    0.00 PKD
ROOT
HETATM    1  O5* UNL     1     -10.139   3.842  66.154  1.00  0.00    -0.417 OA 
HETATM    2  C5* UNL     1      -9.762   5.121  65.643  1.00  0.00    -0.060 C  
HETATM    3  H5* UNL     1     -10.397   3.255  65.452  1.00  0.00     0.000 HD 
ENDROOT
BRANCH   2   4
HETATM    4  C4* UNL     1      -9.347   6.064  66.771  1.00  0.00    -0.138 C  
HETATM    5  O4* UNL     1      -9.122   7.383  66.240  1.00  0.00    -0.166 OA 
HETATM    6  C1* UNL     1      -9.432   8.327  67.283  1.00  0.00    -0.151 C  
HETATM    7  H3* UNL     1     -10.661   5.533  69.698  1.00  0.00     0.000 HD 
HETATM    8  C2* UNL     1     -10.473   7.670  68.179  1.00  0.00    -0.233 C  
HETATM    9  C3* UNL     1     -10.398   6.195  67.864  1.00  0.00    -0.203 C  
HETATM   10  O3* UNL     1     -10.005   5.451  69.016  1.00  0.00    -0.159 OA 
BRANCH   6  11
HETATM   11  N   UNL     1      -9.858   9.588  66.700  1.00  0.00    -0.213 NA 
HETATM   12  C   UNL     1      -9.980   9.883  65.371  1.00  0.00    -0.279 A  
HETATM   13  C   UNL     1     -10.515  11.652  66.439  1.00  0.00    -0.244 A  
HETATM   14  N   UNL     1     -10.378  11.119  65.175  1.00  0.00    -0.282 NA 
HETATM   15  C   UNL     1     -10.228  10.708  67.410  1.00  0.00    -0.204 A  
HETATM   16  N   UNL     1     -10.279  10.718  68.764  1.00  0.00    -0.184 NA 
HETATM   17  C   UNL     1     -11.242  11.404  69.284  1.00  0.00    -0.277 C  
HETATM   18  H   UNL     1      -9.601  10.216  69.336  1.00  0.00     0.000 HD 
HETATM   19  N   UNL     1     -12.239  12.165  68.721  1.00  0.00    -0.178 NA 
HETATM   20  C   UNL     1     -11.959  13.272  67.796  1.00  0.00    -0.314 C  
HETATM   21  H   UNL     1     -13.209  11.954  68.954  1.00  0.00     0.000 HD 
HETATM   22  C   UNL     1     -10.917  13.063  66.670  1.00  0.00    -0.279 C  
HETATM   23  O   UNL     1      -9.765  13.886  66.943  1.00  0.00    -0.251 OA 
HETATM   24  H   UNL     1     -10.022  14.788  67.091  1.00  0.00     0.000 HD 
ENDBRANCH   6  11
ENDBRANCH   2   4
TORSDOF 2
ENDMDL
MODEL      186
REMARK 921   NORMALIZED FREE ENERGY PREDICTED BY IDOCK:   -3.29 KCAL/MOL
REMARK 922        TOTAL FREE ENERGY PREDICTED BY IDOCK:   -4.36 KCAL/MOL
REMARK 923 INTER-LIGAND FREE ENERGY PREDICTED BY IDOCK:   -3.99 KCAL/MOL
REMARK 924 INTRA-LIGAND FREE ENERGY PREDICTED BY IDOCK:   -0.37 KCAL/MOL
REMARK 927      BINDING AFFINITY PREDICTED BY RF-SCORE:    0.00 PKD
ROOT
HETATM    1  O5* UNL     1     -11.578  16.400  65.230  1.00  0.00     0.243 OA 
HETATM    2  C5* UNL     1     -12.236  15.459  64.381  1.00  0.00    -0.151 C  
HETATM    3  H5* UNL     1     -11.969  17.262  65.153  1.00  0.00     0.000 HD 
ENDROOT
BRANCH   2   4
HETATM    4  C4* UNL     1     -11.608  14.072  64.505  1.00  0.00    -0.391 C  
HETATM    5  O4* UNL     1     -10.324  14.178  65.149  1.00  0.00    -0.364 OA 
HETATM    6  C1* UNL     1     -10.096  12.948  65.862  1.00  0.00    -0.289 C  
HETATM    7  H3* UNL     1     -13.631  11.572  64.989  1.00  0.00     0.000 HD 
HETATM    8  C2* UNL     1     -11.464  12.390  66.231  1.00  0.00    -0.423 C  
HETATM    9  C3* UNL     1     -12.444  13.103  65.330  1.00  0.00    -0.481 C  
HETATM   10  O3* UNL     1     -13.110  12.176  64.475  1.00  0.00    -0.720 OA 
BRANCH   6  11
HETATM   11  N   UNL     1      -9.224  13.188  66.999  1.00  0.00    -0.226 NA 
HETATM   12  C   UNL     1      -9.335  14.186  67.927  1.00  0.00    -0.204 A  
HETATM   13  C   UNL     1      -7.605  13.052  68.455  1.00  0.00    -0.133 A  
HETATM   14  N   UNL     1      -8.376  14.133  68.824  1.00  0.00    -0.114 NA 
HETATM   15  C   UNL     1      -8.130  12.425  67.337  1.00  0.00    -0.177 A  
HETATM   16  N   UNL     1      -7.787  11.311  66.647  1.00  0.00    -0.154 NA 
HETATM   17  C   UNL     1      -7.322  10.334  67.352  1.00  0.00    -0.093 C  
HETATM   18  H   UNL     1      -7.889  11.248  65.634  1.00  0.00     0.000 HD 
HETATM   19  N   UNL     1      -7.078  10.205  68.700  1.00  0.00    -0.073 NA 
HETATM   20  C   UNL     1      -6.218  11.139  69.438  1.00  0.00    -0.079 C  
HETATM   21  H   UNL     1      -7.511   9.432  69.205  1.00  0.00     0.000 HD 
HETATM   22  C   UNL     1      -6.378  12.659  69.194  1.00  0.00    -0.099 C  
HETATM   23  O   UNL     1      -5.198  13.151  68.525  1.00  0.00    -0.063 OA 
HETATM   24  H   UNL     1      -4.413  12.899  68.998  1.00  0.00     0.000 HD 
ENDBRANCH   6  11
ENDBRANCH   2   4
TORSDOF 2
ENDMDL
MODEL      187
REMARK 921   NORMALIZED FREE ENERGY PREDICTED BY IDOCK:   -3.28 KCAL/MOL
REMARK 922        TOTAL FREE ENERGY PREDICTED BY IDOCK:   -4.35 KCAL/MOL
REMARK 923 INTER-LIGAND FREE ENERGY PREDICTED BY IDOCK:   -3.62 KCAL/MOL
REMARK 924 INTRA-LIGAND FREE ENERGY PREDICTED BY IDOCK:   -0.73 KCAL/MOL
REMARK 927      BINDING AFFINITY PREDICTED BY RF-SCORE:    0.00 PKD
ROOT
HETATM    1  O5* UNL     1      -8.630  10.515  70.107  1.00  0.00    -0.269 OA 
HETATM    2  C5* UNL     1      -9.522  10.373  69.001  1.00  0.00    -0.197 C  
HETATM    3  H5* UNL     1      -7.834  10.964  69.850  1.00  0.00     0.000 HD 
ENDROOT
BRANCH   2   4
HETATM    4  C4* UNL     1     -10.803   9.650  69.415  1.00  0.00    -0.217 C  
HETATM    5  O4* UNL     1     -10.510   8.268  69.691  1.00  0.00    -0.216 OA 
HETATM    6  C1* UNL     1     -11.448   7.819  70.687  1.00  0.00    -0.245 C  
HETATM    7  H3* UNL     1     -12.990  11.369  71.101  1.00  0.00     0.000 HD 
HETATM    8  C2* UNL     1     -11.841   9.041  71.507  1.00  0.00    -0.415 C  
HETATM    9  C3* UNL     1     -11.445  10.231  70.668  1.00  0.00    -0.349 C  
HETATM   10  O3* UNL     1     -12.589  11.007  70.319  1.00  0.00    -0.297 OA 
BRANCH   6  11
HETATM   11  N   UNL     1     -10.865   6.740  71.467  1.00  0.00    -0.230 NA 
HETATM   12  C   UNL     1     -11.507   5.637  71.958  1.00  0.00    -0.133 A  
HETATM   13  C   UNL     1      -9.472   5.487  72.584  1.00  0.00    -0.147 A  
HETATM   14  N   UNL     1     -10.696   4.856  72.634  1.00  0.00    -0.214 NA 
HETATM   15  C   UNL     1      -9.542   6.650  71.834  1.00  0.00    -0.149 A  
HETATM   16  N   UNL     1      -8.621   7.563  71.443  1.00  0.00    -0.119 NA 
HETATM   17  C   UNL     1      -7.449   7.097  71.168  1.00  0.00    -0.080 C  
HETATM   18  H   UNL     1      -8.840   8.556  71.370  1.00  0.00     0.000 HD 
HETATM   19  N   UNL     1      -6.929   5.824  71.218  1.00  0.00    -0.065 NA 
HETATM   20  C   UNL     1      -6.962   5.006  72.437  1.00  0.00    -0.071 C  
HETATM   21  H   UNL     1      -6.506   5.434  70.376  1.00  0.00     0.000 HD 
HETATM   22  C   UNL     1      -8.268   4.948  73.267  1.00  0.00    -0.104 C  
HETATM   23  O   UNL     1      -8.050   5.618  74.526  1.00  0.00    -0.103 OA 
HETATM   24  H   UNL     1      -7.280   5.273  74.963  1.00  0.00     0.000 HD 
ENDBRANCH   6  11
ENDBRANCH   2   4
TORSDOF 2
ENDMDL
MODEL      188
REMARK 921   NORMALIZED FREE ENERGY PREDICTED BY IDOCK:   -3.27 KCAL/MOL
REMARK 922        TOTAL FREE ENERGY PREDICTED BY IDOCK:   -4.34 KCAL/MOL
REMARK 923 INTER-LIGAND FREE ENERGY PREDICTED BY IDOCK:   -3.74 KCAL/MOL
REMARK 924 INTRA-LIGAND FREE ENERGY PREDICTED BY IDOCK:   -0.61 KCAL/MOL
REMARK 927      BINDING AFFINITY PREDICTED BY RF-SCORE:    0.00 PKD
ROOT
HETATM    1  O5* UNL     1     -11.767   9.926  71.625  1.00  0.00    -0.372 OA 
HETATM    2  C5* UNL     1     -11.595   9.638  70.237  1.00  0.00    -0.198 C  
HETATM    3  H5* UNL     1     -12.336  10.676  71.751  1.00  0.00     0.000 HD 
ENDROOT
BRANCH   2   4
HETATM    4  C4* UNL     1     -10.680   8.431  70.034  1.00  0.00    -0.236 C  
HETATM    5  O4* UNL     1     -10.642   8.083  68.637  1.00  0.00    -0.191 OA 
HETATM    6  C1* UNL     1      -9.353   7.498  68.373  1.00  0.00    -0.141 C  
HETATM    7  H3* UNL     1      -8.094   8.193  71.991  1.00  0.00     0.000 HD 
HETATM    8  C2* UNL     1      -8.381   8.100  69.380  1.00  0.00    -0.123 C  
HETATM    9  C3* UNL     1      -9.244   8.683  70.472  1.00  0.00    -0.175 C  
HETATM   10  O3* UNL     1      -8.990   8.036  71.718  1.00  0.00    -0.127 OA 
BRANCH   6  11
HETATM   11  N   UNL     1      -8.983   7.717  66.985  1.00  0.00    -0.125 NA 
HETATM   12  C   UNL     1      -8.506   6.788  66.103  1.00  0.00    -0.135 A  
HETATM   13  C   UNL     1      -8.581   8.645  65.052  1.00  0.00    -0.158 A  
HETATM   14  N   UNL     1      -8.256   7.312  64.924  1.00  0.00    -0.110 NA 
HETATM   15  C   UNL     1      -9.068   8.919  66.319  1.00  0.00    -0.190 A  
HETATM   16  N   UNL     1      -9.571  10.032  66.904  1.00  0.00    -0.169 NA 
HETATM   17  C   UNL     1     -10.271  10.801  66.139  1.00  0.00    -0.250 C  
HETATM   18  H   UNL     1      -9.407  10.250  67.887  1.00  0.00     0.000 HD 
HETATM   19  N   UNL     1     -10.598  10.722  64.804  1.00  0.00    -0.270 NA 
HETATM   20  C   UNL     1      -9.582  10.608  63.750  1.00  0.00    -0.306 C  
HETATM   21  H   UNL     1     -11.582  10.744  64.538  1.00  0.00     0.000 HD 
HETATM   22  C   UNL     1      -8.407   9.618  63.943  1.00  0.00    -0.172 C  
HETATM   23  O   UNL     1      -7.187  10.369  64.108  1.00  0.00    -0.287 OA 
HETATM   24  H   UNL     1      -7.076  10.992  63.399  1.00  0.00     0.000 HD 
ENDBRANCH   6  11
ENDBRANCH   2   4
TORSDOF 2
ENDMDL
MODEL      189
REMARK 921   NORMALIZED FREE ENERGY PREDICTED BY IDOCK:   -3.24 KCAL/MOL
REMARK 922        TOTAL FREE ENERGY PREDICTED BY IDOCK:   -4.31 KCAL/MOL
REMARK 923 INTER-LIGAND FREE ENERGY PREDICTED BY IDOCK:   -3.78 KCAL/MOL
REMARK 924 INTRA-LIGAND FREE ENERGY PREDICTED BY IDOCK:   -0.53 KCAL/MOL
REMARK 927      BINDING AFFINITY PREDICTED BY RF-SCORE:    0.00 PKD
ROOT
HETATM    1  O5* UNL     1     -13.016  11.453  71.472  1.00  0.00    -0.432 OA 
HETATM    2  C5* UNL     1     -12.775  12.542  70.580  1.00  0.00     0.018 C  
HETATM    3  H5* UNL     1     -13.521  10.769  71.048  1.00  0.00     0.000 HD 
ENDROOT
BRANCH   2   4
HETATM    4  C4* UNL     1     -11.965  13.644  71.261  1.00  0.00     0.140 C  
HETATM    5  O4* UNL     1     -11.023  14.201  70.325  1.00  0.00     0.052 OA 
HETATM    6  C1* UNL     1     -10.811  15.576  70.694  1.00  0.00    -0.303 C  
HETATM    7  H3* UNL     1     -13.495  15.427  73.509  1.00  0.00     0.000 HD 
HETATM    8  C2* UNL     1     -12.084  16.051  71.381  1.00  0.00    -0.479 C  
HETATM    9  C3* UNL     1     -12.821  14.793  71.773  1.00  0.00    -0.325 C  
HETATM   10  O3* UNL     1     -12.961  14.710  73.190  1.00  0.00    -0.490 OA 
BRANCH   6  11
HETATM   11  N   UNL     1     -10.441  16.353  69.522  1.00  0.00    -0.299 NA 
HETATM   12  C   UNL     1     -10.940  17.570  69.149  1.00  0.00     0.436 A  
HETATM   13  C   UNL     1      -9.522  17.008  67.656  1.00  0.00    -0.236 A  
HETATM   14  N   UNL     1     -10.404  17.999  68.028  1.00  0.00    -0.374 NA 
HETATM   15  C   UNL     1      -9.501  15.983  68.587  1.00  0.00    -0.224 A  
HETATM   16  N   UNL     1      -8.773  14.848  68.708  1.00  0.00    -0.177 NA 
HETATM   17  C   UNL     1      -7.545  14.924  68.316  1.00  0.00    -0.113 C  
HETATM   18  H   UNL     1      -9.169  13.987  69.085  1.00  0.00     0.000 HD 
HETATM   19  N   UNL     1      -6.817  15.952  67.763  1.00  0.00    -0.139 NA 
HETATM   20  C   UNL     1      -7.243  16.654  66.545  1.00  0.00    -0.206 C  
HETATM   21  H   UNL     1      -5.949  16.237  68.216  1.00  0.00     0.000 HD 
HETATM   22  C   UNL     1      -8.725  17.080  66.404  1.00  0.00    -0.273 C  
HETATM   23  O   UNL     1      -9.338  16.294  65.361  1.00  0.00    -0.361 OA 
HETATM   24  H   UNL     1      -8.828  16.340  64.560  1.00  0.00     0.000 HD 
ENDBRANCH   6  11
ENDBRANCH   2   4
TORSDOF 2
ENDMDL
MODEL      190
REMARK 921   NORMALIZED FREE ENERGY PREDICTED BY IDOCK:   -3.19 KCAL/MOL
REMARK 922        TOTAL FREE ENERGY PREDICTED BY IDOCK:   -4.26 KCAL/MOL
REMARK 923 INTER-LIGAND FREE ENERGY PREDICTED BY IDOCK:   -3.62 KCAL/MOL
REMARK 924 INTRA-LIGAND FREE ENERGY PREDICTED BY IDOCK:   -0.63 KCAL/MOL
REMARK 927      BINDING AFFINITY PREDICTED BY RF-SCORE:    0.00 PKD
ROOT
HETATM    1  O5* UNL     1      -5.630   4.368  70.204  1.00  0.00    -0.011 OA 
HETATM    2  C5* UNL     1      -6.314   5.622  70.188  1.00  0.00    -0.031 C  
HETATM    3  H5* UNL     1      -4.689   4.491  70.214  1.00  0.00     0.000 HD 
ENDROOT
BRANCH   2   4
HETATM    4  C4* UNL     1      -7.829   5.424  70.171  1.00  0.00    -0.081 C  
HETATM    5  O4* UNL     1      -8.480   6.691  69.967  1.00  0.00    -0.136 OA 
HETATM    6  C1* UNL     1      -9.718   6.434  69.278  1.00  0.00    -0.136 C  
HETATM    7  H3* UNL     1      -8.939   2.637  68.915  1.00  0.00     0.000 HD 
HETATM    8  C2* UNL     1      -9.516   5.161  68.465  1.00  0.00    -0.175 C  
HETATM    9  C3* UNL     1      -8.302   4.492  69.064  1.00  0.00    -0.079 C  
HETATM   10  O3* UNL     1      -8.644   3.218  69.606  1.00  0.00    -0.058 OA 
BRANCH   6  11
HETATM   11  N   UNL     1     -10.096   7.592  68.486  1.00  0.00    -0.184 NA 
HETATM   12  C   UNL     1     -10.220   7.656  67.126  1.00  0.00    -0.290 A  
HETATM   13  C   UNL     1     -10.664   9.607  67.872  1.00  0.00    -0.247 A  
HETATM   14  N   UNL     1     -10.566   8.857  66.719  1.00  0.00    -0.204 NA 
HETATM   15  C   UNL     1     -10.407   8.834  68.992  1.00  0.00    -0.213 A  
HETATM   16  N   UNL     1     -10.441   9.082  70.323  1.00  0.00    -0.204 NA 
HETATM   17  C   UNL     1     -11.366   9.891  70.720  1.00  0.00    -0.353 C  
HETATM   18  H   UNL     1      -9.779   8.656  70.971  1.00  0.00     0.000 HD 
HETATM   19  N   UNL     1     -12.336  10.588  70.037  1.00  0.00    -0.481 NA 
HETATM   20  C   UNL     1     -12.018  11.502  68.932  1.00  0.00    -0.299 C  
HETATM   21  H   UNL     1     -13.311  10.464  70.307  1.00  0.00     0.000 HD 
HETATM   22  C   UNL     1     -11.001  11.053  67.855  1.00  0.00    -0.264 C  
HETATM   23  O   UNL     1      -9.809  11.858  67.976  1.00  0.00    -0.178 OA 
HETATM   24  H   UNL     1     -10.024  12.783  67.965  1.00  0.00     0.000 HD 
ENDBRANCH   6  11
ENDBRANCH   2   4
TORSDOF 2
ENDMDL
MODEL      191
REMARK 921   NORMALIZED FREE ENERGY PREDICTED BY IDOCK:   -3.19 KCAL/MOL
REMARK 922        TOTAL FREE ENERGY PREDICTED BY IDOCK:   -4.25 KCAL/MOL
REMARK 923 INTER-LIGAND FREE ENERGY PREDICTED BY IDOCK:   -3.93 KCAL/MOL
REMARK 924 INTRA-LIGAND FREE ENERGY PREDICTED BY IDOCK:   -0.33 KCAL/MOL
REMARK 927      BINDING AFFINITY PREDICTED BY RF-SCORE:    0.00 PKD
ROOT
HETATM    1  O5* UNL     1      -8.415   8.478  73.674  1.00  0.00    -0.353 OA 
HETATM    2  C5* UNL     1      -9.531   8.062  72.886  1.00  0.00    -0.277 C  
HETATM    3  H5* UNL     1      -8.260   7.876  74.392  1.00  0.00     0.000 HD 
ENDROOT
BRANCH   2   4
HETATM    4  C4* UNL     1      -9.782   9.030  71.731  1.00  0.00    -0.241 C  
HETATM    5  O4* UNL     1      -9.096   8.566  70.553  1.00  0.00    -0.143 OA 
HETATM    6  C1* UNL     1      -9.853   9.010  69.410  1.00  0.00    -0.183 C  
HETATM    7  H3* UNL     1     -12.687  10.488  71.631  1.00  0.00     0.000 HD 
HETATM    8  C2* UNL     1     -11.304   9.127  69.859  1.00  0.00    -0.047 C  
HETATM    9  C3* UNL     1     -11.254   9.167  71.368  1.00  0.00    -0.349 C  
HETATM   10  O3* UNL     1     -11.769  10.403  71.858  1.00  0.00     0.134 OA 
BRANCH   6  11
HETATM   11  N   UNL     1      -9.646   8.101  68.295  1.00  0.00    -0.142 NA 
HETATM   12  C   UNL     1      -9.038   8.383  67.104  1.00  0.00    -0.138 A  
HETATM   13  C   UNL     1      -9.657   6.343  67.004  1.00  0.00    -0.142 A  
HETATM   14  N   UNL     1      -9.022   7.344  66.301  1.00  0.00    -0.161 NA 
HETATM   15  C   UNL     1     -10.028   6.779  68.265  1.00  0.00    -0.146 A  
HETATM   16  N   UNL     1     -10.603   6.171  69.330  1.00  0.00    -0.252 NA 
HETATM   17  C   UNL     1     -10.266   4.940  69.524  1.00  0.00    -0.177 C  
HETATM   18  H   UNL     1     -11.262   6.655  69.940  1.00  0.00     0.000 HD 
HETATM   19  N   UNL     1      -9.431   4.094  68.830  1.00  0.00    -0.164 NA 
HETATM   20  C   UNL     1      -9.605   3.814  67.399  1.00  0.00    -0.161 C  
HETATM   21  H   UNL     1      -8.665   3.644  69.329  1.00  0.00     0.000 HD 
HETATM   22  C   UNL     1      -9.889   4.991  66.434  1.00  0.00    -0.201 C  
HETATM   23  O   UNL     1     -11.237   4.870  65.936  1.00  0.00    -0.785 OA 
HETATM   24  H   UNL     1     -11.386   4.006  65.571  1.00  0.00     0.000 HD 
ENDBRANCH   6  11
ENDBRANCH   2   4
TORSDOF 2
ENDMDL
MODEL      192
REMARK 921   NORMALIZED FREE ENERGY PREDICTED BY IDOCK:   -3.19 KCAL/MOL
REMARK 922        TOTAL FREE ENERGY PREDICTED BY IDOCK:   -4.25 KCAL/MOL
REMARK 923 INTER-LIGAND FREE ENERGY PREDICTED BY IDOCK:   -3.69 KCAL/MOL
REMARK 924 INTRA-LIGAND FREE ENERGY PREDICTED BY IDOCK:   -0.56 KCAL/MOL
REMARK 927      BINDING AFFINITY PREDICTED BY RF-SCORE:    0.00 PKD
ROOT
HETATM    1  O5* UNL     1      -7.097   4.704  67.672  1.00  0.00    -0.063 OA 
HETATM    2  C5* UNL     1      -8.054   4.361  66.669  1.00  0.00    -0.102 C  
HETATM    3  H5* UNL     1      -6.210   4.625  67.341  1.00  0.00     0.000 HD 
ENDROOT
BRANCH   2   4
HETATM    4  C4* UNL     1      -9.480   4.487  67.202  1.00  0.00    -0.162 C  
HETATM    5  O4* UNL     1      -9.454   5.053  68.525  1.00  0.00    -0.123 OA 
HETATM    6  C1* UNL     1     -10.680   5.786  68.706  1.00  0.00    -0.247 C  
HETATM    7  H3* UNL     1     -11.811   5.156  65.034  1.00  0.00     0.000 HD 
HETATM    8  C2* UNL     1     -11.126   6.249  67.325  1.00  0.00    -0.387 C  
HETATM    9  C3* UNL     1     -10.365   5.385  66.348  1.00  0.00    -0.247 C  
HETATM   10  O3* UNL     1     -11.259   4.596  65.567  1.00  0.00    -0.114 OA 
BRANCH   6  11
HETATM   11  N   UNL     1     -10.479   6.864  69.659  1.00  0.00    -0.209 NA 
HETATM   12  C   UNL     1     -10.742   8.192  69.469  1.00  0.00    -0.175 A  
HETATM   13  C   UNL     1      -9.945   8.005  71.440  1.00  0.00    -0.178 A  
HETATM   14  N   UNL     1     -10.436   8.911  70.525  1.00  0.00    -0.203 NA 
HETATM   15  C   UNL     1      -9.990   6.715  70.937  1.00  0.00    -0.187 A  
HETATM   16  N   UNL     1      -9.693   5.501  71.457  1.00  0.00    -0.153 NA 
HETATM   17  C   UNL     1      -9.963   5.346  72.710  1.00  0.00    -0.170 C  
HETATM   18  H   UNL     1      -9.282   4.756  70.895  1.00  0.00     0.000 HD 
HETATM   19  N   UNL     1     -10.486   6.201  73.653  1.00  0.00    -0.257 NA 
HETATM   20  C   UNL     1      -9.886   7.508  73.950  1.00  0.00    -0.150 C  
HETATM   21  H   UNL     1     -11.321   5.916  74.163  1.00  0.00     0.000 HD 
HETATM   22  C   UNL     1      -9.441   8.414  72.776  1.00  0.00    -0.242 C  
HETATM   23  O   UNL     1      -8.001   8.503  72.776  1.00  0.00    -0.323 OA 
HETATM   24  H   UNL     1      -7.679   8.765  73.630  1.00  0.00     0.000 HD 
ENDBRANCH   6  11
ENDBRANCH   2   4
TORSDOF 2
ENDMDL
MODEL      193
REMARK 921   NORMALIZED FREE ENERGY PREDICTED BY IDOCK:   -3.18 KCAL/MOL
REMARK 922        TOTAL FREE ENERGY PREDICTED BY IDOCK:   -4.24 KCAL/MOL
REMARK 923 INTER-LIGAND FREE ENERGY PREDICTED BY IDOCK:   -4.08 KCAL/MOL
REMARK 924 INTRA-LIGAND FREE ENERGY PREDICTED BY IDOCK:   -0.16 KCAL/MOL
REMARK 927      BINDING AFFINITY PREDICTED BY RF-SCORE:    0.00 PKD
ROOT
HETATM    1  O5* UNL     1      -9.145  17.442  66.189  1.00  0.00    -0.437 OA 
HETATM    2  C5* UNL     1      -8.933  16.316  67.041  1.00  0.00    -0.206 C  
HETATM    3  H5* UNL     1      -8.341  17.932  66.062  1.00  0.00     0.000 HD 
ENDROOT
BRANCH   2   4
HETATM    4  C4* UNL     1     -10.227  15.529  67.245  1.00  0.00    -0.260 C  
HETATM    5  O4* UNL     1     -10.094  14.219  66.663  1.00  0.00    -0.261 OA 
HETATM    6  C1* UNL     1     -10.927  13.323  67.422  1.00  0.00    -0.271 C  
HETATM    7  H3* UNL     1     -11.876  16.088  69.993  1.00  0.00     0.000 HD 
HETATM    8  C2* UNL     1     -11.018  13.891  68.832  1.00  0.00    -0.290 C  
HETATM    9  C3* UNL     1     -10.588  15.333  68.711  1.00  0.00    -0.240 C  
HETATM   10  O3* UNL     1     -11.651  16.210  69.078  1.00  0.00    -0.353 OA 
BRANCH   6  11
HETATM   11  N   UNL     1     -10.392  11.973  67.357  1.00  0.00    -0.206 NA 
HETATM   12  C   UNL     1     -10.906  10.915  66.660  1.00  0.00    -0.197 A  
HETATM   13  C   UNL     1      -9.166  10.196  67.666  1.00  0.00    -0.141 A  
HETATM   14  N   UNL     1     -10.189   9.826  66.819  1.00  0.00    -0.232 NA 
HETATM   15  C   UNL     1      -9.251  11.539  67.991  1.00  0.00    -0.175 A  
HETATM   16  N   UNL     1      -8.467  12.373  68.716  1.00  0.00    -0.360 NA 
HETATM   17  C   UNL     1      -7.196  12.161  68.637  1.00  0.00    -0.109 C  
HETATM   18  H   UNL     1      -8.857  13.122  69.288  1.00  0.00     0.000 HD 
HETATM   19  N   UNL     1      -6.461  11.215  67.961  1.00  0.00    -0.057 NA 
HETATM   20  C   UNL     1      -6.685   9.773  68.131  1.00  0.00    -0.061 C  
HETATM   21  H   UNL     1      -5.734  11.526  67.318  1.00  0.00     0.000 HD 
HETATM   22  C   UNL     1      -8.137   9.235  68.139  1.00  0.00    -0.107 C  
HETATM   23  O   UNL     1      -8.450   8.761  69.465  1.00  0.00    -0.123 OA 
HETATM   24  H   UNL     1      -7.792   8.146  69.768  1.00  0.00     0.000 HD 
ENDBRANCH   6  11
ENDBRANCH   2   4
TORSDOF 2
ENDMDL
MODEL      194
REMARK 921   NORMALIZED FREE ENERGY PREDICTED BY IDOCK:   -3.16 KCAL/MOL
REMARK 922        TOTAL FREE ENERGY PREDICTED BY IDOCK:   -4.22 KCAL/MOL
REMARK 923 INTER-LIGAND FREE ENERGY PREDICTED BY IDOCK:   -3.67 KCAL/MOL
REMARK 924 INTRA-LIGAND FREE ENERGY PREDICTED BY IDOCK:   -0.55 KCAL/MOL
REMARK 927      BINDING AFFINITY PREDICTED BY RF-SCORE:    0.00 PKD
ROOT
HETATM    1  O5* UNL     1     -12.814  12.578  71.320  1.00  0.00    -0.352 OA 
HETATM    2  C5* UNL     1     -12.852  13.298  70.087  1.00  0.00     0.238 C  
HETATM    3  H5* UNL     1     -13.600  12.733  71.831  1.00  0.00     0.000 HD 
ENDROOT
BRANCH   2   4
HETATM    4  C4* UNL     1     -11.588  13.050  69.265  1.00  0.00    -0.310 C  
HETATM    5  O4* UNL     1     -10.998  11.795  69.652  1.00  0.00    -0.138 OA 
HETATM    6  C1* UNL     1     -10.319  11.263  68.499  1.00  0.00    -0.203 C  
HETATM    7  H3* UNL     1     -11.582  14.140  66.200  1.00  0.00     0.000 HD 
HETATM    8  C2* UNL     1     -11.043  11.801  67.272  1.00  0.00    -0.342 C  
HETATM    9  C3* UNL     1     -11.848  12.979  67.766  1.00  0.00    -0.347 C  
HETATM   10  O3* UNL     1     -11.420  14.184  67.135  1.00  0.00    -0.319 OA 
BRANCH   6  11
HETATM   11  N   UNL     1     -10.272   9.813  68.576  1.00  0.00    -0.179 NA 
HETATM   12  C   UNL     1     -10.716   8.923  67.637  1.00  0.00    -0.151 A  
HETATM   13  C   UNL     1      -9.960   7.766  69.264  1.00  0.00    -0.182 A  
HETATM   14  N   UNL     1     -10.540   7.678  68.017  1.00  0.00    -0.186 NA 
HETATM   15  C   UNL     1      -9.753   9.088  69.623  1.00  0.00    -0.172 A  
HETATM   16  N   UNL     1      -9.169   9.682  70.692  1.00  0.00    -0.318 NA 
HETATM   17  C   UNL     1      -8.144   9.070  71.185  1.00  0.00    -0.139 C  
HETATM   18  H   UNL     1      -9.517  10.558  71.082  1.00  0.00     0.000 HD 
HETATM   19  N   UNL     1      -7.524   7.890  70.844  1.00  0.00    -0.071 NA 
HETATM   20  C   UNL     1      -8.246   6.612  70.775  1.00  0.00    -0.121 C  
HETATM   21  H   UNL     1      -6.527   7.903  70.632  1.00  0.00     0.000 HD 
HETATM   22  C   UNL     1      -9.626   6.567  70.075  1.00  0.00    -0.159 C  
HETATM   23  O   UNL     1     -10.644   6.321  71.067  1.00  0.00    -0.220 OA 
HETATM   24  H   UNL     1     -10.431   5.554  71.586  1.00  0.00     0.000 HD 
ENDBRANCH   6  11
ENDBRANCH   2   4
TORSDOF 2
ENDMDL
MODEL      195
REMARK 921   NORMALIZED FREE ENERGY PREDICTED BY IDOCK:   -3.13 KCAL/MOL
REMARK 922        TOTAL FREE ENERGY PREDICTED BY IDOCK:   -4.18 KCAL/MOL
REMARK 923 INTER-LIGAND FREE ENERGY PREDICTED BY IDOCK:   -3.72 KCAL/MOL
REMARK 924 INTRA-LIGAND FREE ENERGY PREDICTED BY IDOCK:   -0.46 KCAL/MOL
REMARK 927      BINDING AFFINITY PREDICTED BY RF-SCORE:    0.00 PKD
ROOT
HETATM    1  O5* UNL     1     -11.300   5.974  73.301  1.00  0.00    -0.467 OA 
HETATM    2  C5* UNL     1     -10.685   5.644  72.055  1.00  0.00    -0.235 C  
HETATM    3  H5* UNL     1     -11.981   5.349  73.522  1.00  0.00     0.000 HD 
ENDROOT
BRANCH   2   4
HETATM    4  C4* UNL     1      -9.590   6.648  71.699  1.00  0.00    -0.162 C  
HETATM    5  O4* UNL     1      -9.402   6.673  70.271  1.00  0.00    -0.158 OA 
HETATM    6  C1* UNL     1      -8.962   7.998  69.917  1.00  0.00    -0.145 C  
HETATM    7  H3* UNL     1      -9.358   9.303  73.563  1.00  0.00     0.000 HD 
HETATM    8  C2* UNL     1      -9.529   8.947  70.964  1.00  0.00    -0.318 C  
HETATM    9  C3* UNL     1      -9.913   8.072  72.133  1.00  0.00    -0.225 C  
HETATM   10  O3* UNL     1      -9.156   8.416  73.292  1.00  0.00    -0.229 OA 
BRANCH   6  11
HETATM   11  N   UNL     1      -9.363   8.306  68.554  1.00  0.00    -0.139 NA 
HETATM   12  C   UNL     1     -10.639   8.403  68.073  1.00  0.00    -0.130 A  
HETATM   13  C   UNL     1      -9.335   8.766  66.423  1.00  0.00    -0.204 A  
HETATM   14  N   UNL     1     -10.661   8.684  66.790  1.00  0.00    -0.227 NA 
HETATM   15  C   UNL     1      -8.504   8.566  67.512  1.00  0.00    -0.128 A  
HETATM   16  N   UNL     1      -7.160   8.612  67.680  1.00  0.00    -0.079 NA 
HETATM   17  C   UNL     1      -6.537   9.504  66.985  1.00  0.00    -0.068 C  
HETATM   18  H   UNL     1      -6.672   7.982  68.316  1.00  0.00     0.000 HD 
HETATM   19  N   UNL     1      -6.978  10.428  66.065  1.00  0.00    -0.123 NA 
HETATM   20  C   UNL     1      -7.750  10.048  64.874  1.00  0.00    -0.138 C  
HETATM   21  H   UNL     1      -6.760  11.412  66.215  1.00  0.00     0.000 HD 
HETATM   22  C   UNL     1      -8.910   9.033  65.025  1.00  0.00    -0.170 C  
HETATM   23  O   UNL     1      -8.547   7.807  64.357  1.00  0.00    -0.376 OA 
HETATM   24  H   UNL     1      -8.275   7.978  63.462  1.00  0.00     0.000 HD 
ENDBRANCH   6  11
ENDBRANCH   2   4
TORSDOF 2
ENDMDL
MODEL      196
REMARK 921   NORMALIZED FREE ENERGY PREDICTED BY IDOCK:   -3.12 KCAL/MOL
REMARK 922        TOTAL FREE ENERGY PREDICTED BY IDOCK:   -4.18 KCAL/MOL
REMARK 923 INTER-LIGAND FREE ENERGY PREDICTED BY IDOCK:   -3.68 KCAL/MOL
REMARK 924 INTRA-LIGAND FREE ENERGY PREDICTED BY IDOCK:   -0.50 KCAL/MOL
REMARK 927      BINDING AFFINITY PREDICTED BY RF-SCORE:    0.00 PKD
ROOT
HETATM    1  O5* UNL     1      -8.609  10.271  65.393  1.00  0.00    -0.146 OA 
HETATM    2  C5* UNL     1      -8.849   9.294  66.407  1.00  0.00    -0.146 C  
HETATM    3  H5* UNL     1      -7.986   9.952  64.752  1.00  0.00     0.000 HD 
ENDROOT
BRANCH   2   4
HETATM    4  C4* UNL     1      -9.852   9.807  67.440  1.00  0.00    -0.174 C  
HETATM    5  O4* UNL     1     -10.547   8.694  68.033  1.00  0.00    -0.212 OA 
HETATM    6  C1* UNL     1     -10.904   9.074  69.375  1.00  0.00    -0.138 C  
HETATM    7  H3* UNL     1      -9.020  12.470  69.111  1.00  0.00     0.000 HD 
HETATM    8  C2* UNL     1      -9.868  10.091  69.837  1.00  0.00    -0.266 C  
HETATM    9  C3* UNL     1      -9.203  10.586  68.575  1.00  0.00    -0.168 C  
HETATM   10  O3* UNL     1      -9.425  11.984  68.402  1.00  0.00    -0.201 OA 
BRANCH   6  11
HETATM   11  N   UNL     1     -10.995   7.893  70.217  1.00  0.00    -0.253 NA 
HETATM   12  C   UNL     1     -11.908   7.655  71.207  1.00  0.00    -0.292 A  
HETATM   13  C   UNL     1     -10.613   5.959  71.151  1.00  0.00    -0.246 A  
HETATM   14  N   UNL     1     -11.711   6.494  71.790  1.00  0.00    -0.311 NA 
HETATM   15  C   UNL     1     -10.166   6.797  70.143  1.00  0.00    -0.195 A  
HETATM   16  N   UNL     1      -9.189   6.695  69.210  1.00  0.00    -0.141 NA 
HETATM   17  C   UNL     1      -8.994   5.513  68.729  1.00  0.00    -0.114 C  
HETATM   18  H   UNL     1      -8.642   7.500  68.908  1.00  0.00     0.000 HD 
HETATM   19  N   UNL     1      -9.584   4.299  68.999  1.00  0.00    -0.175 NA 
HETATM   20  C   UNL     1      -9.635   3.732  70.353  1.00  0.00    -0.192 C  
HETATM   21  H   UNL     1     -10.000   3.774  68.231  1.00  0.00     0.000 HD 
HETATM   22  C   UNL     1     -10.026   4.650  71.537  1.00  0.00    -0.195 C  
HETATM   23  O   UNL     1      -8.872   4.837  72.383  1.00  0.00    -0.118 OA 
HETATM   24  H   UNL     1      -8.496   4.000  72.630  1.00  0.00     0.000 HD 
ENDBRANCH   6  11
ENDBRANCH   2   4
TORSDOF 2
ENDMDL
MODEL      197
REMARK 921   NORMALIZED FREE ENERGY PREDICTED BY IDOCK:   -3.10 KCAL/MOL
REMARK 922        TOTAL FREE ENERGY PREDICTED BY IDOCK:   -4.15 KCAL/MOL
REMARK 923 INTER-LIGAND FREE ENERGY PREDICTED BY IDOCK:   -3.99 KCAL/MOL
REMARK 924 INTRA-LIGAND FREE ENERGY PREDICTED BY IDOCK:   -0.16 KCAL/MOL
REMARK 927      BINDING AFFINITY PREDICTED BY RF-SCORE:    0.00 PKD
ROOT
HETATM    1  O5* UNL     1      -5.618   4.581  70.156  1.00  0.00    -0.011 OA 
HETATM    2  C5* UNL     1      -6.333   5.814  70.241  1.00  0.00    -0.031 C  
HETATM    3  H5* UNL     1      -4.907   4.640  69.530  1.00  0.00     0.000 HD 
ENDROOT
BRANCH   2   4
HETATM    4  C4* UNL     1      -7.479   5.719  71.248  1.00  0.00    -0.095 C  
HETATM    5  O4* UNL     1      -8.063   7.020  71.442  1.00  0.00    -0.106 OA 
HETATM    6  C1* UNL     1      -9.452   6.826  71.768  1.00  0.00    -0.150 C  
HETATM    7  H3* UNL     1      -9.227   2.976  71.240  1.00  0.00     0.000 HD 
HETATM    8  C2* UNL     1      -9.881   5.518  71.115  1.00  0.00    -0.235 C  
HETATM    9  C3* UNL     1      -8.597   4.787  70.802  1.00  0.00    -0.105 C  
HETATM   10  O3* UNL     1      -8.528   3.557  71.519  1.00  0.00    -0.070 OA 
BRANCH   6  11
HETATM   11  N   UNL     1     -10.226   7.983  71.350  1.00  0.00    -0.192 NA 
HETATM   12  C   UNL     1      -9.784   9.052  70.622  1.00  0.00    -0.234 A  
HETATM   13  C   UNL     1     -11.841   9.419  71.056  1.00  0.00    -0.322 A  
HETATM   14  N   UNL     1     -10.733   9.937  70.421  1.00  0.00    -0.300 NA 
HETATM   15  C   UNL     1     -11.561   8.184  71.617  1.00  0.00    -0.279 A  
HETATM   16  N   UNL     1     -12.312   7.266  72.271  1.00  0.00    -0.497 NA 
HETATM   17  C   UNL     1     -13.530   7.143  71.862  1.00  0.00    -0.199 C  
HETATM   18  H   UNL     1     -11.939   6.707  73.038  1.00  0.00     0.000 HD 
HETATM   19  N   UNL     1     -14.243   7.794  70.882  1.00  0.00    -0.580 NA 
HETATM   20  C   UNL     1     -14.387   9.255  70.850  1.00  0.00     0.416 C  
HETATM   21  H   UNL     1     -14.688   7.241  70.150  1.00  0.00     0.000 HD 
HETATM   22  C   UNL     1     -13.140  10.137  71.105  1.00  0.00    -0.392 C  
HETATM   23  O   UNL     1     -13.301  10.819  72.366  1.00  0.00    -0.606 OA 
HETATM   24  H   UNL     1     -14.133  11.279  72.397  1.00  0.00     0.000 HD 
ENDBRANCH   6  11
ENDBRANCH   2   4
TORSDOF 2
ENDMDL
MODEL      198
REMARK 921   NORMALIZED FREE ENERGY PREDICTED BY IDOCK:   -3.09 KCAL/MOL
REMARK 922        TOTAL FREE ENERGY PREDICTED BY IDOCK:   -4.15 KCAL/MOL
REMARK 923 INTER-LIGAND FREE ENERGY PREDICTED BY IDOCK:   -3.79 KCAL/MOL
REMARK 924 INTRA-LIGAND FREE ENERGY PREDICTED BY IDOCK:   -0.36 KCAL/MOL
REMARK 927      BINDING AFFINITY PREDICTED BY RF-SCORE:    0.00 PKD
ROOT
HETATM    1  O5* UNL     1     -12.021   9.044  71.849  1.00  0.00    -0.338 OA 
HETATM    2  C5* UNL     1     -12.057   7.731  72.411  1.00  0.00    -0.250 C  
HETATM    3  H5* UNL     1     -12.254   9.699  72.495  1.00  0.00     0.000 HD 
ENDROOT
BRANCH   2   4
HETATM    4  C4* UNL     1     -11.682   6.676  71.372  1.00  0.00    -0.324 C  
HETATM    5  O4* UNL     1     -11.444   7.311  70.102  1.00  0.00    -0.248 OA 
HETATM    6  C1* UNL     1     -10.475   6.514  69.396  1.00  0.00    -0.221 C  
HETATM    7  H3* UNL     1      -9.976   4.113  72.419  1.00  0.00     0.000 HD 
HETATM    8  C2* UNL     1      -9.623   5.817  70.449  1.00  0.00    -0.210 C  
HETATM    9  C3* UNL     1     -10.422   5.900  71.728  1.00  0.00    -0.227 C  
HETATM   10  O3* UNL     1     -10.762   4.597  72.197  1.00  0.00    -0.151 OA 
BRANCH   6  11
HETATM   11  N   UNL     1      -9.720   7.350  68.477  1.00  0.00    -0.149 NA 
HETATM   12  C   UNL     1      -9.099   8.534  68.761  1.00  0.00    -0.143 A  
HETATM   13  C   UNL     1      -8.768   8.154  66.687  1.00  0.00    -0.139 A  
HETATM   14  N   UNL     1      -8.511   9.047  67.704  1.00  0.00    -0.117 NA 
HETATM   15  C   UNL     1      -9.494   7.069  67.149  1.00  0.00    -0.145 A  
HETATM   16  N   UNL     1      -9.926   5.922  66.571  1.00  0.00    -0.227 NA 
HETATM   17  C   UNL     1      -9.136   5.405  65.691  1.00  0.00    -0.140 C  
HETATM   18  H   UNL     1     -10.819   5.495  66.816  1.00  0.00     0.000 HD 
HETATM   19  N   UNL     1      -7.919   5.810  65.194  1.00  0.00    -0.112 NA 
HETATM   20  C   UNL     1      -7.716   7.133  64.589  1.00  0.00    -0.112 C  
HETATM   21  H   UNL     1      -7.129   5.169  65.248  1.00  0.00     0.000 HD 
HETATM   22  C   UNL     1      -8.307   8.379  65.293  1.00  0.00    -0.160 C  
HETATM   23  O   UNL     1      -9.373   8.912  64.480  1.00  0.00    -0.373 OA 
HETATM   24  H   UNL     1      -9.078   9.056  63.588  1.00  0.00     0.000 HD 
ENDBRANCH   6  11
ENDBRANCH   2   4
TORSDOF 2
ENDMDL
MODEL      199
REMARK 921   NORMALIZED FREE ENERGY PREDICTED BY IDOCK:   -3.08 KCAL/MOL
REMARK 922        TOTAL FREE ENERGY PREDICTED BY IDOCK:   -4.13 KCAL/MOL
REMARK 923 INTER-LIGAND FREE ENERGY PREDICTED BY IDOCK:   -3.78 KCAL/MOL
REMARK 924 INTRA-LIGAND FREE ENERGY PREDICTED BY IDOCK:   -0.35 KCAL/MOL
REMARK 927      BINDING AFFINITY PREDICTED BY RF-SCORE:    0.00 PKD
ROOT
HETATM    1  O5* UNL     1      -9.165   5.028  73.571  1.00  0.00    -0.126 OA 
HETATM    2  C5* UNL     1     -10.110   6.064  73.298  1.00  0.00    -0.193 C  
HETATM    3  H5* UNL     1      -8.859   5.072  74.469  1.00  0.00     0.000 HD 
ENDROOT
BRANCH   2   4
HETATM    4  C4* UNL     1     -10.602   5.994  71.853  1.00  0.00    -0.226 C  
HETATM    5  O4* UNL     1     -10.997   7.306  71.412  1.00  0.00    -0.231 OA 
HETATM    6  C1* UNL     1     -10.773   7.370  69.991  1.00  0.00    -0.246 C  
HETATM    7  H3* UNL     1      -9.155   3.830  69.903  1.00  0.00     0.000 HD 
HETATM    8  C2* UNL     1      -9.637   6.404  69.679  1.00  0.00    -0.157 C  
HETATM    9  C3* UNL     1      -9.545   5.493  70.879  1.00  0.00    -0.170 C  
HETATM   10  O3* UNL     1      -9.815   4.142  70.511  1.00  0.00    -0.204 OA 
BRANCH   6  11
HETATM   11  N   UNL     1     -10.515   8.742  69.590  1.00  0.00    -0.217 NA 
HETATM   12  C   UNL     1     -10.194   9.792  70.405  1.00  0.00    -0.281 A  
HETATM   13  C   UNL     1     -10.272  10.564  68.416  1.00  0.00    -0.172 A  
HETATM   14  N   UNL     1     -10.036  10.908  69.729  1.00  0.00     0.130 NA 
HETATM   15  C   UNL     1     -10.542   9.211  68.297  1.00  0.00    -0.174 A  
HETATM   16  N   UNL     1     -10.767   8.395  67.239  1.00  0.00    -0.462 NA 
HETATM   17  C   UNL     1     -10.097   8.665  66.169  1.00  0.00    -0.035 C  
HETATM   18  H   UNL     1     -11.425   7.617  67.285  1.00  0.00     0.000 HD 
HETATM   19  N   UNL     1      -9.191   9.658  65.875  1.00  0.00    -0.179 NA 
HETATM   20  C   UNL     1      -9.507  11.084  66.029  1.00  0.00    -0.207 C  
HETATM   21  H   UNL     1      -8.266   9.394  65.539  1.00  0.00     0.000 HD 
HETATM   22  C   UNL     1     -10.233  11.558  67.312  1.00  0.00    -0.202 C  
HETATM   23  O   UNL     1     -11.565  11.987  66.963  1.00  0.00    -0.422 OA 
HETATM   24  H   UNL     1     -11.540  12.623  66.257  1.00  0.00     0.000 HD 
ENDBRANCH   6  11
ENDBRANCH   2   4
TORSDOF 2
ENDMDL
MODEL      200
REMARK 921   NORMALIZED FREE ENERGY PREDICTED BY IDOCK:   -3.06 KCAL/MOL
REMARK 922        TOTAL FREE ENERGY PREDICTED BY IDOCK:   -4.11 KCAL/MOL
REMARK 923 INTER-LIGAND FREE ENERGY PREDICTED BY IDOCK:   -3.90 KCAL/MOL
REMARK 924 INTRA-LIGAND FREE ENERGY PREDICTED BY IDOCK:   -0.22 KCAL/MOL
REMARK 927      BINDING AFFINITY PREDICTED BY RF-SCORE:    0.00 PKD
ROOT
HETATM    1  O5* UNL     1      -9.204   6.345  73.139  1.00  0.00    -0.130 OA 
HETATM    2  C5* UNL     1     -10.069   7.481  73.111  1.00  0.00    -0.308 C  
HETATM    3  H5* UNL     1      -8.826   6.223  74.002  1.00  0.00     0.000 HD 
ENDROOT
BRANCH   2   4
HETATM    4  C4* UNL     1     -10.676   7.677  71.723  1.00  0.00    -0.216 C  
HETATM    5  O4* UNL     1      -9.636   7.626  70.728  1.00  0.00    -0.166 OA 
HETATM    6  C1* UNL     1     -10.223   7.115  69.516  1.00  0.00    -0.195 C  
HETATM    7  H3* UNL     1     -13.659   6.477  71.232  1.00  0.00     0.000 HD 
HETATM    8  C2* UNL     1     -11.389   6.227  69.930  1.00  0.00    -0.504 C  
HETATM    9  C3* UNL     1     -11.700   6.612  71.356  1.00  0.00    -0.324 C  
HETATM   10  O3* UNL     1     -13.020   7.142  71.461  1.00  0.00    -0.374 OA 
BRANCH   6  11
HETATM   11  N   UNL     1      -9.211   6.438  68.722  1.00  0.00    -0.127 NA 
HETATM   12  C   UNL     1      -7.941   6.113  69.108  1.00  0.00    -0.108 A  
HETATM   13  C   UNL     1      -8.151   5.456  67.088  1.00  0.00    -0.101 A  
HETATM   14  N   UNL     1      -7.272   5.515  68.148  1.00  0.00    -0.070 NA 
HETATM   15  C   UNL     1      -9.380   5.997  67.429  1.00  0.00    -0.111 A  
HETATM   16  N   UNL     1     -10.561   6.110  66.777  1.00  0.00    -0.379 NA 
HETATM   17  C   UNL     1     -10.869   5.128  65.998  1.00  0.00    -0.064 C  
HETATM   18  H   UNL     1     -11.169   6.920  66.894  1.00  0.00     0.000 HD 
HETATM   19  N   UNL     1     -10.206   3.967  65.673  1.00  0.00    -0.433 NA 
HETATM   20  C   UNL     1      -8.843   3.965  65.126  1.00  0.00    -0.126 C  
HETATM   21  H   UNL     1     -10.678   3.075  65.817  1.00  0.00     0.000 HD 
HETATM   22  C   UNL     1      -7.774   4.881  65.772  1.00  0.00    -0.091 C  
HETATM   23  O   UNL     1      -7.428   5.924  64.837  1.00  0.00    -0.070 OA 
HETATM   24  H   UNL     1      -7.187   5.556  63.995  1.00  0.00     0.000 HD 
ENDBRANCH   6  11
ENDBRANCH   2   4
TORSDOF 2
ENDMDL
MODEL      201
REMARK 921   NORMALIZED FREE ENERGY PREDICTED BY IDOCK:   -3.05 KCAL/MOL
REMARK 922        TOTAL FREE ENERGY PREDICTED BY IDOCK:   -4.10 KCAL/MOL
REMARK 923 INTER-LIGAND FREE ENERGY PREDICTED BY IDOCK:   -3.68 KCAL/MOL
REMARK 924 INTRA-LIGAND FREE ENERGY PREDICTED BY IDOCK:   -0.42 KCAL/MOL
REMARK 927      BINDING AFFINITY PREDICTED BY RF-SCORE:    0.00 PKD
ROOT
HETATM    1  O5* UNL     1     -12.553   8.103  73.067  1.00  0.00    -0.656 OA 
HETATM    2  C5* UNL     1     -12.851   7.462  71.826  1.00  0.00    -0.329 C  
HETATM    3  H5* UNL     1     -13.169   8.803  73.247  1.00  0.00     0.000 HD 
ENDROOT
BRANCH   2   4
HETATM    4  C4* UNL     1     -11.860   6.336  71.535  1.00  0.00    -0.230 C  
HETATM    5  O4* UNL     1     -11.718   6.172  70.112  1.00  0.00    -0.330 OA 
HETATM    6  C1* UNL     1     -10.385   5.689  69.864  1.00  0.00    -0.277 C  
HETATM    7  H3* UNL     1      -9.388   5.971  73.617  1.00  0.00     0.000 HD 
HETATM    8  C2* UNL     1      -9.510   6.201  71.001  1.00  0.00    -0.187 C  
HETATM    9  C3* UNL     1     -10.470   6.597  72.097  1.00  0.00    -0.204 C  
HETATM   10  O3* UNL     1     -10.256   5.809  73.266  1.00  0.00    -0.180 OA 
BRANCH   6  11
HETATM   11  N   UNL     1      -9.944   6.101  68.542  1.00  0.00    -0.140 NA 
HETATM   12  C   UNL     1     -10.414   7.155  67.808  1.00  0.00    -0.223 A  
HETATM   13  C   UNL     1      -8.916   6.205  66.621  1.00  0.00    -0.130 A  
HETATM   14  N   UNL     1      -9.813   7.251  66.644  1.00  0.00    -0.205 NA 
HETATM   15  C   UNL     1      -8.955   5.490  67.807  1.00  0.00    -0.108 A  
HETATM   16  N   UNL     1      -8.240   4.445  68.289  1.00  0.00    -0.089 NA 
HETATM   17  C   UNL     1      -6.992   4.419  67.961  1.00  0.00    -0.056 C  
HETATM   18  H   UNL     1      -8.662   3.724  68.873  1.00  0.00     0.000 HD 
HETATM   19  N   UNL     1      -6.227   5.254  67.179  1.00  0.00    -0.030 NA 
HETATM   20  C   UNL     1      -6.579   5.574  65.789  1.00  0.00    -0.041 C  
HETATM   21  H   UNL     1      -5.385   5.667  67.580  1.00  0.00     0.000 HD 
HETATM   22  C   UNL     1      -8.048   5.924  65.449  1.00  0.00    -0.130 C  
HETATM   23  O   UNL     1      -8.605   4.866  64.641  1.00  0.00    -0.141 OA 
HETATM   24  H   UNL     1      -8.050   4.687  63.891  1.00  0.00     0.000 HD 
ENDBRANCH   6  11
ENDBRANCH   2   4
TORSDOF 2
ENDMDL
MODEL      202
REMARK 921   NORMALIZED FREE ENERGY PREDICTED BY IDOCK:   -3.04 KCAL/MOL
REMARK 922        TOTAL FREE ENERGY PREDICTED BY IDOCK:   -4.09 KCAL/MOL
REMARK 923 INTER-LIGAND FREE ENERGY PREDICTED BY IDOCK:   -3.88 KCAL/MOL
REMARK 924 INTRA-LIGAND FREE ENERGY PREDICTED BY IDOCK:   -0.21 KCAL/MOL
REMARK 927      BINDING AFFINITY PREDICTED BY RF-SCORE:    0.00 PKD
ROOT
HETATM    1  O5* UNL     1      -9.506  10.204  70.896  1.00  0.00    -0.176 OA 
HETATM    2  C5* UNL     1     -10.554   9.989  69.950  1.00  0.00    -0.282 C  
HETATM    3  H5* UNL     1      -8.858  10.810  70.557  1.00  0.00     0.000 HD 
ENDROOT
BRANCH   2   4
HETATM    4  C4* UNL     1     -11.597   9.014  70.496  1.00  0.00    -0.175 C  
HETATM    5  O4* UNL     1     -11.165   7.661  70.257  1.00  0.00    -0.265 OA 
HETATM    6  C1* UNL     1     -11.708   6.843  71.310  1.00  0.00    -0.328 C  
HETATM    7  H3* UNL     1     -13.202   9.915  73.176  1.00  0.00     0.000 HD 
HETATM    8  C2* UNL     1     -11.873   7.742  72.529  1.00  0.00    -0.354 C  
HETATM    9  C3* UNL     1     -11.827   9.153  71.994  1.00  0.00    -0.337 C  
HETATM   10  O3* UNL     1     -13.058   9.829  72.242  1.00  0.00    -0.416 OA 
BRANCH   6  11
HETATM   11  N   UNL     1     -10.854   5.689  71.533  1.00  0.00    -0.250 NA 
HETATM   12  C   UNL     1     -10.841   4.872  72.630  1.00  0.00    -0.199 A  
HETATM   13  C   UNL     1      -9.335   4.140  71.306  1.00  0.00    -0.151 A  
HETATM   14  N   UNL     1      -9.939   3.923  72.526  1.00  0.00    -0.155 NA 
HETATM   15  C   UNL     1      -9.909   5.217  70.652  1.00  0.00    -0.198 A  
HETATM   16  N   UNL     1      -9.720   5.774  69.431  1.00  0.00    -0.148 NA 
HETATM   17  C   UNL     1      -9.443   4.952  68.475  1.00  0.00    -0.143 C  
HETATM   18  H   UNL     1      -9.792   6.780  69.278  1.00  0.00     0.000 HD 
HETATM   19  N   UNL     1      -9.275   3.586  68.454  1.00  0.00    -0.153 NA 
HETATM   20  C   UNL     1      -8.307   2.898  69.318  1.00  0.00    -0.059 C  
HETATM   21  H   UNL     1      -9.844   3.032  67.816  1.00  0.00     0.000 HD 
HETATM   22  C   UNL     1      -8.215   3.300  70.811  1.00  0.00    -0.056 C  
HETATM   23  O   UNL     1      -6.947   3.948  71.042  1.00  0.00    -0.032 OA 
HETATM   24  H   UNL     1      -6.230   3.411  70.725  1.00  0.00     0.000 HD 
ENDBRANCH   6  11
ENDBRANCH   2   4
TORSDOF 2
ENDMDL
MODEL      203
REMARK 921   NORMALIZED FREE ENERGY PREDICTED BY IDOCK:   -3.03 KCAL/MOL
REMARK 922        TOTAL FREE ENERGY PREDICTED BY IDOCK:   -4.08 KCAL/MOL
REMARK 923 INTER-LIGAND FREE ENERGY PREDICTED BY IDOCK:   -3.79 KCAL/MOL
REMARK 924 INTRA-LIGAND FREE ENERGY PREDICTED BY IDOCK:   -0.29 KCAL/MOL
REMARK 927      BINDING AFFINITY PREDICTED BY RF-SCORE:    0.00 PKD
ROOT
HETATM    1  O5* UNL     1     -12.689  12.153  71.969  1.00  0.00    -0.185 OA 
HETATM    2  C5* UNL     1     -12.718  12.347  70.555  1.00  0.00     0.027 C  
HETATM    3  H5* UNL     1     -13.443  12.554  72.385  1.00  0.00     0.000 HD 
ENDROOT
BRANCH   2   4
HETATM    4  C4* UNL     1     -11.505  11.703  69.885  1.00  0.00    -0.228 C  
HETATM    5  O4* UNL     1     -11.131  10.513  70.604  1.00  0.00    -0.292 OA 
HETATM    6  C1* UNL     1     -10.538   9.605  69.656  1.00  0.00    -0.233 C  
HETATM    7  H3* UNL     1     -11.293  11.961  66.650  1.00  0.00     0.000 HD 
HETATM    8  C2* UNL     1     -11.154   9.918  68.299  1.00  0.00    -0.207 C  
HETATM    9  C3* UNL     1     -11.759  11.294  68.441  1.00  0.00    -0.294 C  
HETATM   10  O3* UNL     1     -11.134  12.216  67.551  1.00  0.00    -0.245 OA 
BRANCH   6  11
HETATM   11  N   UNL     1     -10.730   8.233  70.095  1.00  0.00    -0.238 NA 
HETATM   12  C   UNL     1     -11.706   7.764  70.929  1.00  0.00    -0.265 A  
HETATM   13  C   UNL     1     -10.489   6.088  70.411  1.00  0.00    -0.246 A  
HETATM   14  N   UNL     1     -11.595   6.472  71.139  1.00  0.00    -0.322 NA 
HETATM   15  C   UNL     1      -9.949   7.163  69.724  1.00  0.00    -0.178 A  
HETATM   16  N   UNL     1      -8.927   7.287  68.843  1.00  0.00    -0.134 NA 
HETATM   17  C   UNL     1      -8.760   6.295  68.033  1.00  0.00    -0.114 C  
HETATM   18  H   UNL     1      -8.328   8.111  68.821  1.00  0.00     0.000 HD 
HETATM   19  N   UNL     1      -9.419   5.095  67.899  1.00  0.00    -0.124 NA 
HETATM   20  C   UNL     1      -9.571   4.150  69.013  1.00  0.00    -0.162 C  
HETATM   21  H   UNL     1      -9.816   4.852  66.991  1.00  0.00     0.000 HD 
HETATM   22  C   UNL     1      -9.985   4.691  70.404  1.00  0.00    -0.230 C  
HETATM   23  O   UNL     1      -8.873   4.544  71.311  1.00  0.00    -0.116 OA 
HETATM   24  H   UNL     1      -8.550   3.650  71.306  1.00  0.00     0.000 HD 
ENDBRANCH   6  11
ENDBRANCH   2   4
TORSDOF 2
ENDMDL
MODEL      204
REMARK 921   NORMALIZED FREE ENERGY PREDICTED BY IDOCK:   -3.01 KCAL/MOL
REMARK 922        TOTAL FREE ENERGY PREDICTED BY IDOCK:   -4.05 KCAL/MOL
REMARK 923 INTER-LIGAND FREE ENERGY PREDICTED BY IDOCK:   -3.70 KCAL/MOL
REMARK 924 INTRA-LIGAND FREE ENERGY PREDICTED BY IDOCK:   -0.35 KCAL/MOL
REMARK 927      BINDING AFFINITY PREDICTED BY RF-SCORE:    0.00 PKD
ROOT
HETATM    1  O5* UNL     1      -8.363   1.837  65.999  1.00  0.00    -0.082 OA 
HETATM    2  C5* UNL     1      -8.745   2.972  66.777  1.00  0.00    -0.129 C  
HETATM    3  H5* UNL     1      -8.256   1.068  66.546  1.00  0.00     0.000 HD 
ENDROOT
BRANCH   2   4
HETATM    4  C4* UNL     1      -8.917   4.210  65.898  1.00  0.00    -0.126 C  
HETATM    5  O4* UNL     1      -9.742   5.175  66.577  1.00  0.00    -0.143 OA 
HETATM    6  C1* UNL     1      -9.332   6.482  66.133  1.00  0.00    -0.063 C  
HETATM    7  H3* UNL     1      -6.399   5.044  64.015  1.00  0.00     0.000 HD 
HETATM    8  C2* UNL     1      -7.863   6.376  65.744  1.00  0.00    -0.104 C  
HETATM    9  C3* UNL     1      -7.601   4.900  65.566  1.00  0.00    -0.085 C  
HETATM   10  O3* UNL     1      -7.220   4.613  64.222  1.00  0.00    -0.053 OA 
BRANCH   6  11
HETATM   11  N   UNL     1      -9.605   7.466  67.167  1.00  0.00    -0.149 NA 
HETATM   12  C   UNL     1      -9.440   7.312  68.515  1.00  0.00    -0.140 A  
HETATM   13  C   UNL     1     -10.209   9.281  68.216  1.00  0.00    -0.201 A  
HETATM   14  N   UNL     1      -9.790   8.390  69.180  1.00  0.00    -0.178 NA 
HETATM   15  C   UNL     1     -10.074   8.741  66.948  1.00  0.00    -0.278 A  
HETATM   16  N   UNL     1     -10.279   9.229  65.701  1.00  0.00    -0.255 NA 
HETATM   17  C   UNL     1      -9.990  10.476  65.531  1.00  0.00    -0.279 C  
HETATM   18  H   UNL     1     -10.638   8.648  64.944  1.00  0.00     0.000 HD 
HETATM   19  N   UNL     1      -9.524  11.439  66.395  1.00  0.00    -0.198 NA 
HETATM   20  C   UNL     1     -10.215  11.776  67.647  1.00  0.00    -0.199 C  
HETATM   21  H   UNL     1      -8.668  11.938  66.158  1.00  0.00     0.000 HD 
HETATM   22  C   UNL     1     -10.732  10.630  68.551  1.00  0.00    -0.217 C  
HETATM   23  O   UNL     1     -12.174  10.638  68.535  1.00  0.00    -0.822 OA 
HETATM   24  H   UNL     1     -12.509  11.501  68.749  1.00  0.00     0.000 HD 
ENDBRANCH   6  11
ENDBRANCH   2   4
TORSDOF 2
ENDMDL
MODEL      205
REMARK 921   NORMALIZED FREE ENERGY PREDICTED BY IDOCK:   -3.00 KCAL/MOL
REMARK 922        TOTAL FREE ENERGY PREDICTED BY IDOCK:   -4.04 KCAL/MOL
REMARK 923 INTER-LIGAND FREE ENERGY PREDICTED BY IDOCK:   -3.42 KCAL/MOL
REMARK 924 INTRA-LIGAND FREE ENERGY PREDICTED BY IDOCK:   -0.62 KCAL/MOL
REMARK 927      BINDING AFFINITY PREDICTED BY RF-SCORE:    0.00 PKD
ROOT
HETATM    1  O5* UNL     1      -6.519   5.263  70.089  1.00  0.00    -0.032 OA 
HETATM    2  C5* UNL     1      -6.895   6.470  69.425  1.00  0.00    -0.065 C  
HETATM    3  H5* UNL     1      -6.177   4.626  69.472  1.00  0.00     0.000 HD 
ENDROOT
BRANCH   2   4
HETATM    4  C4* UNL     1      -7.445   7.495  70.416  1.00  0.00    -0.081 C  
HETATM    5  O4* UNL     1      -7.871   8.673  69.707  1.00  0.00    -0.088 OA 
HETATM    6  C1* UNL     1      -8.952   9.260  70.456  1.00  0.00    -0.250 C  
HETATM    7  H3* UNL     1      -9.004   6.336  73.025  1.00  0.00     0.000 HD 
HETATM    8  C2* UNL     1      -9.637   8.126  71.207  1.00  0.00    -0.203 C  
HETATM    9  C3* UNL     1      -8.645   6.987  71.204  1.00  0.00    -0.133 C  
HETATM   10  O3* UNL     1      -8.255   6.653  72.534  1.00  0.00    -0.106 OA 
BRANCH   6  11
HETATM   11  N   UNL     1      -9.830   9.999  69.564  1.00  0.00    -0.217 NA 
HETATM   12  C   UNL     1     -11.158   9.766  69.335  1.00  0.00    -0.170 A  
HETATM   13  C   UNL     1     -10.606  11.419  68.101  1.00  0.00    -0.189 A  
HETATM   14  N   UNL     1     -11.661  10.608  68.460  1.00  0.00    -0.394 NA 
HETATM   15  C   UNL     1      -9.459  11.081  68.800  1.00  0.00    -0.183 A  
HETATM   16  N   UNL     1      -8.211  11.607  68.852  1.00  0.00    -0.349 NA 
HETATM   17  C   UNL     1      -8.139  12.892  68.755  1.00  0.00     0.087 C  
HETATM   18  H   UNL     1      -7.382  11.024  68.961  1.00  0.00     0.000 HD 
HETATM   19  N   UNL     1      -9.103  13.859  68.581  1.00  0.00    -0.342 NA 
HETATM   20  C   UNL     1     -10.051  13.834  67.460  1.00  0.00    -0.241 C  
HETATM   21  H   UNL     1      -9.160  14.620  69.256  1.00  0.00     0.000 HD 
HETATM   22  C   UNL     1     -10.739  12.497  67.089  1.00  0.00    -0.237 C  
HETATM   23  O   UNL     1     -10.245  12.059  65.806  1.00  0.00    -0.228 OA 
HETATM   24  H   UNL     1     -10.329  12.749  65.158  1.00  0.00     0.000 HD 
ENDBRANCH   6  11
ENDBRANCH   2   4
TORSDOF 2
ENDMDL
MODEL      206
REMARK 921   NORMALIZED FREE ENERGY PREDICTED BY IDOCK:   -3.00 KCAL/MOL
REMARK 922        TOTAL FREE ENERGY PREDICTED BY IDOCK:   -4.04 KCAL/MOL
REMARK 923 INTER-LIGAND FREE ENERGY PREDICTED BY IDOCK:   -3.61 KCAL/MOL
REMARK 924 INTRA-LIGAND FREE ENERGY PREDICTED BY IDOCK:   -0.43 KCAL/MOL
REMARK 927      BINDING AFFINITY PREDICTED BY RF-SCORE:    0.00 PKD
ROOT
HETATM    1  O5* UNL     1     -11.453   8.602  72.372  1.00  0.00    -0.363 OA 
HETATM    2  C5* UNL     1     -11.984   8.297  71.082  1.00  0.00    -0.265 C  
HETATM    3  H5* UNL     1     -11.513   9.532  72.555  1.00  0.00     0.000 HD 
ENDROOT
BRANCH   2   4
HETATM    4  C4* UNL     1     -11.887   6.801  70.787  1.00  0.00    -0.392 C  
HETATM    5  O4* UNL     1     -11.350   6.602  69.466  1.00  0.00    -0.323 OA 
HETATM    6  C1* UNL     1     -10.637   5.351  69.473  1.00  0.00    -0.246 C  
HETATM    7  H3* UNL     1     -11.201   4.842  73.291  1.00  0.00     0.000 HD 
HETATM    8  C2* UNL     1     -10.150   5.129  70.899  1.00  0.00    -0.302 C  
HETATM    9  C3* UNL     1     -10.982   6.052  71.756  1.00  0.00    -0.269 C  
HETATM   10  O3* UNL     1     -11.766   5.309  72.687  1.00  0.00    -0.231 OA 
BRANCH   6  11
HETATM   11  N   UNL     1      -9.577   5.378  68.479  1.00  0.00    -0.123 NA 
HETATM   12  C   UNL     1      -8.738   6.420  68.197  1.00  0.00    -0.116 A  
HETATM   13  C   UNL     1      -8.209   4.834  66.870  1.00  0.00    -0.107 A  
HETATM   14  N   UNL     1      -7.895   6.126  67.233  1.00  0.00    -0.101 NA 
HETATM   15  C   UNL     1      -9.234   4.332  67.654  1.00  0.00    -0.149 A  
HETATM   16  N   UNL     1      -9.840   3.123  67.733  1.00  0.00    -0.172 NA 
HETATM   17  C   UNL     1      -9.078   2.099  67.539  1.00  0.00    -0.157 C  
HETATM   18  H   UNL     1     -10.836   3.028  67.932  1.00  0.00     0.000 HD 
HETATM   19  N   UNL     1      -7.740   1.990  67.238  1.00  0.00    -0.060 NA 
HETATM   20  C   UNL     1      -7.139   2.650  66.072  1.00  0.00    -0.064 C  
HETATM   21  H   UNL     1      -7.144   1.431  67.847  1.00  0.00     0.000 HD 
HETATM   22  C   UNL     1      -7.508   4.123  65.770  1.00  0.00    -0.081 C  
HETATM   23  O   UNL     1      -8.284   4.169  64.555  1.00  0.00    -0.092 OA 
HETATM   24  H   UNL     1      -7.836   3.714  63.851  1.00  0.00     0.000 HD 
ENDBRANCH   6  11
ENDBRANCH   2   4
TORSDOF 2
ENDMDL
MODEL      207
REMARK 921   NORMALIZED FREE ENERGY PREDICTED BY IDOCK:   -2.99 KCAL/MOL
REMARK 922        TOTAL FREE ENERGY PREDICTED BY IDOCK:   -4.02 KCAL/MOL
REMARK 923 INTER-LIGAND FREE ENERGY PREDICTED BY IDOCK:   -3.44 KCAL/MOL
REMARK 924 INTRA-LIGAND FREE ENERGY PREDICTED BY IDOCK:   -0.59 KCAL/MOL
REMARK 927      BINDING AFFINITY PREDICTED BY RF-SCORE:    0.00 PKD
ROOT
HETATM    1  O5* UNL     1     -10.344  12.883  67.131  1.00  0.00    -0.236 OA 
HETATM    2  C5* UNL     1     -10.728  12.770  68.502  1.00  0.00    -0.253 C  
HETATM    3  H5* UNL     1      -9.936  13.723  66.958  1.00  0.00     0.000 HD 
ENDROOT
BRANCH   2   4
HETATM    4  C4* UNL     1     -11.385  11.418  68.780  1.00  0.00    -0.271 C  
HETATM    5  O4* UNL     1     -11.190  10.544  67.653  1.00  0.00    -0.326 OA 
HETATM    6  C1* UNL     1     -11.152   9.195  68.154  1.00  0.00     0.168 C  
HETATM    7  H3* UNL     1     -11.361  10.371  71.859  1.00  0.00     0.000 HD 
HETATM    8  C2* UNL     1     -10.637   9.269  69.585  1.00  0.00    -0.241 C  
HETATM    9  C3* UNL     1     -10.813  10.710  70.000  1.00  0.00    -0.217 C  
HETATM   10  O3* UNL     1     -11.718  10.813  71.098  1.00  0.00    -0.268 OA 
BRANCH   6  11
HETATM   11  N   UNL     1     -10.351   8.361  67.275  1.00  0.00    -0.274 NA 
HETATM   12  C   UNL     1     -10.490   7.018  67.059  1.00  0.00    -0.316 A  
HETATM   13  C   UNL     1      -8.838   7.658  65.869  1.00  0.00    -0.130 A  
HETATM   14  N   UNL     1      -9.596   6.560  66.212  1.00  0.00    -0.101 NA 
HETATM   15  C   UNL     1      -9.308   8.802  66.493  1.00  0.00    -0.203 A  
HETATM   16  N   UNL     1      -8.957  10.109  66.430  1.00  0.00    -0.143 NA 
HETATM   17  C   UNL     1      -8.572  10.532  65.273  1.00  0.00    -0.177 C  
HETATM   18  H   UNL     1      -8.993  10.719  67.246  1.00  0.00     0.000 HD 
HETATM   19  N   UNL     1      -8.424   9.896  64.062  1.00  0.00    -0.164 NA 
HETATM   20  C   UNL     1      -7.584   8.702  63.897  1.00  0.00    -0.127 C  
HETATM   21  H   UNL     1      -8.915  10.267  63.249  1.00  0.00     0.000 HD 
HETATM   22  C   UNL     1      -7.677   7.568  64.947  1.00  0.00    -0.115 C  
HETATM   23  O   UNL     1      -6.439   7.516  65.687  1.00  0.00    -0.044 OA 
HETATM   24  H   UNL     1      -5.696   7.458  65.097  1.00  0.00     0.000 HD 
ENDBRANCH   6  11
ENDBRANCH   2   4
TORSDOF 2
ENDMDL
MODEL      208
REMARK 921   NORMALIZED FREE ENERGY PREDICTED BY IDOCK:   -2.98 KCAL/MOL
REMARK 922        TOTAL FREE ENERGY PREDICTED BY IDOCK:   -4.02 KCAL/MOL
REMARK 923 INTER-LIGAND FREE ENERGY PREDICTED BY IDOCK:   -3.26 KCAL/MOL
REMARK 924 INTRA-LIGAND FREE ENERGY PREDICTED BY IDOCK:   -0.76 KCAL/MOL
REMARK 927      BINDING AFFINITY PREDICTED BY RF-SCORE:    0.00 PKD
ROOT
HETATM    1  O5* UNL     1     -10.284  10.321  66.278  1.00  0.00    -0.231 OA 
HETATM    2  C5* UNL     1      -9.411  11.447  66.189  1.00  0.00    -0.216 C  
HETATM    3  H5* UNL     1     -10.853  10.267  65.519  1.00  0.00     0.000 HD 
ENDROOT
BRANCH   2   4
HETATM    4  C4* UNL     1      -8.497  11.534  67.410  1.00  0.00    -0.147 C  
HETATM    5  O4* UNL     1      -9.044  10.743  68.481  1.00  0.00    -0.155 OA 
HETATM    6  C1* UNL     1      -7.940  10.270  69.275  1.00  0.00    -0.149 C  
HETATM    7  H3* UNL     1      -5.304  11.790  66.848  1.00  0.00     0.000 HD 
HETATM    8  C2* UNL     1      -6.736  10.175  68.347  1.00  0.00    -0.054 C  
HETATM    9  C3* UNL     1      -7.089  11.019  67.146  1.00  0.00    -0.104 C  
HETATM   10  O3* UNL     1      -6.182  12.112  67.012  1.00  0.00    -0.156 OA 
BRANCH   6  11
HETATM   11  N   UNL     1      -8.294   9.017  69.921  1.00  0.00    -0.124 NA 
HETATM   12  C   UNL     1      -8.136   8.696  71.240  1.00  0.00    -0.147 A  
HETATM   13  C   UNL     1      -8.986   6.982  70.294  1.00  0.00    -0.149 A  
HETATM   14  N   UNL     1      -8.546   7.476  71.503  1.00  0.00    -0.115 NA 
HETATM   15  C   UNL     1      -8.870   7.935  69.295  1.00  0.00    -0.142 A  
HETATM   16  N   UNL     1      -9.218   7.960  67.987  1.00  0.00    -0.132 NA 
HETATM   17  C   UNL     1     -10.306   7.335  67.683  1.00  0.00    -0.227 C  
HETATM   18  H   UNL     1      -8.657   8.443  67.286  1.00  0.00     0.000 HD 
HETATM   19  N   UNL     1     -11.195   6.609  68.443  1.00  0.00    -0.555 NA 
HETATM   20  C   UNL     1     -10.777   5.468  69.268  1.00  0.00    -0.217 C  
HETATM   21  H   UNL     1     -12.179   6.874  68.432  1.00  0.00     0.000 HD 
HETATM   22  C   UNL     1      -9.503   5.598  70.139  1.00  0.00    -0.159 C  
HETATM   23  O   UNL     1      -8.484   4.727  69.606  1.00  0.00    -0.081 OA 
HETATM   24  H   UNL     1      -8.815   3.842  69.507  1.00  0.00     0.000 HD 
ENDBRANCH   6  11
ENDBRANCH   2   4
TORSDOF 2
ENDMDL
MODEL      209
REMARK 921   NORMALIZED FREE ENERGY PREDICTED BY IDOCK:   -2.98 KCAL/MOL
REMARK 922        TOTAL FREE ENERGY PREDICTED BY IDOCK:   -4.01 KCAL/MOL
REMARK 923 INTER-LIGAND FREE ENERGY PREDICTED BY IDOCK:   -3.48 KCAL/MOL
REMARK 924 INTRA-LIGAND FREE ENERGY PREDICTED BY IDOCK:   -0.53 KCAL/MOL
REMARK 927      BINDING AFFINITY PREDICTED BY RF-SCORE:    0.00 PKD
ROOT
HETATM    1  O5* UNL     1      -9.852   2.635  67.888  1.00  0.00    -0.264 OA 
HETATM    2  C5* UNL     1      -9.104   1.897  68.855  1.00  0.00    -0.128 C  
HETATM    3  H5* UNL     1     -10.130   2.077  67.172  1.00  0.00     0.000 HD 
ENDROOT
BRANCH   2   4
HETATM    4  C4* UNL     1      -8.657   2.795  70.008  1.00  0.00    -0.058 C  
HETATM    5  O4* UNL     1      -8.903   4.173  69.672  1.00  0.00    -0.075 OA 
HETATM    6  C1* UNL     1      -9.155   4.879  70.901  1.00  0.00    -0.142 C  
HETATM    7  H3* UNL     1      -9.006   1.616  73.019  1.00  0.00     0.000 HD 
HETATM    8  C2* UNL     1      -9.739   3.868  71.880  1.00  0.00    -0.239 C  
HETATM    9  C3* UNL     1      -9.391   2.513  71.311  1.00  0.00    -0.135 C  
HETATM   10  O3* UNL     1      -8.548   1.791  72.206  1.00  0.00    -0.053 OA 
BRANCH   6  11
HETATM   11  N   UNL     1     -10.011   6.026  70.649  1.00  0.00    -0.180 NA 
HETATM   12  C   UNL     1     -11.309   6.189  71.044  1.00  0.00    -0.282 A  
HETATM   13  C   UNL     1     -10.780   7.944  69.951  1.00  0.00    -0.244 A  
HETATM   14  N   UNL     1     -11.805   7.338  70.645  1.00  0.00    -0.284 NA 
HETATM   15  C   UNL     1      -9.638   7.161  69.966  1.00  0.00    -0.164 A  
HETATM   16  N   UNL     1      -8.379   7.339  69.497  1.00  0.00    -0.131 NA 
HETATM   17  C   UNL     1      -7.920   8.544  69.565  1.00  0.00    -0.106 C  
HETATM   18  H   UNL     1      -7.829   6.571  69.115  1.00  0.00     0.000 HD 
HETATM   19  N   UNL     1      -8.480   9.720  70.011  1.00  0.00    -0.205 NA 
HETATM   20  C   UNL     1      -9.748  10.239  69.481  1.00  0.00    -0.211 C  
HETATM   21  H   UNL     1      -7.996  10.249  70.735  1.00  0.00     0.000 HD 
HETATM   22  C   UNL     1     -10.936   9.265  69.291  1.00  0.00    -0.085 C  
HETATM   23  O   UNL     1     -11.185   9.105  67.879  1.00  0.00    -0.494 OA 
HETATM   24  H   UNL     1     -11.286   9.950  67.456  1.00  0.00     0.000 HD 
ENDBRANCH   6  11
ENDBRANCH   2   4
TORSDOF 2
ENDMDL
MODEL      210
REMARK 921   NORMALIZED FREE ENERGY PREDICTED BY IDOCK:   -2.97 KCAL/MOL
REMARK 922        TOTAL FREE ENERGY PREDICTED BY IDOCK:   -4.01 KCAL/MOL
REMARK 923 INTER-LIGAND FREE ENERGY PREDICTED BY IDOCK:   -3.40 KCAL/MOL
REMARK 924 INTRA-LIGAND FREE ENERGY PREDICTED BY IDOCK:   -0.60 KCAL/MOL
REMARK 927      BINDING AFFINITY PREDICTED BY RF-SCORE:    0.00 PKD
ROOT
HETATM    1  O5* UNL     1      -5.955   7.476  65.465  1.00  0.00    -0.037 OA 
HETATM    2  C5* UNL     1      -5.739   7.608  66.871  1.00  0.00    -0.032 C  
HETATM    3  H5* UNL     1      -5.203   7.784  64.973  1.00  0.00     0.000 HD 
ENDROOT
BRANCH   2   4
HETATM    4  C4* UNL     1      -6.948   7.112  67.663  1.00  0.00    -0.079 C  
HETATM    5  O4* UNL     1      -7.582   8.223  68.325  1.00  0.00    -0.097 OA 
HETATM    6  C1* UNL     1      -8.984   7.915  68.439  1.00  0.00    -0.133 C  
HETATM    7  H3* UNL     1      -8.611   4.614  66.409  1.00  0.00     0.000 HD 
HETATM    8  C2* UNL     1      -9.328   6.988  67.281  1.00  0.00    -0.153 C  
HETATM    9  C3* UNL     1      -8.006   6.446  66.794  1.00  0.00    -0.109 C  
HETATM   10  O3* UNL     1      -7.951   5.030  66.951  1.00  0.00    -0.102 OA 
BRANCH   6  11
HETATM   11  N   UNL     1      -9.760   9.143  68.471  1.00  0.00    -0.152 NA 
HETATM   12  C   UNL     1     -10.708   9.495  69.391  1.00  0.00    -0.225 A  
HETATM   13  C   UNL     1     -10.604  11.094  67.981  1.00  0.00    -0.198 A  
HETATM   14  N   UNL     1     -11.236  10.669  69.129  1.00  0.00    -0.246 NA 
HETATM   15  C   UNL     1      -9.655  10.174  67.566  1.00  0.00    -0.156 A  
HETATM   16  N   UNL     1      -8.748  10.160  66.560  1.00  0.00    -0.129 NA 
HETATM   17  C   UNL     1      -8.212  11.299  66.271  1.00  0.00    -0.126 C  
HETATM   18  H   UNL     1      -8.504   9.304  66.062  1.00  0.00     0.000 HD 
HETATM   19  N   UNL     1      -8.402  12.562  66.782  1.00  0.00    -0.380 NA 
HETATM   20  C   UNL     1      -9.723  13.203  66.829  1.00  0.00    -0.246 C  
HETATM   21  H   UNL     1      -7.595  13.072  67.140  1.00  0.00     0.000 HD 
HETATM   22  C   UNL     1     -10.940  12.378  67.314  1.00  0.00    -0.260 C  
HETATM   23  O   UNL     1     -11.828  12.159  66.199  1.00  0.00    -0.543 OA 
HETATM   24  H   UNL     1     -12.043  12.981  65.772  1.00  0.00     0.000 HD 
ENDBRANCH   6  11
ENDBRANCH   2   4
TORSDOF 2
ENDMDL
MODEL      211
REMARK 921   NORMALIZED FREE ENERGY PREDICTED BY IDOCK:   -2.96 KCAL/MOL
REMARK 922        TOTAL FREE ENERGY PREDICTED BY IDOCK:   -4.00 KCAL/MOL
REMARK 923 INTER-LIGAND FREE ENERGY PREDICTED BY IDOCK:   -3.73 KCAL/MOL
REMARK 924 INTRA-LIGAND FREE ENERGY PREDICTED BY IDOCK:   -0.27 KCAL/MOL
REMARK 927      BINDING AFFINITY PREDICTED BY RF-SCORE:    0.00 PKD
ROOT
HETATM    1  O5* UNL     1     -10.645   5.150  74.081  1.00  0.00    -0.276 OA 
HETATM    2  C5* UNL     1      -9.978   4.796  72.869  1.00  0.00    -0.155 C  
HETATM    3  H5* UNL     1     -11.117   4.408  74.442  1.00  0.00     0.000 HD 
ENDROOT
BRANCH   2   4
HETATM    4  C4* UNL     1      -9.221   5.989  72.289  1.00  0.00    -0.144 C  
HETATM    5  O4* UNL     1      -8.737   5.662  70.973  1.00  0.00    -0.130 OA 
HETATM    6  C1* UNL     1      -8.686   6.885  70.215  1.00  0.00    -0.144 C  
HETATM    7  H3* UNL     1     -10.291   8.952  73.096  1.00  0.00     0.000 HD 
HETATM    8  C2* UNL     1      -9.751   7.808  70.793  1.00  0.00    -0.175 C  
HETATM    9  C3* UNL     1     -10.079   7.240  72.153  1.00  0.00    -0.181 C  
HETATM   10  O3* UNL     1      -9.756   8.173  73.182  1.00  0.00    -0.277 OA 
BRANCH   6  11
HETATM   11  N   UNL     1      -8.849   6.599  68.800  1.00  0.00    -0.127 NA 
HETATM   12  C   UNL     1      -8.551   7.425  67.752  1.00  0.00    -0.120 A  
HETATM   13  C   UNL     1      -9.336   5.629  66.908  1.00  0.00    -0.125 A  
HETATM   14  N   UNL     1      -8.828   6.871  66.594  1.00  0.00    -0.129 NA 
HETATM   15  C   UNL     1      -9.331   5.421  68.277  1.00  0.00    -0.114 A  
HETATM   16  N   UNL     1      -9.657   4.365  69.061  1.00  0.00    -0.172 NA 
HETATM   17  C   UNL     1      -9.381   3.200  68.577  1.00  0.00    -0.177 C  
HETATM   18  H   UNL     1     -10.093   4.483  69.975  1.00  0.00     0.000 HD 
HETATM   19  N   UNL     1      -8.826   2.807  67.381  1.00  0.00    -0.129 NA 
HETATM   20  C   UNL     1      -9.387   3.206  66.083  1.00  0.00    -0.095 C  
HETATM   21  H   UNL     1      -7.995   2.218  67.396  1.00  0.00     0.000 HD 
HETATM   22  C   UNL     1      -9.816   4.679  65.872  1.00  0.00    -0.220 C  
HETATM   23  O   UNL     1     -11.253   4.733  65.755  1.00  0.00    -0.833 OA 
HETATM   24  H   UNL     1     -11.561   4.125  65.092  1.00  0.00     0.000 HD 
ENDBRANCH   6  11
ENDBRANCH   2   4
TORSDOF 2
ENDMDL
MODEL      212
REMARK 921   NORMALIZED FREE ENERGY PREDICTED BY IDOCK:   -2.95 KCAL/MOL
REMARK 922        TOTAL FREE ENERGY PREDICTED BY IDOCK:   -3.98 KCAL/MOL
REMARK 923 INTER-LIGAND FREE ENERGY PREDICTED BY IDOCK:   -3.36 KCAL/MOL
REMARK 924 INTRA-LIGAND FREE ENERGY PREDICTED BY IDOCK:   -0.62 KCAL/MOL
REMARK 927      BINDING AFFINITY PREDICTED BY RF-SCORE:    0.00 PKD
ROOT
HETATM    1  O5* UNL     1     -10.621   9.416  66.671  1.00  0.00    -0.197 OA 
HETATM    2  C5* UNL     1      -9.947  10.638  66.368  1.00  0.00    -0.222 C  
HETATM    3  H5* UNL     1     -11.470   9.379  66.246  1.00  0.00     0.000 HD 
ENDROOT
BRANCH   2   4
HETATM    4  C4* UNL     1      -8.582  10.699  67.053  1.00  0.00    -0.128 C  
HETATM    5  O4* UNL     1      -7.895  11.900  66.656  1.00  0.00    -0.115 OA 
HETATM    6  C1* UNL     1      -7.039  12.288  67.747  1.00  0.00    -0.114 C  
HETATM    7  H3* UNL     1      -8.375   9.444  70.046  1.00  0.00     0.000 HD 
HETATM    8  C2* UNL     1      -7.686  11.765  69.023  1.00  0.00     0.027 C  
HETATM    9  C3* UNL     1      -8.670  10.713  68.572  1.00  0.00    -0.141 C  
HETATM   10  O3* UNL     1      -8.320   9.435  69.098  1.00  0.00    -0.116 OA 
BRANCH   6  11
HETATM   11  N   UNL     1      -6.833  13.726  67.729  1.00  0.00    -0.161 NA 
HETATM   12  C   UNL     1      -5.647  14.391  67.879  1.00  0.00    -0.092 A  
HETATM   13  C   UNL     1      -7.157  15.881  67.639  1.00  0.00    -0.161 A  
HETATM   14  N   UNL     1      -5.804  15.694  67.825  1.00  0.00    -0.141 NA 
HETATM   15  C   UNL     1      -7.818  14.668  67.543  1.00  0.00    -0.193 A  
HETATM   16  N   UNL     1      -9.106  14.326  67.298  1.00  0.00    -0.205 NA 
HETATM   17  C   UNL     1      -9.740  15.082  66.466  1.00  0.00    -0.266 C  
HETATM   18  H   UNL     1      -9.546  13.521  67.743  1.00  0.00     0.000 HD 
HETATM   19  N   UNL     1      -9.362  16.212  65.776  1.00  0.00    -0.437 NA 
HETATM   20  C   UNL     1      -8.833  17.406  66.449  1.00  0.00    -0.242 C  
HETATM   21  H   UNL     1      -9.454  16.220  64.761  1.00  0.00     0.000 HD 
HETATM   22  C   UNL     1      -7.771  17.231  67.562  1.00  0.00    -0.176 C  
HETATM   23  O   UNL     1      -8.358  17.599  68.827  1.00  0.00    -0.279 OA 
HETATM   24  H   UNL     1      -8.751  18.463  68.778  1.00  0.00     0.000 HD 
ENDBRANCH   6  11
ENDBRANCH   2   4
TORSDOF 2
ENDMDL
MODEL      213
REMARK 921   NORMALIZED FREE ENERGY PREDICTED BY IDOCK:   -2.94 KCAL/MOL
REMARK 922        TOTAL FREE ENERGY PREDICTED BY IDOCK:   -3.98 KCAL/MOL
REMARK 923 INTER-LIGAND FREE ENERGY PREDICTED BY IDOCK:   -3.42 KCAL/MOL
REMARK 924 INTRA-LIGAND FREE ENERGY PREDICTED BY IDOCK:   -0.56 KCAL/MOL
REMARK 927      BINDING AFFINITY PREDICTED BY RF-SCORE:    0.00 PKD
ROOT
HETATM    1  O5* UNL     1      -6.874   4.473  67.433  1.00  0.00    -0.056 OA 
HETATM    2  C5* UNL     1      -6.727   5.847  67.791  1.00  0.00    -0.058 C  
HETATM    3  H5* UNL     1      -6.053   4.004  67.530  1.00  0.00     0.000 HD 
ENDROOT
BRANCH   2   4
HETATM    4  C4* UNL     1      -8.047   6.601  67.633  1.00  0.00    -0.119 C  
HETATM    5  O4* UNL     1      -9.041   6.023  68.499  1.00  0.00    -0.114 OA 
HETATM    6  C1* UNL     1      -9.954   7.073  68.869  1.00  0.00    -0.160 C  
HETATM    7  H3* UNL     1      -7.861   9.792  67.032  1.00  0.00     0.000 HD 
HETATM    8  C2* UNL     1      -9.171   8.378  68.818  1.00  0.00    -0.143 C  
HETATM    9  C3* UNL     1      -7.944   8.077  67.992  1.00  0.00    -0.128 C  
HETATM   10  O3* UNL     1      -7.925   8.872  66.808  1.00  0.00    -0.105 OA 
BRANCH   6  11
HETATM   11  N   UNL     1     -10.545   6.782  70.165  1.00  0.00    -0.208 NA 
HETATM   12  C   UNL     1     -11.869   6.839  70.499  1.00  0.00    -0.362 A  
HETATM   13  C   UNL     1     -10.819   6.264  72.266  1.00  0.00    -0.240 A  
HETATM   14  N   UNL     1     -12.073   6.528  71.759  1.00  0.00    -0.347 NA 
HETATM   15  C   UNL     1      -9.850   6.384  71.284  1.00  0.00    -0.181 A  
HETATM   16  N   UNL     1      -8.513   6.167  71.263  1.00  0.00    -0.124 NA 
HETATM   17  C   UNL     1      -8.092   5.183  71.985  1.00  0.00    -0.113 C  
HETATM   18  H   UNL     1      -7.879   6.745  70.712  1.00  0.00     0.000 HD 
HETATM   19  N   UNL     1      -8.748   4.300  72.811  1.00  0.00    -0.104 NA 
HETATM   20  C   UNL     1      -9.597   4.745  73.924  1.00  0.00    -0.129 C  
HETATM   21  H   UNL     1      -8.641   3.300  72.645  1.00  0.00     0.000 HD 
HETATM   22  C   UNL     1     -10.595   5.905  73.690  1.00  0.00    -0.272 C  
HETATM   23  O   UNL     1     -10.158   7.055  74.444  1.00  0.00    -0.458 OA 
HETATM   24  H   UNL     1     -10.014   6.826  75.355  1.00  0.00     0.000 HD 
ENDBRANCH   6  11
ENDBRANCH   2   4
TORSDOF 2
ENDMDL
MODEL      214
REMARK 921   NORMALIZED FREE ENERGY PREDICTED BY IDOCK:   -2.93 KCAL/MOL
REMARK 922        TOTAL FREE ENERGY PREDICTED BY IDOCK:   -3.97 KCAL/MOL
REMARK 923 INTER-LIGAND FREE ENERGY PREDICTED BY IDOCK:   -3.59 KCAL/MOL
REMARK 924 INTRA-LIGAND FREE ENERGY PREDICTED BY IDOCK:   -0.37 KCAL/MOL
REMARK 927      BINDING AFFINITY PREDICTED BY RF-SCORE:    0.00 PKD
ROOT
HETATM    1  O5* UNL     1      -8.282   9.563  66.086  1.00  0.00    -0.113 OA 
HETATM    2  C5* UNL     1      -8.716   9.080  67.358  1.00  0.00    -0.119 C  
HETATM    3  H5* UNL     1      -7.871   8.872  65.580  1.00  0.00     0.000 HD 
ENDROOT
BRANCH   2   4
HETATM    4  C4* UNL     1      -9.376  10.191  68.174  1.00  0.00    -0.135 C  
HETATM    5  O4* UNL     1      -8.398  11.194  68.506  1.00  0.00    -0.141 OA 
HETATM    6  C1* UNL     1      -9.089  12.454  68.607  1.00  0.00     0.027 C  
HETATM    7  H3* UNL     1     -12.472  10.898  67.469  1.00  0.00     0.000 HD 
HETATM    8  C2* UNL     1     -10.303  12.367  67.691  1.00  0.00    -0.223 C  
HETATM    9  C3* UNL     1     -10.505  10.893  67.432  1.00  0.00    -0.224 C  
HETATM   10  O3* UNL     1     -11.768  10.460  67.932  1.00  0.00    -0.377 OA 
BRANCH   6  11
HETATM   11  N   UNL     1      -8.182  13.544  68.292  1.00  0.00    -0.152 NA 
HETATM   12  C   UNL     1      -7.127  13.514  67.425  1.00  0.00    -0.083 A  
HETATM   13  C   UNL     1      -7.175  15.478  68.258  1.00  0.00    -0.116 A  
HETATM   14  N   UNL     1      -6.497  14.666  67.375  1.00  0.00    -0.309 NA 
HETATM   15  C   UNL     1      -8.251  14.813  68.821  1.00  0.00    -0.163 A  
HETATM   16  N   UNL     1      -9.236  15.187  69.671  1.00  0.00    -0.450 NA 
HETATM   17  C   UNL     1      -9.666  16.397  69.536  1.00  0.00    -0.080 C  
HETATM   18  H   UNL     1      -9.615  14.554  70.375  1.00  0.00     0.000 HD 
HETATM   19  N   UNL     1      -9.296  17.417  68.689  1.00  0.00    -0.272 NA 
HETATM   20  C   UNL     1      -7.914  17.905  68.601  1.00  0.00    -0.281 C  
HETATM   21  H   UNL     1     -10.008  17.849  68.101  1.00  0.00     0.000 HD 
HETATM   22  C   UNL     1      -6.758  16.877  68.535  1.00  0.00    -0.168 C  
HETATM   23  O   UNL     1      -5.997  16.952  69.758  1.00  0.00    -0.215 OA 
HETATM   24  H   UNL     1      -5.730  17.847  69.936  1.00  0.00     0.000 HD 
ENDBRANCH   6  11
ENDBRANCH   2   4
TORSDOF 2
ENDMDL
MODEL      215
REMARK 921   NORMALIZED FREE ENERGY PREDICTED BY IDOCK:   -2.92 KCAL/MOL
REMARK 922        TOTAL FREE ENERGY PREDICTED BY IDOCK:   -3.96 KCAL/MOL
REMARK 923 INTER-LIGAND FREE ENERGY PREDICTED BY IDOCK:   -3.34 KCAL/MOL
REMARK 924 INTRA-LIGAND FREE ENERGY PREDICTED BY IDOCK:   -0.62 KCAL/MOL
REMARK 927      BINDING AFFINITY PREDICTED BY RF-SCORE:    0.00 PKD
ROOT
HETATM    1  O5* UNL     1     -10.474   5.555  74.300  1.00  0.00    -0.276 OA 
HETATM    2  C5* UNL     1      -9.810   5.459  73.039  1.00  0.00    -0.162 C  
HETATM    3  H5* UNL     1     -10.372   4.756  74.802  1.00  0.00     0.000 HD 
ENDROOT
BRANCH   2   4
HETATM    4  C4* UNL     1      -9.974   6.745  72.230  1.00  0.00    -0.158 C  
HETATM    5  O4* UNL     1      -9.419   6.563  70.914  1.00  0.00    -0.170 OA 
HETATM    6  C1* UNL     1     -10.157   7.409  70.013  1.00  0.00    -0.191 C  
HETATM    7  H3* UNL     1     -12.642   8.516  72.798  1.00  0.00     0.000 HD 
HETATM    8  C2* UNL     1     -11.553   7.569  70.601  1.00  0.00    -0.272 C  
HETATM    9  C3* UNL     1     -11.427   7.162  72.050  1.00  0.00    -0.274 C  
HETATM   10  O3* UNL     1     -11.735   8.256  72.911  1.00  0.00    -0.348 OA 
BRANCH   6  11
HETATM   11  N   UNL     1     -10.136   6.846  68.674  1.00  0.00    -0.156 NA 
HETATM   12  C   UNL     1     -11.203   6.373  67.962  1.00  0.00    -0.155 A  
HETATM   13  C   UNL     1      -9.479   6.101  66.732  1.00  0.00    -0.146 A  
HETATM   14  N   UNL     1     -10.845   5.918  66.782  1.00  0.00    -0.307 NA 
HETATM   15  C   UNL     1      -9.016   6.708  67.887  1.00  0.00    -0.112 A  
HETATM   16  N   UNL     1      -7.797   7.148  68.284  1.00  0.00    -0.120 NA 
HETATM   17  C   UNL     1      -7.053   7.653  67.357  1.00  0.00    -0.086 C  
HETATM   18  H   UNL     1      -7.487   7.084  69.253  1.00  0.00     0.000 HD 
HETATM   19  N   UNL     1      -7.250   7.817  66.005  1.00  0.00    -0.072 NA 
HETATM   20  C   UNL     1      -7.586   6.697  65.116  1.00  0.00    -0.090 C  
HETATM   21  H   UNL     1      -7.159   8.750  65.606  1.00  0.00     0.000 HD 
HETATM   22  C   UNL     1      -8.661   5.678  65.566  1.00  0.00    -0.150 C  
HETATM   23  O   UNL     1      -8.024   4.409  65.821  1.00  0.00    -0.094 OA 
HETATM   24  H   UNL     1      -7.500   4.139  65.076  1.00  0.00     0.000 HD 
ENDBRANCH   6  11
ENDBRANCH   2   4
TORSDOF 2
ENDMDL
MODEL      216
REMARK 921   NORMALIZED FREE ENERGY PREDICTED BY IDOCK:   -2.92 KCAL/MOL
REMARK 922        TOTAL FREE ENERGY PREDICTED BY IDOCK:   -3.95 KCAL/MOL
REMARK 923 INTER-LIGAND FREE ENERGY PREDICTED BY IDOCK:   -3.47 KCAL/MOL
REMARK 924 INTRA-LIGAND FREE ENERGY PREDICTED BY IDOCK:   -0.48 KCAL/MOL
REMARK 927      BINDING AFFINITY PREDICTED BY RF-SCORE:    0.00 PKD
ROOT
HETATM    1  O5* UNL     1     -10.654  12.901  67.178  1.00  0.00    -0.236 OA 
HETATM    2  C5* UNL     1     -11.167  13.026  68.505  1.00  0.00    -0.274 C  
HETATM    3  H5* UNL     1     -10.223  13.701  66.901  1.00  0.00     0.000 HD 
ENDROOT
BRANCH   2   4
HETATM    4  C4* UNL     1     -11.860  11.739  68.951  1.00  0.00    -0.320 C  
HETATM    5  O4* UNL     1     -11.222  10.606  68.332  1.00  0.00    -0.254 OA 
HETATM    6  C1* UNL     1     -11.365   9.487  69.227  1.00  0.00     0.095 C  
HETATM    7  H3* UNL     1     -13.041  11.671  71.980  1.00  0.00     0.000 HD 
HETATM    8  C2* UNL     1     -11.460  10.058  70.636  1.00  0.00    -0.425 C  
HETATM    9  C3* UNL     1     -11.808  11.516  70.456  1.00  0.00    -0.267 C  
HETATM   10  O3* UNL     1     -13.074  11.810  71.041  1.00  0.00    -0.182 OA 
BRANCH   6  11
HETATM   11  N   UNL     1     -10.268   8.554  69.035  1.00  0.00    -0.204 NA 
HETATM   12  C   UNL     1      -9.206   8.347  69.870  1.00  0.00    -0.151 A  
HETATM   13  C   UNL     1      -8.932   7.046  68.201  1.00  0.00    -0.127 A  
HETATM   14  N   UNL     1      -8.380   7.439  69.401  1.00  0.00    -0.131 NA 
HETATM   15  C   UNL     1     -10.127   7.702  67.963  1.00  0.00    -0.187 A  
HETATM   16  N   UNL     1     -11.059   7.618  66.983  1.00  0.00    -0.427 NA 
HETATM   17  C   UNL     1     -11.261   6.437  66.501  1.00  0.00     0.334 C  
HETATM   18  H   UNL     1     -11.567   8.435  66.646  1.00  0.00     0.000 HD 
HETATM   19  N   UNL     1     -10.687   5.218  66.779  1.00  0.00    -0.397 NA 
HETATM   20  C   UNL     1      -9.238   4.993  66.702  1.00  0.00    -0.129 C  
HETATM   21  H   UNL     1     -11.291   4.442  67.049  1.00  0.00     0.000 HD 
HETATM   22  C   UNL     1      -8.282   6.046  67.315  1.00  0.00    -0.106 C  
HETATM   23  O   UNL     1      -7.562   6.698  66.248  1.00  0.00    -0.086 OA 
HETATM   24  H   UNL     1      -7.146   6.059  65.682  1.00  0.00     0.000 HD 
ENDBRANCH   6  11
ENDBRANCH   2   4
TORSDOF 2
ENDMDL
MODEL      217
REMARK 921   NORMALIZED FREE ENERGY PREDICTED BY IDOCK:   -2.92 KCAL/MOL
REMARK 922        TOTAL FREE ENERGY PREDICTED BY IDOCK:   -3.95 KCAL/MOL
REMARK 923 INTER-LIGAND FREE ENERGY PREDICTED BY IDOCK:   -3.98 KCAL/MOL
REMARK 924 INTRA-LIGAND FREE ENERGY PREDICTED BY IDOCK:    0.02 KCAL/MOL
REMARK 927      BINDING AFFINITY PREDICTED BY RF-SCORE:    0.00 PKD
ROOT
HETATM    1  O5* UNL     1      -9.734   2.508  67.775  1.00  0.00    -0.357 OA 
HETATM    2  C5* UNL     1      -9.071   1.769  68.801  1.00  0.00    -0.131 C  
HETATM    3  H5* UNL     1      -9.990   1.942  67.057  1.00  0.00     0.000 HD 
ENDROOT
BRANCH   2   4
HETATM    4  C4* UNL     1      -8.658   2.679  69.957  1.00  0.00    -0.058 C  
HETATM    5  O4* UNL     1      -8.679   4.051  69.524  1.00  0.00    -0.074 OA 
HETATM    6  C1* UNL     1      -8.988   4.862  70.673  1.00  0.00    -0.126 C  
HETATM    7  H3* UNL     1      -9.531   1.752  72.950  1.00  0.00     0.000 HD 
HETATM    8  C2* UNL     1      -9.817   3.997  71.614  1.00  0.00    -0.253 C  
HETATM    9  C3* UNL     1      -9.580   2.576  71.164  1.00  0.00    -0.147 C  
HETATM   10  O3* UNL     1      -8.956   1.816  72.197  1.00  0.00    -0.067 OA 
BRANCH   6  11
HETATM   11  N   UNL     1      -9.649   6.087  70.253  1.00  0.00    -0.161 NA 
HETATM   12  C   UNL     1      -9.861   6.511  68.970  1.00  0.00    -0.143 A  
HETATM   13  C   UNL     1     -10.668   8.015  70.252  1.00  0.00    -0.239 A  
HETATM   14  N   UNL     1     -10.478   7.670  68.931  1.00  0.00    -0.212 NA 
HETATM   15  C   UNL     1     -10.188   7.029  71.098  1.00  0.00    -0.195 A  
HETATM   16  N   UNL     1     -10.200   6.869  72.443  1.00  0.00    -0.185 NA 
HETATM   17  C   UNL     1     -11.251   7.305  73.052  1.00  0.00    -0.264 C  
HETATM   18  H   UNL     1      -9.426   6.432  72.943  1.00  0.00     0.000 HD 
HETATM   19  N   UNL     1     -12.385   7.937  72.595  1.00  0.00    -0.588 NA 
HETATM   20  C   UNL     1     -12.333   9.177  71.810  1.00  0.00    -0.372 C  
HETATM   21  H   UNL     1     -13.294   7.529  72.809  1.00  0.00     0.000 HD 
HETATM   22  C   UNL     1     -11.306   9.294  70.657  1.00  0.00    -0.275 C  
HETATM   23  O   UNL     1     -10.308  10.271  71.019  1.00  0.00    -0.131 OA 
HETATM   24  H   UNL     1     -10.716  11.090  71.279  1.00  0.00     0.000 HD 
ENDBRANCH   6  11
ENDBRANCH   2   4
TORSDOF 2
ENDMDL
MODEL      218
REMARK 921   NORMALIZED FREE ENERGY PREDICTED BY IDOCK:   -2.89 KCAL/MOL
REMARK 922        TOTAL FREE ENERGY PREDICTED BY IDOCK:   -3.92 KCAL/MOL
REMARK 923 INTER-LIGAND FREE ENERGY PREDICTED BY IDOCK:   -3.28 KCAL/MOL
REMARK 924 INTRA-LIGAND FREE ENERGY PREDICTED BY IDOCK:   -0.64 KCAL/MOL
REMARK 927      BINDING AFFINITY PREDICTED BY RF-SCORE:    0.00 PKD
ROOT
HETATM    1  O5* UNL     1      -8.333   4.109  68.557  1.00  0.00    -0.082 OA 
HETATM    2  C5* UNL     1      -7.803   5.435  68.534  1.00  0.00    -0.088 C  
HETATM    3  H5* UNL     1      -7.936   3.570  67.884  1.00  0.00     0.000 HD 
ENDROOT
BRANCH   2   4
HETATM    4  C4* UNL     1      -8.442   6.303  69.617  1.00  0.00    -0.129 C  
HETATM    5  O4* UNL     1      -8.040   7.674  69.438  1.00  0.00    -0.123 OA 
HETATM    6  C1* UNL     1      -9.108   8.504  69.933  1.00  0.00    -0.150 C  
HETATM    7  H3* UNL     1     -11.408   5.444  70.639  1.00  0.00     0.000 HD 
HETATM    8  C2* UNL     1     -10.397   7.710  69.771  1.00  0.00    -0.223 C  
HETATM    9  C3* UNL     1      -9.964   6.275  69.592  1.00  0.00    -0.165 C  
HETATM   10  O3* UNL     1     -10.458   5.461  70.654  1.00  0.00    -0.257 OA 
BRANCH   6  11
HETATM   11  N   UNL     1      -9.104   9.782  69.240  1.00  0.00    -0.172 NA 
HETATM   12  C   UNL     1     -10.153  10.369  68.590  1.00  0.00    -0.176 A  
HETATM   13  C   UNL     1      -8.486  11.684  68.370  1.00  0.00    -0.157 A  
HETATM   14  N   UNL     1      -9.818  11.522  68.055  1.00  0.00    -0.182 NA 
HETATM   15  C   UNL     1      -8.023  10.627  69.136  1.00  0.00    -0.139 A  
HETATM   16  N   UNL     1      -6.839  10.359  69.737  1.00  0.00    -0.112 NA 
HETATM   17  C   UNL     1      -6.209  11.379  70.217  1.00  0.00    -0.106 C  
HETATM   18  H   UNL     1      -6.468   9.412  69.805  1.00  0.00     0.000 HD 
HETATM   19  N   UNL     1      -6.501  12.724  70.220  1.00  0.00    -0.397 NA 
HETATM   20  C   UNL     1      -6.765  13.476  68.986  1.00  0.00    -0.112 C  
HETATM   21  H   UNL     1      -6.535  13.216  71.112  1.00  0.00     0.000 HD 
HETATM   22  C   UNL     1      -7.696  12.857  67.915  1.00  0.00    -0.143 C  
HETATM   23  O   UNL     1      -6.912  12.526  66.751  1.00  0.00    -0.366 OA 
HETATM   24  H   UNL     1      -6.407  13.276  66.460  1.00  0.00     0.000 HD 
ENDBRANCH   6  11
ENDBRANCH   2   4
TORSDOF 2
ENDMDL
MODEL      219
REMARK 921   NORMALIZED FREE ENERGY PREDICTED BY IDOCK:   -2.86 KCAL/MOL
REMARK 922        TOTAL FREE ENERGY PREDICTED BY IDOCK:   -3.89 KCAL/MOL
REMARK 923 INTER-LIGAND FREE ENERGY PREDICTED BY IDOCK:   -3.58 KCAL/MOL
REMARK 924 INTRA-LIGAND FREE ENERGY PREDICTED BY IDOCK:   -0.31 KCAL/MOL
REMARK 927      BINDING AFFINITY PREDICTED BY RF-SCORE:    0.00 PKD
ROOT
HETATM    1  O5* UNL     1     -12.213  14.639  67.178  1.00  0.00    -0.523 OA 
HETATM    2  C5* UNL     1     -11.023  15.152  66.577  1.00  0.00    -0.318 C  
HETATM    3  H5* UNL     1     -12.953  14.711  66.586  1.00  0.00     0.000 HD 
ENDROOT
BRANCH   2   4
HETATM    4  C4* UNL     1      -9.833  15.037  67.528  1.00  0.00    -0.217 C  
HETATM    5  O4* UNL     1      -9.719  13.682  68.000  1.00  0.00    -0.212 OA 
HETATM    6  C1* UNL     1      -8.326  13.432  68.264  1.00  0.00    -0.160 C  
HETATM    7  H3* UNL     1      -7.254  16.917  66.899  1.00  0.00     0.000 HD 
HETATM    8  C2* UNL     1      -7.530  14.339  67.335  1.00  0.00    -0.172 C  
HETATM    9  C3* UNL     1      -8.505  15.398  66.878  1.00  0.00    -0.252 C  
HETATM   10  O3* UNL     1      -8.083  16.692  67.305  1.00  0.00    -0.157 OA 
BRANCH   6  11
HETATM   11  N   UNL     1      -8.037  12.017  68.106  1.00  0.00    -0.151 NA 
HETATM   12  C   UNL     1      -7.029  11.310  68.702  1.00  0.00    -0.084 A  
HETATM   13  C   UNL     1      -8.091   9.933  67.463  1.00  0.00    -0.110 A  
HETATM   14  N   UNL     1      -7.033  10.047  68.340  1.00  0.00    -0.066 NA 
HETATM   15  C   UNL     1      -8.754  11.141  67.324  1.00  0.00    -0.139 A  
HETATM   16  N   UNL     1      -9.865  11.522  66.649  1.00  0.00    -0.199 NA 
HETATM   17  C   UNL     1     -10.814  10.648  66.590  1.00  0.00    -0.131 C  
HETATM   18  H   UNL     1      -9.947  12.441  66.215  1.00  0.00     0.000 HD 
HETATM   19  N   UNL     1     -10.913   9.362  67.071  1.00  0.00    -0.199 NA 
HETATM   20  C   UNL     1      -9.937   8.317  66.734  1.00  0.00    -0.285 C  
HETATM   21  H   UNL     1     -11.693   9.127  67.683  1.00  0.00     0.000 HD 
HETATM   22  C   UNL     1      -8.427   8.657  66.781  1.00  0.00    -0.115 C  
HETATM   23  O   UNL     1      -7.904   8.641  65.437  1.00  0.00    -0.093 OA 
HETATM   24  H   UNL     1      -8.119   7.825  65.001  1.00  0.00     0.000 HD 
ENDBRANCH   6  11
ENDBRANCH   2   4
TORSDOF 2
ENDMDL
MODEL      220
REMARK 921   NORMALIZED FREE ENERGY PREDICTED BY IDOCK:   -2.84 KCAL/MOL
REMARK 922        TOTAL FREE ENERGY PREDICTED BY IDOCK:   -3.86 KCAL/MOL
REMARK 923 INTER-LIGAND FREE ENERGY PREDICTED BY IDOCK:   -3.27 KCAL/MOL
REMARK 924 INTRA-LIGAND FREE ENERGY PREDICTED BY IDOCK:   -0.59 KCAL/MOL
REMARK 927      BINDING AFFINITY PREDICTED BY RF-SCORE:    0.00 PKD
ROOT
HETATM    1  O5* UNL     1      -8.040   2.576  64.191  1.00  0.00    -0.080 OA 
HETATM    2  C5* UNL     1      -8.668   2.788  65.456  1.00  0.00    -0.127 C  
HETATM    3  H5* UNL     1      -7.597   1.736  64.166  1.00  0.00     0.000 HD 
ENDROOT
BRANCH   2   4
HETATM    4  C4* UNL     1      -9.381   4.139  65.498  1.00  0.00    -0.162 C  
HETATM    5  O4* UNL     1     -10.197   4.219  66.681  1.00  0.00    -0.186 OA 
HETATM    6  C1* UNL     1     -10.267   5.605  67.064  1.00  0.00    -0.222 C  
HETATM    7  H3* UNL     1      -7.780   6.691  64.273  1.00  0.00     0.000 HD 
HETATM    8  C2* UNL     1      -8.987   6.266  66.569  1.00  0.00    -0.150 C  
HETATM    9  C3* UNL     1      -8.426   5.324  65.531  1.00  0.00    -0.141 C  
HETATM   10  O3* UNL     1      -8.376   5.952  64.252  1.00  0.00    -0.116 OA 
BRANCH   6  11
HETATM   11  N   UNL     1     -10.477   5.714  68.498  1.00  0.00    -0.210 NA 
HETATM   12  C   UNL     1     -11.378   6.517  69.141  1.00  0.00    -0.261 A  
HETATM   13  C   UNL     1     -10.309   5.463  70.658  1.00  0.00    -0.262 A  
HETATM   14  N   UNL     1     -11.307   6.388  70.447  1.00  0.00    -0.365 NA 
HETATM   15  C   UNL     1      -9.795   5.001  69.458  1.00  0.00    -0.211 A  
HETATM   16  N   UNL     1      -8.872   4.063  69.138  1.00  0.00    -0.091 NA 
HETATM   17  C   UNL     1      -8.843   3.021  69.900  1.00  0.00    -0.091 C  
HETATM   18  H   UNL     1      -8.238   4.173  68.347  1.00  0.00     0.000 HD 
HETATM   19  N   UNL     1      -9.571   2.675  71.015  1.00  0.00    -0.153 NA 
HETATM   20  C   UNL     1      -9.646   3.533  72.205  1.00  0.00    -0.140 C  
HETATM   21  H   UNL     1     -10.076   1.790  71.016  1.00  0.00     0.000 HD 
HETATM   22  C   UNL     1      -9.877   5.053  72.019  1.00  0.00    -0.174 C  
HETATM   23  O   UNL     1      -8.680   5.758  72.410  1.00  0.00    -0.128 OA 
HETATM   24  H   UNL     1      -8.404   5.496  73.281  1.00  0.00     0.000 HD 
ENDBRANCH   6  11
ENDBRANCH   2   4
TORSDOF 2
ENDMDL
MODEL      221
REMARK 921   NORMALIZED FREE ENERGY PREDICTED BY IDOCK:   -2.82 KCAL/MOL
REMARK 922        TOTAL FREE ENERGY PREDICTED BY IDOCK:   -3.84 KCAL/MOL
REMARK 923 INTER-LIGAND FREE ENERGY PREDICTED BY IDOCK:   -3.58 KCAL/MOL
REMARK 924 INTRA-LIGAND FREE ENERGY PREDICTED BY IDOCK:   -0.26 KCAL/MOL
REMARK 927      BINDING AFFINITY PREDICTED BY RF-SCORE:    0.00 PKD
ROOT
HETATM    1  O5* UNL     1     -10.554  14.347  67.646  1.00  0.00    -0.256 OA 
HETATM    2  C5* UNL     1     -11.089  13.025  67.713  1.00  0.00    -0.262 C  
HETATM    3  H5* UNL     1     -11.194  14.990  67.929  1.00  0.00     0.000 HD 
ENDROOT
BRANCH   2   4
HETATM    4  C4* UNL     1     -10.059  11.991  67.257  1.00  0.00    -0.194 C  
HETATM    5  O4* UNL     1      -9.822  11.045  68.317  1.00  0.00    -0.166 OA 
HETATM    6  C1* UNL     1      -9.470   9.790  67.705  1.00  0.00    -0.144 C  
HETATM    7  H3* UNL     1     -10.094  11.158  64.114  1.00  0.00     0.000 HD 
HETATM    8  C2* UNL     1     -10.144   9.760  66.339  1.00  0.00    -0.313 C  
HETATM    9  C3* UNL     1     -10.503  11.195  66.038  1.00  0.00    -0.256 C  
HETATM   10  O3* UNL     1      -9.817  11.654  64.875  1.00  0.00    -0.241 OA 
BRANCH   6  11
HETATM   11  N   UNL     1      -9.843   8.690  68.578  1.00  0.00    -0.165 NA 
HETATM   12  C   UNL     1     -10.756   8.718  69.596  1.00  0.00    -0.208 A  
HETATM   13  C   UNL     1      -9.956   6.740  69.548  1.00  0.00    -0.162 A  
HETATM   14  N   UNL     1     -10.853   7.557  70.202  1.00  0.00    -0.247 NA 
HETATM   15  C   UNL     1      -9.335   7.413  68.509  1.00  0.00    -0.141 A  
HETATM   16  N   UNL     1      -8.449   7.040  67.555  1.00  0.00    -0.122 NA 
HETATM   17  C   UNL     1      -8.588   5.841  67.098  1.00  0.00    -0.109 C  
HETATM   18  H   UNL     1      -7.719   7.667  67.219  1.00  0.00     0.000 HD 
HETATM   19  N   UNL     1      -9.468   4.831  67.413  1.00  0.00    -0.138 NA 
HETATM   20  C   UNL     1      -9.624   4.321  68.781  1.00  0.00    -0.149 C  
HETATM   21  H   UNL     1     -10.031   4.422  66.669  1.00  0.00     0.000 HD 
HETATM   22  C   UNL     1      -9.722   5.330  69.952  1.00  0.00    -0.193 C  
HETATM   23  O   UNL     1      -8.534   5.219  70.763  1.00  0.00    -0.117 OA 
HETATM   24  H   UNL     1      -8.385   4.317  71.021  1.00  0.00     0.000 HD 
ENDBRANCH   6  11
ENDBRANCH   2   4
TORSDOF 2
ENDMDL
MODEL      222
REMARK 921   NORMALIZED FREE ENERGY PREDICTED BY IDOCK:   -2.81 KCAL/MOL
REMARK 922        TOTAL FREE ENERGY PREDICTED BY IDOCK:   -3.82 KCAL/MOL
REMARK 923 INTER-LIGAND FREE ENERGY PREDICTED BY IDOCK:   -3.15 KCAL/MOL
REMARK 924 INTRA-LIGAND FREE ENERGY PREDICTED BY IDOCK:   -0.67 KCAL/MOL
REMARK 927      BINDING AFFINITY PREDICTED BY RF-SCORE:    0.00 PKD
ROOT
HETATM    1  O5* UNL     1      -8.546   7.085  73.674  1.00  0.00    -0.126 OA 
HETATM    2  C5* UNL     1      -9.172   5.896  74.158  1.00  0.00    -0.131 C  
HETATM    3  H5* UNL     1      -7.953   7.448  74.321  1.00  0.00     0.000 HD 
ENDROOT
BRANCH   2   4
HETATM    4  C4* UNL     1     -10.126   5.313  73.117  1.00  0.00    -0.180 C  
HETATM    5  O4* UNL     1     -10.438   6.315  72.131  1.00  0.00    -0.193 OA 
HETATM    6  C1* UNL     1     -10.698   5.633  70.890  1.00  0.00    -0.243 C  
HETATM    7  H3* UNL     1      -9.774   2.162  72.391  1.00  0.00     0.000 HD 
HETATM    8  C2* UNL     1      -9.898   4.337  70.921  1.00  0.00    -0.259 C  
HETATM    9  C3* UNL     1      -9.549   4.117  72.373  1.00  0.00    -0.139 C  
HETATM   10  O3* UNL     1     -10.134   2.909  72.856  1.00  0.00    -0.126 OA 
BRANCH   6  11
HETATM   11  N   UNL     1     -10.381   6.502  69.769  1.00  0.00    -0.186 NA 
HETATM   12  C   UNL     1     -11.082   6.634  68.603  1.00  0.00    -0.213 A  
HETATM   13  C   UNL     1      -9.401   7.940  68.454  1.00  0.00    -0.140 A  
HETATM   14  N   UNL     1     -10.522   7.497  67.787  1.00  0.00    -0.222 NA 
HETATM   15  C   UNL     1      -9.306   7.359  69.708  1.00  0.00    -0.146 A  
HETATM   16  N   UNL     1      -8.447   7.513  70.744  1.00  0.00    -0.125 NA 
HETATM   17  C   UNL     1      -8.002   8.711  70.931  1.00  0.00    -0.122 C  
HETATM   18  H   UNL     1      -8.169   6.733  71.338  1.00  0.00     0.000 HD 
HETATM   19  N   UNL     1      -8.217   9.890  70.254  1.00  0.00    -0.295 NA 
HETATM   20  C   UNL     1      -7.965  10.028  68.814  1.00  0.00    -0.096 C  
HETATM   21  H   UNL     1      -8.563  10.696  70.772  1.00  0.00     0.000 HD 
HETATM   22  C   UNL     1      -8.450   8.912  67.857  1.00  0.00    -0.125 C  
HETATM   23  O   UNL     1      -7.299   8.234  67.312  1.00  0.00    -0.086 OA 
HETATM   24  H   UNL     1      -6.690   8.855  66.929  1.00  0.00     0.000 HD 
ENDBRANCH   6  11
ENDBRANCH   2   4
TORSDOF 2
ENDMDL
MODEL      223
REMARK 921   NORMALIZED FREE ENERGY PREDICTED BY IDOCK:   -2.81 KCAL/MOL
REMARK 922        TOTAL FREE ENERGY PREDICTED BY IDOCK:   -3.82 KCAL/MOL
REMARK 923 INTER-LIGAND FREE ENERGY PREDICTED BY IDOCK:   -3.68 KCAL/MOL
REMARK 924 INTRA-LIGAND FREE ENERGY PREDICTED BY IDOCK:   -0.14 KCAL/MOL
REMARK 927      BINDING AFFINITY PREDICTED BY RF-SCORE:    0.00 PKD
ROOT
HETATM    1  O5* UNL     1     -13.067   9.980  72.370  1.00  0.00    -0.497 OA 
HETATM    2  C5* UNL     1     -13.185  10.403  71.011  1.00  0.00    -0.278 C  
HETATM    3  H5* UNL     1     -13.874   9.584  72.677  1.00  0.00     0.000 HD 
ENDROOT
BRANCH   2   4
HETATM    4  C4* UNL     1     -11.887  11.040  70.517  1.00  0.00    -0.367 C  
HETATM    5  O4* UNL     1     -10.877  10.024  70.365  1.00  0.00    -0.283 OA 
HETATM    6  C1* UNL     1      -9.993  10.448  69.310  1.00  0.00    -0.228 C  
HETATM    7  H3* UNL     1     -12.161  13.581  68.505  1.00  0.00     0.000 HD 
HETATM    8  C2* UNL     1     -10.813  11.328  68.375  1.00  0.00    -0.248 C  
HETATM    9  C3* UNL     1     -12.030  11.733  69.169  1.00  0.00    -0.293 C  
HETATM   10  O3* UNL     1     -12.071  13.148  69.346  1.00  0.00    -0.292 OA 
BRANCH   6  11
HETATM   11  N   UNL     1      -9.396   9.290  68.668  1.00  0.00    -0.138 NA 
HETATM   12  C   UNL     1      -9.734   7.979  68.854  1.00  0.00    -0.159 A  
HETATM   13  C   UNL     1      -8.128   8.001  67.448  1.00  0.00    -0.122 A  
HETATM   14  N   UNL     1      -8.992   7.172  68.130  1.00  0.00    -0.128 NA 
HETATM   15  C   UNL     1      -8.379   9.331  67.741  1.00  0.00    -0.116 A  
HETATM   16  N   UNL     1      -7.863  10.499  67.289  1.00  0.00    -0.106 NA 
HETATM   17  C   UNL     1      -7.534  10.522  66.041  1.00  0.00    -0.137 C  
HETATM   18  H   UNL     1      -7.742  11.309  67.896  1.00  0.00     0.000 HD 
HETATM   19  N   UNL     1      -7.584   9.561  65.057  1.00  0.00    -0.109 NA 
HETATM   20  C   UNL     1      -6.931   8.253  65.199  1.00  0.00    -0.074 C  
HETATM   21  H   UNL     1      -8.094   9.765  64.198  1.00  0.00     0.000 HD 
HETATM   22  C   UNL     1      -7.079   7.482  66.533  1.00  0.00    -0.075 C  
HETATM   23  O   UNL     1      -5.797   7.444  67.194  1.00  0.00    -0.028 OA 
HETATM   24  H   UNL     1      -5.126   7.111  66.609  1.00  0.00     0.000 HD 
ENDBRANCH   6  11
ENDBRANCH   2   4
TORSDOF 2
ENDMDL
MODEL      224
REMARK 921   NORMALIZED FREE ENERGY PREDICTED BY IDOCK:   -2.78 KCAL/MOL
REMARK 922        TOTAL FREE ENERGY PREDICTED BY IDOCK:   -3.79 KCAL/MOL
REMARK 923 INTER-LIGAND FREE ENERGY PREDICTED BY IDOCK:   -3.41 KCAL/MOL
REMARK 924 INTRA-LIGAND FREE ENERGY PREDICTED BY IDOCK:   -0.38 KCAL/MOL
REMARK 927      BINDING AFFINITY PREDICTED BY RF-SCORE:    0.00 PKD
ROOT
HETATM    1  O5* UNL     1      -6.146  13.146  66.938  1.00  0.00    -0.405 OA 
HETATM    2  C5* UNL     1      -7.314  13.575  67.639  1.00  0.00    -0.174 C  
HETATM    3  H5* UNL     1      -5.884  13.785  66.286  1.00  0.00     0.000 HD 
ENDROOT
BRANCH   2   4
HETATM    4  C4* UNL     1      -7.737  12.546  68.686  1.00  0.00    -0.063 C  
HETATM    5  O4* UNL     1      -8.640  11.594  68.093  1.00  0.00    -0.145 OA 
HETATM    6  C1* UNL     1      -8.465  10.344  68.786  1.00  0.00    -0.132 C  
HETATM    7  H3* UNL     1      -5.529  11.732  70.931  1.00  0.00     0.000 HD 
HETATM    8  C2* UNL     1      -7.032  10.321  69.302  1.00  0.00    -0.073 C  
HETATM    9  C3* UNL     1      -6.569  11.757  69.262  1.00  0.00    -0.112 C  
HETATM   10  O3* UNL     1      -6.257  12.225  70.572  1.00  0.00    -0.193 OA 
BRANCH   6  11
HETATM   11  N   UNL     1      -8.799   9.238  67.905  1.00  0.00    -0.124 NA 
HETATM   12  C   UNL     1      -8.433   9.087  66.596  1.00  0.00    -0.122 A  
HETATM   13  C   UNL     1      -9.622   7.386  67.097  1.00  0.00    -0.159 A  
HETATM   14  N   UNL     1      -8.909   7.978  66.077  1.00  0.00    -0.160 NA 
HETATM   15  C   UNL     1      -9.543   8.135  68.259  1.00  0.00    -0.144 A  
HETATM   16  N   UNL     1     -10.003   7.951  69.520  1.00  0.00    -0.185 NA 
HETATM   17  C   UNL     1     -10.001   6.732  69.946  1.00  0.00    -0.172 C  
HETATM   18  H   UNL     1     -10.330   8.726  70.096  1.00  0.00     0.000 HD 
HETATM   19  N   UNL     1      -9.635   5.548  69.348  1.00  0.00    -0.139 NA 
HETATM   20  C   UNL     1     -10.213   5.096  68.076  1.00  0.00    -0.115 C  
HETATM   21  H   UNL     1      -8.936   4.963  69.806  1.00  0.00     0.000 HD 
HETATM   22  C   UNL     1     -10.363   6.111  66.917  1.00  0.00    -0.248 C  
HETATM   23  O   UNL     1     -11.766   6.362  66.695  1.00  0.00    -0.549 OA 
HETATM   24  H   UNL     1     -12.240   5.547  66.580  1.00  0.00     0.000 HD 
ENDBRANCH   6  11
ENDBRANCH   2   4
TORSDOF 2
ENDMDL
MODEL      225
REMARK 921   NORMALIZED FREE ENERGY PREDICTED BY IDOCK:   -2.77 KCAL/MOL
REMARK 922        TOTAL FREE ENERGY PREDICTED BY IDOCK:   -3.78 KCAL/MOL
REMARK 923 INTER-LIGAND FREE ENERGY PREDICTED BY IDOCK:   -3.24 KCAL/MOL
REMARK 924 INTRA-LIGAND FREE ENERGY PREDICTED BY IDOCK:   -0.54 KCAL/MOL
REMARK 927      BINDING AFFINITY PREDICTED BY RF-SCORE:    0.00 PKD
ROOT
HETATM    1  O5* UNL     1      -9.319   7.668  74.237  1.00  0.00    -0.419 OA 
HETATM    2  C5* UNL     1      -9.999   6.707  73.428  1.00  0.00    -0.210 C  
HETATM    3  H5* UNL     1      -8.822   7.244  74.927  1.00  0.00     0.000 HD 
ENDROOT
BRANCH   2   4
HETATM    4  C4* UNL     1     -10.799   7.388  72.319  1.00  0.00    -0.247 C  
HETATM    5  O4* UNL     1      -9.898   7.930  71.336  1.00  0.00    -0.165 OA 
HETATM    6  C1* UNL     1     -10.580   7.909  70.067  1.00  0.00    -0.242 C  
HETATM    7  H3* UNL     1     -13.675   6.075  71.554  1.00  0.00     0.000 HD 
HETATM    8  C2* UNL     1     -11.581   6.762  70.122  1.00  0.00    -0.397 C  
HETATM    9  C3* UNL     1     -11.743   6.442  71.589  1.00  0.00    -0.313 C  
HETATM   10  O3* UNL     1     -13.087   6.665  72.010  1.00  0.00    -0.241 OA 
BRANCH   6  11
HETATM   11  N   UNL     1      -9.615   7.806  68.986  1.00  0.00    -0.154 NA 
HETATM   12  C   UNL     1      -9.605   8.517  67.819  1.00  0.00    -0.156 A  
HETATM   13  C   UNL     1      -7.932   7.194  67.741  1.00  0.00    -0.114 A  
HETATM   14  N   UNL     1      -8.600   8.177  67.043  1.00  0.00    -0.122 NA 
HETATM   15  C   UNL     1      -8.525   6.965  68.971  1.00  0.00    -0.128 A  
HETATM   16  N   UNL     1      -8.215   6.169  70.022  1.00  0.00    -0.121 NA 
HETATM   17  C   UNL     1      -6.955   6.021  70.262  1.00  0.00    -0.062 C  
HETATM   18  H   UNL     1      -8.931   5.714  70.587  1.00  0.00     0.000 HD 
HETATM   19  N   UNL     1      -5.834   6.509  69.631  1.00  0.00    -0.014 NA 
HETATM   20  C   UNL     1      -5.579   6.296  68.200  1.00  0.00    -0.008 C  
HETATM   21  H   UNL     1      -5.154   7.037  70.177  1.00  0.00     0.000 HD 
HETATM   22  C   UNL     1      -6.738   6.500  67.193  1.00  0.00    -0.060 C  
HETATM   23  O   UNL     1      -7.101   5.221  66.634  1.00  0.00    -0.066 OA 
HETATM   24  H   UNL     1      -6.337   4.777  66.284  1.00  0.00     0.000 HD 
ENDBRANCH   6  11
ENDBRANCH   2   4
TORSDOF 2
ENDMDL
MODEL      226
REMARK 921   NORMALIZED FREE ENERGY PREDICTED BY IDOCK:   -2.74 KCAL/MOL
REMARK 922        TOTAL FREE ENERGY PREDICTED BY IDOCK:   -3.75 KCAL/MOL
REMARK 923 INTER-LIGAND FREE ENERGY PREDICTED BY IDOCK:   -3.44 KCAL/MOL
REMARK 924 INTRA-LIGAND FREE ENERGY PREDICTED BY IDOCK:   -0.31 KCAL/MOL
REMARK 927      BINDING AFFINITY PREDICTED BY RF-SCORE:    0.00 PKD
ROOT
HETATM    1  O5* UNL     1     -12.145  10.382  69.273  1.00  0.00    -0.528 OA 
HETATM    2  C5* UNL     1     -11.018  10.720  68.464  1.00  0.00    -0.243 C  
HETATM    3  H5* UNL     1     -12.793  11.076  69.265  1.00  0.00     0.000 HD 
ENDROOT
BRANCH   2   4
HETATM    4  C4* UNL     1      -9.975   9.604  68.476  1.00  0.00    -0.165 C  
HETATM    5  O4* UNL     1      -9.694   9.219  69.835  1.00  0.00    -0.178 OA 
HETATM    6  C1* UNL     1      -9.326   7.827  69.823  1.00  0.00    -0.153 C  
HETATM    7  H3* UNL     1     -10.057   7.480  66.015  1.00  0.00     0.000 HD 
HETATM    8  C2* UNL     1     -10.028   7.195  68.628  1.00  0.00    -0.161 C  
HETATM    9  C3* UNL     1     -10.426   8.350  67.740  1.00  0.00    -0.220 C  
HETATM   10  O3* UNL     1      -9.776   8.262  66.474  1.00  0.00    -0.225 OA 
BRANCH   6  11
HETATM   11  N   UNL     1      -9.655   7.215  71.099  1.00  0.00    -0.165 NA 
HETATM   12  C   UNL     1     -10.533   7.685  72.036  1.00  0.00    -0.213 A  
HETATM   13  C   UNL     1      -9.709   5.879  72.822  1.00  0.00    -0.156 A  
HETATM   14  N   UNL     1     -10.595   6.901  73.089  1.00  0.00    -0.274 NA 
HETATM   15  C   UNL     1      -9.133   6.033  71.572  1.00  0.00    -0.143 A  
HETATM   16  N   UNL     1      -8.275   5.281  70.842  1.00  0.00    -0.109 NA 
HETATM   17  C   UNL     1      -8.413   4.002  70.955  1.00  0.00    -0.076 C  
HETATM   18  H   UNL     1      -7.564   5.698  70.241  1.00  0.00     0.000 HD 
HETATM   19  N   UNL     1      -9.269   3.231  71.708  1.00  0.00    -0.111 NA 
HETATM   20  C   UNL     1      -9.372   3.365  73.167  1.00  0.00    -0.097 C  
HETATM   21  H   UNL     1      -9.852   2.542  71.236  1.00  0.00     0.000 HD 
HETATM   22  C   UNL     1      -9.444   4.782  73.788  1.00  0.00    -0.124 C  
HETATM   23  O   UNL     1      -8.228   5.030  74.523  1.00  0.00    -0.098 OA 
HETATM   24  H   UNL     1      -8.058   4.329  75.141  1.00  0.00     0.000 HD 
ENDBRANCH   6  11
ENDBRANCH   2   4
TORSDOF 2
ENDMDL
MODEL      227
REMARK 921   NORMALIZED FREE ENERGY PREDICTED BY IDOCK:   -2.73 KCAL/MOL
REMARK 922        TOTAL FREE ENERGY PREDICTED BY IDOCK:   -3.74 KCAL/MOL
REMARK 923 INTER-LIGAND FREE ENERGY PREDICTED BY IDOCK:   -3.89 KCAL/MOL
REMARK 924 INTRA-LIGAND FREE ENERGY PREDICTED BY IDOCK:    0.15 KCAL/MOL
REMARK 927      BINDING AFFINITY PREDICTED BY RF-SCORE:    0.00 PKD
ROOT
HETATM    1  O5* UNL     1     -11.695  11.623  70.410  1.00  0.00    -0.458 OA 
HETATM    2  C5* UNL     1     -12.099  10.973  69.204  1.00  0.00    -0.263 C  
HETATM    3  H5* UNL     1     -12.233  11.349  71.143  1.00  0.00     0.000 HD 
ENDROOT
BRANCH   2   4
HETATM    4  C4* UNL     1     -11.234  11.414  68.024  1.00  0.00    -0.281 C  
HETATM    5  O4* UNL     1     -11.013  12.835  68.091  1.00  0.00    -0.227 OA 
HETATM    6  C1* UNL     1      -9.734  13.102  67.485  1.00  0.00    -0.213 C  
HETATM    7  H3* UNL     1      -8.977   9.317  66.982  1.00  0.00     0.000 HD 
HETATM    8  C2* UNL     1      -8.886  11.851  67.674  1.00  0.00    -0.169 C  
HETATM    9  C3* UNL     1      -9.865  10.748  67.998  1.00  0.00    -0.165 C  
HETATM   10  O3* UNL     1      -9.831   9.732  66.999  1.00  0.00    -0.174 OA 
BRANCH   6  11
HETATM   11  N   UNL     1      -9.156  14.306  68.057  1.00  0.00    -0.184 NA 
HETATM   12  C   UNL     1      -9.787  15.233  68.839  1.00  0.00    -0.221 A  
HETATM   13  C   UNL     1      -7.777  15.909  68.594  1.00  0.00    -0.161 A  
HETATM   14  N   UNL     1      -8.985  16.214  69.185  1.00  0.00    -0.249 NA 
HETATM   15  C   UNL     1      -7.848  14.707  67.910  1.00  0.00    -0.136 A  
HETATM   16  N   UNL     1      -6.937  13.962  67.238  1.00  0.00    -0.401 NA 
HETATM   17  C   UNL     1      -5.741  13.964  67.726  1.00  0.00    -0.070 C  
HETATM   18  H   UNL     1      -7.180  13.434  66.401  1.00  0.00     0.000 HD 
HETATM   19  N   UNL     1      -5.189  14.607  68.809  1.00  0.00    -0.086 NA 
HETATM   20  C   UNL     1      -5.251  16.065  68.976  1.00  0.00    -0.108 C  
HETATM   21  H   UNL     1      -4.718  14.051  69.522  1.00  0.00     0.000 HD 
HETATM   22  C   UNL     1      -6.590  16.795  68.705  1.00  0.00    -0.169 C  
HETATM   23  O   UNL     1      -6.446  17.608  67.522  1.00  0.00    -0.156 OA 
HETATM   24  H   UNL     1      -5.686  18.175  67.593  1.00  0.00     0.000 HD 
ENDBRANCH   6  11
ENDBRANCH   2   4
TORSDOF 2
ENDMDL
MODEL      228
REMARK 921   NORMALIZED FREE ENERGY PREDICTED BY IDOCK:   -2.66 KCAL/MOL
REMARK 922        TOTAL FREE ENERGY PREDICTED BY IDOCK:   -3.66 KCAL/MOL
REMARK 923 INTER-LIGAND FREE ENERGY PREDICTED BY IDOCK:   -3.53 KCAL/MOL
REMARK 924 INTRA-LIGAND FREE ENERGY PREDICTED BY IDOCK:   -0.13 KCAL/MOL
REMARK 927      BINDING AFFINITY PREDICTED BY RF-SCORE:    0.00 PKD
ROOT
HETATM    1  O5* UNL     1     -12.601  14.207  66.792  1.00  0.00    -0.554 OA 
HETATM    2  C5* UNL     1     -11.643  15.156  66.320  1.00  0.00    -0.080 C  
HETATM    3  H5* UNL     1     -13.032  13.768  66.068  1.00  0.00     0.000 HD 
ENDROOT
BRANCH   2   4
HETATM    4  C4* UNL     1     -10.949  15.863  67.483  1.00  0.00    -0.280 C  
HETATM    5  O4* UNL     1      -9.930  15.005  68.031  1.00  0.00    -0.216 OA 
HETATM    6  C1* UNL     1      -8.895  15.852  68.565  1.00  0.00    -0.195 C  
HETATM    7  H3* UNL     1     -10.620  19.091  67.265  1.00  0.00     0.000 HD 
HETATM    8  C2* UNL     1      -8.923  17.146  67.761  1.00  0.00    -0.226 C  
HETATM    9  C3* UNL     1     -10.270  17.164  67.079  1.00  0.00    -0.313 C  
HETATM   10  O3* UNL     1     -11.044  18.279  67.517  1.00  0.00    -0.237 OA 
BRANCH   6  11
HETATM   11  N   UNL     1      -7.619  15.158  68.531  1.00  0.00    -0.115 NA 
HETATM   12  C   UNL     1      -6.376  15.708  68.682  1.00  0.00    -0.103 A  
HETATM   13  C   UNL     1      -6.082  13.619  68.357  1.00  0.00    -0.096 A  
HETATM   14  N   UNL     1      -5.424  14.808  68.587  1.00  0.00    -0.089 NA 
HETATM   15  C   UNL     1      -7.455  13.804  68.349  1.00  0.00    -0.119 A  
HETATM   16  N   UNL     1      -8.508  12.959  68.235  1.00  0.00    -0.187 NA 
HETATM   17  C   UNL     1      -8.362  11.801  68.786  1.00  0.00    -0.009 C  
HETATM   18  H   UNL     1      -9.362  13.222  67.744  1.00  0.00     0.000 HD 
HETATM   19  N   UNL     1      -7.310  11.231  69.466  1.00  0.00    -0.335 NA 
HETATM   20  C   UNL     1      -5.965  11.118  68.886  1.00  0.00    -0.040 C  
HETATM   21  H   UNL     1      -7.471  10.873  70.407  1.00  0.00     0.000 HD 
HETATM   22  C   UNL     1      -5.362  12.337  68.147  1.00  0.00    -0.061 C  
HETATM   23  O   UNL     1      -5.265  12.029  66.741  1.00  0.00    -0.273 OA 
HETATM   24  H   UNL     1      -4.804  11.208  66.607  1.00  0.00     0.000 HD 
ENDBRANCH   6  11
ENDBRANCH   2   4
TORSDOF 2
ENDMDL
MODEL      229
REMARK 921   NORMALIZED FREE ENERGY PREDICTED BY IDOCK:   -2.65 KCAL/MOL
REMARK 922        TOTAL FREE ENERGY PREDICTED BY IDOCK:   -3.65 KCAL/MOL
REMARK 923 INTER-LIGAND FREE ENERGY PREDICTED BY IDOCK:   -3.29 KCAL/MOL
REMARK 924 INTRA-LIGAND FREE ENERGY PREDICTED BY IDOCK:   -0.37 KCAL/MOL
REMARK 927      BINDING AFFINITY PREDICTED BY RF-SCORE:    0.00 PKD
ROOT
HETATM    1  O5* UNL     1     -11.943  11.339  67.849  1.00  0.00    -0.630 OA 
HETATM    2  C5* UNL     1     -10.791  12.061  67.413  1.00  0.00    -0.242 C  
HETATM    3  H5* UNL     1     -12.740  11.825  67.672  1.00  0.00     0.000 HD 
ENDROOT
BRANCH   2   4
HETATM    4  C4* UNL     1      -9.510  11.279  67.697  1.00  0.00    -0.167 C  
HETATM    5  O4* UNL     1      -9.794  10.201  68.609  1.00  0.00    -0.153 OA 
HETATM    6  C1* UNL     1      -8.866   9.137  68.321  1.00  0.00    -0.129 C  
HETATM    7  H3* UNL     1      -7.364  11.026  65.267  1.00  0.00     0.000 HD 
HETATM    8  C2* UNL     1      -8.497   9.259  66.849  1.00  0.00    -0.128 C  
HETATM    9  C3* UNL     1      -8.892  10.661  66.451  1.00  0.00    -0.154 C  
HETATM   10  O3* UNL     1      -7.749  11.411  66.044  1.00  0.00    -0.011 OA 
BRANCH   6  11
HETATM   11  N   UNL     1      -9.451   7.858  68.685  1.00  0.00    -0.149 NA 
HETATM   12  C   UNL     1     -10.546   7.262  68.124  1.00  0.00    -0.177 A  
HETATM   13  C   UNL     1      -9.867   5.956  69.670  1.00  0.00    -0.167 A  
HETATM   14  N   UNL     1     -10.824   6.110  68.690  1.00  0.00    -0.309 NA 
HETATM   15  C   UNL     1      -8.978   7.018  69.667  1.00  0.00    -0.141 A  
HETATM   16  N   UNL     1      -7.854   7.294  70.372  1.00  0.00    -0.098 NA 
HETATM   17  C   UNL     1      -7.112   6.279  70.666  1.00  0.00    -0.069 C  
HETATM   18  H   UNL     1      -7.609   8.243  70.652  1.00  0.00     0.000 HD 
HETATM   19  N   UNL     1      -7.252   4.933  70.419  1.00  0.00    -0.052 NA 
HETATM   20  C   UNL     1      -8.441   4.175  70.831  1.00  0.00    -0.079 C  
HETATM   21  H   UNL     1      -6.503   4.443  69.931  1.00  0.00     0.000 HD 
HETATM   22  C   UNL     1      -9.843   4.786  70.584  1.00  0.00    -0.222 C  
HETATM   23  O   UNL     1     -10.437   5.117  71.856  1.00  0.00    -0.211 OA 
HETATM   24  H   UNL     1     -10.422   4.369  72.441  1.00  0.00     0.000 HD 
ENDBRANCH   6  11
ENDBRANCH   2   4
TORSDOF 2
ENDMDL
MODEL      230
REMARK 921   NORMALIZED FREE ENERGY PREDICTED BY IDOCK:   -2.64 KCAL/MOL
REMARK 922        TOTAL FREE ENERGY PREDICTED BY IDOCK:   -3.64 KCAL/MOL
REMARK 923 INTER-LIGAND FREE ENERGY PREDICTED BY IDOCK:   -3.30 KCAL/MOL
REMARK 924 INTRA-LIGAND FREE ENERGY PREDICTED BY IDOCK:   -0.34 KCAL/MOL
REMARK 927      BINDING AFFINITY PREDICTED BY RF-SCORE:    0.00 PKD
ROOT
HETATM    1  O5* UNL     1      -8.946  11.990  66.845  1.00  0.00    -0.187 OA 
HETATM    2  C5* UNL     1      -8.812  11.577  68.205  1.00  0.00    -0.166 C  
HETATM    3  H5* UNL     1      -8.319  12.670  66.630  1.00  0.00     0.000 HD 
ENDROOT
BRANCH   2   4
HETATM    4  C4* UNL     1      -9.821  10.483  68.551  1.00  0.00    -0.168 C  
HETATM    5  O4* UNL     1      -9.162   9.430  69.279  1.00  0.00    -0.148 OA 
HETATM    6  C1* UNL     1     -10.137   8.835  70.156  1.00  0.00    -0.187 C  
HETATM    7  H3* UNL     1     -12.869  11.429  69.175  1.00  0.00     0.000 HD 
HETATM    8  C2* UNL     1     -11.159   9.918  70.479  1.00  0.00    -0.398 C  
HETATM    9  C3* UNL     1     -10.971  10.976  69.419  1.00  0.00    -0.248 C  
HETATM   10  O3* UNL     1     -12.152  11.122  68.634  1.00  0.00    -0.556 OA 
BRANCH   6  11
HETATM   11  N   UNL     1      -9.478   8.272  71.322  1.00  0.00    -0.161 NA 
HETATM   12  C   UNL     1      -8.915   8.957  72.362  1.00  0.00     0.207 A  
HETATM   13  C   UNL     1      -8.617   6.882  72.766  1.00  0.00    -0.119 A  
HETATM   14  N   UNL     1      -8.388   8.150  73.256  1.00  0.00    -0.203 NA 
HETATM   15  C   UNL     1      -9.324   6.928  71.576  1.00  0.00    -0.155 A  
HETATM   16  N   UNL     1      -9.836   5.977  70.759  1.00  0.00    -0.178 NA 
HETATM   17  C   UNL     1     -10.299   4.923  71.345  1.00  0.00    -0.151 C  
HETATM   18  H   UNL     1      -9.855   6.085  69.746  1.00  0.00     0.000 HD 
HETATM   19  N   UNL     1     -10.355   4.556  72.670  1.00  0.00    -0.188 NA 
HETATM   20  C   UNL     1      -9.162   4.499  73.524  1.00  0.00    -0.111 C  
HETATM   21  H   UNL     1     -11.260   4.315  73.074  1.00  0.00     0.000 HD 
HETATM   22  C   UNL     1      -8.140   5.661  73.464  1.00  0.00    -0.113 C  
HETATM   23  O   UNL     1      -6.918   5.176  72.870  1.00  0.00    -0.074 OA 
HETATM   24  H   UNL     1      -6.612   4.395  73.316  1.00  0.00     0.000 HD 
ENDBRANCH   6  11
ENDBRANCH   2   4
TORSDOF 2
ENDMDL
MODEL      231
REMARK 921   NORMALIZED FREE ENERGY PREDICTED BY IDOCK:   -2.60 KCAL/MOL
REMARK 922        TOTAL FREE ENERGY PREDICTED BY IDOCK:   -3.59 KCAL/MOL
REMARK 923 INTER-LIGAND FREE ENERGY PREDICTED BY IDOCK:   -3.37 KCAL/MOL
REMARK 924 INTRA-LIGAND FREE ENERGY PREDICTED BY IDOCK:   -0.22 KCAL/MOL
REMARK 927      BINDING AFFINITY PREDICTED BY RF-SCORE:    0.00 PKD
ROOT
HETATM    1  O5* UNL     1      -9.109   3.562  65.891  1.00  0.00    -0.142 OA 
HETATM    2  C5* UNL     1      -8.427   2.902  66.958  1.00  0.00    -0.098 C  
HETATM    3  H5* UNL     1      -9.394   2.941  65.231  1.00  0.00     0.000 HD 
ENDROOT
BRANCH   2   4
HETATM    4  C4* UNL     1      -7.969   3.900  68.020  1.00  0.00    -0.080 C  
HETATM    5  O4* UNL     1      -8.182   5.243  67.546  1.00  0.00    -0.100 OA 
HETATM    6  C1* UNL     1      -8.428   6.073  68.696  1.00  0.00    -0.113 C  
HETATM    7  H3* UNL     1      -8.368   3.036  71.130  1.00  0.00     0.000 HD 
HETATM    8  C2* UNL     1      -9.042   5.178  69.765  1.00  0.00    -0.154 C  
HETATM    9  C3* UNL     1      -8.720   3.766  69.338  1.00  0.00    -0.080 C  
HETATM   10  O3* UNL     1      -7.900   3.119  70.308  1.00  0.00    -0.043 OA 
BRANCH   6  11
HETATM   11  N   UNL     1      -9.255   7.208  68.322  1.00  0.00    -0.133 NA 
HETATM   12  C   UNL     1      -9.934   7.381  67.148  1.00  0.00    -0.215 A  
HETATM   13  C   UNL     1     -10.302   9.122  68.327  1.00  0.00    -0.214 A  
HETATM   14  N   UNL     1     -10.582   8.524  67.117  1.00  0.00    -0.292 NA 
HETATM   15  C   UNL     1      -9.502   8.307  69.112  1.00  0.00    -0.155 A  
HETATM   16  N   UNL     1      -9.022   8.410  70.374  1.00  0.00    -0.144 NA 
HETATM   17  C   UNL     1      -9.805   8.978  71.229  1.00  0.00    -0.306 C  
HETATM   18  H   UNL     1      -8.099   8.061  70.633  1.00  0.00     0.000 HD 
HETATM   19  N   UNL     1     -11.058   9.534  71.103  1.00  0.00    -0.352 NA 
HETATM   20  C   UNL     1     -11.353  10.598  70.135  1.00  0.00    -0.323 C  
HETATM   21  H   UNL     1     -11.808   9.195  71.704  1.00  0.00     0.000 HD 
HETATM   22  C   UNL     1     -10.815  10.468  68.689  1.00  0.00    -0.237 C  
HETATM   23  O   UNL     1      -9.805  11.475  68.475  1.00  0.00    -0.192 OA 
HETATM   24  H   UNL     1     -10.133  12.336  68.706  1.00  0.00     0.000 HD 
ENDBRANCH   6  11
ENDBRANCH   2   4
TORSDOF 2
ENDMDL
MODEL      232
REMARK 921   NORMALIZED FREE ENERGY PREDICTED BY IDOCK:   -2.58 KCAL/MOL
REMARK 922        TOTAL FREE ENERGY PREDICTED BY IDOCK:   -3.58 KCAL/MOL
REMARK 923 INTER-LIGAND FREE ENERGY PREDICTED BY IDOCK:   -3.08 KCAL/MOL
REMARK 924 INTRA-LIGAND FREE ENERGY PREDICTED BY IDOCK:   -0.50 KCAL/MOL
REMARK 927      BINDING AFFINITY PREDICTED BY RF-SCORE:    0.00 PKD
ROOT
HETATM    1  O5* UNL     1      -9.868   2.620  67.108  1.00  0.00    -0.335 OA 
HETATM    2  C5* UNL     1      -8.989   1.863  67.941  1.00  0.00    -0.140 C  
HETATM    3  H5* UNL     1     -10.539   2.067  66.726  1.00  0.00     0.000 HD 
ENDROOT
BRANCH   2   4
HETATM    4  C4* UNL     1      -7.909   2.753  68.556  1.00  0.00    -0.054 C  
HETATM    5  O4* UNL     1      -8.521   3.904  69.166  1.00  0.00    -0.074 OA 
HETATM    6  C1* UNL     1      -7.683   4.306  70.266  1.00  0.00    -0.045 C  
HETATM    7  H3* UNL     1      -5.300   1.264  69.801  1.00  0.00     0.000 HD 
HETATM    8  C2* UNL     1      -6.969   3.054  70.758  1.00  0.00    -0.033 C  
HETATM    9  C3* UNL     1      -7.094   2.054  69.634  1.00  0.00    -0.033 C  
HETATM   10  O3* UNL     1      -5.809   1.700  69.128  1.00  0.00    -0.021 OA 
BRANCH   6  11
HETATM   11  N   UNL     1      -8.482   4.974  71.280  1.00  0.00    -0.119 NA 
HETATM   12  C   UNL     1      -8.384   4.826  72.636  1.00  0.00    -0.112 A  
HETATM   13  C   UNL     1      -9.965   6.217  72.286  1.00  0.00    -0.165 A  
HETATM   14  N   UNL     1      -9.261   5.565  73.276  1.00  0.00    -0.132 NA 
HETATM   15  C   UNL     1      -9.477   5.891  71.032  1.00  0.00    -0.165 A  
HETATM   16  N   UNL     1      -9.777   6.308  69.778  1.00  0.00    -0.159 NA 
HETATM   17  C   UNL     1     -10.102   7.552  69.662  1.00  0.00    -0.189 C  
HETATM   18  H   UNL     1      -9.749   5.678  68.977  1.00  0.00     0.000 HD 
HETATM   19  N   UNL     1     -10.228   8.561  70.589  1.00  0.00    -0.192 NA 
HETATM   20  C   UNL     1     -11.105   8.448  71.762  1.00  0.00    -0.290 C  
HETATM   21  H   UNL     1      -9.693   9.419  70.456  1.00  0.00     0.000 HD 
HETATM   22  C   UNL     1     -11.093   7.136  72.584  1.00  0.00    -0.292 C  
HETATM   23  O   UNL     1     -12.359   6.466  72.410  1.00  0.00    -0.529 OA 
HETATM   24  H   UNL     1     -13.081   7.054  72.600  1.00  0.00     0.000 HD 
ENDBRANCH   6  11
ENDBRANCH   2   4
TORSDOF 2
ENDMDL
MODEL      233
REMARK 921   NORMALIZED FREE ENERGY PREDICTED BY IDOCK:   -2.57 KCAL/MOL
REMARK 922        TOTAL FREE ENERGY PREDICTED BY IDOCK:   -3.56 KCAL/MOL
REMARK 923 INTER-LIGAND FREE ENERGY PREDICTED BY IDOCK:   -3.21 KCAL/MOL
REMARK 924 INTRA-LIGAND FREE ENERGY PREDICTED BY IDOCK:   -0.34 KCAL/MOL
REMARK 927      BINDING AFFINITY PREDICTED BY RF-SCORE:    0.00 PKD
ROOT
HETATM    1  O5* UNL     1      -6.446   5.344  67.778  1.00  0.00    -0.044 OA 
HETATM    2  C5* UNL     1      -7.669   4.941  68.395  1.00  0.00    -0.082 C  
HETATM    3  H5* UNL     1      -5.717   4.820  68.089  1.00  0.00     0.000 HD 
ENDROOT
BRANCH   2   4
HETATM    4  C4* UNL     1      -8.842   5.784  67.895  1.00  0.00    -0.108 C  
HETATM    5  O4* UNL     1      -8.815   7.075  68.531  1.00  0.00    -0.126 OA 
HETATM    6  C1* UNL     1      -9.399   8.020  67.615  1.00  0.00    -0.143 C  
HETATM    7  H3* UNL     1      -9.763   5.348  64.806  1.00  0.00     0.000 HD 
HETATM    8  C2* UNL     1      -9.150   7.484  66.210  1.00  0.00    -0.198 C  
HETATM    9  C3* UNL     1      -8.814   6.024  66.392  1.00  0.00    -0.136 C  
HETATM   10  O3* UNL     1      -9.780   5.198  65.744  1.00  0.00    -0.159 OA 
BRANCH   6  11
HETATM   11  N   UNL     1      -8.851   9.345  67.852  1.00  0.00    -0.124 NA 
HETATM   12  C   UNL     1      -7.648   9.649  68.425  1.00  0.00    -0.081 A  
HETATM   13  C   UNL     1      -8.592  11.508  67.967  1.00  0.00    -0.150 A  
HETATM   14  N   UNL     1      -7.455  10.946  68.506  1.00  0.00    -0.096 NA 
HETATM   15  C   UNL     1      -9.467  10.530  67.521  1.00  0.00    -0.149 A  
HETATM   16  N   UNL     1     -10.655  10.569  66.873  1.00  0.00    -0.253 NA 
HETATM   17  C   UNL     1     -10.791  11.515  66.005  1.00  0.00    -0.276 C  
HETATM   18  H   UNL     1     -11.396   9.894  67.059  1.00  0.00     0.000 HD 
HETATM   19  N   UNL     1      -9.953  12.533  65.613  1.00  0.00    -0.279 NA 
HETATM   20  C   UNL     1      -9.385  13.497  66.564  1.00  0.00    -0.215 C  
HETATM   21  H   UNL     1      -9.717  12.621  64.625  1.00  0.00     0.000 HD 
HETATM   22  C   UNL     1      -8.801  12.977  67.901  1.00  0.00    -0.193 C  
HETATM   23  O   UNL     1      -9.645  13.423  68.983  1.00  0.00    -0.401 OA 
HETATM   24  H   UNL     1      -9.779  14.362  68.941  1.00  0.00     0.000 HD 
ENDBRANCH   6  11
ENDBRANCH   2   4
TORSDOF 2
ENDMDL
MODEL      234
REMARK 921   NORMALIZED FREE ENERGY PREDICTED BY IDOCK:   -2.55 KCAL/MOL
REMARK 922        TOTAL FREE ENERGY PREDICTED BY IDOCK:   -3.54 KCAL/MOL
REMARK 923 INTER-LIGAND FREE ENERGY PREDICTED BY IDOCK:   -3.17 KCAL/MOL
REMARK 924 INTRA-LIGAND FREE ENERGY PREDICTED BY IDOCK:   -0.37 KCAL/MOL
REMARK 927      BINDING AFFINITY PREDICTED BY RF-SCORE:    0.00 PKD
ROOT
HETATM    1  O5* UNL     1      -9.758   2.150  67.751  1.00  0.00    -0.396 OA 
HETATM    2  C5* UNL     1      -9.151   1.981  69.033  1.00  0.00    -0.123 C  
HETATM    3  H5* UNL     1      -9.987   1.311  67.368  1.00  0.00     0.000 HD 
ENDROOT
BRANCH   2   4
HETATM    4  C4* UNL     1      -8.782   3.329  69.649  1.00  0.00    -0.073 C  
HETATM    5  O4* UNL     1      -8.613   4.308  68.607  1.00  0.00    -0.090 OA 
HETATM    6  C1* UNL     1      -8.967   5.591  69.157  1.00  0.00    -0.108 C  
HETATM    7  H3* UNL     1     -10.081   4.033  72.547  1.00  0.00     0.000 HD 
HETATM    8  C2* UNL     1      -9.981   5.332  70.264  1.00  0.00    -0.310 C  
HETATM    9  C3* UNL     1      -9.841   3.867  70.601  1.00  0.00    -0.122 C  
HETATM   10  O3* UNL     1      -9.420   3.698  71.953  1.00  0.00    -0.118 OA 
BRANCH   6  11
HETATM   11  N   UNL     1      -9.446   6.468  68.103  1.00  0.00    -0.116 NA 
HETATM   12  C   UNL     1     -10.741   6.640  67.699  1.00  0.00    -0.302 A  
HETATM   13  C   UNL     1      -9.542   7.896  66.457  1.00  0.00    -0.212 A  
HETATM   14  N   UNL     1     -10.838   7.499  66.709  1.00  0.00    -0.166 NA 
HETATM   15  C   UNL     1      -8.657   7.292  67.334  1.00  0.00    -0.121 A  
HETATM   16  N   UNL     1      -7.321   7.403  67.534  1.00  0.00    -0.099 NA 
HETATM   17  C   UNL     1      -6.825   8.583  67.368  1.00  0.00    -0.067 C  
HETATM   18  H   UNL     1      -6.745   6.605  67.798  1.00  0.00     0.000 HD 
HETATM   19  N   UNL     1      -7.395   9.779  66.996  1.00  0.00    -0.091 NA 
HETATM   20  C   UNL     1      -8.162   9.934  65.753  1.00  0.00    -0.125 C  
HETATM   21  H   UNL     1      -7.282  10.587  67.606  1.00  0.00     0.000 HD 
HETATM   22  C   UNL     1      -9.198   8.848  65.370  1.00  0.00    -0.136 C  
HETATM   23  O   UNL     1      -8.726   8.144  64.203  1.00  0.00    -0.395 OA 
HETATM   24  H   UNL     1      -8.505   8.753  63.508  1.00  0.00     0.000 HD 
ENDBRANCH   6  11
ENDBRANCH   2   4
TORSDOF 2
ENDMDL
MODEL      235
REMARK 921   NORMALIZED FREE ENERGY PREDICTED BY IDOCK:   -2.55 KCAL/MOL
REMARK 922        TOTAL FREE ENERGY PREDICTED BY IDOCK:   -3.54 KCAL/MOL
REMARK 923 INTER-LIGAND FREE ENERGY PREDICTED BY IDOCK:   -3.19 KCAL/MOL
REMARK 924 INTRA-LIGAND FREE ENERGY PREDICTED BY IDOCK:   -0.36 KCAL/MOL
REMARK 927      BINDING AFFINITY PREDICTED BY RF-SCORE:    0.00 PKD
ROOT
HETATM    1  O5* UNL     1     -11.824  11.435  67.859  1.00  0.00    -0.588 OA 
HETATM    2  C5* UNL     1     -10.600  12.150  67.687  1.00  0.00    -0.210 C  
HETATM    3  H5* UNL     1     -12.573  12.007  67.745  1.00  0.00     0.000 HD 
ENDROOT
BRANCH   2   4
HETATM    4  C4* UNL     1      -9.394  11.230  67.871  1.00  0.00    -0.161 C  
HETATM    5  O4* UNL     1      -9.844   9.901  68.196  1.00  0.00    -0.143 OA 
HETATM    6  C1* UNL     1      -8.864   8.977  67.687  1.00  0.00    -0.124 C  
HETATM    7  H3* UNL     1      -6.793  11.813  66.006  1.00  0.00     0.000 HD 
HETATM    8  C2* UNL     1      -8.203   9.648  66.490  1.00  0.00    -0.119 C  
HETATM    9  C3* UNL     1      -8.526  11.116  66.625  1.00  0.00    -0.164 C  
HETATM   10  O3* UNL     1      -7.335  11.883  66.784  1.00  0.00    -0.110 OA 
BRANCH   6  11
HETATM   11  N   UNL     1      -9.495   7.703  67.383  1.00  0.00    -0.139 NA 
HETATM   12  C   UNL     1     -10.777   7.499  66.955  1.00  0.00    -0.297 A  
HETATM   13  C   UNL     1      -9.875   5.571  67.120  1.00  0.00    -0.154 A  
HETATM   14  N   UNL     1     -11.041   6.224  66.781  1.00  0.00    -0.290 NA 
HETATM   15  C   UNL     1      -8.883   6.473  67.468  1.00  0.00    -0.112 A  
HETATM   16  N   UNL     1      -7.578   6.339  67.804  1.00  0.00    -0.099 NA 
HETATM   17  C   UNL     1      -6.934   5.403  67.190  1.00  0.00    -0.065 C  
HETATM   18  H   UNL     1      -7.132   6.939  68.497  1.00  0.00     0.000 HD 
HETATM   19  N   UNL     1      -7.327   4.475  66.254  1.00  0.00    -0.080 NA 
HETATM   20  C   UNL     1      -8.443   3.548  66.484  1.00  0.00    -0.108 C  
HETATM   21  H   UNL     1      -6.826   4.430  65.367  1.00  0.00     0.000 HD 
HETATM   22  C   UNL     1      -9.756   4.091  67.099  1.00  0.00    -0.166 C  
HETATM   23  O   UNL     1      -9.908   3.547  68.426  1.00  0.00    -0.057 OA 
HETATM   24  H   UNL     1      -9.832   2.600  68.413  1.00  0.00     0.000 HD 
ENDBRANCH   6  11
ENDBRANCH   2   4
TORSDOF 2
ENDMDL
MODEL      236
REMARK 921   NORMALIZED FREE ENERGY PREDICTED BY IDOCK:   -2.51 KCAL/MOL
REMARK 922        TOTAL FREE ENERGY PREDICTED BY IDOCK:   -3.49 KCAL/MOL
REMARK 923 INTER-LIGAND FREE ENERGY PREDICTED BY IDOCK:   -2.99 KCAL/MOL
REMARK 924 INTRA-LIGAND FREE ENERGY PREDICTED BY IDOCK:   -0.50 KCAL/MOL
REMARK 927      BINDING AFFINITY PREDICTED BY RF-SCORE:    0.00 PKD
ROOT
HETATM    1  O5* UNL     1     -11.884   8.262  71.224  1.00  0.00    -0.282 OA 
HETATM    2  C5* UNL     1     -10.496   8.145  70.907  1.00  0.00    -0.202 C  
HETATM    3  H5* UNL     1     -12.022   8.253  72.164  1.00  0.00     0.000 HD 
ENDROOT
BRANCH   2   4
HETATM    4  C4* UNL     1     -10.274   8.159  69.395  1.00  0.00    -0.211 C  
HETATM    5  O4* UNL     1      -9.814   9.460  68.986  1.00  0.00    -0.160 OA 
HETATM    6  C1* UNL     1      -8.983   9.278  67.824  1.00  0.00    -0.126 C  
HETATM    7  H3* UNL     1      -9.225   5.399  68.032  1.00  0.00     0.000 HD 
HETATM    8  C2* UNL     1      -8.377   7.884  67.927  1.00  0.00    -0.126 C  
HETATM    9  C3* UNL     1      -9.234   7.149  68.929  1.00  0.00    -0.137 C  
HETATM   10  O3* UNL     1      -9.874   6.028  68.322  1.00  0.00    -0.123 OA 
BRANCH   6  11
HETATM   11  N   UNL     1      -8.003  10.349  67.743  1.00  0.00    -0.102 NA 
HETATM   12  C   UNL     1      -6.675  10.229  67.439  1.00  0.00    -0.072 A  
HETATM   13  C   UNL     1      -7.034  12.302  67.801  1.00  0.00    -0.115 A  
HETATM   14  N   UNL     1      -6.059  11.390  67.461  1.00  0.00    -0.058 NA 
HETATM   15  C   UNL     1      -8.264  11.683  67.952  1.00  0.00    -0.141 A  
HETATM   16  N   UNL     1      -9.513  12.142  68.209  1.00  0.00    -0.207 NA 
HETATM   17  C   UNL     1      -9.811  13.284  67.685  1.00  0.00    -0.230 C  
HETATM   18  H   UNL     1     -10.175  11.618  68.780  1.00  0.00     0.000 HD 
HETATM   19  N   UNL     1      -9.084  14.161  66.914  1.00  0.00    -0.241 NA 
HETATM   20  C   UNL     1      -7.790  14.705  67.348  1.00  0.00    -0.202 C  
HETATM   21  H   UNL     1      -9.457  14.445  66.009  1.00  0.00     0.000 HD 
HETATM   22  C   UNL     1      -6.746  13.749  67.975  1.00  0.00    -0.139 C  
HETATM   23  O   UNL     1      -6.594  14.077  69.372  1.00  0.00    -0.112 OA 
HETATM   24  H   UNL     1      -6.410  15.002  69.483  1.00  0.00     0.000 HD 
ENDBRANCH   6  11
ENDBRANCH   2   4
TORSDOF 2
ENDMDL
MODEL      237
REMARK 921   NORMALIZED FREE ENERGY PREDICTED BY IDOCK:   -2.51 KCAL/MOL
REMARK 922        TOTAL FREE ENERGY PREDICTED BY IDOCK:   -3.49 KCAL/MOL
REMARK 923 INTER-LIGAND FREE ENERGY PREDICTED BY IDOCK:   -2.74 KCAL/MOL
REMARK 924 INTRA-LIGAND FREE ENERGY PREDICTED BY IDOCK:   -0.75 KCAL/MOL
REMARK 927      BINDING AFFINITY PREDICTED BY RF-SCORE:    0.00 PKD
ROOT
HETATM    1  O5* UNL     1     -10.884   5.696  69.626  1.00  0.00    -0.337 OA 
HETATM    2  C5* UNL     1     -10.778   6.204  70.957  1.00  0.00    -0.260 C  
HETATM    3  H5* UNL     1     -11.786   5.494  69.408  1.00  0.00     0.000 HD 
ENDROOT
BRANCH   2   4
HETATM    4  C4* UNL     1      -9.327   6.528  71.309  1.00  0.00    -0.155 C  
HETATM    5  O4* UNL     1      -8.496   6.349  70.147  1.00  0.00    -0.131 OA 
HETATM    6  C1* UNL     1      -7.393   7.268  70.260  1.00  0.00    -0.082 C  
HETATM    7  H3* UNL     1      -8.829   8.880  73.499  1.00  0.00     0.000 HD 
HETATM    8  C2* UNL     1      -7.885   8.451  71.084  1.00  0.00    -0.117 C  
HETATM    9  C3* UNL     1      -9.128   7.960  71.786  1.00  0.00    -0.147 C  
HETATM   10  O3* UNL     1      -8.953   7.987  73.201  1.00  0.00    -0.215 OA 
BRANCH   6  11
HETATM   11  N   UNL     1      -6.906   7.625  68.938  1.00  0.00    -0.060 NA 
HETATM   12  C   UNL     1      -5.604   7.683  68.526  1.00  0.00    -0.027 A  
HETATM   13  C   UNL     1      -6.799   8.247  66.850  1.00  0.00    -0.069 A  
HETATM   14  N   UNL     1      -5.501   8.051  67.269  1.00  0.00    -0.036 NA 
HETATM   15  C   UNL     1      -7.698   7.957  67.862  1.00  0.00    -0.125 A  
HETATM   16  N   UNL     1      -9.051   7.929  67.927  1.00  0.00    -0.132 NA 
HETATM   17  C   UNL     1      -9.656   7.526  66.860  1.00  0.00    -0.187 C  
HETATM   18  H   UNL     1      -9.559   8.209  68.766  1.00  0.00     0.000 HD 
HETATM   19  N   UNL     1      -9.187   7.129  65.629  1.00  0.00    -0.375 NA 
HETATM   20  C   UNL     1      -8.317   7.980  64.806  1.00  0.00    -0.077 C  
HETATM   21  H   UNL     1      -9.454   6.211  65.275  1.00  0.00     0.000 HD 
HETATM   22  C   UNL     1      -7.132   8.714  65.479  1.00  0.00    -0.083 C  
HETATM   23  O   UNL     1      -7.398  10.132  65.472  1.00  0.00    -0.130 OA 
HETATM   24  H   UNL     1      -7.611  10.431  64.596  1.00  0.00     0.000 HD 
ENDBRANCH   6  11
ENDBRANCH   2   4
TORSDOF 2
ENDMDL
MODEL      238
REMARK 921   NORMALIZED FREE ENERGY PREDICTED BY IDOCK:   -2.43 KCAL/MOL
REMARK 922        TOTAL FREE ENERGY PREDICTED BY IDOCK:   -3.40 KCAL/MOL
REMARK 923 INTER-LIGAND FREE ENERGY PREDICTED BY IDOCK:   -2.75 KCAL/MOL
REMARK 924 INTRA-LIGAND FREE ENERGY PREDICTED BY IDOCK:   -0.65 KCAL/MOL
REMARK 927      BINDING AFFINITY PREDICTED BY RF-SCORE:    0.00 PKD
ROOT
HETATM    1  O5* UNL     1      -9.892   9.689  69.768  1.00  0.00    -0.199 OA 
HETATM    2  C5* UNL     1     -10.659   9.017  68.768  1.00  0.00    -0.169 C  
HETATM    3  H5* UNL     1      -9.848  10.622  69.596  1.00  0.00     0.000 HD 
ENDROOT
BRANCH   2   4
HETATM    4  C4* UNL     1     -10.729   7.516  69.043  1.00  0.00    -0.134 C  
HETATM    5  O4* UNL     1     -10.723   6.795  67.797  1.00  0.00    -0.220 OA 
HETATM    6  C1* UNL     1     -10.100   5.519  68.040  1.00  0.00    -0.175 C  
HETATM    7  H3* UNL     1      -9.236   6.435  71.724  1.00  0.00     0.000 HD 
HETATM    8  C2* UNL     1      -9.130   5.713  69.199  1.00  0.00    -0.126 C  
HETATM    9  C3* UNL     1      -9.557   6.999  69.866  1.00  0.00    -0.159 C  
HETATM   10  O3* UNL     1      -9.968   6.758  71.211  1.00  0.00    -0.178 OA 
BRANCH   6  11
HETATM   11  N   UNL     1      -9.480   5.029  66.820  1.00  0.00    -0.134 NA 
HETATM   12  C   UNL     1      -9.666   3.808  66.234  1.00  0.00    -0.121 A  
HETATM   13  C   UNL     1      -8.258   4.859  65.022  1.00  0.00    -0.129 A  
HETATM   14  N   UNL     1      -8.947   3.672  65.143  1.00  0.00    -0.127 NA 
HETATM   15  C   UNL     1      -8.596   5.737  66.038  1.00  0.00    -0.139 A  
HETATM   16  N   UNL     1      -8.254   7.018  66.316  1.00  0.00    -0.114 NA 
HETATM   17  C   UNL     1      -8.087   7.789  65.294  1.00  0.00    -0.133 C  
HETATM   18  H   UNL     1      -8.135   7.352  67.272  1.00  0.00     0.000 HD 
HETATM   19  N   UNL     1      -8.169   7.555  63.940  1.00  0.00    -0.354 NA 
HETATM   20  C   UNL     1      -7.382   6.510  63.272  1.00  0.00    -0.067 C  
HETATM   21  H   UNL     1      -8.799   8.129  63.381  1.00  0.00     0.000 HD 
HETATM   22  C   UNL     1      -7.287   5.109  63.925  1.00  0.00    -0.052 C  
HETATM   23  O   UNL     1      -5.935   4.898  64.381  1.00  0.00    -0.020 OA 
HETATM   24  H   UNL     1      -5.314   5.058  63.680  1.00  0.00     0.000 HD 
ENDBRANCH   6  11
ENDBRANCH   2   4
TORSDOF 2
ENDMDL
MODEL      239
REMARK 921   NORMALIZED FREE ENERGY PREDICTED BY IDOCK:   -2.35 KCAL/MOL
REMARK 922        TOTAL FREE ENERGY PREDICTED BY IDOCK:   -3.32 KCAL/MOL
REMARK 923 INTER-LIGAND FREE ENERGY PREDICTED BY IDOCK:   -2.98 KCAL/MOL
REMARK 924 INTRA-LIGAND FREE ENERGY PREDICTED BY IDOCK:   -0.34 KCAL/MOL
REMARK 927      BINDING AFFINITY PREDICTED BY RF-SCORE:    0.00 PKD
ROOT
HETATM    1  O5* UNL     1      -9.360  11.883  66.635  1.00  0.00    -0.194 OA 
HETATM    2  C5* UNL     1      -9.169  11.531  68.006  1.00  0.00    -0.175 C  
HETATM    3  H5* UNL     1      -8.920  12.699  66.427  1.00  0.00     0.000 HD 
ENDROOT
BRANCH   2   4
HETATM    4  C4* UNL     1      -9.877  10.218  68.341  1.00  0.00    -0.156 C  
HETATM    5  O4* UNL     1      -9.436   9.187  67.438  1.00  0.00    -0.138 OA 
HETATM    6  C1* UNL     1      -9.518   7.933  68.142  1.00  0.00    -0.147 C  
HETATM    7  H3* UNL     1     -10.552   9.663  71.473  1.00  0.00     0.000 HD 
HETATM    8  C2* UNL     1      -9.338   8.245  69.622  1.00  0.00    -0.158 C  
HETATM    9  C3* UNL     1      -9.598   9.727  69.754  1.00  0.00    -0.230 C  
HETATM   10  O3* UNL     1     -10.726   9.970  70.591  1.00  0.00    -0.303 OA 
BRANCH   6  11
HETATM   11  N   UNL     1      -8.542   6.999  67.608  1.00  0.00    -0.122 NA 
HETATM   12  C   UNL     1      -7.195   6.988  67.845  1.00  0.00    -0.091 A  
HETATM   13  C   UNL     1      -7.592   5.374  66.506  1.00  0.00    -0.088 A  
HETATM   14  N   UNL     1      -6.590   6.017  67.199  1.00  0.00    -0.054 NA 
HETATM   15  C   UNL     1      -8.825   5.946  66.768  1.00  0.00    -0.118 A  
HETATM   16  N   UNL     1     -10.092   5.644  66.395  1.00  0.00    -0.275 NA 
HETATM   17  C   UNL     1     -10.360   4.385  66.285  1.00  0.00    -0.101 C  
HETATM   18  H   UNL     1     -10.789   6.364  66.211  1.00  0.00     0.000 HD 
HETATM   19  N   UNL     1      -9.586   3.261  66.457  1.00  0.00    -0.402 NA 
HETATM   20  C   UNL     1      -8.329   3.050  65.726  1.00  0.00    -0.101 C  
HETATM   21  H   UNL     1      -9.897   2.547  67.115  1.00  0.00     0.000 HD 
HETATM   22  C   UNL     1      -7.326   4.223  65.605  1.00  0.00    -0.077 C  
HETATM   23  O   UNL     1      -7.274   4.651  64.229  1.00  0.00    -0.053 OA 
HETATM   24  H   UNL     1      -7.104   3.915  63.652  1.00  0.00     0.000 HD 
ENDBRANCH   6  11
ENDBRANCH   2   4
TORSDOF 2
ENDMDL
MODEL      240
REMARK 921   NORMALIZED FREE ENERGY PREDICTED BY IDOCK:   -2.33 KCAL/MOL
REMARK 922        TOTAL FREE ENERGY PREDICTED BY IDOCK:   -3.29 KCAL/MOL
REMARK 923 INTER-LIGAND FREE ENERGY PREDICTED BY IDOCK:   -3.02 KCAL/MOL
REMARK 924 INTRA-LIGAND FREE ENERGY PREDICTED BY IDOCK:   -0.28 KCAL/MOL
REMARK 927      BINDING AFFINITY PREDICTED BY RF-SCORE:    0.00 PKD
ROOT
HETATM    1  O5* UNL     1     -12.154  10.291  69.320  1.00  0.00    -0.522 OA 
HETATM    2  C5* UNL     1     -10.810  10.352  68.842  1.00  0.00    -0.236 C  
HETATM    3  H5* UNL     1     -12.773  10.504  68.631  1.00  0.00     0.000 HD 
ENDROOT
BRANCH   2   4
HETATM    4  C4* UNL     1      -9.815  10.010  69.951  1.00  0.00    -0.224 C  
HETATM    5  O4* UNL     1     -10.316   8.904  70.725  1.00  0.00    -0.199 OA 
HETATM    6  C1* UNL     1      -9.178   8.180  71.229  1.00  0.00    -0.156 C  
HETATM    7  H3* UNL     1      -6.659  10.418  69.280  1.00  0.00     0.000 HD 
HETATM    8  C2* UNL     1      -8.041   8.399  70.240  1.00  0.00    -0.104 C  
HETATM    9  C3* UNL     1      -8.444   9.605  69.426  1.00  0.00    -0.156 C  
HETATM   10  O3* UNL     1      -7.514  10.671  69.607  1.00  0.00    -0.150 OA 
BRANCH   6  11
HETATM   11  N   UNL     1      -9.529   6.785  71.434  1.00  0.00    -0.161 NA 
HETATM   12  C   UNL     1     -10.548   6.095  70.839  1.00  0.00    -0.242 A  
HETATM   13  C   UNL     1      -9.577   4.728  72.160  1.00  0.00    -0.153 A  
HETATM   14  N   UNL     1     -10.605   4.848  71.250  1.00  0.00    -0.092 NA 
HETATM   15  C   UNL     1      -8.869   5.913  72.270  1.00  0.00    -0.138 A  
HETATM   16  N   UNL     1      -7.761   6.276  72.960  1.00  0.00    -0.099 NA 
HETATM   17  C   UNL     1      -6.851   5.368  73.080  1.00  0.00    -0.079 C  
HETATM   18  H   UNL     1      -7.653   7.208  73.360  1.00  0.00     0.000 HD 
HETATM   19  N   UNL     1      -6.792   4.062  72.653  1.00  0.00    -0.048 NA 
HETATM   20  C   UNL     1      -7.818   3.071  73.003  1.00  0.00    -0.056 C  
HETATM   21  H   UNL     1      -6.006   3.771  72.072  1.00  0.00     0.000 HD 
HETATM   22  C   UNL     1      -9.311   3.468  72.900  1.00  0.00    -0.100 C  
HETATM   23  O   UNL     1      -9.870   3.527  74.228  1.00  0.00    -0.104 OA 
HETATM   24  H   UNL     1      -9.700   2.721  74.702  1.00  0.00     0.000 HD 
ENDBRANCH   6  11
ENDBRANCH   2   4
TORSDOF 2
ENDMDL
MODEL      241
REMARK 921   NORMALIZED FREE ENERGY PREDICTED BY IDOCK:   -2.32 KCAL/MOL
REMARK 922        TOTAL FREE ENERGY PREDICTED BY IDOCK:   -3.28 KCAL/MOL
REMARK 923 INTER-LIGAND FREE ENERGY PREDICTED BY IDOCK:   -2.62 KCAL/MOL
REMARK 924 INTRA-LIGAND FREE ENERGY PREDICTED BY IDOCK:   -0.66 KCAL/MOL
REMARK 927      BINDING AFFINITY PREDICTED BY RF-SCORE:    0.00 PKD
ROOT
HETATM    1  O5* UNL     1      -9.158   2.551  69.156  1.00  0.00    -0.101 OA 
HETATM    2  C5* UNL     1      -8.539   3.717  68.611  1.00  0.00    -0.094 C  
HETATM    3  H5* UNL     1      -9.689   2.109  68.504  1.00  0.00     0.000 HD 
ENDROOT
BRANCH   2   4
HETATM    4  C4* UNL     1      -7.685   4.429  69.660  1.00  0.00    -0.054 C  
HETATM    5  O4* UNL     1      -7.604   5.832  69.347  1.00  0.00    -0.084 OA 
HETATM    6  C1* UNL     1      -7.453   6.543  70.590  1.00  0.00    -0.080 C  
HETATM    7  H3* UNL     1      -7.841   3.298  72.705  1.00  0.00     0.000 HD 
HETATM    8  C2* UNL     1      -8.119   5.697  71.667  1.00  0.00    -0.118 C  
HETATM    9  C3* UNL     1      -8.245   4.315  71.071  1.00  0.00    -0.076 C  
HETATM   10  O3* UNL     1      -7.491   3.368  71.825  1.00  0.00    -0.049 OA 
BRANCH   6  11
HETATM   11  N   UNL     1      -7.998   7.884  70.464  1.00  0.00    -0.095 NA 
HETATM   12  C   UNL     1      -7.370   9.061  70.761  1.00  0.00    -0.106 A  
HETATM   13  C   UNL     1      -9.333   9.569  70.096  1.00  0.00    -0.247 A  
HETATM   14  N   UNL     1      -8.144  10.100  70.547  1.00  0.00    -0.004 NA 
HETATM   15  C   UNL     1      -9.259   8.189  70.004  1.00  0.00    -0.155 A  
HETATM   16  N   UNL     1     -10.115   7.237  69.562  1.00  0.00    -0.178 NA 
HETATM   17  C   UNL     1     -10.852   7.568  68.554  1.00  0.00     0.015 C  
HETATM   18  H   UNL     1     -10.175   6.318  69.998  1.00  0.00     0.000 HD 
HETATM   19  N   UNL     1     -10.957   8.736  67.835  1.00  0.00    -0.491 NA 
HETATM   20  C   UNL     1     -11.255  10.028  68.468  1.00  0.00    -0.123 C  
HETATM   21  H   UNL     1     -10.824   8.704  66.825  1.00  0.00     0.000 HD 
HETATM   22  C   UNL     1     -10.511  10.414  69.770  1.00  0.00    -0.240 C  
HETATM   23  O   UNL     1     -11.454  10.421  70.861  1.00  0.00    -0.344 OA 
HETATM   24  H   UNL     1     -12.207  10.961  70.653  1.00  0.00     0.000 HD 
ENDBRANCH   6  11
ENDBRANCH   2   4
TORSDOF 2
ENDMDL
MODEL      242
REMARK 921   NORMALIZED FREE ENERGY PREDICTED BY IDOCK:   -2.26 KCAL/MOL
REMARK 922        TOTAL FREE ENERGY PREDICTED BY IDOCK:   -3.22 KCAL/MOL
REMARK 923 INTER-LIGAND FREE ENERGY PREDICTED BY IDOCK:   -3.25 KCAL/MOL
REMARK 924 INTRA-LIGAND FREE ENERGY PREDICTED BY IDOCK:    0.03 KCAL/MOL
REMARK 927      BINDING AFFINITY PREDICTED BY RF-SCORE:    0.00 PKD
ROOT
HETATM    1  O5* UNL     1      -8.291   3.693  68.413  1.00  0.00    -0.080 OA 
HETATM    2  C5* UNL     1      -7.809   4.926  67.878  1.00  0.00    -0.086 C  
HETATM    3  H5* UNL     1      -8.300   3.013  67.749  1.00  0.00     0.000 HD 
ENDROOT
BRANCH   2   4
HETATM    4  C4* UNL     1      -7.795   6.021  68.945  1.00  0.00    -0.096 C  
HETATM    5  O4* UNL     1      -7.513   7.292  68.330  1.00  0.00    -0.097 OA 
HETATM    6  C1* UNL     1      -8.167   8.306  69.116  1.00  0.00    -0.121 C  
HETATM    7  H3* UNL     1      -9.851   5.676  71.441  1.00  0.00     0.000 HD 
HETATM    8  C2* UNL     1      -9.376   7.648  69.769  1.00  0.00    -0.150 C  
HETATM    9  C3* UNL     1      -9.120   6.163  69.681  1.00  0.00    -0.137 C  
HETATM   10  O3* UNL     1      -9.024   5.588  70.982  1.00  0.00    -0.137 OA 
BRANCH   6  11
HETATM   11  N   UNL     1      -8.491   9.450  68.280  1.00  0.00    -0.119 NA 
HETATM   12  C   UNL     1      -8.078   9.676  66.997  1.00  0.00    -0.113 A  
HETATM   13  C   UNL     1      -9.277  11.351  67.556  1.00  0.00    -0.160 A  
HETATM   14  N   UNL     1      -8.538  10.813  66.525  1.00  0.00    -0.145 NA 
HETATM   15  C   UNL     1      -9.291  10.505  68.652  1.00  0.00    -0.172 A  
HETATM   16  N   UNL     1      -9.915  10.548  69.854  1.00  0.00    -0.424 NA 
HETATM   17  C   UNL     1     -11.098  11.064  69.856  1.00  0.00    -0.205 C  
HETATM   18  H   UNL     1      -9.476  10.196  70.705  1.00  0.00     0.000 HD 
HETATM   19  N   UNL     1     -11.864  11.614  68.854  1.00  0.00    -0.325 NA 
HETATM   20  C   UNL     1     -11.388  12.724  68.017  1.00  0.00    -0.292 C  
HETATM   21  H   UNL     1     -12.796  11.238  68.686  1.00  0.00     0.000 HD 
HETATM   22  C   UNL     1      -9.948  12.672  67.450  1.00  0.00    -0.204 C  
HETATM   23  O   UNL     1      -9.160  13.698  68.088  1.00  0.00    -0.185 OA 
HETATM   24  H   UNL     1      -9.588  14.544  68.021  1.00  0.00     0.000 HD 
ENDBRANCH   6  11
ENDBRANCH   2   4
TORSDOF 2
ENDMDL
MODEL      243
REMARK 921   NORMALIZED FREE ENERGY PREDICTED BY IDOCK:   -2.25 KCAL/MOL
REMARK 922        TOTAL FREE ENERGY PREDICTED BY IDOCK:   -3.20 KCAL/MOL
REMARK 923 INTER-LIGAND FREE ENERGY PREDICTED BY IDOCK:   -2.85 KCAL/MOL
REMARK 924 INTRA-LIGAND FREE ENERGY PREDICTED BY IDOCK:   -0.35 KCAL/MOL
REMARK 927      BINDING AFFINITY PREDICTED BY RF-SCORE:    0.00 PKD
ROOT
HETATM    1  O5* UNL     1      -7.410   9.093  64.395  1.00  0.00    -0.097 OA 
HETATM    2  C5* UNL     1      -7.077  10.443  64.724  1.00  0.00    -0.033 C  
HETATM    3  H5* UNL     1      -6.854   8.763  63.699  1.00  0.00     0.000 HD 
ENDROOT
BRANCH   2   4
HETATM    4  C4* UNL     1      -7.972  10.974  65.843  1.00  0.00    -0.054 C  
HETATM    5  O4* UNL     1      -8.698   9.884  66.441  1.00  0.00    -0.130 OA 
HETATM    6  C1* UNL     1      -8.936  10.229  67.819  1.00  0.00    -0.134 C  
HETATM    7  H3* UNL     1      -6.854  13.507  67.550  1.00  0.00     0.000 HD 
HETATM    8  C2* UNL     1      -7.807  11.158  68.244  1.00  0.00    -0.123 C  
HETATM    9  C3* UNL     1      -7.197  11.663  66.958  1.00  0.00    -0.143 C  
HETATM   10  O3* UNL     1      -7.337  13.078  66.854  1.00  0.00     0.082 OA 
BRANCH   6  11
HETATM   11  N   UNL     1      -9.049   9.022  68.620  1.00  0.00    -0.137 NA 
HETATM   12  C   UNL     1      -8.084   8.075  68.825  1.00  0.00    -0.125 A  
HETATM   13  C   UNL     1      -9.813   7.424  69.894  1.00  0.00    -0.178 A  
HETATM   14  N   UNL     1      -8.508   7.098  69.593  1.00  0.00    -0.133 NA 
HETATM   15  C   UNL     1     -10.166   8.637  69.326  1.00  0.00    -0.211 A  
HETATM   16  N   UNL     1     -11.282   9.402  69.381  1.00  0.00    -0.436 NA 
HETATM   17  C   UNL     1     -11.905   9.406  70.512  1.00  0.00    -0.151 C  
HETATM   18  H   UNL     1     -11.610   9.942  68.581  1.00  0.00     0.000 HD 
HETATM   19  N   UNL     1     -11.665   8.750  71.698  1.00  0.00    -0.308 NA 
HETATM   20  C   UNL     1     -11.539   7.289  71.779  1.00  0.00    -0.275 C  
HETATM   21  H   UNL     1     -11.572   9.299  72.552  1.00  0.00     0.000 HD 
HETATM   22  C   UNL     1     -10.683   6.550  70.722  1.00  0.00    -0.241 C  
HETATM   23  O   UNL     1     -11.553   5.758  69.888  1.00  0.00    -0.024 OA 
HETATM   24  H   UNL     1     -12.110   5.198  70.417  1.00  0.00     0.000 HD 
ENDBRANCH   6  11
ENDBRANCH   2   4
TORSDOF 2
ENDMDL
MODEL      244
REMARK 921   NORMALIZED FREE ENERGY PREDICTED BY IDOCK:   -1.96 KCAL/MOL
REMARK 922        TOTAL FREE ENERGY PREDICTED BY IDOCK:   -2.88 KCAL/MOL
REMARK 923 INTER-LIGAND FREE ENERGY PREDICTED BY IDOCK:   -2.63 KCAL/MOL
REMARK 924 INTRA-LIGAND FREE ENERGY PREDICTED BY IDOCK:   -0.26 KCAL/MOL
REMARK 927      BINDING AFFINITY PREDICTED BY RF-SCORE:    0.00 PKD
ROOT
HETATM    1  O5* UNL     1      -9.489   7.050  71.476  1.00  0.00    -0.155 OA 
HETATM    2  C5* UNL     1      -8.463   7.862  70.902  1.00  0.00    -0.126 C  
HETATM    3  H5* UNL     1      -9.426   7.038  72.423  1.00  0.00     0.000 HD 
ENDROOT
BRANCH   2   4
HETATM    4  C4* UNL     1      -8.565   7.882  69.378  1.00  0.00    -0.137 C  
HETATM    5  O4* UNL     1      -7.845   6.761  68.830  1.00  0.00    -0.107 OA 
HETATM    6  C1* UNL     1      -8.492   6.394  67.597  1.00  0.00    -0.117 C  
HETATM    7  H3* UNL     1     -11.334   9.006  68.096  1.00  0.00     0.000 HD 
HETATM    8  C2* UNL     1      -9.954   6.800  67.726  1.00  0.00    -0.167 C  
HETATM    9  C3* UNL     1      -9.996   7.788  68.867  1.00  0.00    -0.182 C  
HETATM   10  O3* UNL     1     -10.442   9.065  68.415  1.00  0.00    -0.206 OA 
BRANCH   6  11
HETATM   11  N   UNL     1      -8.288   4.980  67.332  1.00  0.00    -0.106 NA 
HETATM   12  C   UNL     1      -7.834   4.033  68.208  1.00  0.00    -0.069 A  
HETATM   13  C   UNL     1      -8.164   3.035  66.350  1.00  0.00    -0.087 A  
HETATM   14  N   UNL     1      -7.751   2.846  67.652  1.00  0.00    -0.064 NA 
HETATM   15  C   UNL     1      -8.536   4.352  66.133  1.00  0.00    -0.113 A  
HETATM   16  N   UNL     1      -9.061   5.008  65.070  1.00  0.00    -0.256 NA 
HETATM   17  C   UNL     1      -9.895   4.335  64.351  1.00  0.00    -0.100 C  
HETATM   18  H   UNL     1      -8.812   5.973  64.853  1.00  0.00     0.000 HD 
HETATM   19  N   UNL     1     -10.352   3.041  64.438  1.00  0.00    -0.398 NA 
HETATM   20  C   UNL     1      -9.446   1.885  64.457  1.00  0.00    -0.109 C  
HETATM   21  H   UNL     1     -11.357   2.878  64.492  1.00  0.00     0.000 HD 
HETATM   22  C   UNL     1      -8.184   1.935  65.353  1.00  0.00    -0.083 C  
HETATM   23  O   UNL     1      -7.016   1.989  64.508  1.00  0.00    -0.044 OA 
HETATM   24  H   UNL     1      -7.028   1.285  63.870  1.00  0.00     0.000 HD 
ENDBRANCH   6  11
ENDBRANCH   2   4
TORSDOF 2
ENDMDL
MODEL      245
REMARK 921   NORMALIZED FREE ENERGY PREDICTED BY IDOCK:   -1.90 KCAL/MOL
REMARK 922        TOTAL FREE ENERGY PREDICTED BY IDOCK:   -2.81 KCAL/MOL
REMARK 923 INTER-LIGAND FREE ENERGY PREDICTED BY IDOCK:   -2.63 KCAL/MOL
REMARK 924 INTRA-LIGAND FREE ENERGY PREDICTED BY IDOCK:   -0.17 KCAL/MOL
REMARK 927      BINDING AFFINITY PREDICTED BY RF-SCORE:    0.00 PKD
ROOT
HETATM    1  O5* UNL     1     -10.705   5.778  67.408  1.00  0.00    -0.255 OA 
HETATM    2  C5* UNL     1      -9.816   4.681  67.196  1.00  0.00    -0.195 C  
HETATM    3  H5* UNL     1     -11.590   5.558  67.141  1.00  0.00     0.000 HD 
ENDROOT
BRANCH   2   4
HETATM    4  C4* UNL     1      -8.393   5.034  67.625  1.00  0.00    -0.105 C  
HETATM    5  O4* UNL     1      -8.430   5.794  68.847  1.00  0.00    -0.103 OA 
HETATM    6  C1* UNL     1      -7.215   5.513  69.568  1.00  0.00    -0.065 C  
HETATM    7  H3* UNL     1      -6.067   2.860  66.960  1.00  0.00     0.000 HD 
HETATM    8  C2* UNL     1      -6.773   4.113  69.160  1.00  0.00    -0.045 C  
HETATM    9  C3* UNL     1      -7.520   3.814  67.882  1.00  0.00    -0.066 C  
HETATM   10  O3* UNL     1      -6.612   3.621  66.799  1.00  0.00    -0.040 OA 
BRANCH   6  11
HETATM   11  N   UNL     1      -7.436   5.675  70.995  1.00  0.00    -0.087 NA 
HETATM   12  C   UNL     1      -6.484   5.732  71.975  1.00  0.00    -0.053 A  
HETATM   13  C   UNL     1      -8.375   5.902  72.951  1.00  0.00    -0.118 A  
HETATM   14  N   UNL     1      -7.014   5.873  73.169  1.00  0.00    -0.083 NA 
HETATM   15  C   UNL     1      -8.664   5.813  71.599  1.00  0.00    -0.136 A  
HETATM   16  N   UNL     1      -9.816   5.864  70.888  1.00  0.00    -0.175 NA 
HETATM   17  C   UNL     1     -10.719   6.669  71.338  1.00  0.00    -0.229 C  
HETATM   18  H   UNL     1      -9.960   5.302  70.049  1.00  0.00     0.000 HD 
HETATM   19  N   UNL     1     -10.753   7.492  72.440  1.00  0.00    -0.243 NA 
HETATM   20  C   UNL     1     -10.528   6.993  73.803  1.00  0.00    -0.354 C  
HETATM   21  H   UNL     1     -10.941   8.485  72.305  1.00  0.00     0.000 HD 
HETATM   22  C   UNL     1      -9.357   6.012  74.059  1.00  0.00    -0.135 C  
HETATM   23  O   UNL     1      -9.898   4.718  74.394  1.00  0.00    -0.144 OA 
HETATM   24  H   UNL     1     -10.527   4.788  75.103  1.00  0.00     0.000 HD 
ENDBRANCH   6  11
ENDBRANCH   2   4
TORSDOF 2
ENDMDL
MODEL      246
REMARK 921   NORMALIZED FREE ENERGY PREDICTED BY IDOCK:   -1.89 KCAL/MOL
REMARK 922        TOTAL FREE ENERGY PREDICTED BY IDOCK:   -2.80 KCAL/MOL
REMARK 923 INTER-LIGAND FREE ENERGY PREDICTED BY IDOCK:   -2.46 KCAL/MOL
REMARK 924 INTRA-LIGAND FREE ENERGY PREDICTED BY IDOCK:   -0.34 KCAL/MOL
REMARK 927      BINDING AFFINITY PREDICTED BY RF-SCORE:    0.00 PKD
ROOT
HETATM    1  O5* UNL     1     -10.430  13.469  67.211  1.00  0.00    -0.246 OA 
HETATM    2  C5* UNL     1     -10.720  12.590  68.299  1.00  0.00    -0.228 C  
HETATM    3  H5* UNL     1     -10.374  14.370  67.506  1.00  0.00     0.000 HD 
ENDROOT
BRANCH   2   4
HETATM    4  C4* UNL     1     -10.811  11.139  67.826  1.00  0.00    -0.239 C  
HETATM    5  O4* UNL     1      -9.932  10.941  66.702  1.00  0.00    -0.195 OA 
HETATM    6  C1* UNL     1      -9.500   9.568  66.730  1.00  0.00    -0.167 C  
HETATM    7  H3* UNL     1     -11.317   8.872  70.102  1.00  0.00     0.000 HD 
HETATM    8  C2* UNL     1      -9.535   9.123  68.187  1.00  0.00    -0.155 C  
HETATM    9  C3* UNL     1     -10.409  10.131  68.893  1.00  0.00    -0.206 C  
HETATM   10  O3* UNL     1     -11.568   9.502  69.437  1.00  0.00     0.056 OA 
BRANCH   6  11
HETATM   11  N   UNL     1      -8.195   9.445  66.102  1.00  0.00    -0.110 NA 
HETATM   12  C   UNL     1      -7.088  10.210  66.344  1.00  0.00    -0.107 A  
HETATM   13  C   UNL     1      -6.541   8.806  64.832  1.00  0.00    -0.069 A  
HETATM   14  N   UNL     1      -6.068   9.850  65.599  1.00  0.00    -0.069 NA 
HETATM   15  C   UNL     1      -7.856   8.512  65.149  1.00  0.00    -0.116 A  
HETATM   16  N   UNL     1      -8.723   7.556  64.736  1.00  0.00    -0.350 NA 
HETATM   17  C   UNL     1      -8.206   6.400  64.486  1.00  0.00    -0.038 C  
HETATM   18  H   UNL     1      -9.720   7.739  64.629  1.00  0.00     0.000 HD 
HETATM   19  N   UNL     1      -6.911   5.939  64.537  1.00  0.00    -0.049 NA 
HETATM   20  C   UNL     1      -5.817   6.581  63.795  1.00  0.00    -0.030 C  
HETATM   21  H   UNL     1      -6.702   5.122  65.110  1.00  0.00     0.000 HD 
HETATM   22  C   UNL     1      -5.704   8.125  63.811  1.00  0.00    -0.061 C  
HETATM   23  O   UNL     1      -5.998   8.627  62.491  1.00  0.00    -0.083 OA 
HETATM   24  H   UNL     1      -5.463   8.191  61.838  1.00  0.00     0.000 HD 
ENDBRANCH   6  11
ENDBRANCH   2   4
TORSDOF 2
ENDMDL
MODEL      247
REMARK 921   NORMALIZED FREE ENERGY PREDICTED BY IDOCK:   -1.83 KCAL/MOL
REMARK 922        TOTAL FREE ENERGY PREDICTED BY IDOCK:   -2.73 KCAL/MOL
REMARK 923 INTER-LIGAND FREE ENERGY PREDICTED BY IDOCK:   -2.33 KCAL/MOL
REMARK 924 INTRA-LIGAND FREE ENERGY PREDICTED BY IDOCK:   -0.40 KCAL/MOL
REMARK 927      BINDING AFFINITY PREDICTED BY RF-SCORE:    0.00 PKD
ROOT
HETATM    1  O5* UNL     1     -12.269  16.347  67.406  1.00  0.00     0.875 OA 
HETATM    2  C5* UNL     1     -10.927  16.642  67.016  1.00  0.00     0.015 C  
HETATM    3  H5* UNL     1     -12.875  16.502  66.691  1.00  0.00     0.000 HD 
ENDROOT
BRANCH   2   4
HETATM    4  C4* UNL     1      -9.953  16.394  68.167  1.00  0.00    -0.242 C  
HETATM    5  O4* UNL     1      -9.698  14.982  68.290  1.00  0.00    -0.206 OA 
HETATM    6  C1* UNL     1      -8.365  14.827  68.812  1.00  0.00    -0.168 C  
HETATM    7  H3* UNL     1      -7.675  18.656  68.686  1.00  0.00     0.000 HD 
HETATM    8  C2* UNL     1      -7.572  16.049  68.368  1.00  0.00    -0.145 C  
HETATM    9  C3* UNL     1      -8.606  17.077  67.974  1.00  0.00    -0.217 C  
HETATM   10  O3* UNL     1      -8.515  18.231  68.807  1.00  0.00    -0.300 OA 
BRANCH   6  11
HETATM   11  N   UNL     1      -7.804  13.561  68.373  1.00  0.00    -0.139 NA 
HETATM   12  C   UNL     1      -6.931  12.764  69.060  1.00  0.00    -0.059 A  
HETATM   13  C   UNL     1      -7.295  11.800  67.190  1.00  0.00    -0.146 A  
HETATM   14  N   UNL     1      -6.605  11.689  68.378  1.00  0.00    -0.058 NA 
HETATM   15  C   UNL     1      -8.077  12.943  67.174  1.00  0.00    -0.117 A  
HETATM   16  N   UNL     1      -8.966  13.452  66.287  1.00  0.00    -0.458 NA 
HETATM   17  C   UNL     1      -9.682  12.587  65.651  1.00  0.00    -0.158 C  
HETATM   18  H   UNL     1      -9.062  14.455  66.131  1.00  0.00     0.000 HD 
HETATM   19  N   UNL     1      -9.708  11.211  65.681  1.00  0.00    -0.215 NA 
HETATM   20  C   UNL     1      -8.512  10.396  65.430  1.00  0.00    -0.168 C  
HETATM   21  H   UNL     1     -10.589  10.741  65.884  1.00  0.00     0.000 HD 
HETATM   22  C   UNL     1      -7.176  10.796  66.102  1.00  0.00    -0.126 C  
HETATM   23  O   UNL     1      -6.260  11.250  65.085  1.00  0.00    -0.300 OA 
HETATM   24  H   UNL     1      -6.183  10.608  64.388  1.00  0.00     0.000 HD 
ENDBRANCH   6  11
ENDBRANCH   2   4
TORSDOF 2
ENDMDL
MODEL      248
REMARK 921   NORMALIZED FREE ENERGY PREDICTED BY IDOCK:   -1.74 KCAL/MOL
REMARK 922        TOTAL FREE ENERGY PREDICTED BY IDOCK:   -2.64 KCAL/MOL
REMARK 923 INTER-LIGAND FREE ENERGY PREDICTED BY IDOCK:   -2.32 KCAL/MOL
REMARK 924 INTRA-LIGAND FREE ENERGY PREDICTED BY IDOCK:   -0.32 KCAL/MOL
REMARK 927      BINDING AFFINITY PREDICTED BY RF-SCORE:    0.00 PKD
ROOT
HETATM    1  O5* UNL     1      -5.542  13.617  67.619  1.00  0.00    -0.274 OA 
HETATM    2  C5* UNL     1      -6.854  14.179  67.631  1.00  0.00    -0.179 C  
HETATM    3  H5* UNL     1      -4.886  14.273  67.824  1.00  0.00     0.000 HD 
ENDROOT
BRANCH   2   4
HETATM    4  C4* UNL     1      -7.909  13.124  67.301  1.00  0.00    -0.117 C  
HETATM    5  O4* UNL     1      -7.263  11.872  67.001  1.00  0.00    -0.144 OA 
HETATM    6  C1* UNL     1      -8.166  10.818  67.385  1.00  0.00    -0.116 C  
HETATM    7  H3* UNL     1     -10.741  13.321  68.887  1.00  0.00     0.000 HD 
HETATM    8  C2* UNL     1      -9.027  11.364  68.517  1.00  0.00    -0.158 C  
HETATM    9  C3* UNL     1      -8.880  12.864  68.445  1.00  0.00    -0.120 C  
HETATM   10  O3* UNL     1     -10.136  13.483  68.174  1.00  0.00    -0.235 OA 
BRANCH   6  11
HETATM   11  N   UNL     1      -7.415   9.623  67.731  1.00  0.00    -0.087 NA 
HETATM   12  C   UNL     1      -6.109   9.556  68.128  1.00  0.00    -0.055 A  
HETATM   13  C   UNL     1      -6.836   7.550  68.085  1.00  0.00    -0.063 A  
HETATM   14  N   UNL     1      -5.726   8.320  68.355  1.00  0.00    -0.033 NA 
HETATM   15  C   UNL     1      -7.915   8.341  67.724  1.00  0.00    -0.122 A  
HETATM   16  N   UNL     1      -9.211   8.073  67.436  1.00  0.00    -0.132 NA 
HETATM   17  C   UNL     1      -9.751   7.116  68.113  1.00  0.00    -0.139 C  
HETATM   18  H   UNL     1      -9.727   8.595  66.728  1.00  0.00     0.000 HD 
HETATM   19  N   UNL     1      -9.251   6.276  69.081  1.00  0.00    -0.129 NA 
HETATM   20  C   UNL     1      -8.062   5.441  68.862  1.00  0.00    -0.094 C  
HETATM   21  H   UNL     1      -9.723   6.231  69.983  1.00  0.00     0.000 HD 
HETATM   22  C   UNL     1      -6.821   6.068  68.181  1.00  0.00    -0.070 C  
HETATM   23  O   UNL     1      -6.654   5.472  66.877  1.00  0.00    -0.052 OA 
HETATM   24  H   UNL     1      -6.644   4.524  66.938  1.00  0.00     0.000 HD 
ENDBRANCH   6  11
ENDBRANCH   2   4
TORSDOF 2
ENDMDL
MODEL      249
REMARK 921   NORMALIZED FREE ENERGY PREDICTED BY IDOCK:   -1.61 KCAL/MOL
REMARK 922        TOTAL FREE ENERGY PREDICTED BY IDOCK:   -2.49 KCAL/MOL
REMARK 923 INTER-LIGAND FREE ENERGY PREDICTED BY IDOCK:   -2.36 KCAL/MOL
REMARK 924 INTRA-LIGAND FREE ENERGY PREDICTED BY IDOCK:   -0.14 KCAL/MOL
REMARK 927      BINDING AFFINITY PREDICTED BY RF-SCORE:    0.00 PKD
ROOT
HETATM    1  O5* UNL     1      -5.868  13.451  67.268  1.00  0.00    -0.350 OA 
HETATM    2  C5* UNL     1      -7.267  13.444  67.556  1.00  0.00    -0.153 C  
HETATM    3  H5* UNL     1      -5.690  13.901  66.450  1.00  0.00     0.000 HD 
ENDROOT
BRANCH   2   4
HETATM    4  C4* UNL     1      -7.554  12.720  68.871  1.00  0.00     0.057 C  
HETATM    5  O4* UNL     1      -8.090  11.413  68.596  1.00  0.00    -0.142 OA 
HETATM    6  C1* UNL     1      -7.700  10.550  69.681  1.00  0.00    -0.110 C  
HETATM    7  H3* UNL     1      -5.550  13.328  71.360  1.00  0.00     0.000 HD 
HETATM    8  C2* UNL     1      -6.396  11.105  70.241  1.00  0.00    -0.097 C  
HETATM    9  C3* UNL     1      -6.316  12.525  69.735  1.00  0.00    -0.076 C  
HETATM   10  O3* UNL     1      -6.323  13.450  70.821  1.00  0.00    -0.008 OA 
BRANCH   6  11
HETATM   11  N   UNL     1      -7.610   9.176  69.215  1.00  0.00    -0.077 NA 
HETATM   12  C   UNL     1      -7.159   8.095  69.920  1.00  0.00    -0.059 A  
HETATM   13  C   UNL     1      -7.687   7.381  67.978  1.00  0.00    -0.116 A  
HETATM   14  N   UNL     1      -7.195   6.992  69.206  1.00  0.00    -0.083 NA 
HETATM   15  C   UNL     1      -7.985   8.734  67.967  1.00  0.00    -0.106 A  
HETATM   16  N   UNL     1      -8.540   9.559  67.047  1.00  0.00    -0.127 NA 
HETATM   17  C   UNL     1      -9.467   9.039  66.314  1.00  0.00    -0.242 C  
HETATM   18  H   UNL     1      -8.244  10.528  66.940  1.00  0.00     0.000 HD 
HETATM   19  N   UNL     1     -10.002   7.772  66.265  1.00  0.00    -0.467 NA 
HETATM   20  C   UNL     1      -9.176   6.575  66.058  1.00  0.00    -0.045 C  
HETATM   21  H   UNL     1     -11.009   7.661  66.378  1.00  0.00     0.000 HD 
HETATM   22  C   UNL     1      -7.852   6.431  66.848  1.00  0.00    -0.104 C  
HETATM   23  O   UNL     1      -6.747   6.534  65.928  1.00  0.00    -0.046 OA 
HETATM   24  H   UNL     1      -6.852   5.927  65.205  1.00  0.00     0.000 HD 
ENDBRANCH   6  11
ENDBRANCH   2   4
TORSDOF 2
ENDMDL
MODEL      250
REMARK 921   NORMALIZED FREE ENERGY PREDICTED BY IDOCK:   -1.56 KCAL/MOL
REMARK 922        TOTAL FREE ENERGY PREDICTED BY IDOCK:   -2.43 KCAL/MOL
REMARK 923 INTER-LIGAND FREE ENERGY PREDICTED BY IDOCK:   -2.18 KCAL/MOL
REMARK 924 INTRA-LIGAND FREE ENERGY PREDICTED BY IDOCK:   -0.25 KCAL/MOL
REMARK 927      BINDING AFFINITY PREDICTED BY RF-SCORE:    0.00 PKD
ROOT
HETATM    1  O5* UNL     1      -8.588  15.138  70.182  1.00  0.00    -0.287 OA 
HETATM    2  C5* UNL     1      -9.250  13.882  70.030  1.00  0.00     2.111 C  
HETATM    3  H5* UNL     1      -7.812  15.053  70.722  1.00  0.00     0.000 HD 
ENDROOT
BRANCH   2   4
HETATM    4  C4* UNL     1     -10.499  14.018  69.161  1.00  0.00    -0.086 C  
HETATM    5  O4* UNL     1     -10.691  15.400  68.803  1.00  0.00    -0.226 OA 
HETATM    6  C1* UNL     1     -11.349  15.427  67.523  1.00  0.00    -0.269 C  
HETATM    7  H3* UNL     1     -11.173  11.556  67.147  1.00  0.00     0.000 HD 
HETATM    8  C2* UNL     1     -10.948  14.151  66.793  1.00  0.00    -0.300 C  
HETATM    9  C3* UNL     1     -10.421  13.226  67.864  1.00  0.00    -0.240 C  
HETATM   10  O3* UNL     1     -11.222  12.050  67.956  1.00  0.00    -0.222 OA 
BRANCH   6  11
HETATM   11  N   UNL     1     -11.008  16.649  66.815  1.00  0.00    -0.024 NA 
HETATM   12  C   UNL     1     -11.237  16.930  65.497  1.00  0.00     0.319 A  
HETATM   13  C   UNL     1     -10.248  18.633  66.320  1.00  0.00    -0.427 A  
HETATM   14  N   UNL     1     -10.796  18.122  65.163  1.00  0.00    -0.577 NA 
HETATM   15  C   UNL     1     -10.396  17.747  67.375  1.00  0.00    -0.369 A  
HETATM   16  N   UNL     1     -10.094  17.810  68.694  1.00  0.00    -0.369 NA 
HETATM   17  C   UNL     1     -10.239  18.967  69.248  1.00  0.00     0.066 C  
HETATM   18  H   UNL     1      -9.773  16.996  69.216  1.00  0.00     0.000 HD 
HETATM   19  N   UNL     1     -10.629  20.187  68.746  1.00  0.00    -0.381 NA 
HETATM   20  C   UNL     1      -9.950  20.824  67.609  1.00  0.00    -0.157 C  
HETATM   21  H   UNL     1     -11.417  20.667  69.179  1.00  0.00     0.000 HD 
HETATM   22  C   UNL     1      -9.594  19.966  66.371  1.00  0.00    -0.431 C  
HETATM   23  O   UNL     1      -8.160  19.835  66.291  1.00  0.00    -0.314 OA 
HETATM   24  H   UNL     1      -7.741  20.688  66.324  1.00  0.00     0.000 HD 
ENDBRANCH   6  11
ENDBRANCH   2   4
TORSDOF 2
ENDMDL
MODEL      251
REMARK 921   NORMALIZED FREE ENERGY PREDICTED BY IDOCK:   -1.01 KCAL/MOL
REMARK 922        TOTAL FREE ENERGY PREDICTED BY IDOCK:   -1.82 KCAL/MOL
REMARK 923 INTER-LIGAND FREE ENERGY PREDICTED BY IDOCK:   -2.30 KCAL/MOL
REMARK 924 INTRA-LIGAND FREE ENERGY PREDICTED BY IDOCK:    0.48 KCAL/MOL
REMARK 927      BINDING AFFINITY PREDICTED BY RF-SCORE:    0.00 PKD
ROOT
HETATM    1  O5* UNL     1      -8.015   2.800  68.688  1.00  0.00    -0.053 OA 
HETATM    2  C5* UNL     1      -7.223   3.987  68.735  1.00  0.00    -0.055 C  
HETATM    3  H5* UNL     1      -7.692   2.200  68.026  1.00  0.00     0.000 HD 
ENDROOT
BRANCH   2   4
HETATM    4  C4* UNL     1      -7.741   4.954  69.799  1.00  0.00    -0.056 C  
HETATM    5  O4* UNL     1      -7.069   6.220  69.672  1.00  0.00    -0.068 OA 
HETATM    6  C1* UNL     1      -7.980   7.240  70.123  1.00  0.00    -0.112 C  
HETATM    7  H3* UNL     1     -10.873   4.687  70.635  1.00  0.00     0.000 HD 
HETATM    8  C2* UNL     1      -9.388   6.717  69.873  1.00  0.00    -0.153 C  
HETATM    9  C3* UNL     1      -9.235   5.226  69.689  1.00  0.00    -0.118 C  
HETATM   10  O3* UNL     1      -9.941   4.516  70.704  1.00  0.00    -0.212 OA 
BRANCH   6  11
HETATM   11  N   UNL     1      -7.685   8.498  69.458  1.00  0.00    -0.089 NA 
HETATM   12  C   UNL     1      -6.643   9.344  69.719  1.00  0.00    -0.045 A  
HETATM   13  C   UNL     1      -7.782  10.244  68.153  1.00  0.00    -0.092 A  
HETATM   14  N   UNL     1      -6.667  10.407  68.947  1.00  0.00    -0.056 NA 
HETATM   15  C   UNL     1      -8.418   9.045  68.429  1.00  0.00    -0.129 A  
HETATM   16  N   UNL     1      -9.486   8.411  67.890  1.00  0.00    -0.144 NA 
HETATM   17  C   UNL     1      -9.633   8.544  66.614  1.00  0.00    -0.227 C  
HETATM   18  H   UNL     1     -10.134   7.863  68.455  1.00  0.00     0.000 HD 
HETATM   19  N   UNL     1      -8.911   9.240  65.671  1.00  0.00    -0.185 NA 
HETATM   20  C   UNL     1      -8.649  10.680  65.785  1.00  0.00    -0.181 C  
HETATM   21  H   UNL     1      -8.545   8.736  64.864  1.00  0.00     0.000 HD 
HETATM   22  C   UNL     1      -8.202  11.256  67.151  1.00  0.00    -0.149 C  
HETATM   23  O   UNL     1      -9.258  12.087  67.675  1.00  0.00    -0.172 OA 
HETATM   24  H   UNL     1      -9.527  12.735  67.034  1.00  0.00     0.000 HD 
ENDBRANCH   6  11
ENDBRANCH   2   4
TORSDOF 2
ENDMDL
MODEL      252
REMARK 921   NORMALIZED FREE ENERGY PREDICTED BY IDOCK:   -0.81 KCAL/MOL
REMARK 922        TOTAL FREE ENERGY PREDICTED BY IDOCK:   -1.59 KCAL/MOL
REMARK 923 INTER-LIGAND FREE ENERGY PREDICTED BY IDOCK:   -1.57 KCAL/MOL
REMARK 924 INTRA-LIGAND FREE ENERGY PREDICTED BY IDOCK:   -0.03 KCAL/MOL
REMARK 927      BINDING AFFINITY PREDICTED BY RF-SCORE:    0.00 PKD
ROOT
HETATM    1  O5* UNL     1      -9.319   2.471  67.887  1.00  0.00    -0.193 OA 
HETATM    2  C5* UNL     1      -9.911   3.770  67.882  1.00  0.00     0.201 C  
HETATM    3  H5* UNL     1      -9.919   1.823  68.238  1.00  0.00     0.000 HD 
ENDROOT
BRANCH   2   4
HETATM    4  C4* UNL     1      -8.947   4.813  67.318  1.00  0.00    -0.112 C  
HETATM    5  O4* UNL     1      -9.164   6.076  67.973  1.00  0.00    -0.117 OA 
HETATM    6  C1* UNL     1      -7.906   6.778  67.984  1.00  0.00    -0.113 C  
HETATM    7  H3* UNL     1      -6.002   3.766  66.418  1.00  0.00     0.000 HD 
HETATM    8  C2* UNL     1      -6.810   5.721  67.978  1.00  0.00    -0.064 C  
HETATM    9  C3* UNL     1      -7.482   4.449  67.519  1.00  0.00    -0.073 C  
HETATM   10  O3* UNL     1      -6.916   3.992  66.293  1.00  0.00    -0.060 OA 
BRANCH   6  11
HETATM   11  N   UNL     1      -7.854   7.684  69.119  1.00  0.00    -0.116 NA 
HETATM   12  C   UNL     1      -8.122   9.025  69.117  1.00  0.00    -0.109 A  
HETATM   13  C   UNL     1      -7.579   8.515  71.117  1.00  0.00    -0.096 A  
HETATM   14  N   UNL     1      -7.971   9.559  70.308  1.00  0.00    -0.162 NA 
HETATM   15  C   UNL     1      -7.529   7.327  70.408  1.00  0.00    -0.083 A  
HETATM   16  N   UNL     1      -7.271   6.043  70.756  1.00  0.00    -0.075 NA 
HETATM   17  C   UNL     1      -7.695   5.682  71.921  1.00  0.00    -0.105 C  
HETATM   18  H   UNL     1      -6.774   5.403  70.137  1.00  0.00     0.000 HD 
HETATM   19  N   UNL     1      -8.354   6.367  72.915  1.00  0.00    -0.117 NA 
HETATM   20  C   UNL     1      -7.829   7.609  73.498  1.00  0.00    -0.132 C  
HETATM   21  H   UNL     1      -9.241   6.000  73.259  1.00  0.00     0.000 HD 
HETATM   22  C   UNL     1      -7.260   8.698  72.556  1.00  0.00     0.036 C  
HETATM   23  O   UNL     1      -5.834   8.790  72.757  1.00  0.00    -0.077 OA 
HETATM   24  H   UNL     1      -5.630   8.907  73.678  1.00  0.00     0.000 HD 
ENDBRANCH   6  11
ENDBRANCH   2   4
TORSDOF 2
ENDMDL
MODEL      253
REMARK 921   NORMALIZED FREE ENERGY PREDICTED BY IDOCK:    4.87 KCAL/MOL
REMARK 922        TOTAL FREE ENERGY PREDICTED BY IDOCK:    4.75 KCAL/MOL
REMARK 923 INTER-LIGAND FREE ENERGY PREDICTED BY IDOCK:    4.31 KCAL/MOL
REMARK 924 INTRA-LIGAND FREE ENERGY PREDICTED BY IDOCK:    0.44 KCAL/MOL
REMARK 927      BINDING AFFINITY PREDICTED BY RF-SCORE:    0.00 PKD
ROOT
HETATM    1  O5* UNL     1     -11.904   4.603  70.111  1.00  0.00     4.465 OA 
HETATM    2  C5* UNL     1     -11.953   5.190  71.411  1.00  0.00     1.814 C  
HETATM    3  H5* UNL     1     -12.777   4.476  69.759  1.00  0.00     0.000 HD 
ENDROOT
BRANCH   2   4
HETATM    4  C4* UNL     1     -10.549   5.395  71.977  1.00  0.00    -0.224 C  
HETATM    5  O4* UNL     1      -9.577   4.842  71.071  1.00  0.00    -0.153 OA 
HETATM    6  C1* UNL     1      -8.366   5.609  71.215  1.00  0.00    -0.127 C  
HETATM    7  H3* UNL     1     -10.029   8.110  73.691  1.00  0.00     0.000 HD 
HETATM    8  C2* UNL     1      -8.779   7.006  71.660  1.00  0.00    -0.116 C  
HETATM    9  C3* UNL     1     -10.189   6.861  72.180  1.00  0.00    -0.193 C  
HETATM   10  O3* UNL     1     -10.254   7.196  73.565  1.00  0.00    -0.279 OA 
BRANCH   6  11
HETATM   11  N   UNL     1      -7.609   5.579  69.975  1.00  0.00    -0.076 NA 
HETATM   12  C   UNL     1      -6.739   4.608  69.564  1.00  0.00    -0.044 A  
HETATM   13  C   UNL     1      -6.755   6.099  68.036  1.00  0.00    -0.064 A  
HETATM   14  N   UNL     1      -6.207   4.886  68.395  1.00  0.00    -0.030 NA 
HETATM   15  C   UNL     1      -7.658   6.538  68.989  1.00  0.00    -0.100 A  
HETATM   16  N   UNL     1      -8.485   7.608  69.066  1.00  0.00    -0.132 NA 
HETATM   17  C   UNL     1      -9.011   7.992  67.951  1.00  0.00    -0.129 C  
HETATM   18  H   UNL     1      -8.680   8.080  69.948  1.00  0.00     0.000 HD 
HETATM   19  N   UNL     1      -8.877   7.531  66.662  1.00  0.00    -0.139 NA 
HETATM   20  C   UNL     1      -7.571   7.415  65.999  1.00  0.00    -0.088 C  
HETATM   21  H   UNL     1      -9.714   7.260  66.148  1.00  0.00     0.000 HD 
HETATM   22  C   UNL     1      -6.385   6.800  66.780  1.00  0.00    -0.042 C  
HETATM   23  O   UNL     1      -5.411   7.832  67.038  1.00  0.00    -0.030 OA 
HETATM   24  H   UNL     1      -5.174   8.281  66.234  1.00  0.00     0.000 HD 
ENDBRANCH   6  11
ENDBRANCH   2   4
TORSDOF 2
ENDMDL
MODEL      254
REMARK 921   NORMALIZED FREE ENERGY PREDICTED BY IDOCK:    7.68 KCAL/MOL
REMARK 922        TOTAL FREE ENERGY PREDICTED BY IDOCK:    7.89 KCAL/MOL
REMARK 923 INTER-LIGAND FREE ENERGY PREDICTED BY IDOCK:    7.31 KCAL/MOL
REMARK 924 INTRA-LIGAND FREE ENERGY PREDICTED BY IDOCK:    0.58 KCAL/MOL
REMARK 927      BINDING AFFINITY PREDICTED BY RF-SCORE:    0.00 PKD
ROOT
HETATM    1  O5* UNL     1     -12.734  14.321  66.817  1.00  0.00    -0.510 OA 
HETATM    2  C5* UNL     1     -12.210  15.593  66.435  1.00  0.00     1.157 C  
HETATM    3  H5* UNL     1     -12.875  13.767  66.059  1.00  0.00     0.000 HD 
ENDROOT
BRANCH   2   4
HETATM    4  C4* UNL     1     -11.983  16.485  67.655  1.00  0.00     0.998 C  
HETATM    5  O4* UNL     1     -10.683  16.218  68.214  1.00  0.00    -0.292 OA 
HETATM    6  C1* UNL     1     -10.219  17.436  68.826  1.00  0.00    -0.361 C  
HETATM    7  H3* UNL     1     -13.305  19.455  67.580  1.00  0.00     0.000 HD 
HETATM    8  C2* UNL     1     -10.874  18.587  68.074  1.00  0.00    -0.161 C  
HETATM    9  C3* UNL     1     -12.037  17.972  67.334  1.00  0.00     3.173 C  
HETATM   10  O3* UNL     1     -13.272  18.528  67.780  1.00  0.00     5.748 OA 
BRANCH   6  11
HETATM   11  N   UNL     1      -8.766  17.472  68.822  1.00  0.00    -0.255 NA 
HETATM   12  C   UNL     1      -7.915  16.407  68.929  1.00  0.00    -0.236 A  
HETATM   13  C   UNL     1      -6.694  18.151  68.780  1.00  0.00    -0.245 A  
HETATM   14  N   UNL     1      -6.655  16.779  68.903  1.00  0.00    -0.177 NA 
HETATM   15  C   UNL     1      -7.999  18.607  68.694  1.00  0.00    -0.327 A  
HETATM   16  N   UNL     1      -8.548  19.830  68.502  1.00  0.00    -0.278 NA 
HETATM   17  C   UNL     1      -7.900  20.618  67.710  1.00  0.00    -0.125 C  
HETATM   18  H   UNL     1      -9.418  20.111  68.953  1.00  0.00     0.000 HD 
HETATM   19  N   UNL     1      -6.718  20.466  67.023  1.00  0.00    -0.236 NA 
HETATM   20  C   UNL     1      -5.459  20.110  67.689  1.00  0.00    -0.183 C  
HETATM   21  H   UNL     1      -6.717  20.604  66.013  1.00  0.00     0.000 HD 
HETATM   22  C   UNL     1      -5.464  18.984  68.751  1.00  0.00    -0.197 C  
HETATM   23  O   UNL     1      -5.208  19.564  70.047  1.00  0.00    -0.188 OA 
HETATM   24  H   UNL     1      -4.421  20.096  70.029  1.00  0.00     0.000 HD 
ENDBRANCH   6  11
ENDBRANCH   2   4
TORSDOF 2
ENDMDL
MODEL      255
REMARK 921   NORMALIZED FREE ENERGY PREDICTED BY IDOCK:   51.77 KCAL/MOL
REMARK 922        TOTAL FREE ENERGY PREDICTED BY IDOCK:   57.13 KCAL/MOL
REMARK 923 INTER-LIGAND FREE ENERGY PREDICTED BY IDOCK:   57.52 KCAL/MOL
REMARK 924 INTRA-LIGAND FREE ENERGY PREDICTED BY IDOCK:   -0.39 KCAL/MOL
REMARK 927      BINDING AFFINITY PREDICTED BY RF-SCORE:    0.00 PKD
ROOT
HETATM    1  O5* UNL     1     -12.871  10.808  70.212  1.00  0.00    -0.317 OA 
HETATM    2  C5* UNL     1     -14.094  11.411  69.786  1.00  0.00     5.614 C  
HETATM    3  H5* UNL     1     -12.946  10.471  71.096  1.00  0.00     0.000 HD 
ENDROOT
BRANCH   2   4
HETATM    4  C4* UNL     1     -13.974  11.954  68.363  1.00  0.00    10.749 C  
HETATM    5  O4* UNL     1     -13.505  13.315  68.403  1.00  0.00     3.155 OA 
HETATM    6  C1* UNL     1     -12.759  13.550  67.193  1.00  0.00     0.584 C  
HETATM    7  H3* UNL     1     -13.100   9.846  66.045  1.00  0.00     0.000 HD 
HETATM    8  C2* UNL     1     -12.189  12.207  66.757  1.00  0.00     0.318 C  
HETATM    9  C3* UNL     1     -12.997  11.169  67.498  1.00  0.00     5.751 C  
HETATM   10  O3* UNL     1     -13.709  10.336  66.585  1.00  0.00    14.494 OA 
BRANCH   6  11
HETATM   11  N   UNL     1     -11.757  14.577  67.420  1.00  0.00    -0.388 NA 
HETATM   12  C   UNL     1     -10.451  14.390  67.780  1.00  0.00    -0.245 A  
HETATM   13  C   UNL     1     -10.748  16.499  67.640  1.00  0.00    -0.311 A  
HETATM   14  N   UNL     1      -9.810  15.528  67.917  1.00  0.00    -0.216 NA 
HETATM   15  C   UNL     1     -11.963  15.932  67.295  1.00  0.00     0.751 A  
HETATM   16  N   UNL     1     -13.147  16.445  66.883  1.00  0.00     4.230 NA 
HETATM   17  C   UNL     1     -13.074  17.488  66.125  1.00  0.00    10.539 C  
HETATM   18  H   UNL     1     -14.040  16.034  67.154  1.00  0.00     0.000 HD 
HETATM   19  N   UNL     1     -12.003  18.215  65.658  1.00  0.00     3.245 NA 
HETATM   20  C   UNL     1     -11.000  18.804  66.555  1.00  0.00     0.076 C  
HETATM   21  H   UNL     1     -11.902  18.349  64.653  1.00  0.00     0.000 HD 
HETATM   22  C   UNL     1     -10.441  17.950  67.720  1.00  0.00    -0.400 C  
HETATM   23  O   UNL     1     -10.905  18.503  68.968  1.00  0.00    -0.106 OA 
HETATM   24  H   UNL     1     -10.709  19.432  69.020  1.00  0.00     0.000 HD 
ENDBRANCH   6  11
ENDBRANCH   2   4
TORSDOF 2
ENDMDL
